MODEL 1
REMARK VINA RESULT:     -14.1      0.000      0.000
REMARK SMILES Cc1ccc(C(=O)NC2CC2)cc1NC(=O)[C@@H]1[C@@H](C(=O)NCCCCNC(=O)c2ccc(-c3c4nc(c(-c5cc(S(=O)(=O)[O-])ccc5F)c5ccc([nH]5)c(-c5cc(S(=O)(=O)[O-])ccc5F)c5nc(c(-c6cc(S(=O)(=O)[O-])ccc6F)c6ccc3[nH]6)C=C5)C=C4)cc2)[C@H]2C=C[C@@H]1C2
REMARK SMILES IDX 23 1 22 2 21 3 19 4 20 5 18 7 17 8 95 9 92 10 94 11 96 12
REMARK SMILES IDX 93 13 15 14 14 15 16 17 13 18 1 19 2 20 3 21 4 22 12 23 5 24
REMARK SMILES IDX 6 25 7 26 8 27 9 29 10 30 11 31 24 32 25 33 26 34 27 35
REMARK SMILES IDX 28 37 29 38 30 39 91 40 31 41 90 42 32 43 33 44 34 45 84 46
REMARK SMILES IDX 35 47 89 48 83 49 85 50 36 51 88 52 82 53 81 54 37 56 69 57
REMARK SMILES IDX 49 58 68 59 50 60 53 61 67 62 86 63 51 64 52 65 66 67 87 68
REMARK SMILES IDX 54 69 38 70 39 71 47 72 40 73 46 74 48 75 45 76 41 77 42 78
REMARK SMILES IDX 43 79 44 80 70 81 71 82 79 83 72 84 78 85 80 86 77 87 73 88
REMARK SMILES IDX 74 89 75 90 76 91 55 92 56 93 64 94 57 95 63 96 65 97 62 98
REMARK SMILES IDX 58 99 59 100 60 101 61 102
REMARK H PARENT 21 6 14 16 8 28 26 36 85 55 53 66
REMARK Flexibility Score: inf
ROOT
ATOM      1  C   UNL A   1      31.982  30.096  26.952  1.00  0.00     0.023 C 
ENDROOT
BRANCH   1   2
ATOM      2  C   UNL A   1      32.094  29.370  25.609  1.00  0.00     0.116 C 
BRANCH   2   3
ATOM      3  N   UNL A   1      33.037  28.263  25.662  1.00  0.00    -0.356 N 
ATOM      4  C   UNL A   1      32.902  26.930  25.480  1.00  0.00     0.224 C 
ATOM      5  O   UNL A   1      33.926  26.261  25.690  1.00  0.00    -0.275 OA
ATOM      6  H   UNL A   1      33.957  28.540  25.872  1.00  0.00     0.163 HD
BRANCH   4   7
ATOM      7  C   UNL A   1      31.586  26.217  25.165  1.00  0.00     0.098 C 
ATOM      8  C   UNL A   1      31.866  24.655  25.106  1.00  0.00     0.099 C 
ATOM      9  C   UNL A   1      31.145  24.220  23.803  1.00  0.00     0.025 C 
ATOM     10  C   UNL A   1      30.866  26.440  23.816  1.00  0.00     0.025 C 
ATOM     11  C   UNL A   1      31.926  24.775  22.634  1.00  0.00    -0.027 C 
ATOM     12  C   UNL A   1      29.971  25.194  23.759  1.00  0.00     0.017 C 
ATOM     13  C   UNL A   1      31.781  26.108  22.660  1.00  0.00    -0.027 C 
BRANCH   8  14
ATOM     14  C   UNL A   1      31.382  23.867  26.312  1.00  0.00     0.228 C 
ATOM     15  N   UNL A   1      31.740  22.556  26.514  1.00  0.00    -0.326 N 
ATOM     16  H   UNL A   1      31.306  22.153  27.300  1.00  0.00     0.169 HD
ATOM     17  O   UNL A   1      30.581  24.348  27.121  1.00  0.00    -0.274 OA
BRANCH  15  18
ATOM     18  C   UNL A   1      32.597  21.665  25.832  1.00  0.00     0.044 A 
ATOM     19  C   UNL A   1      34.668  22.875  26.792  1.00  0.00     0.046 C 
ATOM     20  C   UNL A   1      33.991  21.776  26.017  1.00  0.00    -0.027 A 
ATOM     21  C   UNL A   1      34.832  20.819  25.424  1.00  0.00     0.006 A 
ATOM     22  C   UNL A   1      34.309  19.777  24.660  1.00  0.00     0.014 A 
ATOM     23  C   UNL A   1      32.112  20.681  24.952  1.00  0.00     0.040 A 
ATOM     24  C   UNL A   1      32.936  19.695  24.396  1.00  0.00     0.041 A 
BRANCH  24  25
ATOM     25  C   UNL A   1      32.488  18.556  23.526  1.00  0.00     0.251 C 
ATOM     26  O   UNL A   1      32.253  18.792  22.337  1.00  0.00    -0.269 OA
ATOM     27  N   UNL A   1      32.344  17.252  23.949  1.00  0.00    -0.349 N 
ATOM     28  H   UNL A   1      32.076  16.624  23.240  1.00  0.00     0.164 HD
BRANCH  27  29
ATOM     29  C   UNL A   1      32.514  16.653  25.223  1.00  0.00     0.082 C 
ATOM     30  C   UNL A   1      32.740  15.170  25.325  1.00  0.00     0.027 C 
ATOM     31  C   UNL A   1      33.839  16.120  25.691  1.00  0.00     0.027 C 
ENDBRANCH  27  29
ENDBRANCH  24  25
ENDBRANCH  15  18
ENDBRANCH   8  14
ENDBRANCH   4   7
ENDBRANCH   2   3
ENDBRANCH   1   2
BRANCH   1  32
ATOM     32  C   UNL A   1      33.058  31.150  27.204  1.00  0.00     0.023 C 
BRANCH  32  33
ATOM     33  C   UNL A   1      34.385  30.597  27.714  1.00  0.00     0.116 C 
BRANCH  33  34
ATOM     34  N   UNL A   1      35.049  31.426  28.709  1.00  0.00    -0.352 N 
ATOM     35  C   UNL A   1      36.155  31.129  29.497  1.00  0.00     0.251 C 
ATOM     36  H   UNL A   1      34.661  32.321  28.842  1.00  0.00     0.163 HD
ATOM     37  O   UNL A   1      36.546  31.886  30.361  1.00  0.00    -0.269 OA
BRANCH  35  38
ATOM     38  C   UNL A   1      36.949  29.914  29.168  1.00  0.00     0.039 A 
ATOM     39  C   UNL A   1      37.203  29.019  30.215  1.00  0.00     0.014 A 
ATOM     40  C   UNL A   1      37.617  29.785  27.955  1.00  0.00     0.014 A 
ATOM     41  C   UNL A   1      38.294  28.160  30.130  1.00  0.00     0.010 A 
ATOM     42  C   UNL A   1      38.755  29.000  27.903  1.00  0.00     0.010 A 
ATOM     43  C   UNL A   1      39.131  28.241  29.016  1.00  0.00    -0.014 A 
BRANCH  43  44
ATOM     44  C   UNL A   1      40.488  27.705  29.010  1.00  0.00     0.031 A 
ATOM     45  C   UNL A   1      40.769  26.329  28.563  1.00  0.00     0.074 A 
ATOM     46  C   UNL A   1      41.515  28.494  29.398  1.00  0.00     0.049 A 
ATOM     47  N   UNL A   1      41.753  25.610  28.990  1.00  0.00    -0.248 NA
ATOM     48  C   UNL A   1      39.922  25.636  27.603  1.00  0.00     0.031 C 
ATOM     49  C   UNL A   1      42.943  28.233  29.249  1.00  0.00     0.029 A 
ATOM     50  N   UNL A   1      41.454  29.605  30.227  1.00  0.00    -0.354 N 
ATOM     51  C   UNL A   1      41.854  24.513  28.166  1.00  0.00     0.074 A 
ATOM     52  C   UNL A   1      40.645  24.534  27.373  1.00  0.00     0.031 C 
ATOM     53  C   UNL A   1      43.615  28.984  30.137  1.00  0.00     0.029 A 
ATOM     54  C   UNL A   1      42.634  29.649  30.978  1.00  0.00     0.049 A 
ATOM     55  H   UNL A   1      40.712  30.250  30.277  1.00  0.00     0.167 HD
ATOM     56  C   UNL A   1      43.016  23.797  28.125  1.00  0.00     0.034 A 
ATOM     57  C   UNL A   1      42.597  29.593  32.342  1.00  0.00     0.034 A 
ATOM     58  C   UNL A   1      44.010  24.320  29.064  1.00  0.00     0.049 A 
ATOM     59  C   UNL A   1      43.306  28.386  32.915  1.00  0.00     0.074 A 
ATOM     60  C   UNL A   1      45.116  25.138  28.890  1.00  0.00     0.029 A 
ATOM     61  N   UNL A   1      43.789  24.246  30.436  1.00  0.00    -0.354 N 
ATOM     62  N   UNL A   1      43.650  27.340  32.213  1.00  0.00    -0.248 NA
ATOM     63  C   UNL A   1      43.663  28.252  34.324  1.00  0.00     0.031 C 
ATOM     64  C   UNL A   1      45.514  25.615  30.164  1.00  0.00     0.029 A 
ATOM     65  C   UNL A   1      44.674  25.063  31.116  1.00  0.00     0.049 A 
ATOM     66  H   UNL A   1      43.097  23.690  30.863  1.00  0.00     0.167 HD
ATOM     67  C   UNL A   1      44.224  26.403  33.035  1.00  0.00     0.074 A 
ATOM     68  C   UNL A   1      44.237  27.037  34.343  1.00  0.00     0.031 C 
ATOM     69  C   UNL A   1      44.624  25.183  32.567  1.00  0.00     0.034 A 
BRANCH  56  70
ATOM     70  C   UNL A   1      43.368  22.857  26.989  1.00  0.00     0.023 A 
ATOM     71  C   UNL A   1      42.842  21.547  26.987  1.00  0.00     0.031 A 
ATOM     72  C   UNL A   1      44.240  23.155  25.926  1.00  0.00     0.131 A 
ATOM     73  C   UNL A   1      43.279  20.579  26.063  1.00  0.00     0.055 A 
ATOM     74  C   UNL A   1      44.726  22.178  25.045  1.00  0.00     0.041 A 
ATOM     75  F   UNL A   1      44.618  24.414  25.662  1.00  0.00    -0.206 F 
ATOM     76  C   UNL A   1      44.260  20.875  25.123  1.00  0.00     0.022 A 
BRANCH  73  77
ATOM     77  S   UNL A   1      42.537  18.924  26.104  1.00  0.00     0.124 S 
ATOM     78  O   UNL A   1      41.166  19.189  25.680  1.00  0.00    -0.237 OA
ATOM     79  O   UNL A   1      43.375  18.187  25.164  1.00  0.00    -0.237 OA
ATOM     80  O   UNL A   1      42.684  18.523  27.504  1.00  0.00    -0.744 OA
ENDBRANCH  73  77
ENDBRANCH  56  70
BRANCH  57  81
ATOM     81  C   UNL A   1      41.385  30.241  32.923  1.00  0.00     0.023 A 
ATOM     82  C   UNL A   1      41.355  31.652  32.923  1.00  0.00     0.031 A 
ATOM     83  C   UNL A   1      40.172  29.558  33.077  1.00  0.00     0.131 A 
ATOM     84  C   UNL A   1      40.132  32.333  32.885  1.00  0.00     0.055 A 
ATOM     85  C   UNL A   1      38.953  30.247  33.120  1.00  0.00     0.041 A 
ATOM     86  F   UNL A   1      40.132  28.218  33.056  1.00  0.00    -0.206 F 
ATOM     87  C   UNL A   1      38.926  31.636  32.974  1.00  0.00     0.022 A 
BRANCH  84  88
ATOM     88  S   UNL A   1      40.127  34.089  32.416  1.00  0.00     0.124 S 
ATOM     89  O   UNL A   1      39.408  34.072  31.149  1.00  0.00    -0.237 OA
ATOM     90  O   UNL A   1      39.431  34.726  33.532  1.00  0.00    -0.237 OA
ATOM     91  O   UNL A   1      41.547  34.426  32.337  1.00  0.00    -0.744 OA
ENDBRANCH  84  88
ENDBRANCH  57  81
BRANCH  69  92
ATOM     92  C   UNL A   1      45.102  24.029  33.422  1.00  0.00     0.023 A 
ATOM     93  C   UNL A   1      46.421  23.906  33.884  1.00  0.00     0.031 A 
ATOM     94  C   UNL A   1      44.201  23.032  33.870  1.00  0.00     0.131 A 
ATOM     95  C   UNL A   1      46.823  22.800  34.654  1.00  0.00     0.055 A 
ATOM     96  C   UNL A   1      44.585  21.977  34.704  1.00  0.00     0.041 A 
ATOM     97  F   UNL A   1      42.906  23.041  33.518  1.00  0.00    -0.206 F 
ATOM     98  C   UNL A   1      45.910  21.843  35.086  1.00  0.00     0.022 A 
BRANCH  95  99
ATOM     99  S   UNL A   1      48.588  22.602  35.015  1.00  0.00     0.124 S 
ATOM    100  O   UNL A   1      48.607  22.676  36.473  1.00  0.00    -0.237 OA
ATOM    101  O   UNL A   1      48.881  21.291  34.443  1.00  0.00    -0.237 OA
ATOM    102  O   UNL A   1      49.210  23.733  34.330  1.00  0.00    -0.744 OA
ENDBRANCH  95  99
ENDBRANCH  69  92
ENDBRANCH  43  44
ENDBRANCH  35  38
ENDBRANCH  33  34
ENDBRANCH  32  33
ENDBRANCH   1  32
TORSDOF 18
ENDMDL
MODEL 2
REMARK VINA RESULT:     -13.3      2.486      3.610
REMARK SMILES Cc1ccc(C(=O)NC2CC2)cc1NC(=O)[C@@H]1[C@@H](C(=O)NCCCCNC(=O)c2ccc(-c3c4nc(c(-c5cc(S(=O)(=O)[O-])ccc5F)c5ccc([nH]5)c(-c5cc(S(=O)(=O)[O-])ccc5F)c5nc(c(-c6cc(S(=O)(=O)[O-])ccc6F)c6ccc3[nH]6)C=C5)C=C4)cc2)[C@H]2C=C[C@@H]1C2
REMARK SMILES IDX 23 1 22 2 21 3 19 4 20 5 18 7 17 8 95 9 92 10 94 11 96 12
REMARK SMILES IDX 93 13 15 14 14 15 16 17 13 18 1 19 2 20 3 21 4 22 12 23 5 24
REMARK SMILES IDX 6 25 7 26 8 27 9 29 10 30 11 31 24 32 25 33 26 34 27 35
REMARK SMILES IDX 28 37 29 38 30 39 91 40 31 41 90 42 32 43 33 44 34 45 84 46
REMARK SMILES IDX 35 47 89 48 83 49 85 50 36 51 88 52 82 53 81 54 37 56 69 57
REMARK SMILES IDX 49 58 68 59 50 60 53 61 67 62 86 63 51 64 52 65 66 67 87 68
REMARK SMILES IDX 54 69 38 70 39 71 47 72 40 73 46 74 48 75 45 76 41 77 42 78
REMARK SMILES IDX 43 79 44 80 70 81 71 82 79 83 72 84 78 85 80 86 77 87 73 88
REMARK SMILES IDX 74 89 75 90 76 91 55 92 56 93 64 94 57 95 63 96 65 97 62 98
REMARK SMILES IDX 58 99 59 100 60 101 61 102
REMARK H PARENT 21 6 14 16 8 28 26 36 85 55 53 66
REMARK Flexibility Score: inf
ROOT
ATOM      1  C   UNL A   1      32.634  30.284  27.134  1.00  0.00     0.023 C 
ENDROOT
BRANCH   1   2
ATOM      2  C   UNL A   1      32.017  28.915  26.840  1.00  0.00     0.116 C 
BRANCH   2   3
ATOM      3  N   UNL A   1      33.000  27.969  26.333  1.00  0.00    -0.356 N 
ATOM      4  C   UNL A   1      32.891  26.782  25.695  1.00  0.00     0.224 C 
ATOM      5  O   UNL A   1      33.963  26.196  25.481  1.00  0.00    -0.275 OA
ATOM      6  H   UNL A   1      33.931  28.250  26.485  1.00  0.00     0.163 HD
BRANCH   4   7
ATOM      7  C   UNL A   1      31.571  26.092  25.346  1.00  0.00     0.098 C 
ATOM      8  C   UNL A   1      31.840  24.533  25.218  1.00  0.00     0.099 C 
ATOM      9  C   UNL A   1      31.118  24.162  23.896  1.00  0.00     0.025 C 
ATOM     10  C   UNL A   1      30.853  26.381  24.008  1.00  0.00     0.025 C 
ATOM     11  C   UNL A   1      31.904  24.764  22.754  1.00  0.00    -0.027 C 
ATOM     12  C   UNL A   1      29.950  25.144  23.895  1.00  0.00     0.017 C 
ATOM     13  C   UNL A   1      31.767  26.095  22.840  1.00  0.00    -0.027 C 
BRANCH   8  14
ATOM     14  C   UNL A   1      31.349  23.695  26.387  1.00  0.00     0.228 C 
ATOM     15  N   UNL A   1      31.718  22.381  26.544  1.00  0.00    -0.326 N 
ATOM     16  H   UNL A   1      31.279  21.943  27.308  1.00  0.00     0.169 HD
ATOM     17  O   UNL A   1      30.534  24.137  27.203  1.00  0.00    -0.274 OA
BRANCH  15  18
ATOM     18  C   UNL A   1      32.592  21.524  25.839  1.00  0.00     0.044 A 
ATOM     19  C   UNL A   1      34.638  22.795  26.775  1.00  0.00     0.046 C 
ATOM     20  C   UNL A   1      33.985  21.680  26.001  1.00  0.00    -0.027 A 
ATOM     21  C   UNL A   1      34.847  20.757  25.385  1.00  0.00     0.006 A 
ATOM     22  C   UNL A   1      34.345  19.704  24.620  1.00  0.00     0.014 A 
ATOM     23  C   UNL A   1      32.125  20.533  24.958  1.00  0.00     0.040 A 
ATOM     24  C   UNL A   1      32.971  19.579  24.379  1.00  0.00     0.041 A 
BRANCH  24  25
ATOM     25  C   UNL A   1      32.547  18.434  23.506  1.00  0.00     0.251 C 
ATOM     26  O   UNL A   1      32.337  18.662  22.310  1.00  0.00    -0.269 OA
ATOM     27  N   UNL A   1      32.397  17.133  23.933  1.00  0.00    -0.349 N 
ATOM     28  H   UNL A   1      32.146  16.500  23.222  1.00  0.00     0.164 HD
BRANCH  27  29
ATOM     29  C   UNL A   1      32.540  16.542  25.214  1.00  0.00     0.082 C 
ATOM     30  C   UNL A   1      32.716  15.053  25.332  1.00  0.00     0.027 C 
ATOM     31  C   UNL A   1      33.844  15.971  25.695  1.00  0.00     0.027 C 
ENDBRANCH  27  29
ENDBRANCH  24  25
ENDBRANCH  15  18
ENDBRANCH   8  14
ENDBRANCH   4   7
ENDBRANCH   2   3
ENDBRANCH   1   2
BRANCH   1  32
ATOM     32  C   UNL A   1      34.081  30.247  27.622  1.00  0.00     0.023 C 
BRANCH  32  33
ATOM     33  C   UNL A   1      34.772  31.607  27.672  1.00  0.00     0.116 C 
BRANCH  33  34
ATOM     34  N   UNL A   1      33.984  32.668  28.282  1.00  0.00    -0.352 N 
ATOM     35  C   UNL A   1      34.278  33.443  29.398  1.00  0.00     0.251 C 
ATOM     36  H   UNL A   1      33.124  32.863  27.845  1.00  0.00     0.163 HD
ATOM     37  O   UNL A   1      33.479  34.233  29.855  1.00  0.00    -0.269 OA
BRANCH  35  38
ATOM     38  C   UNL A   1      35.660  33.391  29.948  1.00  0.00     0.039 A 
ATOM     39  C   UNL A   1      36.669  33.997  29.187  1.00  0.00     0.014 A 
ATOM     40  C   UNL A   1      35.987  32.576  31.026  1.00  0.00     0.014 A 
ATOM     41  C   UNL A   1      37.989  33.590  29.355  1.00  0.00     0.010 A 
ATOM     42  C   UNL A   1      37.282  32.102  31.133  1.00  0.00     0.010 A 
ATOM     43  C   UNL A   1      38.268  32.559  30.252  1.00  0.00    -0.014 A 
BRANCH  43  44
ATOM     44  C   UNL A   1      39.508  31.791  30.208  1.00  0.00     0.031 A 
ATOM     45  C   UNL A   1      39.572  30.471  29.553  1.00  0.00     0.074 A 
ATOM     46  C   UNL A   1      40.629  32.309  30.756  1.00  0.00     0.049 A 
ATOM     47  N   UNL A   1      40.386  29.528  29.892  1.00  0.00    -0.248 NA
ATOM     48  C   UNL A   1      38.682  30.102  28.462  1.00  0.00     0.031 C 
ATOM     49  C   UNL A   1      41.996  31.818  30.619  1.00  0.00     0.029 A 
ATOM     50  N   UNL A   1      40.710  33.271  31.752  1.00  0.00    -0.354 N 
ATOM     51  C   UNL A   1      40.346  28.571  28.905  1.00  0.00     0.074 A 
ATOM     52  C   UNL A   1      39.213  28.935  28.083  1.00  0.00     0.031 C 
ATOM     53  C   UNL A   1      42.731  32.287  31.641  1.00  0.00     0.029 A 
ATOM     54  C   UNL A   1      41.829  32.983  32.543  1.00  0.00     0.049 A 
ATOM     55  H   UNL A   1      40.091  34.026  31.880  1.00  0.00     0.167 HD
ATOM     56  C   UNL A   1      41.365  27.670  28.790  1.00  0.00     0.034 A 
ATOM     57  C   UNL A   1      41.693  32.725  33.877  1.00  0.00     0.034 A 
ATOM     58  C   UNL A   1      42.373  27.851  29.836  1.00  0.00     0.049 A 
ATOM     59  C   UNL A   1      42.142  31.335  34.271  1.00  0.00     0.074 A 
ATOM     60  C   UNL A   1      43.613  28.470  29.838  1.00  0.00     0.029 A 
ATOM     61  N   UNL A   1      42.053  27.609  31.169  1.00  0.00    -0.354 N 
ATOM     62  N   UNL A   1      42.343  30.365  33.421  1.00  0.00    -0.248 NA
ATOM     63  C   UNL A   1      42.377  30.923  35.651  1.00  0.00     0.031 C 
ATOM     64  C   UNL A   1      44.005  28.664  31.187  1.00  0.00     0.029 A 
ATOM     65  C   UNL A   1      43.021  28.135  32.004  1.00  0.00     0.049 A 
ATOM     66  H   UNL A   1      41.248  27.130  31.474  1.00  0.00     0.167 HD
ATOM     67  C   UNL A   1      42.689  29.224  34.099  1.00  0.00     0.074 A 
ATOM     68  C   UNL A   1      42.727  29.635  35.492  1.00  0.00     0.031 C 
ATOM     69  C   UNL A   1      42.899  28.037  33.454  1.00  0.00     0.034 A 
BRANCH  56  70
ATOM     70  C   UNL A   1      41.620  26.867  27.529  1.00  0.00     0.023 A 
ATOM     71  C   UNL A   1      41.465  25.464  27.558  1.00  0.00     0.031 A 
ATOM     72  C   UNL A   1      42.063  27.395  26.303  1.00  0.00     0.131 A 
ATOM     73  C   UNL A   1      41.864  24.656  26.477  1.00  0.00     0.055 A 
ATOM     74  C   UNL A   1      42.521  26.592  25.249  1.00  0.00     0.041 A 
ATOM     75  F   UNL A   1      42.022  28.712  26.052  1.00  0.00    -0.206 F 
ATOM     76  C   UNL A   1      42.441  25.210  25.340  1.00  0.00     0.022 A 
BRANCH  73  77
ATOM     77  S   UNL A   1      41.607  22.863  26.577  1.00  0.00     0.124 S 
ATOM     78  O   UNL A   1      42.217  22.533  27.860  1.00  0.00    -0.237 OA
ATOM     79  O   UNL A   1      40.153  22.756  26.504  1.00  0.00    -0.237 OA
ATOM     80  O   UNL A   1      42.320  22.354  25.405  1.00  0.00    -0.744 OA
ENDBRANCH  73  77
ENDBRANCH  56  70
BRANCH  57  81
ATOM     81  C   UNL A   1      40.579  33.486  34.512  1.00  0.00     0.023 A 
ATOM     82  C   UNL A   1      39.596  32.732  35.190  1.00  0.00     0.031 A 
ATOM     83  C   UNL A   1      40.678  34.852  34.806  1.00  0.00     0.131 A 
ATOM     84  C   UNL A   1      38.882  33.297  36.254  1.00  0.00     0.055 A 
ATOM     85  C   UNL A   1      39.902  35.433  35.819  1.00  0.00     0.041 A 
ATOM     86  F   UNL A   1      41.609  35.615  34.217  1.00  0.00    -0.206 F 
ATOM     87  C   UNL A   1      39.036  34.644  36.581  1.00  0.00     0.022 A 
BRANCH  84  88
ATOM     88  S   UNL A   1      37.989  32.190  37.386  1.00  0.00     0.124 S 
ATOM     89  O   UNL A   1      38.809  32.248  38.590  1.00  0.00    -0.237 OA
ATOM     90  O   UNL A   1      36.671  32.813  37.485  1.00  0.00    -0.237 OA
ATOM     91  O   UNL A   1      37.985  30.910  36.681  1.00  0.00    -0.744 OA
ENDBRANCH  84  88
ENDBRANCH  57  81
BRANCH  69  92
ATOM     92  C   UNL A   1      43.111  26.698  34.126  1.00  0.00     0.023 A 
ATOM     93  C   UNL A   1      44.365  26.077  34.229  1.00  0.00     0.031 A 
ATOM     94  C   UNL A   1      42.039  26.025  34.763  1.00  0.00     0.131 A 
ATOM     95  C   UNL A   1      44.506  24.817  34.840  1.00  0.00     0.055 A 
ATOM     96  C   UNL A   1      42.198  24.812  35.441  1.00  0.00     0.041 A 
ATOM     97  F   UNL A   1      40.792  26.519  34.756  1.00  0.00    -0.206 F 
ATOM     98  C   UNL A   1      43.434  24.189  35.466  1.00  0.00     0.022 A 
BRANCH  95  99
ATOM     99  S   UNL A   1      46.112  23.986  34.729  1.00  0.00     0.124 S 
ATOM    100  O   UNL A   1      45.718  22.583  34.642  1.00  0.00    -0.237 OA
ATOM    101  O   UNL A   1      46.680  24.561  33.513  1.00  0.00    -0.237 OA
ATOM    102  O   UNL A   1      46.785  24.365  35.970  1.00  0.00    -0.744 OA
ENDBRANCH  95  99
ENDBRANCH  69  92
ENDBRANCH  43  44
ENDBRANCH  35  38
ENDBRANCH  33  34
ENDBRANCH  32  33
ENDBRANCH   1  32
TORSDOF 18
ENDMDL
MODEL 3
REMARK VINA RESULT:     -13.3      1.682      2.208
REMARK SMILES Cc1ccc(C(=O)NC2CC2)cc1NC(=O)[C@@H]1[C@@H](C(=O)NCCCCNC(=O)c2ccc(-c3c4nc(c(-c5cc(S(=O)(=O)[O-])ccc5F)c5ccc([nH]5)c(-c5cc(S(=O)(=O)[O-])ccc5F)c5nc(c(-c6cc(S(=O)(=O)[O-])ccc6F)c6ccc3[nH]6)C=C5)C=C4)cc2)[C@H]2C=C[C@@H]1C2
REMARK SMILES IDX 23 1 22 2 21 3 19 4 20 5 18 7 17 8 95 9 92 10 94 11 96 12
REMARK SMILES IDX 93 13 15 14 14 15 16 17 13 18 1 19 2 20 3 21 4 22 12 23 5 24
REMARK SMILES IDX 6 25 7 26 8 27 9 29 10 30 11 31 24 32 25 33 26 34 27 35
REMARK SMILES IDX 28 37 29 38 30 39 91 40 31 41 90 42 32 43 33 44 34 45 84 46
REMARK SMILES IDX 35 47 89 48 83 49 85 50 36 51 88 52 82 53 81 54 37 56 69 57
REMARK SMILES IDX 49 58 68 59 50 60 53 61 67 62 86 63 51 64 52 65 66 67 87 68
REMARK SMILES IDX 54 69 38 70 39 71 47 72 40 73 46 74 48 75 45 76 41 77 42 78
REMARK SMILES IDX 43 79 44 80 70 81 71 82 79 83 72 84 78 85 80 86 77 87 73 88
REMARK SMILES IDX 74 89 75 90 76 91 55 92 56 93 64 94 57 95 63 96 65 97 62 98
REMARK SMILES IDX 58 99 59 100 60 101 61 102
REMARK H PARENT 21 6 14 16 8 28 26 36 85 55 53 66
REMARK Flexibility Score: inf
ROOT
ATOM      1  C   UNL A   1      32.569  31.842  27.167  1.00  0.00     0.023 C 
ENDROOT
BRANCH   1   2
ATOM      2  C   UNL A   1      32.370  30.368  26.808  1.00  0.00     0.116 C 
BRANCH   2   3
ATOM      3  N   UNL A   1      32.777  30.077  25.441  1.00  0.00    -0.356 N 
ATOM      4  C   UNL A   1      32.273  29.268  24.483  1.00  0.00     0.224 C 
ATOM      5  O   UNL A   1      32.942  29.202  23.441  1.00  0.00    -0.275 OA
ATOM      6  H   UNL A   1      33.583  30.567  25.159  1.00  0.00     0.163 HD
BRANCH   4   7
ATOM      7  C   UNL A   1      31.043  28.374  24.649  1.00  0.00     0.098 C 
ATOM      8  C   UNL A   1      31.537  26.886  24.902  1.00  0.00     0.099 C 
ATOM      9  C   UNL A   1      30.654  26.055  23.936  1.00  0.00     0.025 C 
ATOM     10  C   UNL A   1      30.052  28.162  23.483  1.00  0.00     0.025 C 
ATOM     11  C   UNL A   1      31.103  26.355  22.524  1.00  0.00    -0.027 C 
ATOM     12  C   UNL A   1      29.360  26.865  23.926  1.00  0.00     0.017 C 
ATOM     13  C   UNL A   1      30.767  27.626  22.264  1.00  0.00    -0.027 C 
BRANCH   8  14
ATOM     14  C   UNL A   1      31.418  26.403  26.338  1.00  0.00     0.228 C 
ATOM     15  N   UNL A   1      31.656  25.095  26.686  1.00  0.00    -0.326 N 
ATOM     16  H   UNL A   1      31.483  24.909  27.637  1.00  0.00     0.169 HD
ATOM     17  O   UNL A   1      31.025  27.148  27.242  1.00  0.00    -0.274 OA
BRANCH  15  18
ATOM     18  C   UNL A   1      32.095  23.961  25.967  1.00  0.00     0.044 A 
ATOM     19  C   UNL A   1      30.113  22.578  26.881  1.00  0.00     0.046 C 
ATOM     20  C   UNL A   1      31.323  22.781  26.008  1.00  0.00    -0.027 A 
ATOM     21  C   UNL A   1      31.704  21.693  25.205  1.00  0.00     0.006 A 
ATOM     22  C   UNL A   1      32.828  21.766  24.382  1.00  0.00     0.014 A 
ATOM     23  C   UNL A   1      33.291  23.956  25.228  1.00  0.00     0.040 A 
ATOM     24  C   UNL A   1      33.654  22.897  24.388  1.00  0.00     0.041 A 
BRANCH  24  25
ATOM     25  C   UNL A   1      34.860  22.849  23.495  1.00  0.00     0.251 C 
ATOM     26  O   UNL A   1      34.781  23.383  22.383  1.00  0.00    -0.269 OA
ATOM     27  N   UNL A   1      36.066  22.274  23.831  1.00  0.00    -0.349 N 
ATOM     28  H   UNL A   1      36.762  22.362  23.142  1.00  0.00     0.164 HD
BRANCH  27  29
ATOM     29  C   UNL A   1      36.482  21.577  24.995  1.00  0.00     0.082 C 
ATOM     30  C   UNL A   1      37.695  20.690  24.937  1.00  0.00     0.027 C 
ATOM     31  C   UNL A   1      37.727  21.947  25.751  1.00  0.00     0.027 C 
ENDBRANCH  27  29
ENDBRANCH  24  25
ENDBRANCH  15  18
ENDBRANCH   8  14
ENDBRANCH   4   7
ENDBRANCH   2   3
ENDBRANCH   1   2
BRANCH   1  32
ATOM     32  C   UNL A   1      33.974  32.204  27.646  1.00  0.00     0.023 C 
BRANCH  32  33
ATOM     33  C   UNL A   1      34.593  31.204  28.617  1.00  0.00     0.116 C 
BRANCH  33  34
ATOM     34  N   UNL A   1      35.295  31.803  29.743  1.00  0.00    -0.352 N 
ATOM     35  C   UNL A   1      36.411  31.335  30.426  1.00  0.00     0.251 C 
ATOM     36  H   UNL A   1      34.928  32.657  30.065  1.00  0.00     0.163 HD
ATOM     37  O   UNL A   1      36.836  31.894  31.415  1.00  0.00    -0.269 OA
BRANCH  35  38
ATOM     38  C   UNL A   1      37.173  30.200  29.836  1.00  0.00     0.039 A 
ATOM     39  C   UNL A   1      37.307  29.049  30.623  1.00  0.00     0.014 A 
ATOM     40  C   UNL A   1      37.925  30.350  28.677  1.00  0.00     0.014 A 
ATOM     41  C   UNL A   1      38.363  28.175  30.382  1.00  0.00     0.010 A 
ATOM     42  C   UNL A   1      39.028  29.537  28.489  1.00  0.00     0.010 A 
ATOM     43  C   UNL A   1      39.284  28.491  29.382  1.00  0.00    -0.014 A 
BRANCH  43  44
ATOM     44  C   UNL A   1      40.613  27.891  29.319  1.00  0.00     0.031 A 
ATOM     45  C   UNL A   1      40.813  26.515  28.827  1.00  0.00     0.074 A 
ATOM     46  C   UNL A   1      41.688  28.619  29.693  1.00  0.00     0.049 A 
ATOM     47  N   UNL A   1      41.773  25.739  29.203  1.00  0.00    -0.248 NA
ATOM     48  C   UNL A   1      39.904  25.891  27.877  1.00  0.00     0.031 C 
ATOM     49  C   UNL A   1      43.097  28.294  29.492  1.00  0.00     0.029 A 
ATOM     50  N   UNL A   1      41.708  29.708  30.553  1.00  0.00    -0.354 N 
ATOM     51  C   UNL A   1      41.794  24.662  28.348  1.00  0.00     0.074 A 
ATOM     52  C   UNL A   1      40.564  24.763  27.595  1.00  0.00     0.031 C 
ATOM     53  C   UNL A   1      43.832  28.987  30.377  1.00  0.00     0.029 A 
ATOM     54  C   UNL A   1      42.911  29.675  31.266  1.00  0.00     0.049 A 
ATOM     55  H   UNL A   1      41.000  30.386  30.644  1.00  0.00     0.167 HD
ATOM     56  C   UNL A   1      42.919  23.892  28.251  1.00  0.00     0.034 A 
ATOM     57  C   UNL A   1      42.913  29.582  32.629  1.00  0.00     0.034 A 
ATOM     58  C   UNL A   1      43.966  24.341  29.170  1.00  0.00     0.049 A 
ATOM     59  C   UNL A   1      43.581  28.328  33.147  1.00  0.00     0.074 A 
ATOM     60  C   UNL A   1      45.104  25.109  28.982  1.00  0.00     0.029 A 
ATOM     61  N   UNL A   1      43.783  24.240  30.546  1.00  0.00    -0.354 N 
ATOM     62  N   UNL A   1      43.851  27.287  32.408  1.00  0.00    -0.248 NA
ATOM     63  C   UNL A   1      43.973  28.138  34.540  1.00  0.00     0.031 C 
ATOM     64  C   UNL A   1      45.564  25.531  30.255  1.00  0.00     0.029 A 
ATOM     65  C   UNL A   1      44.728  24.994  31.218  1.00  0.00     0.049 A 
ATOM     66  H   UNL A   1      43.079  23.706  30.981  1.00  0.00     0.167 HD
ATOM     67  C   UNL A   1      44.403  26.301  33.186  1.00  0.00     0.074 A 
ATOM     68  C   UNL A   1      44.488  26.896  34.508  1.00  0.00     0.031 C 
ATOM     69  C   UNL A   1      44.729  25.076  32.674  1.00  0.00     0.034 A 
BRANCH  56  70
ATOM     70  C   UNL A   1      43.189  22.968  27.080  1.00  0.00     0.023 A 
ATOM     71  C   UNL A   1      42.682  21.650  27.107  1.00  0.00     0.031 A 
ATOM     72  C   UNL A   1      43.966  23.288  25.952  1.00  0.00     0.131 A 
ATOM     73  C   UNL A   1      43.056  20.698  26.140  1.00  0.00     0.055 A 
ATOM     74  C   UNL A   1      44.391  22.327  25.023  1.00  0.00     0.041 A 
ATOM     75  F   UNL A   1      44.304  24.555  25.671  1.00  0.00    -0.206 F 
ATOM     76  C   UNL A   1      43.951  21.017  25.126  1.00  0.00     0.022 A 
BRANCH  73  77
ATOM     77  S   UNL A   1      42.342  19.032  26.225  1.00  0.00     0.124 S 
ATOM     78  O   UNL A   1      43.221  18.273  25.342  1.00  0.00    -0.237 OA
ATOM     79  O   UNL A   1      42.435  18.729  27.649  1.00  0.00    -0.237 OA
ATOM     80  O   UNL A   1      40.980  19.223  25.725  1.00  0.00    -0.744 OA
ENDBRANCH  73  77
ENDBRANCH  56  70
BRANCH  57  81
ATOM     81  C   UNL A   1      41.753  30.271  33.265  1.00  0.00     0.023 A 
ATOM     82  C   UNL A   1      41.826  31.677  33.371  1.00  0.00     0.031 A 
ATOM     83  C   UNL A   1      40.494  29.669  33.377  1.00  0.00     0.131 A 
ATOM     84  C   UNL A   1      40.656  32.446  33.393  1.00  0.00     0.055 A 
ATOM     85  C   UNL A   1      39.328  30.440  33.480  1.00  0.00     0.041 A 
ATOM     86  F   UNL A   1      40.356  28.341  33.256  1.00  0.00    -0.206 F 
ATOM     87  C   UNL A   1      39.403  31.835  33.438  1.00  0.00     0.022 A 
BRANCH  84  88
ATOM     88  S   UNL A   1      40.779  34.228  33.056  1.00  0.00     0.124 S 
ATOM     89  O   UNL A   1      41.362  34.739  34.291  1.00  0.00    -0.237 OA
ATOM     90  O   UNL A   1      41.643  34.282  31.878  1.00  0.00    -0.237 OA
ATOM     91  O   UNL A   1      39.398  34.623  32.793  1.00  0.00    -0.744 OA
ENDBRANCH  84  88
ENDBRANCH  57  81
BRANCH  69  92
ATOM     92  C   UNL A   1      45.176  23.878  33.482  1.00  0.00     0.023 A 
ATOM     93  C   UNL A   1      46.496  23.694  33.923  1.00  0.00     0.031 A 
ATOM     94  C   UNL A   1      44.246  22.896  33.906  1.00  0.00     0.131 A 
ATOM     95  C   UNL A   1      46.868  22.548  34.650  1.00  0.00     0.055 A 
ATOM     96  C   UNL A   1      44.603  21.801  34.698  1.00  0.00     0.041 A 
ATOM     97  F   UNL A   1      42.949  22.962  33.571  1.00  0.00    -0.206 F 
ATOM     98  C   UNL A   1      45.926  21.608  35.059  1.00  0.00     0.022 A 
BRANCH  95  99
ATOM     99  S   UNL A   1      48.629  22.278  34.981  1.00  0.00     0.124 S 
ATOM    100  O   UNL A   1      48.820  20.914  34.495  1.00  0.00    -0.237 OA
ATOM    101  O   UNL A   1      49.262  23.328  34.189  1.00  0.00    -0.237 OA
ATOM    102  O   UNL A   1      48.737  22.439  36.430  1.00  0.00    -0.744 OA
ENDBRANCH  95  99
ENDBRANCH  69  92
ENDBRANCH  43  44
ENDBRANCH  35  38
ENDBRANCH  33  34
ENDBRANCH  32  33
ENDBRANCH   1  32
TORSDOF 18
ENDMDL
