MODEL 1
REMARK VINA RESULT:     -12.8      0.000      0.000
REMARK SMILES O=C(NCCCCNC(=O)c1cc2c(c(S(=O)(=O)Nc3cc(C(F)(F)F)ccc3-n3cccn3)c1)CCC2)c1ccc(-c2c3nc(c(-c4cc(S(=O)(=O)[O-])ccc4F)c4ccc([nH]4)c(-c4cc(S(=O)(=O)[O-])ccc4F)c4nc(c(-c5cc(S(=O)(=O)[O-])ccc5F)c5ccc2[nH]5)C=C4)C=C3)cc1
REMARK SMILES IDX 6 1 5 2 4 3 3 4 1 5 2 6 39 8 40 9 101 10 41 11 100 12 42 13
REMARK SMILES IDX 43 14 44 15 94 16 45 17 99 18 93 19 95 20 46 21 98 22 92 23
REMARK SMILES IDX 91 24 47 26 79 27 59 28 78 29 60 30 63 31 77 32 96 33 61 34
REMARK SMILES IDX 62 35 76 37 97 38 64 39 48 40 49 41 57 42 50 43 56 44 58 45
REMARK SMILES IDX 55 46 51 47 52 48 53 49 54 50 80 51 81 52 89 53 82 54 88 55
REMARK SMILES IDX 90 56 87 57 83 58 84 59 85 60 86 61 65 62 66 63 74 64 67 65
REMARK SMILES IDX 73 66 75 67 72 68 68 69 69 70 70 71 71 72 7 73 8 74 9 75
REMARK SMILES IDX 10 77 11 78 12 79 35 80 13 81 15 82 14 83 38 84 36 85 37 86
REMARK SMILES IDX 16 87 17 88 18 89 19 90 20 92 21 93 29 94 22 95 28 96 27 97
REMARK SMILES IDX 30 98 31 99 34 100 32 101 33 102 23 103 24 104 25 105 26 106
REMARK H PARENT 3 7 95 25 63 36 8 76 19 91
REMARK Flexibility Score: inf
ROOT
ATOM      1  C   UNL A   1      38.478  24.512  26.390  1.00  0.00     0.023 C 
ENDROOT
BRANCH   1   2
ATOM      2  C   UNL A   1      39.304  24.018  27.574  1.00  0.00     0.023 C 
BRANCH   2   3
ATOM      3  C   UNL A   1      40.338  22.932  27.270  1.00  0.00     0.116 C 
BRANCH   3   4
ATOM      4  N   UNL A   1      41.264  23.221  26.193  1.00  0.00    -0.352 N 
ATOM      5  O   UNL A   1      42.971  24.012  25.034  1.00  0.00    -0.269 OA
ATOM      6  C   UNL A   1      42.179  24.215  25.958  1.00  0.00     0.251 C 
ATOM      7  H   UNL A   1      41.230  22.555  25.470  1.00  0.00     0.163 HD
BRANCH   6   8
ATOM      8  C   UNL A   1      42.231  25.516  26.682  1.00  0.00     0.039 A 
ATOM      9  C   UNL A   1      42.876  25.738  27.898  1.00  0.00     0.014 A 
ATOM     10  C   UNL A   1      41.521  26.582  26.098  1.00  0.00     0.014 A 
ATOM     11  C   UNL A   1      42.710  26.937  28.580  1.00  0.00     0.010 A 
ATOM     12  C   UNL A   1      41.384  27.800  26.758  1.00  0.00     0.010 A 
ATOM     13  C   UNL A   1      41.942  27.959  28.026  1.00  0.00    -0.014 A 
BRANCH  13  14
ATOM     14  C   UNL A   1      41.840  29.213  28.768  1.00  0.00     0.031 A 
ATOM     15  C   UNL A   1      42.912  30.217  28.504  1.00  0.00     0.074 A 
ATOM     16  C   UNL A   1      40.777  29.534  29.531  1.00  0.00     0.049 A 
ATOM     17  N   UNL A   1      43.696  30.811  29.345  1.00  0.00    -0.248 NA
ATOM     18  C   UNL A   1      43.192  30.550  27.098  1.00  0.00     0.031 C 
ATOM     19  C   UNL A   1      39.522  28.793  29.666  1.00  0.00     0.029 A 
ATOM     20  N   UNL A   1      40.551  30.670  30.253  1.00  0.00    -0.354 N 
ATOM     21  C   UNL A   1      44.436  31.733  28.607  1.00  0.00     0.074 A 
ATOM     22  C   UNL A   1      44.181  31.434  27.222  1.00  0.00     0.031 C 
ATOM     23  C   UNL A   1      38.590  29.601  30.216  1.00  0.00     0.029 A 
ATOM     24  C   UNL A   1      39.216  30.862  30.584  1.00  0.00     0.049 A 
ATOM     25  H   UNL A   1      41.266  31.295  30.514  1.00  0.00     0.167 HD
ATOM     26  C   UNL A   1      45.068  32.793  29.186  1.00  0.00     0.034 A 
ATOM     27  C   UNL A   1      38.638  32.004  31.036  1.00  0.00     0.034 A 
ATOM     28  C   UNL A   1      45.283  32.579  30.595  1.00  0.00     0.049 A 
ATOM     29  C   UNL A   1      39.706  32.847  31.622  1.00  0.00     0.074 A 
ATOM     30  C   UNL A   1      45.951  31.626  31.342  1.00  0.00     0.029 A 
ATOM     31  N   UNL A   1      44.499  33.258  31.498  1.00  0.00    -0.354 N 
ATOM     32  N   UNL A   1      40.379  32.521  32.692  1.00  0.00    -0.248 NA
ATOM     33  C   UNL A   1      40.334  33.857  30.784  1.00  0.00     0.031 C 
ATOM     34  C   UNL A   1      45.152  31.448  32.509  1.00  0.00     0.029 A 
ATOM     35  C   UNL A   1      44.076  32.333  32.420  1.00  0.00     0.049 A 
ATOM     36  H   UNL A   1      44.283  34.218  31.486  1.00  0.00     0.167 HD
ATOM     37  C   UNL A   1      41.674  32.947  32.447  1.00  0.00     0.074 A 
ATOM     38  C   UNL A   1      41.560  33.864  31.316  1.00  0.00     0.031 C 
ATOM     39  C   UNL A   1      42.749  32.309  32.999  1.00  0.00     0.034 A 
BRANCH  26  40
ATOM     40  C   UNL A   1      45.226  34.157  28.546  1.00  0.00     0.023 A 
ATOM     41  C   UNL A   1      44.185  35.092  28.727  1.00  0.00     0.031 A 
ATOM     42  C   UNL A   1      46.174  34.484  27.550  1.00  0.00     0.131 A 
ATOM     43  C   UNL A   1      44.064  36.215  27.889  1.00  0.00     0.055 A 
ATOM     44  C   UNL A   1      46.091  35.642  26.771  1.00  0.00     0.041 A 
ATOM     45  F   UNL A   1      47.175  33.664  27.208  1.00  0.00    -0.206 F 
ATOM     46  C   UNL A   1      45.014  36.499  26.913  1.00  0.00     0.022 A 
BRANCH  43  47
ATOM     47  S   UNL A   1      42.534  37.184  27.960  1.00  0.00     0.124 S 
ATOM     48  O   UNL A   1      41.574  36.191  28.430  1.00  0.00    -0.237 OA
ATOM     49  O   UNL A   1      42.889  38.236  28.907  1.00  0.00    -0.237 OA
ATOM     50  O   UNL A   1      42.348  37.625  26.580  1.00  0.00    -0.744 OA
ENDBRANCH  43  47
ENDBRANCH  26  40
BRANCH  27  51
ATOM     51  C   UNL A   1      37.289  32.503  30.665  1.00  0.00     0.023 A 
ATOM     52  C   UNL A   1      36.382  33.030  31.605  1.00  0.00     0.031 A 
ATOM     53  C   UNL A   1      36.952  32.658  29.300  1.00  0.00     0.131 A 
ATOM     54  C   UNL A   1      35.192  33.657  31.166  1.00  0.00     0.055 A 
ATOM     55  C   UNL A   1      35.769  33.261  28.872  1.00  0.00     0.041 A 
ATOM     56  F   UNL A   1      37.804  32.298  28.327  1.00  0.00    -0.206 F 
ATOM     57  C   UNL A   1      34.884  33.770  29.808  1.00  0.00     0.022 A 
BRANCH  54  58
ATOM     58  S   UNL A   1      34.065  34.429  32.369  1.00  0.00     0.124 S 
ATOM     59  O   UNL A   1      33.626  33.286  33.161  1.00  0.00    -0.237 OA
ATOM     60  O   UNL A   1      34.932  35.390  33.039  1.00  0.00    -0.237 OA
ATOM     61  O   UNL A   1      33.026  35.028  31.529  1.00  0.00    -0.744 OA
ENDBRANCH  54  58
ENDBRANCH  27  51
BRANCH  39  62
ATOM     62  C   UNL A   1      42.503  31.307  34.106  1.00  0.00     0.023 A 
ATOM     63  C   UNL A   1      42.160  29.953  33.887  1.00  0.00     0.031 A 
ATOM     64  C   UNL A   1      42.763  31.708  35.428  1.00  0.00     0.131 A 
ATOM     65  C   UNL A   1      42.073  29.063  34.974  1.00  0.00     0.055 A 
ATOM     66  C   UNL A   1      42.692  30.819  36.500  1.00  0.00     0.041 A 
ATOM     67  F   UNL A   1      43.133  32.972  35.695  1.00  0.00    -0.206 F 
ATOM     68  C   UNL A   1      42.341  29.492  36.278  1.00  0.00     0.022 A 
BRANCH  65  69
ATOM     69  S   UNL A   1      41.612  27.321  34.702  1.00  0.00     0.124 S 
ATOM     70  O   UNL A   1      40.470  27.408  33.800  1.00  0.00    -0.237 OA
ATOM     71  O   UNL A   1      42.834  26.755  34.138  1.00  0.00    -0.237 OA
ATOM     72  O   UNL A   1      41.289  26.842  36.048  1.00  0.00    -0.744 OA
ENDBRANCH  65  69
ENDBRANCH  39  62
ENDBRANCH  13  14
ENDBRANCH   6   8
ENDBRANCH   3   4
ENDBRANCH   2   3
ENDBRANCH   1   2
BRANCH   1  73
ATOM     73  C   UNL A   1      37.350  23.600  25.923  1.00  0.00     0.116 C 
BRANCH  73  74
ATOM     74  N   UNL A   1      37.471  23.138  24.542  1.00  0.00    -0.352 N 
ATOM     75  C   UNL A   1      36.504  23.114  23.549  1.00  0.00     0.251 C 
ATOM     76  H   UNL A   1      38.357  22.799  24.282  1.00  0.00     0.163 HD
ATOM     77  O   UNL A   1      36.744  22.666  22.439  1.00  0.00    -0.269 OA
BRANCH  75  78
ATOM     78  C   UNL A   1      35.143  23.619  23.863  1.00  0.00     0.041 A 
ATOM     79  C   UNL A   1      34.377  22.935  24.806  1.00  0.00     0.018 A 
ATOM     80  C   UNL A   1      34.594  24.675  23.101  1.00  0.00     0.036 A 
ATOM     81  C   UNL A   1      33.017  23.146  24.789  1.00  0.00    -0.043 A 
ATOM     82  C   UNL A   1      33.208  24.933  23.144  1.00  0.00     0.092 A 
ATOM     83  C   UNL A   1      32.426  24.074  23.910  1.00  0.00    -0.024 A 
ATOM     84  C   UNL A   1      31.989  22.328  25.510  1.00  0.00     0.036 C 
ATOM     85  C   UNL A   1      30.957  23.784  23.864  1.00  0.00     0.037 C 
ATOM     86  C   UNL A   1      30.736  23.159  25.244  1.00  0.00     0.010 C 
BRANCH  82  87
ATOM     87  S   UNL A   1      32.506  26.124  22.019  1.00  0.00     0.262 S 
ATOM     88  O   UNL A   1      33.483  27.172  21.823  1.00  0.00    -0.201 OA
ATOM     89  O   UNL A   1      31.974  25.405  20.876  1.00  0.00    -0.201 OA
BRANCH  87  90
ATOM     90  N   UNL A   1      31.179  26.941  22.734  1.00  0.00    -0.277 N 
ATOM     91  H   UNL A   1      30.269  26.763  22.404  1.00  0.00     0.180 HD
BRANCH  90  92
ATOM     92  C   UNL A   1      31.368  27.877  23.805  1.00  0.00     0.075 A 
ATOM     93  C   UNL A   1      32.377  27.635  24.752  1.00  0.00     0.042 A 
ATOM     94  C   UNL A   1      30.664  29.093  23.842  1.00  0.00     0.089 A 
ATOM     95  C   UNL A   1      32.732  28.619  25.700  1.00  0.00     0.058 A 
ATOM     96  C   UNL A   1      30.996  30.064  24.800  1.00  0.00     0.031 A 
ATOM     97  C   UNL A   1      32.017  29.827  25.724  1.00  0.00     0.015 A 
BRANCH  94  98
ATOM     98  N   UNL A   1      29.658  29.395  22.891  1.00  0.00    -0.239 N 
ATOM     99  C   UNL A   1      29.733  30.245  21.809  1.00  0.00     0.115 A 
ATOM    100  N   UNL A   1      28.406  28.886  23.024  1.00  0.00    -0.177 NA
ATOM    101  C   UNL A   1      28.446  30.472  21.391  1.00  0.00     0.042 A 
ATOM    102  C   UNL A   1      27.666  29.636  22.202  1.00  0.00     0.135 A 
ENDBRANCH  94  98
BRANCH  95 103
ATOM    103  C   UNL A   1      33.911  28.407  26.623  1.00  0.00     0.416 C 
ATOM    104  F   UNL A   1      33.549  28.399  27.935  1.00  0.00    -0.166 F 
ATOM    105  F   UNL A   1      34.544  27.224  26.398  1.00  0.00    -0.166 F 
ATOM    106  F   UNL A   1      34.870  29.368  26.505  1.00  0.00    -0.166 F 
ENDBRANCH  95 103
ENDBRANCH  90  92
ENDBRANCH  87  90
ENDBRANCH  82  87
ENDBRANCH  75  78
ENDBRANCH  73  74
ENDBRANCH   1  73
TORSDOF 19
ENDMDL
MODEL 2
REMARK VINA RESULT:     -12.7      3.730      9.702
REMARK SMILES O=C(NCCCCNC(=O)c1cc2c(c(S(=O)(=O)Nc3cc(C(F)(F)F)ccc3-n3cccn3)c1)CCC2)c1ccc(-c2c3nc(c(-c4cc(S(=O)(=O)[O-])ccc4F)c4ccc([nH]4)c(-c4cc(S(=O)(=O)[O-])ccc4F)c4nc(c(-c5cc(S(=O)(=O)[O-])ccc5F)c5ccc2[nH]5)C=C4)C=C3)cc1
REMARK SMILES IDX 6 1 5 2 4 3 3 4 1 5 2 6 39 8 40 9 101 10 41 11 100 12 42 13
REMARK SMILES IDX 43 14 44 15 94 16 45 17 99 18 93 19 95 20 46 21 98 22 92 23
REMARK SMILES IDX 91 24 47 26 79 27 59 28 78 29 60 30 63 31 77 32 96 33 61 34
REMARK SMILES IDX 62 35 76 37 97 38 64 39 48 40 49 41 57 42 50 43 56 44 58 45
REMARK SMILES IDX 55 46 51 47 52 48 53 49 54 50 80 51 81 52 89 53 82 54 88 55
REMARK SMILES IDX 90 56 87 57 83 58 84 59 85 60 86 61 65 62 66 63 74 64 67 65
REMARK SMILES IDX 73 66 75 67 72 68 68 69 69 70 70 71 71 72 7 73 8 74 9 75
REMARK SMILES IDX 10 77 11 78 12 79 35 80 13 81 15 82 14 83 38 84 36 85 37 86
REMARK SMILES IDX 16 87 17 88 18 89 19 90 20 92 21 93 29 94 22 95 28 96 27 97
REMARK SMILES IDX 30 98 31 99 34 100 32 101 33 102 23 103 24 104 25 105 26 106
REMARK H PARENT 3 7 95 25 63 36 8 76 19 91
REMARK Flexibility Score: inf
ROOT
ATOM      1  C   UNL A   1      32.067  29.269  25.878  1.00  0.00     0.023 C 
ENDROOT
BRANCH   1   2
ATOM      2  C   UNL A   1      32.901  29.295  27.156  1.00  0.00     0.023 C 
BRANCH   2   3
ATOM      3  C   UNL A   1      34.258  29.996  27.063  1.00  0.00     0.116 C 
BRANCH   3   4
ATOM      4  N   UNL A   1      34.396  31.215  27.835  1.00  0.00    -0.352 N 
ATOM      5  O   UNL A   1      35.248  32.971  28.870  1.00  0.00    -0.269 OA
ATOM      6  C   UNL A   1      35.427  31.802  28.522  1.00  0.00     0.251 C 
ATOM      7  H   UNL A   1      33.564  31.739  27.874  1.00  0.00     0.163 HD
BRANCH   6   8
ATOM      8  C   UNL A   1      36.686  31.114  28.924  1.00  0.00     0.039 A 
ATOM      9  C   UNL A   1      37.893  31.747  29.220  1.00  0.00     0.014 A 
ATOM     10  C   UNL A   1      36.646  29.707  28.950  1.00  0.00     0.014 A 
ATOM     11  C   UNL A   1      39.056  31.008  29.403  1.00  0.00     0.010 A 
ATOM     12  C   UNL A   1      37.799  28.960  29.173  1.00  0.00     0.010 A 
ATOM     13  C   UNL A   1      39.016  29.616  29.351  1.00  0.00    -0.014 A 
BRANCH  13  14
ATOM     14  C   UNL A   1      40.261  28.890  29.596  1.00  0.00     0.031 A 
ATOM     15  C   UNL A   1      40.638  28.705  31.028  1.00  0.00     0.074 A 
ATOM     16  C   UNL A   1      40.965  28.283  28.621  1.00  0.00     0.049 A 
ATOM     17  N   UNL A   1      41.742  29.022  31.626  1.00  0.00    -0.248 NA
ATOM     18  C   UNL A   1      39.614  28.154  31.929  1.00  0.00     0.031 C 
ATOM     19  C   UNL A   1      40.583  28.123  27.216  1.00  0.00     0.029 A 
ATOM     20  N   UNL A   1      42.120  27.563  28.718  1.00  0.00    -0.354 N 
ATOM     21  C   UNL A   1      41.633  28.540  32.929  1.00  0.00     0.074 A 
ATOM     22  C   UNL A   1      40.260  28.139  33.094  1.00  0.00     0.031 C 
ATOM     23  C   UNL A   1      41.354  27.165  26.657  1.00  0.00     0.029 A 
ATOM     24  C   UNL A   1      42.356  26.742  27.623  1.00  0.00     0.049 A 
ATOM     25  H   UNL A   1      42.728  27.620  29.489  1.00  0.00     0.167 HD
ATOM     26  C   UNL A   1      42.720  28.337  33.726  1.00  0.00     0.034 A 
ATOM     27  C   UNL A   1      43.244  25.718  27.541  1.00  0.00     0.034 A 
ATOM     28  C   UNL A   1      43.859  29.098  33.275  1.00  0.00     0.049 A 
ATOM     29  C   UNL A   1      44.278  25.935  28.579  1.00  0.00     0.074 A 
ATOM     30  C   UNL A   1      44.112  30.442  33.076  1.00  0.00     0.029 A 
ATOM     31  N   UNL A   1      44.888  28.441  32.641  1.00  0.00    -0.354 N 
ATOM     32  N   UNL A   1      45.117  26.934  28.565  1.00  0.00    -0.248 NA
ATOM     33  C   UNL A   1      44.114  25.288  29.872  1.00  0.00     0.031 C 
ATOM     34  C   UNL A   1      44.949  30.492  31.924  1.00  0.00     0.029 A 
ATOM     35  C   UNL A   1      45.189  29.177  31.522  1.00  0.00     0.049 A 
ATOM     36  H   UNL A   1      45.324  27.608  32.933  1.00  0.00     0.167 HD
ATOM     37  C   UNL A   1      45.253  27.310  29.891  1.00  0.00     0.074 A 
ATOM     38  C   UNL A   1      44.710  26.191  30.656  1.00  0.00     0.031 C 
ATOM     39  C   UNL A   1      45.535  28.601  30.239  1.00  0.00     0.034 A 
BRANCH  26  40
ATOM     40  C   UNL A   1      42.850  27.219  34.740  1.00  0.00     0.023 A 
ATOM     41  C   UNL A   1      43.608  26.087  34.376  1.00  0.00     0.031 A 
ATOM     42  C   UNL A   1      42.051  27.073  35.897  1.00  0.00     0.131 A 
ATOM     43  C   UNL A   1      43.481  24.873  35.075  1.00  0.00     0.055 A 
ATOM     44  C   UNL A   1      41.987  25.886  36.633  1.00  0.00     0.041 A 
ATOM     45  F   UNL A   1      41.219  28.029  36.326  1.00  0.00    -0.206 F 
ATOM     46  C   UNL A   1      42.676  24.765  36.205  1.00  0.00     0.022 A 
BRANCH  43  47
ATOM     47  S   UNL A   1      44.223  23.382  34.357  1.00  0.00     0.124 S 
ATOM     48  O   UNL A   1      44.475  22.574  35.546  1.00  0.00    -0.237 OA
ATOM     49  O   UNL A   1      43.160  22.915  33.474  1.00  0.00    -0.237 OA
ATOM     50  O   UNL A   1      45.416  23.889  33.684  1.00  0.00    -0.744 OA
ENDBRANCH  43  47
ENDBRANCH  26  40
BRANCH  27  51
ATOM     51  C   UNL A   1      43.021  24.426  26.841  1.00  0.00     0.023 A 
ATOM     52  C   UNL A   1      43.879  23.943  25.834  1.00  0.00     0.031 A 
ATOM     53  C   UNL A   1      42.037  23.531  27.323  1.00  0.00     0.131 A 
ATOM     54  C   UNL A   1      43.719  22.628  25.339  1.00  0.00     0.055 A 
ATOM     55  C   UNL A   1      41.872  22.241  26.820  1.00  0.00     0.041 A 
ATOM     56  F   UNL A   1      41.251  23.853  28.362  1.00  0.00    -0.206 F 
ATOM     57  C   UNL A   1      42.719  21.781  25.826  1.00  0.00     0.022 A 
BRANCH  54  58
ATOM     58  S   UNL A   1      44.885  21.961  24.111  1.00  0.00     0.124 S 
ATOM     59  O   UNL A   1      44.982  20.560  24.503  1.00  0.00    -0.237 OA
ATOM     60  O   UNL A   1      44.206  22.238  22.851  1.00  0.00    -0.237 OA
ATOM     61  O   UNL A   1      46.101  22.746  24.333  1.00  0.00    -0.744 OA
ENDBRANCH  54  58
ENDBRANCH  27  51
BRANCH  39  62
ATOM     62  C   UNL A   1      45.977  29.560  29.155  1.00  0.00     0.023 A 
ATOM     63  C   UNL A   1      45.091  30.332  28.371  1.00  0.00     0.031 A 
ATOM     64  C   UNL A   1      47.354  29.802  29.011  1.00  0.00     0.131 A 
ATOM     65  C   UNL A   1      45.595  31.291  27.472  1.00  0.00     0.055 A 
ATOM     66  C   UNL A   1      47.850  30.765  28.132  1.00  0.00     0.041 A 
ATOM     67  F   UNL A   1      48.245  29.129  29.758  1.00  0.00    -0.206 F 
ATOM     68  C   UNL A   1      46.971  31.510  27.354  1.00  0.00     0.022 A 
BRANCH  65  69
ATOM     69  S   UNL A   1      44.460  32.275  26.443  1.00  0.00     0.124 S 
ATOM     70  O   UNL A   1      45.330  32.840  25.419  1.00  0.00    -0.237 OA
ATOM     71  O   UNL A   1      43.498  31.274  25.987  1.00  0.00    -0.237 OA
ATOM     72  O   UNL A   1      43.911  33.255  27.383  1.00  0.00    -0.744 OA
ENDBRANCH  65  69
ENDBRANCH  39  62
ENDBRANCH  13  14
ENDBRANCH   6   8
ENDBRANCH   3   4
ENDBRANCH   2   3
ENDBRANCH   1   2
BRANCH   1  73
ATOM     73  C   UNL A   1      32.592  28.396  24.745  1.00  0.00     0.116 C 
BRANCH  73  74
ATOM     74  N   UNL A   1      31.860  28.523  23.487  1.00  0.00    -0.352 N 
ATOM     75  C   UNL A   1      31.093  27.573  22.829  1.00  0.00     0.251 C 
ATOM     76  H   UNL A   1      31.919  29.401  23.046  1.00  0.00     0.163 HD
ATOM     77  O   UNL A   1      30.560  27.816  21.759  1.00  0.00    -0.269 OA
BRANCH  75  78
ATOM     78  C   UNL A   1      30.949  26.226  23.437  1.00  0.00     0.041 A 
ATOM     79  C   UNL A   1      30.045  26.058  24.485  1.00  0.00     0.018 A 
ATOM     80  C   UNL A   1      31.827  25.187  23.054  1.00  0.00     0.036 A 
ATOM     81  C   UNL A   1      30.212  24.956  25.293  1.00  0.00    -0.043 A 
ATOM     82  C   UNL A   1      31.939  24.026  23.847  1.00  0.00     0.092 A 
ATOM     83  C   UNL A   1      31.203  23.990  25.027  1.00  0.00    -0.024 A 
ATOM     84  C   UNL A   1      29.547  24.723  26.615  1.00  0.00     0.036 C 
ATOM     85  C   UNL A   1      31.377  23.166  26.266  1.00  0.00     0.037 C 
ATOM     86  C   UNL A   1      29.989  23.290  26.901  1.00  0.00     0.010 C 
BRANCH  82  87
ATOM     87  S   UNL A   1      33.202  22.826  23.467  1.00  0.00     0.262 S 
ATOM     88  O   UNL A   1      32.553  21.679  22.872  1.00  0.00    -0.201 OA
ATOM     89  O   UNL A   1      34.269  23.505  22.757  1.00  0.00    -0.201 OA
BRANCH  87  90
ATOM     90  N   UNL A   1      33.902  22.193  24.898  1.00  0.00    -0.277 N 
ATOM     91  H   UNL A   1      33.867  22.723  25.727  1.00  0.00     0.180 HD
BRANCH  90  92
ATOM     92  C   UNL A   1      34.535  20.906  24.913  1.00  0.00     0.075 A 
ATOM     93  C   UNL A   1      33.770  19.766  24.612  1.00  0.00     0.042 A 
ATOM     94  C   UNL A   1      35.924  20.780  25.081  1.00  0.00     0.089 A 
ATOM     95  C   UNL A   1      34.387  18.511  24.418  1.00  0.00     0.058 A 
ATOM     96  C   UNL A   1      36.538  19.528  24.915  1.00  0.00     0.031 A 
ATOM     97  C   UNL A   1      35.775  18.403  24.592  1.00  0.00     0.015 A 
BRANCH  94  98
ATOM     98  N   UNL A   1      36.741  21.904  25.358  1.00  0.00    -0.239 N 
ATOM     99  C   UNL A   1      38.113  21.953  25.477  1.00  0.00     0.115 A 
ATOM    100  N   UNL A   1      36.185  23.114  25.625  1.00  0.00    -0.177 NA
ATOM    101  C   UNL A   1      38.418  23.153  26.070  1.00  0.00     0.042 A 
ATOM    102  C   UNL A   1      37.185  23.812  26.172  1.00  0.00     0.135 A 
ENDBRANCH  94  98
BRANCH  95 103
ATOM    103  C   UNL A   1      33.576  17.320  23.957  1.00  0.00     0.416 C 
ATOM    104  F   UNL A   1      33.506  17.233  22.601  1.00  0.00    -0.166 F 
ATOM    105  F   UNL A   1      34.095  16.137  24.386  1.00  0.00    -0.166 F 
ATOM    106  F   UNL A   1      32.287  17.340  24.399  1.00  0.00    -0.166 F 
ENDBRANCH  95 103
ENDBRANCH  90  92
ENDBRANCH  87  90
ENDBRANCH  82  87
ENDBRANCH  75  78
ENDBRANCH  73  74
ENDBRANCH   1  73
TORSDOF 19
ENDMDL
MODEL 3
REMARK VINA RESULT:     -12.2      3.926      9.622
REMARK SMILES O=C(NCCCCNC(=O)c1cc2c(c(S(=O)(=O)Nc3cc(C(F)(F)F)ccc3-n3cccn3)c1)CCC2)c1ccc(-c2c3nc(c(-c4cc(S(=O)(=O)[O-])ccc4F)c4ccc([nH]4)c(-c4cc(S(=O)(=O)[O-])ccc4F)c4nc(c(-c5cc(S(=O)(=O)[O-])ccc5F)c5ccc2[nH]5)C=C4)C=C3)cc1
REMARK SMILES IDX 6 1 5 2 4 3 3 4 1 5 2 6 39 8 40 9 101 10 41 11 100 12 42 13
REMARK SMILES IDX 43 14 44 15 94 16 45 17 99 18 93 19 95 20 46 21 98 22 92 23
REMARK SMILES IDX 91 24 47 26 79 27 59 28 78 29 60 30 63 31 77 32 96 33 61 34
REMARK SMILES IDX 62 35 76 37 97 38 64 39 48 40 49 41 57 42 50 43 56 44 58 45
REMARK SMILES IDX 55 46 51 47 52 48 53 49 54 50 80 51 81 52 89 53 82 54 88 55
REMARK SMILES IDX 90 56 87 57 83 58 84 59 85 60 86 61 65 62 66 63 74 64 67 65
REMARK SMILES IDX 73 66 75 67 72 68 68 69 69 70 70 71 71 72 7 73 8 74 9 75
REMARK SMILES IDX 10 77 11 78 12 79 35 80 13 81 15 82 14 83 38 84 36 85 37 86
REMARK SMILES IDX 16 87 17 88 18 89 19 90 20 92 21 93 29 94 22 95 28 96 27 97
REMARK SMILES IDX 30 98 31 99 34 100 32 101 33 102 23 103 24 104 25 105 26 106
REMARK H PARENT 3 7 95 25 63 36 8 76 19 91
REMARK Flexibility Score: inf
ROOT
ATOM      1  C   UNL A   1      32.979  29.913  26.653  1.00  0.00     0.023 C 
ENDROOT
BRANCH   1   2
ATOM      2  C   UNL A   1      33.811  31.101  27.128  1.00  0.00     0.023 C 
BRANCH   2   3
ATOM      3  C   UNL A   1      34.932  30.786  28.120  1.00  0.00     0.116 C 
BRANCH   3   4
ATOM      4  N   UNL A   1      34.948  31.580  29.333  1.00  0.00    -0.352 N 
ATOM      5  O   UNL A   1      35.624  32.780  31.060  1.00  0.00    -0.269 OA
ATOM      6  C   UNL A   1      35.899  31.867  30.278  1.00  0.00     0.251 C 
ATOM      7  H   UNL A   1      34.082  32.009  29.520  1.00  0.00     0.163 HD
BRANCH   6   8
ATOM      8  C   UNL A   1      37.177  31.122  30.457  1.00  0.00     0.039 A 
ATOM      9  C   UNL A   1      38.451  31.686  30.415  1.00  0.00     0.014 A 
ATOM     10  C   UNL A   1      37.067  29.729  30.628  1.00  0.00     0.014 A 
ATOM     11  C   UNL A   1      39.583  30.879  30.409  1.00  0.00     0.010 A 
ATOM     12  C   UNL A   1      38.198  28.919  30.663  1.00  0.00     0.010 A 
ATOM     13  C   UNL A   1      39.458  29.494  30.503  1.00  0.00    -0.014 A 
BRANCH  13  14
ATOM     14  C   UNL A   1      40.684  28.701  30.537  1.00  0.00     0.031 A 
ATOM     15  C   UNL A   1      41.266  28.455  31.889  1.00  0.00     0.074 A 
ATOM     16  C   UNL A   1      41.196  28.088  29.452  1.00  0.00     0.049 A 
ATOM     17  N   UNL A   1      42.464  28.698  32.316  1.00  0.00    -0.248 NA
ATOM     18  C   UNL A   1      40.364  27.929  32.925  1.00  0.00     0.031 C 
ATOM     19  C   UNL A   1      40.596  27.989  28.120  1.00  0.00     0.029 A 
ATOM     20  N   UNL A   1      42.312  27.308  29.353  1.00  0.00    -0.354 N 
ATOM     21  C   UNL A   1      42.530  28.184  33.609  1.00  0.00     0.074 A 
ATOM     22  C   UNL A   1      41.179  27.847  33.976  1.00  0.00     0.031 C 
ATOM     23  C   UNL A   1      41.219  27.011  27.428  1.00  0.00     0.029 A 
ATOM     24  C   UNL A   1      42.333  26.509  28.217  1.00  0.00     0.049 A 
ATOM     25  H   UNL A   1      43.034  27.312  30.022  1.00  0.00     0.167 HD
ATOM     26  C   UNL A   1      43.714  27.903  34.224  1.00  0.00     0.034 A 
ATOM     27  C   UNL A   1      43.140  25.445  27.977  1.00  0.00     0.034 A 
ATOM     28  C   UNL A   1      44.810  28.618  33.618  1.00  0.00     0.049 A 
ATOM     29  C   UNL A   1      44.332  25.579  28.847  1.00  0.00     0.074 A 
ATOM     30  C   UNL A   1      45.101  29.954  33.412  1.00  0.00     0.029 A 
ATOM     31  N   UNL A   1      45.692  27.930  32.819  1.00  0.00    -0.354 N 
ATOM     32  N   UNL A   1      45.212  26.535  28.725  1.00  0.00    -0.248 NA
ATOM     33  C   UNL A   1      44.333  24.903  30.136  1.00  0.00     0.031 C 
ATOM     34  C   UNL A   1      45.754  29.996  32.145  1.00  0.00     0.029 A 
ATOM     35  C   UNL A   1      45.857  28.683  31.683  1.00  0.00     0.049 A 
ATOM     36  H   UNL A   1      46.122  27.068  33.022  1.00  0.00     0.167 HD
ATOM     37  C   UNL A   1      45.570  26.864  30.022  1.00  0.00     0.074 A 
ATOM     38  C   UNL A   1      45.090  25.752  30.837  1.00  0.00     0.031 C 
ATOM     39  C   UNL A   1      45.971  28.128  30.350  1.00  0.00     0.034 A 
BRANCH  26  40
ATOM     40  C   UNL A   1      43.937  26.750  35.181  1.00  0.00     0.023 A 
ATOM     41  C   UNL A   1      44.324  27.059  36.502  1.00  0.00     0.031 A 
ATOM     42  C   UNL A   1      44.077  25.395  34.805  1.00  0.00     0.131 A 
ATOM     43  C   UNL A   1      44.903  26.085  37.335  1.00  0.00     0.055 A 
ATOM     44  C   UNL A   1      44.583  24.414  35.664  1.00  0.00     0.041 A 
ATOM     45  F   UNL A   1      43.825  24.960  33.565  1.00  0.00    -0.206 F 
ATOM     46  C   UNL A   1      45.033  24.762  36.926  1.00  0.00     0.022 A 
BRANCH  43  47
ATOM     47  S   UNL A   1      45.675  26.624  38.885  1.00  0.00     0.124 S 
ATOM     48  O   UNL A   1      47.053  26.860  38.465  1.00  0.00    -0.237 OA
ATOM     49  O   UNL A   1      44.890  27.809  39.214  1.00  0.00    -0.237 OA
ATOM     50  O   UNL A   1      45.483  25.481  39.774  1.00  0.00    -0.744 OA
ENDBRANCH  43  47
ENDBRANCH  26  40
BRANCH  27  51
ATOM     51  C   UNL A   1      42.743  24.187  27.292  1.00  0.00     0.023 A 
ATOM     52  C   UNL A   1      43.588  23.504  26.396  1.00  0.00     0.031 A 
ATOM     53  C   UNL A   1      41.562  23.518  27.691  1.00  0.00     0.131 A 
ATOM     54  C   UNL A   1      43.227  22.221  25.922  1.00  0.00     0.055 A 
ATOM     55  C   UNL A   1      41.202  22.261  27.207  1.00  0.00     0.041 A 
ATOM     56  F   UNL A   1      40.754  24.032  28.631  1.00  0.00    -0.206 F 
ATOM     57  C   UNL A   1      42.039  21.602  26.322  1.00  0.00     0.022 A 
BRANCH  54  58
ATOM     58  S   UNL A   1      44.359  21.289  24.844  1.00  0.00     0.124 S 
ATOM     59  O   UNL A   1      45.605  21.322  25.601  1.00  0.00    -0.237 OA
ATOM     60  O   UNL A   1      43.697  19.995  24.738  1.00  0.00    -0.237 OA
ATOM     61  O   UNL A   1      44.373  22.070  23.606  1.00  0.00    -0.744 OA
ENDBRANCH  54  58
ENDBRANCH  27  51
BRANCH  39  62
ATOM     62  C   UNL A   1      46.293  29.096  29.232  1.00  0.00     0.023 A 
ATOM     63  C   UNL A   1      45.323  29.847  28.530  1.00  0.00     0.031 A 
ATOM     64  C   UNL A   1      47.646  29.369  28.965  1.00  0.00     0.131 A 
ATOM     65  C   UNL A   1      45.723  30.816  27.591  1.00  0.00     0.055 A 
ATOM     66  C   UNL A   1      48.040  30.341  28.046  1.00  0.00     0.041 A 
ATOM     67  F   UNL A   1      48.615  28.717  29.629  1.00  0.00    -0.206 F 
ATOM     68  C   UNL A   1      47.078  31.065  27.350  1.00  0.00     0.022 A 
BRANCH  65  69
ATOM     69  S   UNL A   1      44.479  31.773  26.668  1.00  0.00     0.124 S 
ATOM     70  O   UNL A   1      43.506  30.766  26.262  1.00  0.00    -0.237 OA
ATOM     71  O   UNL A   1      44.023  32.742  27.662  1.00  0.00    -0.237 OA
ATOM     72  O   UNL A   1      45.247  32.355  25.565  1.00  0.00    -0.744 OA
ENDBRANCH  65  69
ENDBRANCH  39  62
ENDBRANCH  13  14
ENDBRANCH   6   8
ENDBRANCH   3   4
ENDBRANCH   2   3
ENDBRANCH   1   2
BRANCH   1  73
ATOM     73  C   UNL A   1      33.751  28.728  26.086  1.00  0.00     0.116 C 
BRANCH  73  74
ATOM     74  N   UNL A   1      34.373  28.970  24.786  1.00  0.00    -0.352 N 
ATOM     75  C   UNL A   1      34.013  28.468  23.545  1.00  0.00     0.251 C 
ATOM     76  H   UNL A   1      35.153  29.571  24.792  1.00  0.00     0.163 HD
ATOM     77  O   UNL A   1      34.652  28.736  22.541  1.00  0.00    -0.269 OA
BRANCH  75  78
ATOM     78  C   UNL A   1      32.841  27.561  23.454  1.00  0.00     0.041 A 
ATOM     79  C   UNL A   1      31.585  28.113  23.204  1.00  0.00     0.018 A 
ATOM     80  C   UNL A   1      32.988  26.191  23.771  1.00  0.00     0.036 A 
ATOM     81  C   UNL A   1      30.484  27.352  23.526  1.00  0.00    -0.043 A 
ATOM     82  C   UNL A   1      31.850  25.398  24.028  1.00  0.00     0.092 A 
ATOM     83  C   UNL A   1      30.615  26.036  24.012  1.00  0.00    -0.024 A 
ATOM     84  C   UNL A   1      29.069  27.837  23.601  1.00  0.00     0.036 C 
ATOM     85  C   UNL A   1      29.302  25.645  24.619  1.00  0.00     0.037 C 
ATOM     86  C   UNL A   1      28.334  26.516  23.815  1.00  0.00     0.010 C 
BRANCH  82  87
ATOM     87  S   UNL A   1      32.064  23.734  24.633  1.00  0.00     0.262 S 
ATOM     88  O   UNL A   1      32.375  23.818  26.043  1.00  0.00    -0.201 OA
ATOM     89  O   UNL A   1      30.932  22.943  24.186  1.00  0.00    -0.201 OA
BRANCH  87  90
ATOM     90  N   UNL A   1      33.460  23.006  23.957  1.00  0.00    -0.277 N 
ATOM     91  H   UNL A   1      33.998  23.509  23.304  1.00  0.00     0.180 HD
BRANCH  90  92
ATOM     92  C   UNL A   1      33.861  21.678  24.323  1.00  0.00     0.075 A 
ATOM     93  C   UNL A   1      33.008  20.601  24.027  1.00  0.00     0.042 A 
ATOM     94  C   UNL A   1      35.143  21.420  24.838  1.00  0.00     0.089 A 
ATOM     95  C   UNL A   1      33.443  19.268  24.185  1.00  0.00     0.058 A 
ATOM     96  C   UNL A   1      35.570  20.096  25.021  1.00  0.00     0.031 A 
ATOM     97  C   UNL A   1      34.725  19.029  24.702  1.00  0.00     0.015 A 
BRANCH  94  98
ATOM     98  N   UNL A   1      36.050  22.471  25.125  1.00  0.00    -0.239 N 
ATOM     99  C   UNL A   1      37.394  22.542  24.830  1.00  0.00     0.115 A 
ATOM    100  N   UNL A   1      35.650  23.553  25.843  1.00  0.00    -0.177 NA
ATOM    101  C   UNL A   1      37.913  23.566  25.583  1.00  0.00     0.042 A 
ATOM    102  C   UNL A   1      36.796  24.130  26.216  1.00  0.00     0.135 A 
ENDBRANCH  94  98
BRANCH  95 103
ATOM    103  C   UNL A   1      32.572  18.117  23.733  1.00  0.00     0.416 C 
ATOM    104  F   UNL A   1      31.944  18.373  22.553  1.00  0.00    -0.166 F 
ATOM    105  F   UNL A   1      33.278  16.969  23.545  1.00  0.00    -0.166 F 
ATOM    106  F   UNL A   1      31.586  17.804  24.621  1.00  0.00    -0.166 F 
ENDBRANCH  95 103
ENDBRANCH  90  92
ENDBRANCH  87  90
ENDBRANCH  82  87
ENDBRANCH  75  78
ENDBRANCH  73  74
ENDBRANCH   1  73
TORSDOF 19
ENDMDL
