MODEL 1
REMARK VINA RESULT:     -11.5      0.000      0.000
REMARK SMILES Cc1ccccc1OCC(=O)NCCC(=O)NCCCCNC(=O)c1ccc(-c2c3nc(c(-c4cc(S(=O)(=O)[O-])ccc4F)c4ccc([nH]4)c(-c4cc(S(=O)(=O)[O-])ccc4F)c4nc(c(-c5cc(S(=O)(=O)[O-])ccc5F)c5ccc2[nH]5)C=C4)C=C3)cc1
REMARK SMILES IDX 18 1 17 2 15 3 16 4 14 6 13 7 12 8 10 9 11 10 9 12 8 13 7 14
REMARK SMILES IDX 1 15 2 16 3 17 4 18 6 19 5 20 19 21 20 22 21 23 22 24 23 25
REMARK SMILES IDX 24 27 25 28 26 29 87 30 27 31 86 32 28 33 29 34 30 35 80 36
REMARK SMILES IDX 31 37 85 38 79 39 81 40 32 41 84 42 78 43 77 44 33 46 65 47
REMARK SMILES IDX 45 48 64 49 46 50 49 51 63 52 82 53 47 54 48 55 62 57 83 58
REMARK SMILES IDX 50 59 34 60 35 61 43 62 36 63 42 64 44 65 41 66 37 67 38 68
REMARK SMILES IDX 39 69 40 70 66 71 67 72 75 73 68 74 74 75 76 76 73 77 69 78
REMARK SMILES IDX 70 79 71 80 72 81 51 82 52 83 60 84 53 85 59 86 61 87 58 88
REMARK SMILES IDX 54 89 55 90 56 91 57 92
REMARK H PARENT 17 5 12 11 22 26 81 45 49 56
REMARK Flexibility Score: inf
ROOT
ATOM      1  C   UNL A   1      33.425  29.215  25.706  1.00  0.00     0.116 C 
ENDROOT
BRANCH   1   2
ATOM      2  N   UNL A   1      33.989  29.027  24.367  1.00  0.00    -0.356 N 
ATOM      3  C   UNL A   1      33.386  28.729  23.184  1.00  0.00     0.221 C 
ATOM      4  O   UNL A   1      34.090  28.567  22.183  1.00  0.00    -0.275 OA
ATOM      5  H   UNL A   1      34.966  29.136  24.314  1.00  0.00     0.163 HD
BRANCH   3   6
ATOM      6  C   UNL A   1      31.888  28.559  23.102  1.00  0.00     0.121 C 
BRANCH   6   7
ATOM      7  C   UNL A   1      31.518  27.120  22.775  1.00  0.00     0.126 C 
BRANCH   7   8
ATOM      8  N   UNL A   1      31.956  26.702  21.458  1.00  0.00    -0.353 N 
ATOM      9  C   UNL A   1      32.733  25.639  21.097  1.00  0.00     0.257 C 
ATOM     10  O   UNL A   1      32.966  25.472  19.897  1.00  0.00    -0.271 OA
ATOM     11  H   UNL A   1      31.648  27.269  20.714  1.00  0.00     0.163 HD
BRANCH   9  12
ATOM     12  C   UNL A   1      33.151  24.600  22.141  1.00  0.00     0.329 C 
BRANCH  12  13
ATOM     13  O   UNL A   1      34.495  24.491  22.539  1.00  0.00    -0.484 OA
BRANCH  13  14
ATOM     14  C   UNL A   1      34.898  23.941  23.719  1.00  0.00     0.122 A 
ATOM     15  C   UNL A   1      33.998  25.601  25.498  1.00  0.00     0.048 C 
ATOM     16  C   UNL A   1      34.705  24.356  25.042  1.00  0.00    -0.009 A 
ATOM     17  C   UNL A   1      35.185  23.522  26.082  1.00  0.00     0.007 A 
ATOM     18  C   UNL A   1      35.867  22.334  25.828  1.00  0.00     0.001 A 
ATOM     19  C   UNL A   1      35.609  22.745  23.481  1.00  0.00     0.047 A 
ATOM     20  C   UNL A   1      36.090  21.948  24.519  1.00  0.00     0.004 A 
ENDBRANCH  13  14
ENDBRANCH  12  13
ENDBRANCH   9  12
ENDBRANCH   7   8
ENDBRANCH   6   7
ENDBRANCH   3   6
ENDBRANCH   1   2
BRANCH   1  21
ATOM     21  C   UNL A   1      34.494  29.136  26.805  1.00  0.00     0.023 C 
BRANCH  21  22
ATOM     22  C   UNL A   1      34.332  30.133  27.950  1.00  0.00     0.023 C 
BRANCH  22  23
ATOM     23  C   UNL A   1      34.773  31.546  27.595  1.00  0.00     0.116 C 
BRANCH  23  24
ATOM     24  N   UNL A   1      33.905  32.600  28.114  1.00  0.00    -0.352 N 
ATOM     25  C   UNL A   1      34.144  33.460  29.177  1.00  0.00     0.251 C 
ATOM     26  H   UNL A   1      33.044  32.713  27.652  1.00  0.00     0.163 HD
ATOM     27  O   UNL A   1      33.304  34.247  29.577  1.00  0.00    -0.269 OA
BRANCH  25  28
ATOM     28  C   UNL A   1      35.511  33.480  29.753  1.00  0.00     0.039 A 
ATOM     29  C   UNL A   1      36.516  34.086  28.993  1.00  0.00     0.014 A 
ATOM     30  C   UNL A   1      35.829  32.673  30.841  1.00  0.00     0.014 A 
ATOM     31  C   UNL A   1      37.835  33.682  29.172  1.00  0.00     0.010 A 
ATOM     32  C   UNL A   1      37.118  32.189  30.942  1.00  0.00     0.010 A 
ATOM     33  C   UNL A   1      38.108  32.645  30.063  1.00  0.00    -0.014 A 
BRANCH  33  34
ATOM     34  C   UNL A   1      39.352  31.881  30.030  1.00  0.00     0.031 A 
ATOM     35  C   UNL A   1      39.396  30.523  29.454  1.00  0.00     0.074 A 
ATOM     36  C   UNL A   1      40.494  32.419  30.514  1.00  0.00     0.049 A 
ATOM     37  N   UNL A   1      40.241  29.614  29.807  1.00  0.00    -0.248 NA
ATOM     38  C   UNL A   1      38.446  30.067  28.450  1.00  0.00     0.031 C 
ATOM     39  C   UNL A   1      41.854  31.910  30.351  1.00  0.00     0.029 A 
ATOM     40  N   UNL A   1      40.611  33.407  31.481  1.00  0.00    -0.354 N 
ATOM     41  C   UNL A   1      40.151  28.586  28.899  1.00  0.00     0.074 A 
ATOM     42  C   UNL A   1      38.971  28.885  28.119  1.00  0.00     0.031 C 
ATOM     43  C   UNL A   1      42.620  32.395  31.341  1.00  0.00     0.029 A 
ATOM     44  C   UNL A   1      41.748  33.115  32.249  1.00  0.00     0.049 A 
ATOM     45  H   UNL A   1      40.007  34.174  31.605  1.00  0.00     0.167 HD
ATOM     46  C   UNL A   1      41.158  27.671  28.810  1.00  0.00     0.034 A 
ATOM     47  C   UNL A   1      41.655  32.896  33.592  1.00  0.00     0.034 A 
ATOM     48  C   UNL A   1      42.211  27.912  29.800  1.00  0.00     0.049 A 
ATOM     49  C   UNL A   1      42.162  31.544  34.032  1.00  0.00     0.074 A 
ATOM     50  C   UNL A   1      43.478  28.465  29.719  1.00  0.00     0.029 A 
ATOM     51  N   UNL A   1      41.925  27.800  31.157  1.00  0.00    -0.354 N 
ATOM     52  N   UNL A   1      42.374  30.533  33.237  1.00  0.00    -0.248 NA
ATOM     53  C   UNL A   1      42.424  31.225  35.426  1.00  0.00     0.031 C 
ATOM     54  C   UNL A   1      43.954  28.684  31.040  1.00  0.00     0.029 A 
ATOM     55  C   UNL A   1      42.983  28.250  31.927  1.00  0.00     0.049 A 
ATOM     56  H   UNL A   1      41.081  27.448  31.520  1.00  0.00     0.167 HD
ATOM     57  C   UNL A   1      42.730  29.429  33.978  1.00  0.00     0.074 A 
ATOM     58  C   UNL A   1      42.772  29.932  35.341  1.00  0.00     0.031 C 
ATOM     59  C   UNL A   1      42.921  28.205  33.387  1.00  0.00     0.034 A 
BRANCH  46  60
ATOM     60  C   UNL A   1      41.335  26.752  27.618  1.00  0.00     0.023 A 
ATOM     61  C   UNL A   1      41.334  25.354  27.812  1.00  0.00     0.031 A 
ATOM     62  C   UNL A   1      41.553  27.171  26.292  1.00  0.00     0.131 A 
ATOM     63  C   UNL A   1      41.664  24.465  26.772  1.00  0.00     0.055 A 
ATOM     64  C   UNL A   1      41.948  26.295  25.271  1.00  0.00     0.041 A 
ATOM     65  F   UNL A   1      41.338  28.439  25.913  1.00  0.00    -0.206 F 
ATOM     66  C   UNL A   1      42.024  24.932  25.513  1.00  0.00     0.022 A 
BRANCH  63  67
ATOM     67  S   UNL A   1      41.602  22.679  27.087  1.00  0.00     0.124 S 
ATOM     68  O   UNL A   1      42.707  22.489  28.022  1.00  0.00    -0.237 OA
ATOM     69  O   UNL A   1      40.260  22.509  27.630  1.00  0.00    -0.237 OA
ATOM     70  O   UNL A   1      41.809  22.095  25.763  1.00  0.00    -0.744 OA
ENDBRANCH  63  67
ENDBRANCH  46  60
BRANCH  47  71
ATOM     71  C   UNL A   1      40.539  33.639  34.244  1.00  0.00     0.023 A 
ATOM     72  C   UNL A   1      39.557  32.867  34.894  1.00  0.00     0.031 A 
ATOM     73  C   UNL A   1      40.631  34.997  34.577  1.00  0.00     0.131 A 
ATOM     74  C   UNL A   1      38.847  33.399  35.977  1.00  0.00     0.055 A 
ATOM     75  C   UNL A   1      39.845  35.550  35.598  1.00  0.00     0.041 A 
ATOM     76  F   UNL A   1      41.565  35.778  34.015  1.00  0.00    -0.206 F 
ATOM     77  C   UNL A   1      38.982  34.739  36.335  1.00  0.00     0.022 A 
BRANCH  74  78
ATOM     78  S   UNL A   1      38.003  32.230  37.077  1.00  0.00     0.124 S 
ATOM     79  O   UNL A   1      36.794  32.970  37.419  1.00  0.00    -0.237 OA
ATOM     80  O   UNL A   1      37.817  31.068  36.209  1.00  0.00    -0.237 OA
ATOM     81  O   UNL A   1      38.952  32.024  38.166  1.00  0.00    -0.744 OA
ENDBRANCH  74  78
ENDBRANCH  47  71
BRANCH  59  82
ATOM     82  C   UNL A   1      43.115  26.863  34.091  1.00  0.00     0.023 A 
ATOM     83  C   UNL A   1      44.325  26.158  34.133  1.00  0.00     0.031 A 
ATOM     84  C   UNL A   1      42.047  26.237  34.786  1.00  0.00     0.131 A 
ATOM     85  C   UNL A   1      44.454  24.927  34.809  1.00  0.00     0.055 A 
ATOM     86  C   UNL A   1      42.176  25.023  35.475  1.00  0.00     0.041 A 
ATOM     87  F   UNL A   1      40.822  26.779  34.851  1.00  0.00    -0.206 F 
ATOM     88  C   UNL A   1      43.387  24.355  35.488  1.00  0.00     0.022 A 
BRANCH  85  89
ATOM     89  S   UNL A   1      46.059  24.086  34.749  1.00  0.00     0.124 S 
ATOM     90  O   UNL A   1      46.799  24.906  33.795  1.00  0.00    -0.237 OA
ATOM     91  O   UNL A   1      46.506  24.174  36.136  1.00  0.00    -0.237 OA
ATOM     92  O   UNL A   1      45.728  22.740  34.286  1.00  0.00    -0.744 OA
ENDBRANCH  85  89
ENDBRANCH  59  82
ENDBRANCH  33  34
ENDBRANCH  25  28
ENDBRANCH  23  24
ENDBRANCH  22  23
ENDBRANCH  21  22
ENDBRANCH   1  21
TORSDOF 19
ENDMDL
MODEL 2
REMARK VINA RESULT:     -10.9      4.045      9.754
REMARK SMILES Cc1ccccc1OCC(=O)NCCC(=O)NCCCCNC(=O)c1ccc(-c2c3nc(c(-c4cc(S(=O)(=O)[O-])ccc4F)c4ccc([nH]4)c(-c4cc(S(=O)(=O)[O-])ccc4F)c4nc(c(-c5cc(S(=O)(=O)[O-])ccc5F)c5ccc2[nH]5)C=C4)C=C3)cc1
REMARK SMILES IDX 18 1 17 2 15 3 16 4 14 6 13 7 12 8 10 9 11 10 9 12 8 13 7 14
REMARK SMILES IDX 1 15 2 16 3 17 4 18 6 19 5 20 19 21 20 22 21 23 22 24 23 25
REMARK SMILES IDX 24 27 25 28 26 29 87 30 27 31 86 32 28 33 29 34 30 35 80 36
REMARK SMILES IDX 31 37 85 38 79 39 81 40 32 41 84 42 78 43 77 44 33 46 65 47
REMARK SMILES IDX 45 48 64 49 46 50 49 51 63 52 82 53 47 54 48 55 62 57 83 58
REMARK SMILES IDX 50 59 34 60 35 61 43 62 36 63 42 64 44 65 41 66 37 67 38 68
REMARK SMILES IDX 39 69 40 70 66 71 67 72 75 73 68 74 74 75 76 76 73 77 69 78
REMARK SMILES IDX 70 79 71 80 72 81 51 82 52 83 60 84 53 85 59 86 61 87 58 88
REMARK SMILES IDX 54 89 55 90 56 91 57 92
REMARK H PARENT 17 5 12 11 22 26 81 45 49 56
REMARK Flexibility Score: inf
ROOT
ATOM      1  C   UNL A   1      36.621  23.387  25.353  1.00  0.00     0.116 C 
ENDROOT
BRANCH   1   2
ATOM      2  N   UNL A   1      35.287  22.827  25.581  1.00  0.00    -0.356 N 
ATOM      3  C   UNL A   1      34.157  22.893  24.826  1.00  0.00     0.221 C 
ATOM      4  O   UNL A   1      33.123  22.377  25.259  1.00  0.00    -0.275 OA
ATOM      5  H   UNL A   1      35.192  22.318  26.419  1.00  0.00     0.163 HD
BRANCH   3   6
ATOM      6  C   UNL A   1      34.154  23.616  23.501  1.00  0.00     0.121 C 
BRANCH   6   7
ATOM      7  C   UNL A   1      32.736  23.803  22.983  1.00  0.00     0.126 C 
BRANCH   7   8
ATOM      8  N   UNL A   1      32.686  24.271  21.612  1.00  0.00    -0.353 N 
ATOM      9  C   UNL A   1      32.837  25.535  21.119  1.00  0.00     0.257 C 
ATOM     10  O   UNL A   1      32.768  25.694  19.898  1.00  0.00    -0.271 OA
ATOM     11  H   UNL A   1      32.518  23.574  20.937  1.00  0.00     0.163 HD
BRANCH   9  12
ATOM     12  C   UNL A   1      33.249  26.681  22.048  1.00  0.00     0.329 C 
BRANCH  12  13
ATOM     13  O   UNL A   1      32.273  27.436  22.723  1.00  0.00    -0.484 OA
BRANCH  13  14
ATOM     14  C   UNL A   1      32.293  27.680  24.064  1.00  0.00     0.122 A 
ATOM     15  C   UNL A   1      30.380  26.187  24.978  1.00  0.00     0.048 C 
ATOM     16  C   UNL A   1      31.514  27.164  25.106  1.00  0.00    -0.009 A 
ATOM     17  C   UNL A   1      31.824  27.557  26.431  1.00  0.00     0.007 A 
ATOM     18  C   UNL A   1      32.844  28.460  26.721  1.00  0.00     0.001 A 
ATOM     19  C   UNL A   1      33.309  28.609  24.374  1.00  0.00     0.047 A 
ATOM     20  C   UNL A   1      33.585  28.998  25.684  1.00  0.00     0.004 A 
ENDBRANCH  13  14
ENDBRANCH  12  13
ENDBRANCH   9  12
ENDBRANCH   7   8
ENDBRANCH   6   7
ENDBRANCH   3   6
ENDBRANCH   1   2
BRANCH   1  21
ATOM     21  C   UNL A   1      37.602  22.347  24.792  1.00  0.00     0.023 C 
BRANCH  21  22
ATOM     22  C   UNL A   1      38.587  21.762  25.801  1.00  0.00     0.023 C 
BRANCH  22  23
ATOM     23  C   UNL A   1      39.157  22.795  26.764  1.00  0.00     0.116 C 
BRANCH  23  24
ATOM     24  N   UNL A   1      40.586  23.049  26.602  1.00  0.00    -0.352 N 
ATOM     25  C   UNL A   1      41.244  24.271  26.606  1.00  0.00     0.251 C 
ATOM     26  H   UNL A   1      41.152  22.254  26.475  1.00  0.00     0.163 HD
ATOM     27  O   UNL A   1      42.436  24.367  26.373  1.00  0.00    -0.269 OA
BRANCH  25  28
ATOM     28  C   UNL A   1      40.471  25.468  27.019  1.00  0.00     0.039 A 
ATOM     29  C   UNL A   1      40.683  26.646  26.297  1.00  0.00     0.014 A 
ATOM     30  C   UNL A   1      39.808  25.491  28.241  1.00  0.00     0.014 A 
ATOM     31  C   UNL A   1      40.454  27.870  26.917  1.00  0.00     0.010 A 
ATOM     32  C   UNL A   1      39.687  26.700  28.897  1.00  0.00     0.010 A 
ATOM     33  C   UNL A   1      40.073  27.885  28.259  1.00  0.00    -0.014 A 
BRANCH  33  34
ATOM     34  C   UNL A   1      40.201  29.069  29.103  1.00  0.00     0.031 A 
ATOM     35  C   UNL A   1      39.134  30.087  29.154  1.00  0.00     0.074 A 
ATOM     36  C   UNL A   1      41.301  29.241  29.870  1.00  0.00     0.049 A 
ATOM     37  N   UNL A   1      39.334  31.331  29.433  1.00  0.00    -0.248 NA
ATOM     38  C   UNL A   1      37.744  29.780  28.848  1.00  0.00     0.031 C 
ATOM     39  C   UNL A   1      41.495  30.221  30.937  1.00  0.00     0.029 A 
ATOM     40  N   UNL A   1      42.568  28.720  29.648  1.00  0.00    -0.354 N 
ATOM     41  C   UNL A   1      38.105  31.914  29.635  1.00  0.00     0.074 A 
ATOM     42  C   UNL A   1      37.149  30.926  29.189  1.00  0.00     0.031 C 
ATOM     43  C   UNL A   1      42.812  30.418  31.110  1.00  0.00     0.029 A 
ATOM     44  C   UNL A   1      43.501  29.680  30.068  1.00  0.00     0.049 A 
ATOM     45  H   UNL A   1      42.775  27.836  29.267  1.00  0.00     0.167 HD
ATOM     46  C   UNL A   1      38.022  33.109  30.288  1.00  0.00     0.034 A 
ATOM     47  C   UNL A   1      44.410  30.207  29.200  1.00  0.00     0.034 A 
ATOM     48  C   UNL A   1      39.343  33.639  30.637  1.00  0.00     0.049 A 
ATOM     49  C   UNL A   1      44.332  31.707  29.061  1.00  0.00     0.074 A 
ATOM     50  C   UNL A   1      40.060  33.693  31.820  1.00  0.00     0.029 A 
ATOM     51  N   UNL A   1      40.235  33.995  29.630  1.00  0.00    -0.354 N 
ATOM     52  N   UNL A   1      43.324  32.440  29.446  1.00  0.00    -0.248 NA
ATOM     53  C   UNL A   1      45.382  32.489  28.426  1.00  0.00     0.031 C 
ATOM     54  C   UNL A   1      41.390  34.086  31.518  1.00  0.00     0.029 A 
ATOM     55  C   UNL A   1      41.483  34.286  30.151  1.00  0.00     0.049 A 
ATOM     56  H   UNL A   1      40.008  34.033  28.673  1.00  0.00     0.167 HD
ATOM     57  C   UNL A   1      43.535  33.749  29.074  1.00  0.00     0.074 A 
ATOM     58  C   UNL A   1      44.854  33.722  28.464  1.00  0.00     0.031 C 
ATOM     59  C   UNL A   1      42.579  34.711  29.281  1.00  0.00     0.034 A 
BRANCH  46  60
ATOM     60  C   UNL A   1      36.733  33.635  30.885  1.00  0.00     0.023 A 
ATOM     61  C   UNL A   1      35.753  34.198  30.039  1.00  0.00     0.031 A 
ATOM     62  C   UNL A   1      36.422  33.660  32.258  1.00  0.00     0.131 A 
ATOM     63  C   UNL A   1      34.620  34.852  30.556  1.00  0.00     0.055 A 
ATOM     64  C   UNL A   1      35.332  34.370  32.780  1.00  0.00     0.041 A 
ATOM     65  F   UNL A   1      37.130  32.952  33.150  1.00  0.00    -0.206 F 
ATOM     66  C   UNL A   1      34.431  34.988  31.927  1.00  0.00     0.022 A 
BRANCH  63  67
ATOM     67  S   UNL A   1      33.384  35.515  29.406  1.00  0.00     0.124 S 
ATOM     68  O   UNL A   1      34.215  36.108  28.363  1.00  0.00    -0.237 OA
ATOM     69  O   UNL A   1      32.636  34.319  29.035  1.00  0.00    -0.237 OA
ATOM     70  O   UNL A   1      32.643  36.476  30.222  1.00  0.00    -0.744 OA
ENDBRANCH  63  67
ENDBRANCH  46  60
BRANCH  47  71
ATOM     71  C   UNL A   1      44.809  29.271  28.110  1.00  0.00     0.023 A 
ATOM     72  C   UNL A   1      45.746  28.273  28.442  1.00  0.00     0.031 A 
ATOM     73  C   UNL A   1      44.038  29.087  26.955  1.00  0.00     0.131 A 
ATOM     74  C   UNL A   1      45.750  27.055  27.752  1.00  0.00     0.055 A 
ATOM     75  C   UNL A   1      44.118  27.903  26.208  1.00  0.00     0.041 A 
ATOM     76  F   UNL A   1      43.108  29.987  26.602  1.00  0.00    -0.206 F 
ATOM     77  C   UNL A   1      44.942  26.861  26.634  1.00  0.00     0.022 A 
BRANCH  74  78
ATOM     78  S   UNL A   1      46.591  25.653  28.538  1.00  0.00     0.124 S 
ATOM     79  O   UNL A   1      45.595  24.598  28.399  1.00  0.00    -0.237 OA
ATOM     80  O   UNL A   1      47.792  25.512  27.715  1.00  0.00    -0.237 OA
ATOM     81  O   UNL A   1      46.844  26.114  29.899  1.00  0.00    -0.744 OA
ENDBRANCH  74  78
ENDBRANCH  47  71
BRANCH  59  82
ATOM     82  C   UNL A   1      42.583  36.142  28.746  1.00  0.00     0.023 A 
ATOM     83  C   UNL A   1      43.021  37.258  29.472  1.00  0.00     0.031 A 
ATOM     84  C   UNL A   1      42.144  36.436  27.428  1.00  0.00     0.131 A 
ATOM     85  C   UNL A   1      43.016  38.558  28.926  1.00  0.00     0.055 A 
ATOM     86  C   UNL A   1      42.155  37.723  26.876  1.00  0.00     0.041 A 
ATOM     87  F   UNL A   1      41.698  35.484  26.596  1.00  0.00    -0.206 F 
ATOM     88  C   UNL A   1      42.591  38.800  27.627  1.00  0.00     0.022 A 
BRANCH  85  89
ATOM     89  S   UNL A   1      43.560  39.928  29.983  1.00  0.00     0.124 S 
ATOM     90  O   UNL A   1      42.292  40.543  30.363  1.00  0.00    -0.237 OA
ATOM     91  O   UNL A   1      44.268  39.230  31.052  1.00  0.00    -0.237 OA
ATOM     92  O   UNL A   1      44.402  40.733  29.101  1.00  0.00    -0.744 OA
ENDBRANCH  85  89
ENDBRANCH  59  82
ENDBRANCH  33  34
ENDBRANCH  25  28
ENDBRANCH  23  24
ENDBRANCH  22  23
ENDBRANCH  21  22
ENDBRANCH   1  21
TORSDOF 19
ENDMDL
MODEL 3
REMARK VINA RESULT:     -10.4      4.473      9.898
REMARK SMILES Cc1ccccc1OCC(=O)NCCC(=O)NCCCCNC(=O)c1ccc(-c2c3nc(c(-c4cc(S(=O)(=O)[O-])ccc4F)c4ccc([nH]4)c(-c4cc(S(=O)(=O)[O-])ccc4F)c4nc(c(-c5cc(S(=O)(=O)[O-])ccc5F)c5ccc2[nH]5)C=C4)C=C3)cc1
REMARK SMILES IDX 18 1 17 2 15 3 16 4 14 6 13 7 12 8 10 9 11 10 9 12 8 13 7 14
REMARK SMILES IDX 1 15 2 16 3 17 4 18 6 19 5 20 19 21 20 22 21 23 22 24 23 25
REMARK SMILES IDX 24 27 25 28 26 29 87 30 27 31 86 32 28 33 29 34 30 35 80 36
REMARK SMILES IDX 31 37 85 38 79 39 81 40 32 41 84 42 78 43 77 44 33 46 65 47
REMARK SMILES IDX 45 48 64 49 46 50 49 51 63 52 82 53 47 54 48 55 62 57 83 58
REMARK SMILES IDX 50 59 34 60 35 61 43 62 36 63 42 64 44 65 41 66 37 67 38 68
REMARK SMILES IDX 39 69 40 70 66 71 67 72 75 73 68 74 74 75 76 76 73 77 69 78
REMARK SMILES IDX 70 79 71 80 72 81 51 82 52 83 60 84 53 85 59 86 61 87 58 88
REMARK SMILES IDX 54 89 55 90 56 91 57 92
REMARK H PARENT 17 5 12 11 22 26 81 45 49 56
REMARK Flexibility Score: inf
ROOT
ATOM      1  C   UNL A   1      36.177  22.191  26.610  1.00  0.00     0.116 C 
ENDROOT
BRANCH   1   2
ATOM      2  N   UNL A   1      35.063  21.389  26.100  1.00  0.00    -0.356 N 
ATOM      3  C   UNL A   1      33.728  21.463  26.354  1.00  0.00     0.221 C 
ATOM      4  O   UNL A   1      32.978  20.630  25.837  1.00  0.00    -0.275 OA
ATOM      5  H   UNL A   1      35.322  20.679  25.469  1.00  0.00     0.163 HD
BRANCH   3   6
ATOM      6  C   UNL A   1      33.175  22.518  27.281  1.00  0.00     0.121 C 
BRANCH   6   7
ATOM      7  C   UNL A   1      32.008  23.254  26.640  1.00  0.00     0.126 C 
BRANCH   7   8
ATOM      8  N   UNL A   1      32.003  23.166  25.193  1.00  0.00    -0.353 N 
ATOM      9  C   UNL A   1      31.396  23.974  24.275  1.00  0.00     0.257 C 
ATOM     10  O   UNL A   1      31.545  23.708  23.080  1.00  0.00    -0.271 OA
ATOM     11  H   UNL A   1      32.512  22.411  24.817  1.00  0.00     0.163 HD
BRANCH   9  12
ATOM     12  C   UNL A   1      30.699  25.262  24.723  1.00  0.00     0.329 C 
BRANCH  12  13
ATOM     13  O   UNL A   1      31.203  26.516  24.334  1.00  0.00    -0.484 OA
BRANCH  13  14
ATOM     14  C   UNL A   1      31.877  27.358  25.168  1.00  0.00     0.122 A 
ATOM     15  C   UNL A   1      33.674  28.421  23.630  1.00  0.00     0.048 C 
ATOM     16  C   UNL A   1      32.948  28.227  24.931  1.00  0.00    -0.009 A 
ATOM     17  C   UNL A   1      33.393  29.047  25.997  1.00  0.00     0.007 A 
ATOM     18  C   UNL A   1      32.829  28.986  27.269  1.00  0.00     0.001 A 
ATOM     19  C   UNL A   1      31.331  27.295  26.468  1.00  0.00     0.047 A 
ATOM     20  C   UNL A   1      31.797  28.096  27.509  1.00  0.00     0.004 A 
ENDBRANCH  13  14
ENDBRANCH  12  13
ENDBRANCH   9  12
ENDBRANCH   7   8
ENDBRANCH   6   7
ENDBRANCH   3   6
ENDBRANCH   1   2
BRANCH   1  21
ATOM     21  C   UNL A   1      36.522  23.365  25.681  1.00  0.00     0.023 C 
BRANCH  21  22
ATOM     22  C   UNL A   1      38.010  23.560  25.396  1.00  0.00     0.023 C 
BRANCH  22  23
ATOM     23  C   UNL A   1      38.918  22.925  26.439  1.00  0.00     0.116 C 
BRANCH  23  24
ATOM     24  N   UNL A   1      39.600  21.714  25.991  1.00  0.00    -0.352 N 
ATOM     25  C   UNL A   1      40.962  21.445  25.999  1.00  0.00     0.251 C 
ATOM     26  H   UNL A   1      39.021  21.000  25.639  1.00  0.00     0.163 HD
ATOM     27  O   UNL A   1      41.426  20.428  25.516  1.00  0.00    -0.269 OA
BRANCH  25  28
ATOM     28  C   UNL A   1      41.846  22.390  26.725  1.00  0.00     0.039 A 
ATOM     29  C   UNL A   1      41.944  22.237  28.111  1.00  0.00     0.014 A 
ATOM     30  C   UNL A   1      42.305  23.546  26.101  1.00  0.00     0.014 A 
ATOM     31  C   UNL A   1      42.270  23.341  28.892  1.00  0.00     0.010 A 
ATOM     32  C   UNL A   1      42.518  24.668  26.878  1.00  0.00     0.010 A 
ATOM     33  C   UNL A   1      42.434  24.580  28.273  1.00  0.00    -0.014 A 
BRANCH  33  34
ATOM     34  C   UNL A   1      42.370  25.843  29.002  1.00  0.00     0.031 A 
ATOM     35  C   UNL A   1      41.209  26.744  28.864  1.00  0.00     0.074 A 
ATOM     36  C   UNL A   1      43.374  26.200  29.835  1.00  0.00     0.049 A 
ATOM     37  N   UNL A   1      41.261  28.022  29.032  1.00  0.00    -0.248 NA
ATOM     38  C   UNL A   1      39.889  26.266  28.478  1.00  0.00     0.031 C 
ATOM     39  C   UNL A   1      43.374  27.288  30.810  1.00  0.00     0.029 A 
ATOM     40  N   UNL A   1      44.700  25.797  29.770  1.00  0.00    -0.354 N 
ATOM     41  C   UNL A   1      39.968  28.489  29.074  1.00  0.00     0.074 A 
ATOM     42  C   UNL A   1      39.157  27.369  28.653  1.00  0.00     0.031 C 
ATOM     43  C   UNL A   1      44.644  27.638  31.069  1.00  0.00     0.029 A 
ATOM     44  C   UNL A   1      45.493  26.884  30.166  1.00  0.00     0.049 A 
ATOM     45  H   UNL A   1      45.026  24.909  29.497  1.00  0.00     0.167 HD
ATOM     46  C   UNL A   1      39.711  29.723  29.595  1.00  0.00     0.034 A 
ATOM     47  C   UNL A   1      46.423  27.422  29.326  1.00  0.00     0.034 A 
ATOM     48  C   UNL A   1      40.937  30.419  29.995  1.00  0.00     0.049 A 
ATOM     49  C   UNL A   1      46.212  28.887  29.031  1.00  0.00     0.074 A 
ATOM     50  C   UNL A   1      41.534  30.656  31.221  1.00  0.00     0.029 A 
ATOM     51  N   UNL A   1      41.878  30.773  29.033  1.00  0.00    -0.354 N 
ATOM     52  N   UNL A   1      45.107  29.541  29.258  1.00  0.00    -0.248 NA
ATOM     53  C   UNL A   1      47.235  29.713  28.409  1.00  0.00     0.031 C 
ATOM     54  C   UNL A   1      42.843  31.158  30.990  1.00  0.00     0.029 A 
ATOM     55  C   UNL A   1      43.039  31.241  29.622  1.00  0.00     0.049 A 
ATOM     56  H   UNL A   1      41.736  30.699  28.062  1.00  0.00     0.167 HD
ATOM     57  C   UNL A   1      45.223  30.825  28.775  1.00  0.00     0.074 A 
ATOM     58  C   UNL A   1      46.588  30.882  28.280  1.00  0.00     0.031 C 
ATOM     59  C   UNL A   1      44.163  31.697  28.806  1.00  0.00     0.034 A 
BRANCH  46  60
ATOM     60  C   UNL A   1      38.328  30.163  30.029  1.00  0.00     0.023 A 
ATOM     61  C   UNL A   1      37.710  31.255  29.383  1.00  0.00     0.031 A 
ATOM     62  C   UNL A   1      37.588  29.597  31.085  1.00  0.00     0.131 A 
ATOM     63  C   UNL A   1      36.508  31.809  29.859  1.00  0.00     0.055 A 
ATOM     64  C   UNL A   1      36.426  30.187  31.604  1.00  0.00     0.041 A 
ATOM     65  F   UNL A   1      37.925  28.417  31.624  1.00  0.00    -0.206 F 
ATOM     66  C   UNL A   1      35.888  31.313  31.001  1.00  0.00     0.022 A 
BRANCH  63  67
ATOM     67  S   UNL A   1      35.753  33.187  28.951  1.00  0.00     0.124 S 
ATOM     68  O   UNL A   1      34.488  33.368  29.654  1.00  0.00    -0.237 OA
ATOM     69  O   UNL A   1      36.743  34.244  29.118  1.00  0.00    -0.237 OA
ATOM     70  O   UNL A   1      35.631  32.669  27.589  1.00  0.00    -0.744 OA
ENDBRANCH  63  67
ENDBRANCH  46  60
BRANCH  47  71
ATOM     71  C   UNL A   1      47.008  26.437  28.371  1.00  0.00     0.023 A 
ATOM     72  C   UNL A   1      46.779  26.669  27.001  1.00  0.00     0.031 A 
ATOM     73  C   UNL A   1      48.056  25.577  28.724  1.00  0.00     0.131 A 
ATOM     74  C   UNL A   1      47.699  26.217  26.048  1.00  0.00     0.055 A 
ATOM     75  C   UNL A   1      48.917  25.045  27.754  1.00  0.00     0.041 A 
ATOM     76  F   UNL A   1      48.343  25.340  30.012  1.00  0.00    -0.206 F 
ATOM     77  C   UNL A   1      48.769  25.403  26.414  1.00  0.00     0.022 A 
BRANCH  74  78
ATOM     78  S   UNL A   1      47.635  26.973  24.401  1.00  0.00     0.124 S 
ATOM     79  O   UNL A   1      48.122  25.887  23.560  1.00  0.00    -0.237 OA
ATOM     80  O   UNL A   1      46.216  27.301  24.266  1.00  0.00    -0.237 OA
ATOM     81  O   UNL A   1      48.513  28.133  24.513  1.00  0.00    -0.744 OA
ENDBRANCH  74  78
ENDBRANCH  47  71
BRANCH  59  82
ATOM     82  C   UNL A   1      44.078  33.066  28.133  1.00  0.00     0.023 A 
ATOM     83  C   UNL A   1      44.001  34.284  28.821  1.00  0.00     0.031 A 
ATOM     84  C   UNL A   1      44.089  33.191  26.718  1.00  0.00     0.131 A 
ATOM     85  C   UNL A   1      43.936  35.523  28.150  1.00  0.00     0.055 A 
ATOM     86  C   UNL A   1      44.043  34.421  26.048  1.00  0.00     0.041 A 
ATOM     87  F   UNL A   1      44.164  32.125  25.908  1.00  0.00    -0.206 F 
ATOM     88  C   UNL A   1      43.964  35.602  26.764  1.00  0.00     0.022 A 
BRANCH  85  89
ATOM     89  S   UNL A   1      43.789  37.027  29.151  1.00  0.00     0.124 S 
ATOM     90  O   UNL A   1      43.582  36.485  30.491  1.00  0.00    -0.237 OA
ATOM     91  O   UNL A   1      45.077  37.675  28.925  1.00  0.00    -0.237 OA
ATOM     92  O   UNL A   1      42.636  37.716  28.575  1.00  0.00    -0.744 OA
ENDBRANCH  85  89
ENDBRANCH  59  82
ENDBRANCH  33  34
ENDBRANCH  25  28
ENDBRANCH  23  24
ENDBRANCH  22  23
ENDBRANCH  21  22
ENDBRANCH   1  21
TORSDOF 19
ENDMDL
