MODEL 1
REMARK VINA RESULT:     -11.9      0.000      0.000
REMARK SMILES O=C(NCCCCNC(=O)c1ccc(S(=O)(=O)NCc2ccn[nH]2)c(F)c1)c1ccc(-c2c3nc(c(-c4cc(S(=O)(=O)[O-])ccc4F)c4ccc([nH]4)c(-c4cc(S(=O)(=O)[O-])ccc4F)c4nc(c(-c5cc(S(=O)(=O)[O-])ccc5F)c5ccc2[nH]5)C=C4)C=C3)cc1
REMARK SMILES IDX 6 1 5 2 4 3 3 4 1 5 2 6 28 8 29 9 90 10 30 11 89 12 31 13
REMARK SMILES IDX 32 14 33 15 83 16 34 17 88 18 82 19 84 20 35 21 87 22 81 23
REMARK SMILES IDX 80 24 36 26 68 27 48 28 67 29 49 30 52 31 66 32 85 33 50 34
REMARK SMILES IDX 51 35 65 37 86 38 53 39 37 40 38 41 46 42 39 43 45 44 47 45
REMARK SMILES IDX 44 46 40 47 41 48 42 49 43 50 69 51 70 52 78 53 71 54 77 55
REMARK SMILES IDX 79 56 76 57 72 58 73 59 74 60 75 61 54 62 55 63 63 64 56 65
REMARK SMILES IDX 62 66 64 67 61 68 57 69 58 70 59 71 60 72 7 73 8 74 9 75
REMARK SMILES IDX 10 77 11 78 12 79 27 80 13 81 25 82 14 83 26 84 15 85 16 86
REMARK SMILES IDX 17 87 18 88 19 90 20 91 21 92 24 93 22 94 23 95
REMARK H PARENT 3 7 84 25 52 36 8 76 18 89 24 96
REMARK Flexibility Score: inf
ROOT
ATOM      1  C   UNL A   1      33.867  27.915  24.122  1.00  0.00     0.023 C 
ENDROOT
BRANCH   1   2
ATOM      2  C   UNL A   1      33.443  29.331  24.497  1.00  0.00     0.023 C 
BRANCH   2   3
ATOM      3  C   UNL A   1      32.633  29.456  25.783  1.00  0.00     0.116 C 
BRANCH   3   4
ATOM      4  N   UNL A   1      32.302  30.834  26.118  1.00  0.00    -0.352 N 
ATOM      5  O   UNL A   1      32.401  32.777  27.251  1.00  0.00    -0.269 OA
ATOM      6  C   UNL A   1      32.912  31.688  27.006  1.00  0.00     0.251 C 
ATOM      7  H   UNL A   1      31.528  31.208  25.637  1.00  0.00     0.163 HD
BRANCH   6   8
ATOM      8  C   UNL A   1      34.163  31.282  27.686  1.00  0.00     0.039 A 
ATOM      9  C   UNL A   1      34.386  29.949  28.035  1.00  0.00     0.014 A 
ATOM     10  C   UNL A   1      35.125  32.254  27.977  1.00  0.00     0.014 A 
ATOM     11  C   UNL A   1      35.496  29.613  28.806  1.00  0.00     0.010 A 
ATOM     12  C   UNL A   1      36.280  31.899  28.682  1.00  0.00     0.010 A 
ATOM     13  C   UNL A   1      36.459  30.582  29.131  1.00  0.00    -0.014 A 
BRANCH  13  14
ATOM     14  C   UNL A   1      37.663  30.188  29.908  1.00  0.00     0.031 A 
ATOM     15  C   UNL A   1      38.736  29.334  29.291  1.00  0.00     0.074 A 
ATOM     16  C   UNL A   1      37.800  30.639  31.172  1.00  0.00     0.049 A 
ATOM     17  N   UNL A   1      39.828  28.864  29.837  1.00  0.00    -0.248 NA
ATOM     18  C   UNL A   1      38.562  28.955  27.880  1.00  0.00     0.031 C 
ATOM     19  C   UNL A   1      36.835  31.494  31.869  1.00  0.00     0.029 A 
ATOM     20  N   UNL A   1      38.804  30.460  32.088  1.00  0.00    -0.354 N 
ATOM     21  C   UNL A   1      40.466  28.126  28.846  1.00  0.00     0.074 A 
ATOM     22  C   UNL A   1      39.626  28.190  27.669  1.00  0.00     0.031 C 
ATOM     23  C   UNL A   1      37.316  31.802  33.082  1.00  0.00     0.029 A 
ATOM     24  C   UNL A   1      38.583  31.108  33.280  1.00  0.00     0.049 A 
ATOM     25  H   UNL A   1      39.606  29.918  31.909  1.00  0.00     0.167 HD
ATOM     26  C   UNL A   1      41.645  27.462  28.914  1.00  0.00     0.034 A 
ATOM     27  C   UNL A   1      39.304  31.124  34.418  1.00  0.00     0.034 A 
ATOM     28  C   UNL A   1      42.481  27.414  30.089  1.00  0.00     0.049 A 
ATOM     29  C   UNL A   1      40.575  30.325  34.486  1.00  0.00     0.074 A 
ATOM     30  C   UNL A   1      43.700  26.779  30.252  1.00  0.00     0.029 A 
ATOM     31  N   UNL A   1      42.186  28.023  31.300  1.00  0.00    -0.354 N 
ATOM     32  N   UNL A   1      41.140  29.598  33.549  1.00  0.00    -0.248 NA
ATOM     33  C   UNL A   1      41.297  30.335  35.763  1.00  0.00     0.031 C 
ATOM     34  C   UNL A   1      44.116  26.958  31.576  1.00  0.00     0.029 A 
ATOM     35  C   UNL A   1      43.187  27.757  32.222  1.00  0.00     0.049 A 
ATOM     36  H   UNL A   1      41.384  28.565  31.480  1.00  0.00     0.167 HD
ATOM     37  C   UNL A   1      42.289  29.070  34.126  1.00  0.00     0.074 A 
ATOM     38  C   UNL A   1      42.346  29.572  35.484  1.00  0.00     0.031 C 
ATOM     39  C   UNL A   1      43.216  28.245  33.579  1.00  0.00     0.034 A 
BRANCH  26  40
ATOM     40  C   UNL A   1      42.096  26.698  27.696  1.00  0.00     0.023 A 
ATOM     41  C   UNL A   1      41.852  25.322  27.556  1.00  0.00     0.031 A 
ATOM     42  C   UNL A   1      42.737  27.369  26.639  1.00  0.00     0.131 A 
ATOM     43  C   UNL A   1      42.274  24.653  26.397  1.00  0.00     0.055 A 
ATOM     44  C   UNL A   1      43.104  26.710  25.465  1.00  0.00     0.041 A 
ATOM     45  F   UNL A   1      43.007  28.681  26.729  1.00  0.00    -0.206 F 
ATOM     46  C   UNL A   1      42.877  25.342  25.341  1.00  0.00     0.022 A 
BRANCH  43  47
ATOM     47  S   UNL A   1      42.076  22.853  26.306  1.00  0.00     0.124 S 
ATOM     48  O   UNL A   1      40.627  22.710  26.418  1.00  0.00    -0.237 OA
ATOM     49  O   UNL A   1      42.649  22.535  25.003  1.00  0.00    -0.237 OA
ATOM     50  O   UNL A   1      42.836  22.365  27.456  1.00  0.00    -0.744 OA
ENDBRANCH  43  47
ENDBRANCH  26  40
BRANCH  27  51
ATOM     51  C   UNL A   1      38.811  31.885  35.598  1.00  0.00     0.023 A 
ATOM     52  C   UNL A   1      38.161  31.234  36.657  1.00  0.00     0.031 A 
ATOM     53  C   UNL A   1      38.989  33.277  35.682  1.00  0.00     0.131 A 
ATOM     54  C   UNL A   1      37.691  31.981  37.748  1.00  0.00     0.055 A 
ATOM     55  C   UNL A   1      38.557  34.009  36.787  1.00  0.00     0.041 A 
ATOM     56  F   UNL A   1      39.612  33.942  34.696  1.00  0.00    -0.206 F 
ATOM     57  C   UNL A   1      37.896  33.361  37.826  1.00  0.00     0.022 A 
BRANCH  54  58
ATOM     58  S   UNL A   1      36.772  31.125  39.056  1.00  0.00     0.124 S 
ATOM     59  O   UNL A   1      37.706  31.200  40.173  1.00  0.00    -0.237 OA
ATOM     60  O   UNL A   1      35.568  31.943  39.167  1.00  0.00    -0.237 OA
ATOM     61  O   UNL A   1      36.562  29.788  38.504  1.00  0.00    -0.744 OA
ENDBRANCH  54  58
ENDBRANCH  27  51
BRANCH  39  62
ATOM     62  C   UNL A   1      44.377  27.848  34.448  1.00  0.00     0.023 A 
ATOM     63  C   UNL A   1      44.349  26.671  35.214  1.00  0.00     0.031 A 
ATOM     64  C   UNL A   1      45.533  28.647  34.492  1.00  0.00     0.131 A 
ATOM     65  C   UNL A   1      45.446  26.342  36.022  1.00  0.00     0.055 A 
ATOM     66  C   UNL A   1      46.640  28.290  35.263  1.00  0.00     0.041 A 
ATOM     67  F   UNL A   1      45.607  29.781  33.777  1.00  0.00    -0.206 F 
ATOM     68  C   UNL A   1      46.598  27.135  36.039  1.00  0.00     0.022 A 
BRANCH  65  69
ATOM     69  S   UNL A   1      45.338  24.878  37.087  1.00  0.00     0.124 S 
ATOM     70  O   UNL A   1      44.580  25.388  38.225  1.00  0.00    -0.237 OA
ATOM     71  O   UNL A   1      44.642  23.919  36.236  1.00  0.00    -0.237 OA
ATOM     72  O   UNL A   1      46.735  24.553  37.368  1.00  0.00    -0.744 OA
ENDBRANCH  65  69
ENDBRANCH  39  62
ENDBRANCH  13  14
ENDBRANCH   6   8
ENDBRANCH   3   4
ENDBRANCH   2   3
ENDBRANCH   1   2
BRANCH   1  73
ATOM     73  C   UNL A   1      33.494  27.463  22.713  1.00  0.00     0.116 C 
BRANCH  73  74
ATOM     74  N   UNL A   1      32.197  27.957  22.274  1.00  0.00    -0.352 N 
ATOM     75  C   UNL A   1      30.937  27.503  22.573  1.00  0.00     0.251 C 
ATOM     76  H   UNL A   1      32.230  28.734  21.671  1.00  0.00     0.163 HD
ATOM     77  O   UNL A   1      29.952  27.982  22.020  1.00  0.00    -0.269 OA
BRANCH  75  78
ATOM     78  C   UNL A   1      30.748  26.395  23.536  1.00  0.00     0.042 A 
ATOM     79  C   UNL A   1      30.191  26.611  24.800  1.00  0.00     0.015 A 
ATOM     80  C   UNL A   1      31.121  25.106  23.146  1.00  0.00     0.054 A 
ATOM     81  C   UNL A   1      30.148  25.566  25.724  1.00  0.00     0.026 A 
ATOM     82  C   UNL A   1      31.020  24.055  24.054  1.00  0.00     0.144 A 
ATOM     83  C   UNL A   1      30.596  24.290  25.354  1.00  0.00     0.118 A 
ATOM     84  F   UNL A   1      31.354  22.825  23.640  1.00  0.00    -0.205 F 
BRANCH  83  85
ATOM     85  S   UNL A   1      30.594  23.031  26.584  1.00  0.00     0.243 S 
ATOM     86  O   UNL A   1      29.523  23.339  27.505  1.00  0.00    -0.207 OA
ATOM     87  O   UNL A   1      30.621  21.769  25.875  1.00  0.00    -0.207 OA
BRANCH  85  88
ATOM     88  N   UNL A   1      32.033  23.093  27.440  1.00  0.00    -0.205 NA
ATOM     89  H   UNL A   1      32.217  22.136  27.744  1.00  0.00     0.141 HD
BRANCH  88  90
ATOM     90  C   UNL A   1      33.285  23.579  26.878  1.00  0.00     0.154 C 
BRANCH  90  91
ATOM     91  C   UNL A   1      33.982  22.583  26.049  1.00  0.00     0.050 A 
ATOM     92  C   UNL A   1      34.926  22.727  25.053  1.00  0.00     0.046 A 
ATOM     93  N   UNL A   1      33.736  21.239  26.126  1.00  0.00    -0.281 N 
ATOM     94  C   UNL A   1      35.134  21.427  24.563  1.00  0.00     0.135 A 
ATOM     95  N   UNL A   1      34.382  20.522  25.190  1.00  0.00    -0.184 NA
ATOM     96  H   UNL A   1      33.142  20.838  26.800  1.00  0.00     0.190 HD
ENDBRANCH  90  91
ENDBRANCH  88  90
ENDBRANCH  85  88
ENDBRANCH  83  85
ENDBRANCH  75  78
ENDBRANCH  73  74
ENDBRANCH   1  73
TORSDOF 18
ENDMDL
MODEL 2
REMARK VINA RESULT:     -11.9      5.310      8.836
REMARK SMILES O=C(NCCCCNC(=O)c1ccc(S(=O)(=O)NCc2ccn[nH]2)c(F)c1)c1ccc(-c2c3nc(c(-c4cc(S(=O)(=O)[O-])ccc4F)c4ccc([nH]4)c(-c4cc(S(=O)(=O)[O-])ccc4F)c4nc(c(-c5cc(S(=O)(=O)[O-])ccc5F)c5ccc2[nH]5)C=C4)C=C3)cc1
REMARK SMILES IDX 6 1 5 2 4 3 3 4 1 5 2 6 28 8 29 9 90 10 30 11 89 12 31 13
REMARK SMILES IDX 32 14 33 15 83 16 34 17 88 18 82 19 84 20 35 21 87 22 81 23
REMARK SMILES IDX 80 24 36 26 68 27 48 28 67 29 49 30 52 31 66 32 85 33 50 34
REMARK SMILES IDX 51 35 65 37 86 38 53 39 37 40 38 41 46 42 39 43 45 44 47 45
REMARK SMILES IDX 44 46 40 47 41 48 42 49 43 50 69 51 70 52 78 53 71 54 77 55
REMARK SMILES IDX 79 56 76 57 72 58 73 59 74 60 75 61 54 62 55 63 63 64 56 65
REMARK SMILES IDX 62 66 64 67 61 68 57 69 58 70 59 71 60 72 7 73 8 74 9 75
REMARK SMILES IDX 10 77 11 78 12 79 27 80 13 81 25 82 14 83 26 84 15 85 16 86
REMARK SMILES IDX 17 87 18 88 19 90 20 91 21 92 24 93 22 94 23 95
REMARK H PARENT 3 7 84 25 52 36 8 76 18 89 24 96
REMARK Flexibility Score: inf
ROOT
ATOM      1  C   UNL A   1      36.598  20.627  24.768  1.00  0.00     0.023 C 
ENDROOT
BRANCH   1   2
ATOM      2  C   UNL A   1      37.772  19.678  24.991  1.00  0.00     0.023 C 
BRANCH   2   3
ATOM      3  C   UNL A   1      38.946  20.257  25.771  1.00  0.00     0.116 C 
BRANCH   3   4
ATOM      4  N   UNL A   1      40.033  19.307  25.957  1.00  0.00    -0.352 N 
ATOM      5  O   UNL A   1      42.158  18.604  26.208  1.00  0.00    -0.269 OA
ATOM      6  C   UNL A   1      41.364  19.540  26.216  1.00  0.00     0.251 C 
ATOM      7  H   UNL A   1      39.778  18.359  25.886  1.00  0.00     0.163 HD
BRANCH   6   8
ATOM      8  C   UNL A   1      41.838  20.917  26.476  1.00  0.00     0.039 A 
ATOM      9  C   UNL A   1      42.107  21.348  27.777  1.00  0.00     0.014 A 
ATOM     10  C   UNL A   1      42.015  21.791  25.399  1.00  0.00     0.014 A 
ATOM     11  C   UNL A   1      42.405  22.686  28.015  1.00  0.00     0.010 A 
ATOM     12  C   UNL A   1      42.394  23.117  25.634  1.00  0.00     0.010 A 
ATOM     13  C   UNL A   1      42.560  23.584  26.947  1.00  0.00    -0.014 A 
BRANCH  13  14
ATOM     14  C   UNL A   1      42.932  24.996  27.221  1.00  0.00     0.031 A 
ATOM     15  C   UNL A   1      44.269  25.539  26.798  1.00  0.00     0.074 A 
ATOM     16  C   UNL A   1      42.037  25.800  27.829  1.00  0.00     0.049 A 
ATOM     17  N   UNL A   1      44.773  26.731  26.995  1.00  0.00    -0.248 NA
ATOM     18  C   UNL A   1      45.159  24.629  26.060  1.00  0.00     0.031 C 
ATOM     19  C   UNL A   1      40.698  25.391  28.265  1.00  0.00     0.029 A 
ATOM     20  N   UNL A   1      42.103  27.126  28.170  1.00  0.00    -0.354 N 
ATOM     21  C   UNL A   1      46.038  26.714  26.419  1.00  0.00     0.074 A 
ATOM     22  C   UNL A   1      46.236  25.383  25.884  1.00  0.00     0.031 C 
ATOM     23  C   UNL A   1      40.056  26.454  28.772  1.00  0.00     0.029 A 
ATOM     24  C   UNL A   1      40.958  27.599  28.767  1.00  0.00     0.049 A 
ATOM     25  H   UNL A   1      42.896  27.687  28.004  1.00  0.00     0.167 HD
ATOM     26  C   UNL A   1      46.945  27.718  26.341  1.00  0.00     0.034 A 
ATOM     27  C   UNL A   1      40.672  28.812  29.279  1.00  0.00     0.034 A 
ATOM     28  C   UNL A   1      46.731  29.044  26.867  1.00  0.00     0.049 A 
ATOM     29  C   UNL A   1      41.721  29.887  29.238  1.00  0.00     0.074 A 
ATOM     30  C   UNL A   1      47.585  30.133  26.825  1.00  0.00     0.029 A 
ATOM     31  N   UNL A   1      45.586  29.462  27.530  1.00  0.00    -0.354 N 
ATOM     32  N   UNL A   1      42.928  29.837  28.725  1.00  0.00    -0.248 NA
ATOM     33  C   UNL A   1      41.377  31.174  29.854  1.00  0.00     0.031 C 
ATOM     34  C   UNL A   1      46.979  31.192  27.510  1.00  0.00     0.029 A 
ATOM     35  C   UNL A   1      45.722  30.784  27.925  1.00  0.00     0.049 A 
ATOM     36  H   UNL A   1      44.793  28.902  27.697  1.00  0.00     0.167 HD
ATOM     37  C   UNL A   1      43.485  31.091  28.953  1.00  0.00     0.074 A 
ATOM     38  C   UNL A   1      42.478  31.879  29.633  1.00  0.00     0.031 C 
ATOM     39  C   UNL A   1      44.719  31.548  28.625  1.00  0.00     0.034 A 
BRANCH  26  40
ATOM     40  C   UNL A   1      48.272  27.420  25.693  1.00  0.00     0.023 A 
ATOM     41  C   UNL A   1      48.455  27.521  24.304  1.00  0.00     0.031 A 
ATOM     42  C   UNL A   1      49.382  27.076  26.485  1.00  0.00     0.131 A 
ATOM     43  C   UNL A   1      49.712  27.250  23.745  1.00  0.00     0.055 A 
ATOM     44  C   UNL A   1      50.644  26.862  25.929  1.00  0.00     0.041 A 
ATOM     45  F   UNL A   1      49.258  26.952  27.816  1.00  0.00    -0.206 F 
ATOM     46  C   UNL A   1      50.814  26.944  24.549  1.00  0.00     0.022 A 
BRANCH  43  47
ATOM     47  S   UNL A   1      49.883  27.245  21.940  1.00  0.00     0.124 S 
ATOM     48  O   UNL A   1      49.699  28.659  21.623  1.00  0.00    -0.237 OA
ATOM     49  O   UNL A   1      51.230  26.720  21.748  1.00  0.00    -0.237 OA
ATOM     50  O   UNL A   1      48.802  26.367  21.494  1.00  0.00    -0.744 OA
ENDBRANCH  43  47
ENDBRANCH  26  40
BRANCH  27  51
ATOM     51  C   UNL A   1      39.350  29.054  29.919  1.00  0.00     0.023 A 
ATOM     52  C   UNL A   1      38.352  29.787  29.261  1.00  0.00     0.031 A 
ATOM     53  C   UNL A   1      39.068  28.549  31.201  1.00  0.00     0.131 A 
ATOM     54  C   UNL A   1      37.122  30.014  29.898  1.00  0.00     0.055 A 
ATOM     55  C   UNL A   1      37.830  28.741  31.813  1.00  0.00     0.041 A 
ATOM     56  F   UNL A   1      39.990  27.834  31.866  1.00  0.00    -0.206 F 
ATOM     57  C   UNL A   1      36.850  29.485  31.162  1.00  0.00     0.022 A 
BRANCH  54  58
ATOM     58  S   UNL A   1      35.887  31.045  29.061  1.00  0.00     0.124 S 
ATOM     59  O   UNL A   1      35.151  31.601  30.191  1.00  0.00    -0.237 OA
ATOM     60  O   UNL A   1      36.725  31.980  28.316  1.00  0.00    -0.237 OA
ATOM     61  O   UNL A   1      35.146  30.088  28.241  1.00  0.00    -0.744 OA
ENDBRANCH  54  58
ENDBRANCH  27  51
BRANCH  39  62
ATOM     62  C   UNL A   1      45.039  32.973  28.986  1.00  0.00     0.023 A 
ATOM     63  C   UNL A   1      44.616  34.044  28.181  1.00  0.00     0.031 A 
ATOM     64  C   UNL A   1      45.755  33.260  30.160  1.00  0.00     0.131 A 
ATOM     65  C   UNL A   1      44.945  35.357  28.545  1.00  0.00     0.055 A 
ATOM     66  C   UNL A   1      46.039  34.573  30.540  1.00  0.00     0.041 A 
ATOM     67  F   UNL A   1      46.179  32.270  30.962  1.00  0.00    -0.206 F 
ATOM     68  C   UNL A   1      45.639  35.629  29.727  1.00  0.00     0.022 A 
BRANCH  65  69
ATOM     69  S   UNL A   1      44.486  36.711  27.430  1.00  0.00     0.124 S 
ATOM     70  O   UNL A   1      43.537  36.056  26.534  1.00  0.00    -0.237 OA
ATOM     71  O   UNL A   1      43.922  37.698  28.344  1.00  0.00    -0.237 OA
ATOM     72  O   UNL A   1      45.755  37.095  26.814  1.00  0.00    -0.744 OA
ENDBRANCH  65  69
ENDBRANCH  39  62
ENDBRANCH  13  14
ENDBRANCH   6   8
ENDBRANCH   3   4
ENDBRANCH   2   3
ENDBRANCH   1   2
BRANCH   1  73
ATOM     73  C   UNL A   1      36.465  21.763  25.778  1.00  0.00     0.116 C 
BRANCH  73  74
ATOM     74  N   UNL A   1      35.209  21.737  26.512  1.00  0.00    -0.352 N 
ATOM     75  C   UNL A   1      34.071  22.485  26.334  1.00  0.00     0.251 C 
ATOM     76  H   UNL A   1      35.169  21.084  27.247  1.00  0.00     0.163 HD
ATOM     77  O   UNL A   1      33.137  22.399  27.125  1.00  0.00    -0.269 OA
BRANCH  75  78
ATOM     78  C   UNL A   1      33.971  23.440  25.209  1.00  0.00     0.042 A 
ATOM     79  C   UNL A   1      34.278  24.795  25.370  1.00  0.00     0.015 A 
ATOM     80  C   UNL A   1      33.582  22.955  23.958  1.00  0.00     0.054 A 
ATOM     81  C   UNL A   1      34.049  25.685  24.320  1.00  0.00     0.026 A 
ATOM     82  C   UNL A   1      33.412  23.840  22.897  1.00  0.00     0.144 A 
ATOM     83  C   UNL A   1      33.583  25.204  23.088  1.00  0.00     0.118 A 
ATOM     84  F   UNL A   1      33.071  23.340  21.701  1.00  0.00    -0.205 F 
BRANCH  83  85
ATOM     85  S   UNL A   1      33.236  26.380  21.826  1.00  0.00     0.243 S 
ATOM     86  O   UNL A   1      34.206  27.444  21.958  1.00  0.00    -0.207 OA
ATOM     87  O   UNL A   1      33.121  25.632  20.592  1.00  0.00    -0.207 OA
BRANCH  85  88
ATOM     88  N   UNL A   1      31.718  27.041  22.090  1.00  0.00    -0.205 NA
ATOM     89  H   UNL A   1      31.171  26.309  22.542  1.00  0.00     0.141 HD
BRANCH  88  90
ATOM     90  C   UNL A   1      31.490  28.248  22.872  1.00  0.00     0.154 C 
BRANCH  90  91
ATOM     91  C   UNL A   1      30.287  28.992  22.466  1.00  0.00     0.050 A 
ATOM     92  C   UNL A   1      28.952  28.790  22.750  1.00  0.00     0.046 A 
ATOM     93  N   UNL A   1      30.322  30.072  21.626  1.00  0.00    -0.281 N 
ATOM     94  C   UNL A   1      28.272  29.759  21.994  1.00  0.00     0.135 A 
ATOM     95  N   UNL A   1      29.102  30.519  21.278  1.00  0.00    -0.184 NA
ATOM     96  H   UNL A   1      31.159  30.480  21.307  1.00  0.00     0.190 HD
ENDBRANCH  90  91
ENDBRANCH  88  90
ENDBRANCH  85  88
ENDBRANCH  83  85
ENDBRANCH  75  78
ENDBRANCH  73  74
ENDBRANCH   1  73
TORSDOF 18
ENDMDL
MODEL 3
REMARK VINA RESULT:     -11.8      5.672     10.977
REMARK SMILES O=C(NCCCCNC(=O)c1ccc(S(=O)(=O)NCc2ccn[nH]2)c(F)c1)c1ccc(-c2c3nc(c(-c4cc(S(=O)(=O)[O-])ccc4F)c4ccc([nH]4)c(-c4cc(S(=O)(=O)[O-])ccc4F)c4nc(c(-c5cc(S(=O)(=O)[O-])ccc5F)c5ccc2[nH]5)C=C4)C=C3)cc1
REMARK SMILES IDX 6 1 5 2 4 3 3 4 1 5 2 6 28 8 29 9 90 10 30 11 89 12 31 13
REMARK SMILES IDX 32 14 33 15 83 16 34 17 88 18 82 19 84 20 35 21 87 22 81 23
REMARK SMILES IDX 80 24 36 26 68 27 48 28 67 29 49 30 52 31 66 32 85 33 50 34
REMARK SMILES IDX 51 35 65 37 86 38 53 39 37 40 38 41 46 42 39 43 45 44 47 45
REMARK SMILES IDX 44 46 40 47 41 48 42 49 43 50 69 51 70 52 78 53 71 54 77 55
REMARK SMILES IDX 79 56 76 57 72 58 73 59 74 60 75 61 54 62 55 63 63 64 56 65
REMARK SMILES IDX 62 66 64 67 61 68 57 69 58 70 59 71 60 72 7 73 8 74 9 75
REMARK SMILES IDX 10 77 11 78 12 79 27 80 13 81 25 82 14 83 26 84 15 85 16 86
REMARK SMILES IDX 17 87 18 88 19 90 20 91 21 92 24 93 22 94 23 95
REMARK H PARENT 3 7 84 25 52 36 8 76 18 89 24 96
REMARK Flexibility Score: inf
ROOT
ATOM      1  C   UNL A   1      36.754  20.302  24.943  1.00  0.00     0.023 C 
ENDROOT
BRANCH   1   2
ATOM      2  C   UNL A   1      38.202  19.934  24.636  1.00  0.00     0.023 C 
BRANCH   2   3
ATOM      3  C   UNL A   1      39.198  20.196  25.760  1.00  0.00     0.116 C 
BRANCH   3   4
ATOM      4  N   UNL A   1      40.223  19.167  25.867  1.00  0.00    -0.352 N 
ATOM      5  O   UNL A   1      42.300  18.311  26.009  1.00  0.00    -0.269 OA
ATOM      6  C   UNL A   1      41.574  19.297  26.084  1.00  0.00     0.251 C 
ATOM      7  H   UNL A   1      39.899  18.242  25.770  1.00  0.00     0.163 HD
BRANCH   6   8
ATOM      8  C   UNL A   1      42.153  20.627  26.377  1.00  0.00     0.039 A 
ATOM      9  C   UNL A   1      42.302  21.068  27.694  1.00  0.00     0.014 A 
ATOM     10  C   UNL A   1      42.551  21.446  25.316  1.00  0.00     0.014 A 
ATOM     11  C   UNL A   1      42.705  22.376  27.945  1.00  0.00     0.010 A 
ATOM     12  C   UNL A   1      43.033  22.733  25.574  1.00  0.00     0.010 A 
ATOM     13  C   UNL A   1      43.082  23.221  26.889  1.00  0.00    -0.014 A 
BRANCH  13  14
ATOM     14  C   UNL A   1      43.562  24.597  27.184  1.00  0.00     0.031 A 
ATOM     15  C   UNL A   1      42.622  25.647  27.708  1.00  0.00     0.074 A 
ATOM     16  C   UNL A   1      44.867  24.884  27.007  1.00  0.00     0.049 A 
ATOM     17  N   UNL A   1      42.862  26.905  27.977  1.00  0.00    -0.248 NA
ATOM     18  C   UNL A   1      41.232  25.236  27.962  1.00  0.00     0.031 C 
ATOM     19  C   UNL A   1      45.879  23.939  26.525  1.00  0.00     0.029 A 
ATOM     20  N   UNL A   1      45.572  26.039  27.225  1.00  0.00    -0.354 N 
ATOM     21  C   UNL A   1      41.657  27.440  28.420  1.00  0.00     0.074 A 
ATOM     22  C   UNL A   1      40.679  26.375  28.361  1.00  0.00     0.031 C 
ATOM     23  C   UNL A   1      47.078  24.538  26.529  1.00  0.00     0.029 A 
ATOM     24  C   UNL A   1      46.913  25.927  26.940  1.00  0.00     0.049 A 
ATOM     25  H   UNL A   1      45.158  26.869  27.554  1.00  0.00     0.167 HD
ATOM     26  C   UNL A   1      41.397  28.702  28.840  1.00  0.00     0.034 A 
ATOM     27  C   UNL A   1      47.898  26.846  26.978  1.00  0.00     0.034 A 
ATOM     28  C   UNL A   1      42.382  29.752  28.906  1.00  0.00     0.049 A 
ATOM     29  C   UNL A   1      47.567  28.254  27.385  1.00  0.00     0.074 A 
ATOM     30  C   UNL A   1      42.219  31.060  29.331  1.00  0.00     0.029 A 
ATOM     31  N   UNL A   1      43.714  29.619  28.539  1.00  0.00    -0.354 N 
ATOM     32  N   UNL A   1      46.410  28.750  27.760  1.00  0.00    -0.248 NA
ATOM     33  C   UNL A   1      48.665  29.227  27.361  1.00  0.00     0.031 C 
ATOM     34  C   UNL A   1      43.436  31.731  29.169  1.00  0.00     0.029 A 
ATOM     35  C   UNL A   1      44.375  30.827  28.702  1.00  0.00     0.049 A 
ATOM     36  H   UNL A   1      44.129  28.789  28.209  1.00  0.00     0.167 HD
ATOM     37  C   UNL A   1      46.646  30.095  28.022  1.00  0.00     0.074 A 
ATOM     38  C   UNL A   1      48.055  30.328  27.780  1.00  0.00     0.031 C 
ATOM     39  C   UNL A   1      45.774  31.049  28.432  1.00  0.00     0.034 A 
BRANCH  26  40
ATOM     40  C   UNL A   1      39.980  29.036  29.231  1.00  0.00     0.023 A 
ATOM     41  C   UNL A   1      39.571  29.058  30.575  1.00  0.00     0.031 A 
ATOM     42  C   UNL A   1      39.039  29.383  28.245  1.00  0.00     0.131 A 
ATOM     43  C   UNL A   1      38.247  29.391  30.895  1.00  0.00     0.055 A 
ATOM     44  C   UNL A   1      37.738  29.767  28.574  1.00  0.00     0.041 A 
ATOM     45  F   UNL A   1      39.375  29.363  26.946  1.00  0.00    -0.206 F 
ATOM     46  C   UNL A   1      37.334  29.768  29.906  1.00  0.00     0.022 A 
BRANCH  43  47
ATOM     47  S   UNL A   1      37.709  29.270  32.622  1.00  0.00     0.124 S 
ATOM     48  O   UNL A   1      38.734  30.055  33.305  1.00  0.00    -0.237 OA
ATOM     49  O   UNL A   1      36.375  29.859  32.583  1.00  0.00    -0.237 OA
ATOM     50  O   UNL A   1      37.747  27.834  32.895  1.00  0.00    -0.744 OA
ENDBRANCH  43  47
ENDBRANCH  26  40
BRANCH  27  51
ATOM     51  C   UNL A   1      49.279  26.469  26.571  1.00  0.00     0.023 A 
ATOM     52  C   UNL A   1      49.830  26.935  25.368  1.00  0.00     0.031 A 
ATOM     53  C   UNL A   1      50.067  25.637  27.385  1.00  0.00     0.131 A 
ATOM     54  C   UNL A   1      51.129  26.548  25.003  1.00  0.00     0.055 A 
ATOM     55  C   UNL A   1      51.372  25.288  27.038  1.00  0.00     0.041 A 
ATOM     56  F   UNL A   1      49.585  25.173  28.549  1.00  0.00    -0.206 F 
ATOM     57  C   UNL A   1      51.907  25.739  25.835  1.00  0.00     0.022 A 
BRANCH  54  58
ATOM     58  S   UNL A   1      51.778  27.090  23.399  1.00  0.00     0.124 S 
ATOM     59  O   UNL A   1      52.888  26.164  23.200  1.00  0.00    -0.237 OA
ATOM     60  O   UNL A   1      50.624  26.907  22.525  1.00  0.00    -0.237 OA
ATOM     61  O   UNL A   1      52.158  28.481  23.639  1.00  0.00    -0.744 OA
ENDBRANCH  54  58
ENDBRANCH  27  51
BRANCH  39  62
ATOM     62  C   UNL A   1      46.327  32.430  28.656  1.00  0.00     0.023 A 
ATOM     63  C   UNL A   1      46.472  33.340  27.596  1.00  0.00     0.031 A 
ATOM     64  C   UNL A   1      46.691  32.844  29.948  1.00  0.00     0.131 A 
ATOM     65  C   UNL A   1      47.003  34.614  27.843  1.00  0.00     0.055 A 
ATOM     66  C   UNL A   1      47.176  34.129  30.194  1.00  0.00     0.041 A 
ATOM     67  F   UNL A   1      46.570  32.010  30.993  1.00  0.00    -0.206 F 
ATOM     68  C   UNL A   1      47.340  35.020  29.137  1.00  0.00     0.022 A 
BRANCH  65  69
ATOM     69  S   UNL A   1      47.285  35.728  26.440  1.00  0.00     0.124 S 
ATOM     70  O   UNL A   1      47.471  37.013  27.107  1.00  0.00    -0.237 OA
ATOM     71  O   UNL A   1      48.473  35.156  25.815  1.00  0.00    -0.237 OA
ATOM     72  O   UNL A   1      46.057  35.609  25.655  1.00  0.00    -0.744 OA
ENDBRANCH  65  69
ENDBRANCH  39  62
ENDBRANCH  13  14
ENDBRANCH   6   8
ENDBRANCH   3   4
ENDBRANCH   2   3
ENDBRANCH   1   2
BRANCH   1  73
ATOM     73  C   UNL A   1      36.555  21.561  25.781  1.00  0.00     0.116 C 
BRANCH  73  74
ATOM     74  N   UNL A   1      35.417  21.480  26.684  1.00  0.00    -0.352 N 
ATOM     75  C   UNL A   1      34.266  22.228  26.717  1.00  0.00     0.251 C 
ATOM     76  H   UNL A   1      35.483  20.783  27.376  1.00  0.00     0.163 HD
ATOM     77  O   UNL A   1      33.454  22.086  27.626  1.00  0.00    -0.269 OA
BRANCH  75  78
ATOM     78  C   UNL A   1      34.007  23.249  25.679  1.00  0.00     0.042 A 
ATOM     79  C   UNL A   1      34.114  24.616  25.954  1.00  0.00     0.015 A 
ATOM     80  C   UNL A   1      33.669  22.818  24.393  1.00  0.00     0.054 A 
ATOM     81  C   UNL A   1      33.738  25.547  24.985  1.00  0.00     0.026 A 
ATOM     82  C   UNL A   1      33.352  23.755  23.413  1.00  0.00     0.144 A 
ATOM     83  C   UNL A   1      33.325  25.109  23.719  1.00  0.00     0.118 A 
ATOM     84  F   UNL A   1      33.065  23.312  22.181  1.00  0.00    -0.205 F 
BRANCH  83  85
ATOM     85  S   UNL A   1      32.786  26.323  22.565  1.00  0.00     0.243 S 
ATOM     86  O   UNL A   1      33.863  26.518  21.621  1.00  0.00    -0.207 OA
ATOM     87  O   UNL A   1      31.475  25.904  22.116  1.00  0.00    -0.207 OA
BRANCH  85  88
ATOM     88  N   UNL A   1      32.542  27.775  23.365  1.00  0.00    -0.205 NA
ATOM     89  H   UNL A   1      33.355  27.900  23.968  1.00  0.00     0.141 HD
BRANCH  88  90
ATOM     90  C   UNL A   1      32.351  29.048  22.685  1.00  0.00     0.154 C 
BRANCH  90  91
ATOM     91  C   UNL A   1      30.937  29.402  22.486  1.00  0.00     0.050 A 
ATOM     92  C   UNL A   1      29.821  29.160  23.259  1.00  0.00     0.046 A 
ATOM     93  N   UNL A   1      30.475  30.046  21.370  1.00  0.00    -0.281 N 
ATOM     94  C   UNL A   1      28.743  29.645  22.499  1.00  0.00     0.135 A 
ATOM     95  N   UNL A   1      29.136  30.152  21.329  1.00  0.00    -0.184 NA
ATOM     96  H   UNL A   1      31.067  30.396  20.667  1.00  0.00     0.190 HD
ENDBRANCH  90  91
ENDBRANCH  88  90
ENDBRANCH  85  88
ENDBRANCH  83  85
ENDBRANCH  75  78
ENDBRANCH  73  74
ENDBRANCH   1  73
TORSDOF 18
ENDMDL
