MODEL 1
REMARK VINA RESULT:     -11.6      0.000      0.000
REMARK SMILES [NH3+][C@@H](CC(=O)NCCCCNC(=O)c1ccc(-c2c3nc(c(-c4cc(S(=O)(=O)[O-])ccc4F)c4ccc([nH]4)c(-c4cc(S(=O)(=O)[O-])ccc4F)c4nc(c(-c5cc(S(=O)(=O)[O-])ccc5F)c5ccc2[nH]5)C=C4)C=C3)cc1)c1ccc(C(F)(F)F)cc1F
REMARK SMILES IDX 8 1 7 2 6 3 4 4 5 5 3 7 2 8 1 9 77 13 78 14 86 15 79 16
REMARK SMILES IDX 85 17 87 18 80 19 81 20 82 21 83 22 84 23 9 24 10 25 11 26
REMARK SMILES IDX 12 27 13 29 14 30 15 31 76 32 16 33 75 34 17 35 18 36 19 37
REMARK SMILES IDX 69 38 20 39 74 40 68 41 70 42 21 43 73 44 67 45 66 46 22 48
REMARK SMILES IDX 54 49 34 50 53 51 35 52 38 53 52 54 71 55 36 56 37 57 51 59
REMARK SMILES IDX 72 60 39 61 23 62 24 63 32 64 25 65 31 66 33 67 30 68 26 69
REMARK SMILES IDX 27 70 28 71 29 72 55 73 56 74 64 75 57 76 63 77 65 78 62 79
REMARK SMILES IDX 58 80 59 81 60 82 61 83 40 84 41 85 49 86 42 87 48 88 50 89
REMARK SMILES IDX 47 90 43 91 44 92 45 93 46 94
REMARK H PARENT 6 6 1 10 1 11 1 12 11 28 70 47 38 58
REMARK Flexibility Score: inf
ROOT
ATOM      1  C   UNL A   1      33.404  28.869  25.224  1.00  0.00     0.023 C 
ENDROOT
BRANCH   1   2
ATOM      2  C   UNL A   1      33.523  27.635  26.116  1.00  0.00     0.116 C 
BRANCH   2   3
ATOM      3  N   UNL A   1      32.226  27.187  26.580  1.00  0.00    -0.356 N 
ATOM      4  C   UNL A   1      31.393  26.246  26.055  1.00  0.00     0.226 C 
ATOM      5  O   UNL A   1      30.327  26.028  26.633  1.00  0.00    -0.275 OA
ATOM      6  H   UNL A   1      31.898  27.628  27.396  1.00  0.00     0.163 HD
BRANCH   4   7
ATOM      7  C   UNL A   1      31.782  25.471  24.815  1.00  0.00     0.170 C 
BRANCH   7   8
ATOM      8  C   UNL A   1      30.792  25.449  23.633  1.00  0.00     0.224 C 
BRANCH   8   9
ATOM      9  N   UNL A   1      31.252  24.717  22.448  1.00  0.00    -0.351 N 
ATOM     10  H   UNL A   1      32.177  24.324  22.628  1.00  0.00     0.345 HD
ATOM     11  H   UNL A   1      31.302  25.353  21.652  1.00  0.00     0.345 HD
ATOM     12  H   UNL A   1      30.598  23.962  22.239  1.00  0.00     0.345 HD
ENDBRANCH   8   9
BRANCH   8  13
ATOM     13  C   UNL A   1      30.185  26.785  23.255  1.00  0.00     0.045 A 
ATOM     14  C   UNL A   1      30.897  27.765  22.544  1.00  0.00     0.013 A 
ATOM     15  C   UNL A   1      28.865  27.077  23.609  1.00  0.00     0.132 A 
ATOM     16  C   UNL A   1      30.313  28.990  22.214  1.00  0.00     0.014 A 
ATOM     17  C   UNL A   1      28.268  28.293  23.278  1.00  0.00     0.052 A 
ATOM     18  F   UNL A   1      28.136  26.181  24.288  1.00  0.00    -0.206 F 
ATOM     19  C   UNL A   1      28.990  29.268  22.578  1.00  0.00     0.058 A 
BRANCH  19  20
ATOM     20  C   UNL A   1      28.374  30.596  22.225  1.00  0.00     0.416 C 
ATOM     21  F   UNL A   1      27.861  30.616  20.965  1.00  0.00    -0.166 F 
ATOM     22  F   UNL A   1      27.346  30.931  23.054  1.00  0.00    -0.166 F 
ATOM     23  F   UNL A   1      29.253  31.636  22.286  1.00  0.00    -0.166 F 
ENDBRANCH  19  20
ENDBRANCH   8  13
ENDBRANCH   7   8
ENDBRANCH   4   7
ENDBRANCH   2   3
ENDBRANCH   1   2
BRANCH   1  24
ATOM     24  C   UNL A   1      32.166  29.727  25.475  1.00  0.00     0.023 C 
BRANCH  24  25
ATOM     25  C   UNL A   1      32.088  30.330  26.869  1.00  0.00     0.116 C 
BRANCH  25  26
ATOM     26  N   UNL A   1      32.101  31.785  26.847  1.00  0.00    -0.352 N 
ATOM     27  C   UNL A   1      33.029  32.651  27.368  1.00  0.00     0.251 C 
ATOM     28  H   UNL A   1      31.335  32.208  26.395  1.00  0.00     0.163 HD
ATOM     29  O   UNL A   1      32.783  33.854  27.400  1.00  0.00    -0.269 OA
BRANCH  27  30
ATOM     30  C   UNL A   1      34.297  32.123  27.913  1.00  0.00     0.039 A 
ATOM     31  C   UNL A   1      35.380  32.990  28.055  1.00  0.00     0.014 A 
ATOM     32  C   UNL A   1      34.407  30.785  28.303  1.00  0.00     0.014 A 
ATOM     33  C   UNL A   1      36.557  32.525  28.643  1.00  0.00     0.010 A 
ATOM     34  C   UNL A   1      35.544  30.352  28.977  1.00  0.00     0.010 A 
ATOM     35  C   UNL A   1      36.635  31.215  29.143  1.00  0.00    -0.014 A 
BRANCH  35  36
ATOM     36  C   UNL A   1      37.861  30.745  29.837  1.00  0.00     0.031 A 
ATOM     37  C   UNL A   1      38.149  31.175  31.249  1.00  0.00     0.074 A 
ATOM     38  C   UNL A   1      38.724  29.947  29.176  1.00  0.00     0.049 A 
ATOM     39  N   UNL A   1      39.147  30.843  32.026  1.00  0.00    -0.248 NA
ATOM     40  C   UNL A   1      37.209  32.129  31.858  1.00  0.00     0.031 C 
ATOM     41  C   UNL A   1      38.580  29.521  27.781  1.00  0.00     0.029 A 
ATOM     42  N   UNL A   1      39.883  29.341  29.588  1.00  0.00    -0.354 N 
ATOM     43  C   UNL A   1      38.956  31.544  33.211  1.00  0.00     0.074 A 
ATOM     44  C   UNL A   1      37.792  32.381  33.019  1.00  0.00     0.031 C 
ATOM     45  C   UNL A   1      39.580  28.682  27.471  1.00  0.00     0.029 A 
ATOM     46  C   UNL A   1      40.462  28.544  28.626  1.00  0.00     0.049 A 
ATOM     47  H   UNL A   1      40.267  29.465  30.485  1.00  0.00     0.167 HD
ATOM     48  C   UNL A   1      39.667  31.472  34.364  1.00  0.00     0.034 A 
ATOM     49  C   UNL A   1      41.573  27.784  28.672  1.00  0.00     0.034 A 
ATOM     50  C   UNL A   1      40.823  30.627  34.535  1.00  0.00     0.049 A 
ATOM     51  C   UNL A   1      42.350  27.725  29.963  1.00  0.00     0.074 A 
ATOM     52  C   UNL A   1      41.590  30.433  35.670  1.00  0.00     0.029 A 
ATOM     53  N   UNL A   1      41.387  29.838  33.538  1.00  0.00    -0.354 N 
ATOM     54  N   UNL A   1      42.114  28.340  31.099  1.00  0.00    -0.248 NA
ATOM     55  C   UNL A   1      43.531  26.855  29.981  1.00  0.00     0.031 C 
ATOM     56  C   UNL A   1      42.658  29.590  35.340  1.00  0.00     0.029 A 
ATOM     57  C   UNL A   1      42.510  29.185  34.022  1.00  0.00     0.049 A 
ATOM     58  H   UNL A   1      41.038  29.756  32.621  1.00  0.00     0.167 HD
ATOM     59  C   UNL A   1      43.105  27.906  31.977  1.00  0.00     0.074 A 
ATOM     60  C   UNL A   1      43.918  26.958  31.242  1.00  0.00     0.031 C 
ATOM     61  C   UNL A   1      43.325  28.259  33.270  1.00  0.00     0.034 A 
BRANCH  48  62
ATOM     62  C   UNL A   1      39.221  32.350  35.513  1.00  0.00     0.023 A 
ATOM     63  C   UNL A   1      39.621  33.696  35.614  1.00  0.00     0.031 A 
ATOM     64  C   UNL A   1      38.408  31.830  36.535  1.00  0.00     0.131 A 
ATOM     65  C   UNL A   1      39.276  34.448  36.746  1.00  0.00     0.055 A 
ATOM     66  C   UNL A   1      37.994  32.611  37.617  1.00  0.00     0.041 A 
ATOM     67  F   UNL A   1      38.013  30.548  36.510  1.00  0.00    -0.206 F 
ATOM     68  C   UNL A   1      38.442  33.924  37.737  1.00  0.00     0.022 A 
BRANCH  65  69
ATOM     69  S   UNL A   1      40.058  36.068  36.982  1.00  0.00     0.124 S 
ATOM     70  O   UNL A   1      41.453  35.690  37.207  1.00  0.00    -0.237 OA
ATOM     71  O   UNL A   1      39.774  36.743  35.722  1.00  0.00    -0.237 OA
ATOM     72  O   UNL A   1      39.373  36.613  38.153  1.00  0.00    -0.744 OA
ENDBRANCH  65  69
ENDBRANCH  48  62
BRANCH  49  73
ATOM     73  C   UNL A   1      42.014  27.012  27.475  1.00  0.00     0.023 A 
ATOM     74  C   UNL A   1      41.847  25.620  27.404  1.00  0.00     0.031 A 
ATOM     75  C   UNL A   1      42.649  27.653  26.395  1.00  0.00     0.131 A 
ATOM     76  C   UNL A   1      42.354  24.908  26.306  1.00  0.00     0.055 A 
ATOM     77  C   UNL A   1      43.099  26.948  25.278  1.00  0.00     0.041 A 
ATOM     78  F   UNL A   1      42.830  28.984  26.407  1.00  0.00    -0.206 F 
ATOM     79  C   UNL A   1      42.966  25.564  25.236  1.00  0.00     0.022 A 
BRANCH  76  80
ATOM     80  S   UNL A   1      42.287  23.095  26.340  1.00  0.00     0.124 S 
ATOM     81  O   UNL A   1      42.545  22.761  24.945  1.00  0.00    -0.237 OA
ATOM     82  O   UNL A   1      43.351  22.771  27.286  1.00  0.00    -0.237 OA
ATOM     83  O   UNL A   1      40.931  22.815  26.811  1.00  0.00    -0.744 OA
ENDBRANCH  76  80
ENDBRANCH  49  73
BRANCH  61  84
ATOM     84  C   UNL A   1      44.477  27.581  33.972  1.00  0.00     0.023 A 
ATOM     85  C   UNL A   1      44.341  26.308  34.555  1.00  0.00     0.031 A 
ATOM     86  C   UNL A   1      45.717  28.232  34.094  1.00  0.00     0.131 A 
ATOM     87  C   UNL A   1      45.396  25.766  35.303  1.00  0.00     0.055 A 
ATOM     88  C   UNL A   1      46.791  27.652  34.773  1.00  0.00     0.041 A 
ATOM     89  F   UNL A   1      45.907  29.449  33.560  1.00  0.00    -0.206 F 
ATOM     90  C   UNL A   1      46.627  26.420  35.399  1.00  0.00     0.022 A 
BRANCH  87  91
ATOM     91  S   UNL A   1      45.093  24.254  36.260  1.00  0.00     0.124 S 
ATOM     92  O   UNL A   1      45.315  24.713  37.627  1.00  0.00    -0.237 OA
ATOM     93  O   UNL A   1      43.712  23.936  35.910  1.00  0.00    -0.237 OA
ATOM     94  O   UNL A   1      46.092  23.319  35.749  1.00  0.00    -0.744 OA
ENDBRANCH  87  91
ENDBRANCH  61  84
ENDBRANCH  35  36
ENDBRANCH  27  30
ENDBRANCH  25  26
ENDBRANCH  24  25
ENDBRANCH   1  24
TORSDOF 18
ENDMDL
MODEL 2
REMARK VINA RESULT:     -11.6      5.668     10.804
REMARK SMILES [NH3+][C@@H](CC(=O)NCCCCNC(=O)c1ccc(-c2c3nc(c(-c4cc(S(=O)(=O)[O-])ccc4F)c4ccc([nH]4)c(-c4cc(S(=O)(=O)[O-])ccc4F)c4nc(c(-c5cc(S(=O)(=O)[O-])ccc5F)c5ccc2[nH]5)C=C4)C=C3)cc1)c1ccc(C(F)(F)F)cc1F
REMARK SMILES IDX 8 1 7 2 6 3 4 4 5 5 3 7 2 8 1 9 77 13 78 14 86 15 79 16
REMARK SMILES IDX 85 17 87 18 80 19 81 20 82 21 83 22 84 23 9 24 10 25 11 26
REMARK SMILES IDX 12 27 13 29 14 30 15 31 76 32 16 33 75 34 17 35 18 36 19 37
REMARK SMILES IDX 69 38 20 39 74 40 68 41 70 42 21 43 73 44 67 45 66 46 22 48
REMARK SMILES IDX 54 49 34 50 53 51 35 52 38 53 52 54 71 55 36 56 37 57 51 59
REMARK SMILES IDX 72 60 39 61 23 62 24 63 32 64 25 65 31 66 33 67 30 68 26 69
REMARK SMILES IDX 27 70 28 71 29 72 55 73 56 74 64 75 57 76 63 77 65 78 62 79
REMARK SMILES IDX 58 80 59 81 60 82 61 83 40 84 41 85 49 86 42 87 48 88 50 89
REMARK SMILES IDX 47 90 43 91 44 92 45 93 46 94
REMARK H PARENT 6 6 1 10 1 11 1 12 11 28 70 47 38 58
REMARK Flexibility Score: inf
ROOT
ATOM      1  C   UNL A   1      36.243  23.060  23.467  1.00  0.00     0.023 C 
ENDROOT
BRANCH   1   2
ATOM      2  C   UNL A   1      34.764  23.258  23.140  1.00  0.00     0.116 C 
BRANCH   2   3
ATOM      3  N   UNL A   1      34.208  24.390  23.853  1.00  0.00    -0.356 N 
ATOM      4  C   UNL A   1      33.510  24.423  25.021  1.00  0.00     0.226 C 
ATOM      5  O   UNL A   1      33.136  25.519  25.443  1.00  0.00    -0.275 OA
ATOM      6  H   UNL A   1      34.358  25.265  23.430  1.00  0.00     0.163 HD
BRANCH   4   7
ATOM      7  C   UNL A   1      33.230  23.153  25.794  1.00  0.00     0.170 C 
BRANCH   7   8
ATOM      8  C   UNL A   1      32.125  22.214  25.269  1.00  0.00     0.224 C 
BRANCH   8   9
ATOM      9  N   UNL A   1      30.901  22.177  26.078  1.00  0.00    -0.351 N 
ATOM     10  H   UNL A   1      30.577  21.214  26.163  1.00  0.00     0.345 HD
ATOM     11  H   UNL A   1      30.180  22.742  25.630  1.00  0.00     0.345 HD
ATOM     12  H   UNL A   1      31.097  22.552  27.007  1.00  0.00     0.345 HD
ENDBRANCH   8   9
BRANCH   8  13
ATOM     13  C   UNL A   1      32.573  20.818  24.883  1.00  0.00     0.045 A 
ATOM     14  C   UNL A   1      33.194  19.946  25.791  1.00  0.00     0.013 A 
ATOM     15  C   UNL A   1      32.364  20.354  23.581  1.00  0.00     0.132 A 
ATOM     16  C   UNL A   1      33.601  18.666  25.405  1.00  0.00     0.014 A 
ATOM     17  C   UNL A   1      32.758  19.076  23.186  1.00  0.00     0.052 A 
ATOM     18  F   UNL A   1      31.775  21.143  22.671  1.00  0.00    -0.206 F 
ATOM     19  C   UNL A   1      33.387  18.216  24.096  1.00  0.00     0.058 A 
BRANCH  19  20
ATOM     20  C   UNL A   1      33.839  16.840  23.688  1.00  0.00     0.416 C 
ATOM     21  F   UNL A   1      34.102  16.749  22.356  1.00  0.00    -0.166 F 
ATOM     22  F   UNL A   1      34.981  16.456  24.323  1.00  0.00    -0.166 F 
ATOM     23  F   UNL A   1      32.922  15.866  23.954  1.00  0.00    -0.166 F 
ENDBRANCH  19  20
ENDBRANCH   8  13
ENDBRANCH   7   8
ENDBRANCH   4   7
ENDBRANCH   2   3
ENDBRANCH   1   2
BRANCH   1  24
ATOM     24  C   UNL A   1      36.556  21.821  24.303  1.00  0.00     0.023 C 
BRANCH  24  25
ATOM     25  C   UNL A   1      37.261  22.110  25.619  1.00  0.00     0.116 C 
BRANCH  25  26
ATOM     26  N   UNL A   1      38.310  21.144  25.913  1.00  0.00    -0.352 N 
ATOM     27  C   UNL A   1      39.575  21.360  26.397  1.00  0.00     0.251 C 
ATOM     28  H   UNL A   1      38.078  20.203  25.739  1.00  0.00     0.163 HD
ATOM     29  O   UNL A   1      40.380  20.433  26.419  1.00  0.00    -0.269 OA
BRANCH  27  30
ATOM     30  C   UNL A   1      39.963  22.711  26.852  1.00  0.00     0.039 A 
ATOM     31  C   UNL A   1      40.801  22.831  27.960  1.00  0.00     0.014 A 
ATOM     32  C   UNL A   1      39.521  23.850  26.174  1.00  0.00     0.014 A 
ATOM     33  C   UNL A   1      41.241  24.096  28.352  1.00  0.00     0.010 A 
ATOM     34  C   UNL A   1      40.039  25.097  26.505  1.00  0.00     0.010 A 
ATOM     35  C   UNL A   1      40.895  25.235  27.606  1.00  0.00    -0.014 A 
BRANCH  35  36
ATOM     36  C   UNL A   1      41.425  26.571  27.979  1.00  0.00     0.031 A 
ATOM     37  C   UNL A   1      42.835  26.956  27.624  1.00  0.00     0.074 A 
ATOM     38  C   UNL A   1      40.634  27.424  28.660  1.00  0.00     0.049 A 
ATOM     39  N   UNL A   1      43.461  28.085  27.836  1.00  0.00    -0.248 NA
ATOM     40  C   UNL A   1      43.662  25.927  26.973  1.00  0.00     0.031 C 
ATOM     41  C   UNL A   1      39.273  27.131  29.116  1.00  0.00     0.029 A 
ATOM     42  N   UNL A   1      40.851  28.712  29.078  1.00  0.00    -0.354 N 
ATOM     43  C   UNL A   1      44.750  27.903  27.347  1.00  0.00     0.074 A 
ATOM     44  C   UNL A   1      44.838  26.529  26.903  1.00  0.00     0.031 C 
ATOM     45  C   UNL A   1      38.759  28.223  29.700  1.00  0.00     0.029 A 
ATOM     46  C   UNL A   1      39.765  29.280  29.704  1.00  0.00     0.049 A 
ATOM     47  H   UNL A   1      41.703  29.185  28.944  1.00  0.00     0.167 HD
ATOM     48  C   UNL A   1      45.756  28.807  27.248  1.00  0.00     0.034 A 
ATOM     49  C   UNL A   1      39.598  30.515  30.215  1.00  0.00     0.034 A 
ATOM     50  C   UNL A   1      45.643  30.174  27.694  1.00  0.00     0.049 A 
ATOM     51  C   UNL A   1      40.733  31.501  30.099  1.00  0.00     0.074 A 
ATOM     52  C   UNL A   1      46.576  31.193  27.600  1.00  0.00     0.029 A 
ATOM     53  N   UNL A   1      44.531  30.715  28.331  1.00  0.00    -0.354 N 
ATOM     54  N   UNL A   1      41.922  31.334  29.567  1.00  0.00    -0.248 NA
ATOM     55  C   UNL A   1      40.493  32.845  30.635  1.00  0.00     0.031 C 
ATOM     56  C   UNL A   1      46.059  32.323  28.244  1.00  0.00     0.029 A 
ATOM     57  C   UNL A   1      44.768  32.040  28.664  1.00  0.00     0.049 A 
ATOM     58  H   UNL A   1      43.697  30.227  28.518  1.00  0.00     0.167 HD
ATOM     59  C   UNL A   1      42.563  32.565  29.681  1.00  0.00     0.074 A 
ATOM     60  C   UNL A   1      41.614  33.466  30.305  1.00  0.00     0.031 C 
ATOM     61  C   UNL A   1      43.820  32.920  29.307  1.00  0.00     0.034 A 
BRANCH  48  62
ATOM     62  C   UNL A   1      47.064  28.332  26.656  1.00  0.00     0.023 A 
ATOM     63  C   UNL A   1      47.264  28.260  25.265  1.00  0.00     0.031 A 
ATOM     64  C   UNL A   1      48.116  27.918  27.492  1.00  0.00     0.131 A 
ATOM     65  C   UNL A   1      48.451  27.714  24.753  1.00  0.00     0.055 A 
ATOM     66  C   UNL A   1      49.330  27.458  26.975  1.00  0.00     0.041 A 
ATOM     67  F   UNL A   1      47.980  27.938  28.826  1.00  0.00    -0.206 F 
ATOM     68  C   UNL A   1      49.497  27.338  25.598  1.00  0.00     0.022 A 
BRANCH  65  69
ATOM     69  S   UNL A   1      48.546  27.361  22.977  1.00  0.00     0.124 S 
ATOM     70  O   UNL A   1      49.916  27.769  22.669  1.00  0.00    -0.237 OA
ATOM     71  O   UNL A   1      48.280  25.928  22.925  1.00  0.00    -0.237 OA
ATOM     72  O   UNL A   1      47.507  28.212  22.401  1.00  0.00    -0.744 OA
ENDBRANCH  65  69
ENDBRANCH  48  62
BRANCH  49  73
ATOM     73  C   UNL A   1      38.314  30.896  30.871  1.00  0.00     0.023 A 
ATOM     74  C   UNL A   1      37.304  31.564  30.161  1.00  0.00     0.031 A 
ATOM     75  C   UNL A   1      38.093  30.633  32.236  1.00  0.00     0.131 A 
ATOM     76  C   UNL A   1      36.144  31.991  30.826  1.00  0.00     0.055 A 
ATOM     77  C   UNL A   1      36.913  31.009  32.880  1.00  0.00     0.041 A 
ATOM     78  F   UNL A   1      39.023  29.993  32.963  1.00  0.00    -0.206 F 
ATOM     79  C   UNL A   1      35.936  31.706  32.177  1.00  0.00     0.022 A 
BRANCH  76  80
ATOM     80  S   UNL A   1      34.949  33.013  29.920  1.00  0.00     0.124 S 
ATOM     81  O   UNL A   1      34.032  33.410  30.980  1.00  0.00    -0.237 OA
ATOM     82  O   UNL A   1      35.802  34.068  29.380  1.00  0.00    -0.237 OA
ATOM     83  O   UNL A   1      34.399  32.091  28.927  1.00  0.00    -0.744 OA
ENDBRANCH  76  80
ENDBRANCH  49  73
BRANCH  61  84
ATOM     84  C   UNL A   1      44.216  34.359  29.538  1.00  0.00     0.023 A 
ATOM     85  C   UNL A   1      43.864  35.377  28.633  1.00  0.00     0.031 A 
ATOM     86  C   UNL A   1      44.990  34.712  30.658  1.00  0.00     0.131 A 
ATOM     87  C   UNL A   1      44.354  36.677  28.819  1.00  0.00     0.055 A 
ATOM     88  C   UNL A   1      45.409  36.025  30.879  1.00  0.00     0.041 A 
ATOM     89  F   UNL A   1      45.358  33.784  31.555  1.00  0.00    -0.206 F 
ATOM     90  C   UNL A   1      45.108  37.013  29.946  1.00  0.00     0.022 A 
BRANCH  87  91
ATOM     91  S   UNL A   1      44.104  37.895  27.497  1.00  0.00     0.124 S 
ATOM     92  O   UNL A   1      45.323  37.739  26.709  1.00  0.00    -0.237 OA
ATOM     93  O   UNL A   1      42.874  37.423  26.869  1.00  0.00    -0.237 OA
ATOM     94  O   UNL A   1      43.988  39.162  28.215  1.00  0.00    -0.744 OA
ENDBRANCH  87  91
ENDBRANCH  61  84
ENDBRANCH  35  36
ENDBRANCH  27  30
ENDBRANCH  25  26
ENDBRANCH  24  25
ENDBRANCH   1  24
TORSDOF 18
ENDMDL
MODEL 3
REMARK VINA RESULT:     -11.5      5.120      9.857
REMARK SMILES [NH3+][C@@H](CC(=O)NCCCCNC(=O)c1ccc(-c2c3nc(c(-c4cc(S(=O)(=O)[O-])ccc4F)c4ccc([nH]4)c(-c4cc(S(=O)(=O)[O-])ccc4F)c4nc(c(-c5cc(S(=O)(=O)[O-])ccc5F)c5ccc2[nH]5)C=C4)C=C3)cc1)c1ccc(C(F)(F)F)cc1F
REMARK SMILES IDX 8 1 7 2 6 3 4 4 5 5 3 7 2 8 1 9 77 13 78 14 86 15 79 16
REMARK SMILES IDX 85 17 87 18 80 19 81 20 82 21 83 22 84 23 9 24 10 25 11 26
REMARK SMILES IDX 12 27 13 29 14 30 15 31 76 32 16 33 75 34 17 35 18 36 19 37
REMARK SMILES IDX 69 38 20 39 74 40 68 41 70 42 21 43 73 44 67 45 66 46 22 48
REMARK SMILES IDX 54 49 34 50 53 51 35 52 38 53 52 54 71 55 36 56 37 57 51 59
REMARK SMILES IDX 72 60 39 61 23 62 24 63 32 64 25 65 31 66 33 67 30 68 26 69
REMARK SMILES IDX 27 70 28 71 29 72 55 73 56 74 64 75 57 76 63 77 65 78 62 79
REMARK SMILES IDX 58 80 59 81 60 82 61 83 40 84 41 85 49 86 42 87 48 88 50 89
REMARK SMILES IDX 47 90 43 91 44 92 45 93 46 94
REMARK H PARENT 6 6 1 10 1 11 1 12 11 28 70 47 38 58
REMARK Flexibility Score: inf
ROOT
ATOM      1  C   UNL A   1      34.566  22.743  26.677  1.00  0.00     0.023 C 
ENDROOT
BRANCH   1   2
ATOM      2  C   UNL A   1      33.499  21.676  26.911  1.00  0.00     0.116 C 
BRANCH   2   3
ATOM      3  N   UNL A   1      32.287  22.246  27.460  1.00  0.00    -0.356 N 
ATOM      4  C   UNL A   1      31.213  22.785  26.821  1.00  0.00     0.226 C 
ATOM      5  O   UNL A   1      30.282  23.211  27.507  1.00  0.00    -0.275 OA
ATOM      6  H   UNL A   1      32.232  22.244  28.443  1.00  0.00     0.163 HD
BRANCH   4   7
ATOM      7  C   UNL A   1      31.152  22.830  25.310  1.00  0.00     0.170 C 
BRANCH   7   8
ATOM      8  C   UNL A   1      30.794  24.171  24.638  1.00  0.00     0.224 C 
BRANCH   8   9
ATOM      9  N   UNL A   1      30.793  24.152  23.170  1.00  0.00    -0.351 N 
ATOM     10  H   UNL A   1      31.422  23.420  22.839  1.00  0.00     0.345 HD
ATOM     11  H   UNL A   1      31.107  25.056  22.818  1.00  0.00     0.345 HD
ATOM     12  H   UNL A   1      29.848  23.966  22.833  1.00  0.00     0.345 HD
ENDBRANCH   8   9
BRANCH   8  13
ATOM     13  C   UNL A   1      31.514  25.391  25.173  1.00  0.00     0.045 A 
ATOM     14  C   UNL A   1      30.863  26.388  25.917  1.00  0.00     0.013 A 
ATOM     15  C   UNL A   1      32.883  25.551  24.939  1.00  0.00     0.132 A 
ATOM     16  C   UNL A   1      31.553  27.506  26.394  1.00  0.00     0.014 A 
ATOM     17  C   UNL A   1      33.584  26.658  25.417  1.00  0.00     0.052 A 
ATOM     18  F   UNL A   1      33.559  24.632  24.236  1.00  0.00    -0.206 F 
ATOM     19  C   UNL A   1      32.923  27.653  26.149  1.00  0.00     0.058 A 
BRANCH  19  20
ATOM     20  C   UNL A   1      33.654  28.866  26.659  1.00  0.00     0.416 C 
ATOM     21  F   UNL A   1      33.682  29.880  25.751  1.00  0.00    -0.166 F 
ATOM     22  F   UNL A   1      33.085  29.384  27.783  1.00  0.00    -0.166 F 
ATOM     23  F   UNL A   1      34.956  28.620  26.983  1.00  0.00    -0.166 F 
ENDBRANCH  19  20
ENDBRANCH   8  13
ENDBRANCH   7   8
ENDBRANCH   4   7
ENDBRANCH   2   3
ENDBRANCH   1   2
BRANCH   1  24
ATOM     24  C   UNL A   1      35.542  22.439  25.543  1.00  0.00     0.023 C 
BRANCH  24  25
ATOM     25  C   UNL A   1      36.880  23.155  25.651  1.00  0.00     0.116 C 
BRANCH  25  26
ATOM     26  N   UNL A   1      37.962  22.259  26.031  1.00  0.00    -0.352 N 
ATOM     27  C   UNL A   1      39.196  22.562  26.547  1.00  0.00     0.251 C 
ATOM     28  H   UNL A   1      37.783  21.300  25.897  1.00  0.00     0.163 HD
ATOM     29  O   UNL A   1      40.043  21.678  26.646  1.00  0.00    -0.269 OA
BRANCH  27  30
ATOM     30  C   UNL A   1      39.501  23.951  26.946  1.00  0.00     0.039 A 
ATOM     31  C   UNL A   1      39.263  24.340  28.264  1.00  0.00     0.014 A 
ATOM     32  C   UNL A   1      40.040  24.858  26.029  1.00  0.00     0.014 A 
ATOM     33  C   UNL A   1      39.621  25.624  28.675  1.00  0.00     0.010 A 
ATOM     34  C   UNL A   1      40.485  26.101  26.465  1.00  0.00     0.010 A 
ATOM     35  C   UNL A   1      40.270  26.501  27.790  1.00  0.00    -0.014 A 
BRANCH  35  36
ATOM     36  C   UNL A   1      40.719  27.840  28.250  1.00  0.00     0.031 A 
ATOM     37  C   UNL A   1      42.175  28.215  28.193  1.00  0.00     0.074 A 
ATOM     38  C   UNL A   1      39.809  28.705  28.740  1.00  0.00     0.049 A 
ATOM     39  N   UNL A   1      42.749  29.344  28.518  1.00  0.00    -0.248 NA
ATOM     40  C   UNL A   1      43.112  27.175  27.743  1.00  0.00     0.031 C 
ATOM     41  C   UNL A   1      38.380  28.423  28.905  1.00  0.00     0.029 A 
ATOM     42  N   UNL A   1      39.942  29.997  29.179  1.00  0.00    -0.354 N 
ATOM     43  C   UNL A   1      44.111  29.151  28.312  1.00  0.00     0.074 A 
ATOM     44  C   UNL A   1      44.281  27.771  27.913  1.00  0.00     0.031 C 
ATOM     45  C   UNL A   1      37.762  29.525  29.355  1.00  0.00     0.029 A 
ATOM     46  C   UNL A   1      38.752  30.578  29.556  1.00  0.00     0.049 A 
ATOM     47  H   UNL A   1      40.806  30.466  29.220  1.00  0.00     0.167 HD
ATOM     48  C   UNL A   1      45.121  30.050  28.415  1.00  0.00     0.034 A 
ATOM     49  C   UNL A   1      38.490  31.820  30.007  1.00  0.00     0.034 A 
ATOM     50  C   UNL A   1      44.927  31.423  28.811  1.00  0.00     0.049 A 
ATOM     51  C   UNL A   1      39.630  32.801  30.119  1.00  0.00     0.074 A 
ATOM     52  C   UNL A   1      45.865  32.437  28.901  1.00  0.00     0.029 A 
ATOM     53  N   UNL A   1      43.709  31.977  29.195  1.00  0.00    -0.354 N 
ATOM     54  N   UNL A   1      40.903  32.622  29.850  1.00  0.00    -0.248 NA
ATOM     55  C   UNL A   1      39.293  34.152  30.576  1.00  0.00     0.031 C 
ATOM     56  C   UNL A   1      45.232  33.577  29.410  1.00  0.00     0.029 A 
ATOM     57  C   UNL A   1      43.880  33.305  29.554  1.00  0.00     0.049 A 
ATOM     58  H   UNL A   1      42.851  31.495  29.209  1.00  0.00     0.167 HD
ATOM     59  C   UNL A   1      41.514  33.852  30.080  1.00  0.00     0.074 A 
ATOM     60  C   UNL A   1      40.462  34.765  30.481  1.00  0.00     0.031 C 
ATOM     61  C   UNL A   1      42.824  34.197  29.973  1.00  0.00     0.034 A 
BRANCH  48  62
ATOM     62  C   UNL A   1      46.521  29.562  28.116  1.00  0.00     0.023 A 
ATOM     63  C   UNL A   1      46.904  29.161  26.823  1.00  0.00     0.031 A 
ATOM     64  C   UNL A   1      47.479  29.469  29.141  1.00  0.00     0.131 A 
ATOM     65  C   UNL A   1      48.178  28.614  26.605  1.00  0.00     0.055 A 
ATOM     66  C   UNL A   1      48.774  29.006  28.899  1.00  0.00     0.041 A 
ATOM     67  F   UNL A   1      47.169  29.813  30.401  1.00  0.00    -0.206 F 
ATOM     68  C   UNL A   1      49.126  28.559  27.629  1.00  0.00     0.022 A 
BRANCH  65  69
ATOM     69  S   UNL A   1      48.524  27.834  25.004  1.00  0.00     0.124 S 
ATOM     70  O   UNL A   1      47.390  28.292  24.203  1.00  0.00    -0.237 OA
ATOM     71  O   UNL A   1      49.822  28.395  24.653  1.00  0.00    -0.237 OA
ATOM     72  O   UNL A   1      48.521  26.405  25.311  1.00  0.00    -0.744 OA
ENDBRANCH  65  69
ENDBRANCH  48  62
BRANCH  49  73
ATOM     73  C   UNL A   1      37.100  32.215  30.375  1.00  0.00     0.023 A 
ATOM     74  C   UNL A   1      36.206  32.714  29.414  1.00  0.00     0.031 A 
ATOM     75  C   UNL A   1      36.654  32.137  31.707  1.00  0.00     0.131 A 
ATOM     76  C   UNL A   1      34.935  33.163  29.804  1.00  0.00     0.055 A 
ATOM     77  C   UNL A   1      35.369  32.530  32.082  1.00  0.00     0.041 A 
ATOM     78  F   UNL A   1      37.465  31.661  32.667  1.00  0.00    -0.206 F 
ATOM     79  C   UNL A   1      34.505  33.062  31.129  1.00  0.00     0.022 A 
BRANCH  76  80
ATOM     80  S   UNL A   1      33.882  33.974  28.569  1.00  0.00     0.124 S 
ATOM     81  O   UNL A   1      33.494  32.850  27.725  1.00  0.00    -0.237 OA
ATOM     82  O   UNL A   1      32.828  34.547  29.400  1.00  0.00    -0.237 OA
ATOM     83  O   UNL A   1      34.778  34.946  27.944  1.00  0.00    -0.744 OA
ENDBRANCH  76  80
ENDBRANCH  49  73
BRANCH  61  84
ATOM     84  C   UNL A   1      43.172  35.638  30.265  1.00  0.00     0.023 A 
ATOM     85  C   UNL A   1      43.051  36.639  29.285  1.00  0.00     0.031 A 
ATOM     86  C   UNL A   1      43.669  36.007  31.527  1.00  0.00     0.131 A 
ATOM     87  C   UNL A   1      43.499  37.940  29.557  1.00  0.00     0.055 A 
ATOM     88  C   UNL A   1      44.041  37.321  31.817  1.00  0.00     0.041 A 
ATOM     89  F   UNL A   1      43.809  35.094  32.501  1.00  0.00    -0.206 F 
ATOM     90  C   UNL A   1      43.976  38.293  30.822  1.00  0.00     0.022 A 
BRANCH  87  91
ATOM     91  S   UNL A   1      43.577  39.133  28.191  1.00  0.00     0.124 S 
ATOM     92  O   UNL A   1      44.580  40.077  28.672  1.00  0.00    -0.237 OA
ATOM     93  O   UNL A   1      43.978  38.293  27.068  1.00  0.00    -0.237 OA
ATOM     94  O   UNL A   1      42.216  39.659  28.118  1.00  0.00    -0.744 OA
ENDBRANCH  87  91
ENDBRANCH  61  84
ENDBRANCH  35  36
ENDBRANCH  27  30
ENDBRANCH  25  26
ENDBRANCH  24  25
ENDBRANCH   1  24
TORSDOF 18
ENDMDL
