MODEL 1
REMARK VINA RESULT:     -11.6      0.000      0.000
REMARK SMILES COCC[C@H](NC(=O)c1ccc(C)cc1F)C(=O)NCCCCNC(=O)c1ccc(-c2c3nc(c(-c4cc(S(=O)(=O)[O-])ccc4F)c4ccc([nH]4)c(-c4cc(S(=O)(=O)[O-])ccc4F)c4nc(c(-c5cc(S(=O)(=O)[O-])ccc5F)c5ccc2[nH]5)C=C4)C=C3)cc1
REMARK SMILES IDX 21 1 20 2 19 3 17 4 18 5 5 7 4 8 3 9 2 10 1 11 6 12 7 13
REMARK SMILES IDX 8 15 9 16 10 17 15 18 11 19 14 20 16 21 12 22 13 23 22 24
REMARK SMILES IDX 23 25 24 26 25 27 26 29 27 30 28 31 89 32 29 33 88 34 30 35
REMARK SMILES IDX 31 36 32 37 82 38 33 39 87 40 81 41 83 42 34 43 86 44 80 45
REMARK SMILES IDX 79 46 35 48 67 49 47 50 66 51 48 52 51 53 65 54 84 55 49 56
REMARK SMILES IDX 50 57 64 59 85 60 52 61 36 62 37 63 45 64 38 65 44 66 46 67
REMARK SMILES IDX 43 68 39 69 40 70 41 71 42 72 68 73 69 74 77 75 70 76 76 77
REMARK SMILES IDX 78 78 75 79 71 80 72 81 73 82 74 83 53 84 54 85 62 86 55 87
REMARK SMILES IDX 61 88 63 89 60 90 56 91 57 92 58 93 59 94
REMARK H PARENT 19 6 6 14 24 28 83 47 51 58
REMARK Flexibility Score: inf
ROOT
ATOM      1  C   UNL A   1      33.315  29.290  24.742  1.00  0.00     0.023 C 
ENDROOT
BRANCH   1   2
ATOM      2  C   UNL A   1      33.329  29.125  23.227  1.00  0.00     0.116 C 
BRANCH   2   3
ATOM      3  N   UNL A   1      31.988  29.135  22.682  1.00  0.00    -0.354 N 
ATOM      4  C   UNL A   1      31.099  28.108  22.580  1.00  0.00     0.242 C 
ATOM      5  O   UNL A   1      29.976  28.348  22.128  1.00  0.00    -0.273 OA
ATOM      6  H   UNL A   1      31.676  30.003  22.337  1.00  0.00     0.163 HD
BRANCH   4   7
ATOM      7  C   UNL A   1      31.426  26.713  23.161  1.00  0.00     0.173 C 
BRANCH   7   8
ATOM      8  C   UNL A   1      31.341  25.695  22.015  1.00  0.00     0.063 C 
BRANCH   8   9
ATOM      9  C   UNL A   1      32.665  25.487  21.274  1.00  0.00     0.162 C 
BRANCH   9  10
ATOM     10  O   UNL A   1      33.706  24.953  22.085  1.00  0.00    -0.385 OA
ATOM     11  C   UNL A   1      33.488  23.620  22.530  1.00  0.00     0.194 C 
ENDBRANCH   9  10
ENDBRANCH   8   9
ENDBRANCH   7   8
BRANCH   7  12
ATOM     12  N   UNL A   1      30.725  26.496  24.449  1.00  0.00    -0.340 N 
ATOM     13  C   UNL A   1      30.989  25.921  25.664  1.00  0.00     0.254 C 
ATOM     14  H   UNL A   1      29.815  26.870  24.424  1.00  0.00     0.164 HD
ATOM     15  O   UNL A   1      30.154  25.990  26.562  1.00  0.00    -0.269 OA
BRANCH  13  16
ATOM     16  C   UNL A   1      32.233  25.198  25.923  1.00  0.00     0.075 A 
ATOM     17  C   UNL A   1      33.466  25.839  25.807  1.00  0.00     0.017 A 
ATOM     18  C   UNL A   1      32.173  23.844  26.241  1.00  0.00     0.136 A 
ATOM     19  C   UNL A   1      34.638  25.078  25.865  1.00  0.00     0.004 A 
ATOM     20  C   UNL A   1      33.338  23.086  26.309  1.00  0.00     0.043 A 
ATOM     21  F   UNL A   1      30.996  23.224  26.408  1.00  0.00    -0.206 F 
ATOM     22  C   UNL A   1      34.577  23.690  26.063  1.00  0.00    -0.048 A 
ATOM     23  C   UNL A   1      35.822  22.853  26.019  1.00  0.00     0.044 C 
ENDBRANCH  13  16
ENDBRANCH   7  12
ENDBRANCH   4   7
ENDBRANCH   2   3
ENDBRANCH   1   2
BRANCH   1  24
ATOM     24  C   UNL A   1      32.073  30.009  25.272  1.00  0.00     0.023 C 
BRANCH  24  25
ATOM     25  C   UNL A   1      32.151  30.437  26.735  1.00  0.00     0.116 C 
BRANCH  25  26
ATOM     26  N   UNL A   1      31.997  31.872  26.920  1.00  0.00    -0.352 N 
ATOM     27  C   UNL A   1      32.899  32.759  27.466  1.00  0.00     0.251 C 
ATOM     28  H   UNL A   1      31.143  32.257  26.618  1.00  0.00     0.163 HD
ATOM     29  O   UNL A   1      32.594  33.928  27.654  1.00  0.00    -0.269 OA
BRANCH  27  30
ATOM     30  C   UNL A   1      34.228  32.250  27.856  1.00  0.00     0.039 A 
ATOM     31  C   UNL A   1      35.290  33.149  27.964  1.00  0.00     0.014 A 
ATOM     32  C   UNL A   1      34.384  30.908  28.217  1.00  0.00     0.014 A 
ATOM     33  C   UNL A   1      36.495  32.720  28.525  1.00  0.00     0.010 A 
ATOM     34  C   UNL A   1      35.566  30.498  28.825  1.00  0.00     0.010 A 
ATOM     35  C   UNL A   1      36.622  31.406  29.006  1.00  0.00    -0.014 A 
BRANCH  35  36
ATOM     36  C   UNL A   1      37.828  30.972  29.754  1.00  0.00     0.031 A 
ATOM     37  C   UNL A   1      38.750  29.942  29.166  1.00  0.00     0.074 A 
ATOM     38  C   UNL A   1      38.034  31.438  31.002  1.00  0.00     0.049 A 
ATOM     39  N   UNL A   1      39.781  29.350  29.709  1.00  0.00    -0.248 NA
ATOM     40  C   UNL A   1      38.450  29.500  27.796  1.00  0.00     0.031 C 
ATOM     41  C   UNL A   1      37.182  32.409  31.693  1.00  0.00     0.029 A 
ATOM     42  N   UNL A   1      39.009  31.142  31.922  1.00  0.00    -0.354 N 
ATOM     43  C   UNL A   1      40.250  28.457  28.753  1.00  0.00     0.074 A 
ATOM     44  C   UNL A   1      39.357  28.552  27.617  1.00  0.00     0.031 C 
ATOM     45  C   UNL A   1      37.676  32.634  32.921  1.00  0.00     0.029 A 
ATOM     46  C   UNL A   1      38.849  31.791  33.125  1.00  0.00     0.049 A 
ATOM     47  H   UNL A   1      39.753  30.523  31.739  1.00  0.00     0.167 HD
ATOM     48  C   UNL A   1      41.337  27.648  28.813  1.00  0.00     0.034 A 
ATOM     49  C   UNL A   1      39.552  31.698  34.272  1.00  0.00     0.034 A 
ATOM     50  C   UNL A   1      42.221  27.574  29.951  1.00  0.00     0.049 A 
ATOM     51  C   UNL A   1      40.729  30.759  34.328  1.00  0.00     0.074 A 
ATOM     52  C   UNL A   1      43.394  26.853  30.087  1.00  0.00     0.029 A 
ATOM     53  N   UNL A   1      42.021  28.235  31.157  1.00  0.00    -0.354 N 
ATOM     54  N   UNL A   1      41.198  29.967  33.392  1.00  0.00    -0.248 NA
ATOM     55  C   UNL A   1      41.472  30.703  35.594  1.00  0.00     0.031 C 
ATOM     56  C   UNL A   1      43.865  27.023  31.393  1.00  0.00     0.029 A 
ATOM     57  C   UNL A   1      43.024  27.903  32.055  1.00  0.00     0.049 A 
ATOM     58  H   UNL A   1      41.275  28.850  31.346  1.00  0.00     0.167 HD
ATOM     59  C   UNL A   1      42.300  29.329  33.953  1.00  0.00     0.074 A 
ATOM     60  C   UNL A   1      42.437  29.844  35.301  1.00  0.00     0.031 C 
ATOM     61  C   UNL A   1      43.128  28.404  33.404  1.00  0.00     0.034 A 
BRANCH  48  62
ATOM     62  C   UNL A   1      41.607  26.760  27.623  1.00  0.00     0.023 A 
ATOM     63  C   UNL A   1      41.194  25.417  27.595  1.00  0.00     0.031 A 
ATOM     64  C   UNL A   1      42.308  27.258  26.510  1.00  0.00     0.131 A 
ATOM     65  C   UNL A   1      41.546  24.598  26.512  1.00  0.00     0.055 A 
ATOM     66  C   UNL A   1      42.589  26.457  25.400  1.00  0.00     0.041 A 
ATOM     67  F   UNL A   1      42.746  28.525  26.489  1.00  0.00    -0.206 F 
ATOM     68  C   UNL A   1      42.220  25.115  25.403  1.00  0.00     0.022 A 
BRANCH  65  69
ATOM     69  S   UNL A   1      41.227  22.818  26.634  1.00  0.00     0.124 S 
ATOM     70  O   UNL A   1      41.759  22.512  27.959  1.00  0.00    -0.237 OA
ATOM     71  O   UNL A   1      39.777  22.746  26.496  1.00  0.00    -0.237 OA
ATOM     72  O   UNL A   1      41.989  22.256  25.521  1.00  0.00    -0.744 OA
ENDBRANCH  65  69
ENDBRANCH  48  62
BRANCH  49  73
ATOM     73  C   UNL A   1      39.148  32.484  35.472  1.00  0.00     0.023 A 
ATOM     74  C   UNL A   1      39.626  33.787  35.676  1.00  0.00     0.031 A 
ATOM     75  C   UNL A   1      38.305  31.927  36.451  1.00  0.00     0.131 A 
ATOM     76  C   UNL A   1      39.293  34.476  36.853  1.00  0.00     0.055 A 
ATOM     77  C   UNL A   1      37.938  32.635  37.596  1.00  0.00     0.041 A 
ATOM     78  F   UNL A   1      37.816  30.685  36.300  1.00  0.00    -0.206 F 
ATOM     79  C   UNL A   1      38.443  33.915  37.808  1.00  0.00     0.022 A 
BRANCH  76  80
ATOM     80  S   UNL A   1      40.050  36.098  37.153  1.00  0.00     0.124 S 
ATOM     81  O   UNL A   1      41.426  35.730  37.463  1.00  0.00    -0.237 OA
ATOM     82  O   UNL A   1      39.837  36.772  35.876  1.00  0.00    -0.237 OA
ATOM     83  O   UNL A   1      39.278  36.631  38.273  1.00  0.00    -0.744 OA
ENDBRANCH  76  80
ENDBRANCH  49  73
BRANCH  61  84
ATOM     84  C   UNL A   1      44.262  27.911  34.266  1.00  0.00     0.023 A 
ATOM     85  C   UNL A   1      44.141  26.744  35.042  1.00  0.00     0.031 A 
ATOM     86  C   UNL A   1      45.475  28.620  34.319  1.00  0.00     0.131 A 
ATOM     87  C   UNL A   1      45.197  26.348  35.875  1.00  0.00     0.055 A 
ATOM     88  C   UNL A   1      46.542  28.190  35.108  1.00  0.00     0.041 A 
ATOM     89  F   UNL A   1      45.642  29.742  33.599  1.00  0.00    -0.206 F 
ATOM     90  C   UNL A   1      46.403  27.054  35.900  1.00  0.00     0.022 A 
BRANCH  87  91
ATOM     91  S   UNL A   1      44.951  24.932  36.981  1.00  0.00     0.124 S 
ATOM     92  O   UNL A   1      44.649  23.860  36.038  1.00  0.00    -0.237 OA
ATOM     93  O   UNL A   1      46.237  24.838  37.663  1.00  0.00    -0.237 OA
ATOM     94  O   UNL A   1      43.832  25.348  37.826  1.00  0.00    -0.744 OA
ENDBRANCH  87  91
ENDBRANCH  61  84
ENDBRANCH  35  36
ENDBRANCH  27  30
ENDBRANCH  25  26
ENDBRANCH  24  25
ENDBRANCH   1  24
TORSDOF 19
ENDMDL
MODEL 2
REMARK VINA RESULT:     -11.2      2.504      3.916
REMARK SMILES COCC[C@H](NC(=O)c1ccc(C)cc1F)C(=O)NCCCCNC(=O)c1ccc(-c2c3nc(c(-c4cc(S(=O)(=O)[O-])ccc4F)c4ccc([nH]4)c(-c4cc(S(=O)(=O)[O-])ccc4F)c4nc(c(-c5cc(S(=O)(=O)[O-])ccc5F)c5ccc2[nH]5)C=C4)C=C3)cc1
REMARK SMILES IDX 21 1 20 2 19 3 17 4 18 5 5 7 4 8 3 9 2 10 1 11 6 12 7 13
REMARK SMILES IDX 8 15 9 16 10 17 15 18 11 19 14 20 16 21 12 22 13 23 22 24
REMARK SMILES IDX 23 25 24 26 25 27 26 29 27 30 28 31 89 32 29 33 88 34 30 35
REMARK SMILES IDX 31 36 32 37 82 38 33 39 87 40 81 41 83 42 34 43 86 44 80 45
REMARK SMILES IDX 79 46 35 48 67 49 47 50 66 51 48 52 51 53 65 54 84 55 49 56
REMARK SMILES IDX 50 57 64 59 85 60 52 61 36 62 37 63 45 64 38 65 44 66 46 67
REMARK SMILES IDX 43 68 39 69 40 70 41 71 42 72 68 73 69 74 77 75 70 76 76 77
REMARK SMILES IDX 78 78 75 79 71 80 72 81 73 82 74 83 53 84 54 85 62 86 55 87
REMARK SMILES IDX 61 88 63 89 60 90 56 91 57 92 58 93 59 94
REMARK H PARENT 19 6 6 14 24 28 83 47 51 58
REMARK Flexibility Score: inf
ROOT
ATOM      1  C   UNL A   1      31.577  31.049  26.462  1.00  0.00     0.023 C 
ENDROOT
BRANCH   1   2
ATOM      2  C   UNL A   1      31.473  29.993  25.367  1.00  0.00     0.116 C 
BRANCH   2   3
ATOM      3  N   UNL A   1      32.773  29.675  24.815  1.00  0.00    -0.354 N 
ATOM      4  C   UNL A   1      33.279  28.460  24.464  1.00  0.00     0.242 C 
ATOM      5  O   UNL A   1      34.402  28.419  23.955  1.00  0.00    -0.273 OA
ATOM      6  H   UNL A   1      33.374  30.443  24.673  1.00  0.00     0.163 HD
BRANCH   4   7
ATOM      7  C   UNL A   1      32.413  27.183  24.551  1.00  0.00     0.173 C 
BRANCH   7   8
ATOM      8  C   UNL A   1      33.056  26.249  25.587  1.00  0.00     0.063 C 
BRANCH   8   9
ATOM      9  C   UNL A   1      32.050  25.593  26.537  1.00  0.00     0.162 C 
BRANCH   9  10
ATOM     10  O   UNL A   1      32.303  24.214  26.786  1.00  0.00    -0.385 OA
ATOM     11  C   UNL A   1      33.539  23.735  26.274  1.00  0.00     0.194 C 
ENDBRANCH   9  10
ENDBRANCH   8   9
ENDBRANCH   7   8
BRANCH   7  12
ATOM     12  N   UNL A   1      32.033  26.704  23.201  1.00  0.00    -0.340 N 
ATOM     13  C   UNL A   1      31.144  27.045  22.215  1.00  0.00     0.254 C 
ATOM     14  H   UNL A   1      32.570  25.922  22.939  1.00  0.00     0.164 HD
ATOM     15  O   UNL A   1      31.156  26.435  21.150  1.00  0.00    -0.269 OA
BRANCH  13  16
ATOM     16  C   UNL A   1      30.155  28.106  22.400  1.00  0.00     0.075 A 
ATOM     17  C   UNL A   1      30.390  29.391  21.913  1.00  0.00     0.017 A 
ATOM     18  C   UNL A   1      28.992  27.827  23.114  1.00  0.00     0.136 A 
ATOM     19  C   UNL A   1      29.523  30.427  22.276  1.00  0.00     0.004 A 
ATOM     20  C   UNL A   1      28.123  28.854  23.468  1.00  0.00     0.043 A 
ATOM     21  F   UNL A   1      28.725  26.586  23.543  1.00  0.00    -0.206 F 
ATOM     22  C   UNL A   1      28.415  30.173  23.098  1.00  0.00    -0.048 A 
ATOM     23  C   UNL A   1      27.542  31.295  23.579  1.00  0.00     0.044 C 
ENDBRANCH  13  16
ENDBRANCH   7  12
ENDBRANCH   4   7
ENDBRANCH   2   3
ENDBRANCH   1   2
BRANCH   1  24
ATOM     24  C   UNL A   1      32.795  30.876  27.371  1.00  0.00     0.023 C 
BRANCH  24  25
ATOM     25  C   UNL A   1      33.745  32.069  27.410  1.00  0.00     0.116 C 
BRANCH  25  26
ATOM     26  N   UNL A   1      33.068  33.331  27.671  1.00  0.00    -0.352 N 
ATOM     27  C   UNL A   1      33.334  34.248  28.663  1.00  0.00     0.251 C 
ATOM     28  H   UNL A   1      32.328  33.557  27.062  1.00  0.00     0.163 HD
ATOM     29  O   UNL A   1      32.613  35.223  28.827  1.00  0.00    -0.269 OA
BRANCH  27  30
ATOM     30  C   UNL A   1      34.488  34.001  29.550  1.00  0.00     0.039 A 
ATOM     31  C   UNL A   1      34.297  33.254  30.713  1.00  0.00     0.014 A 
ATOM     32  C   UNL A   1      35.766  34.417  29.165  1.00  0.00     0.014 A 
ATOM     33  C   UNL A   1      35.409  32.842  31.451  1.00  0.00     0.010 A 
ATOM     34  C   UNL A   1      36.874  33.959  29.871  1.00  0.00     0.010 A 
ATOM     35  C   UNL A   1      36.706  33.148  31.005  1.00  0.00    -0.014 A 
BRANCH  35  36
ATOM     36  C   UNL A   1      37.904  32.585  31.675  1.00  0.00     0.031 A 
ATOM     37  C   UNL A   1      38.665  31.458  31.037  1.00  0.00     0.074 A 
ATOM     38  C   UNL A   1      38.244  33.027  32.902  1.00  0.00     0.049 A 
ATOM     39  N   UNL A   1      39.659  30.756  31.515  1.00  0.00    -0.248 NA
ATOM     40  C   UNL A   1      38.227  31.050  29.693  1.00  0.00     0.031 C 
ATOM     41  C   UNL A   1      37.552  34.088  33.639  1.00  0.00     0.029 A 
ATOM     42  N   UNL A   1      39.239  32.627  33.758  1.00  0.00    -0.354 N 
ATOM     43  C   UNL A   1      39.961  29.815  30.538  1.00  0.00     0.074 A 
ATOM     44  C   UNL A   1      39.009  30.007  29.463  1.00  0.00     0.031 C 
ATOM     45  C   UNL A   1      38.150  34.259  34.829  1.00  0.00     0.029 A 
ATOM     46  C   UNL A   1      39.234  33.291  34.963  1.00  0.00     0.049 A 
ATOM     47  H   UNL A   1      39.897  31.929  33.531  1.00  0.00     0.167 HD
ATOM     48  C   UNL A   1      40.954  28.891  30.533  1.00  0.00     0.034 A 
ATOM     49  C   UNL A   1      39.998  33.123  36.061  1.00  0.00     0.034 A 
ATOM     50  C   UNL A   1      41.898  28.722  31.610  1.00  0.00     0.049 A 
ATOM     51  C   UNL A   1      41.065  32.060  36.047  1.00  0.00     0.074 A 
ATOM     52  C   UNL A   1      42.991  27.875  31.674  1.00  0.00     0.029 A 
ATOM     53  N   UNL A   1      41.854  29.403  32.820  1.00  0.00    -0.354 N 
ATOM     54  N   UNL A   1      41.380  31.219  35.090  1.00  0.00    -0.248 NA
ATOM     55  C   UNL A   1      41.880  31.925  37.262  1.00  0.00     0.031 C 
ATOM     56  C   UNL A   1      43.565  27.994  32.945  1.00  0.00     0.029 A 
ATOM     57  C   UNL A   1      42.873  28.964  33.653  1.00  0.00     0.049 A 
ATOM     58  H   UNL A   1      41.195  30.097  33.053  1.00  0.00     0.167 HD
ATOM     59  C   UNL A   1      42.440  30.465  35.582  1.00  0.00     0.074 A 
ATOM     60  C   UNL A   1      42.723  30.963  36.913  1.00  0.00     0.031 C 
ATOM     61  C   UNL A   1      43.122  29.452  34.987  1.00  0.00     0.034 A 
BRANCH  48  62
ATOM     62  C   UNL A   1      41.044  27.976  29.335  1.00  0.00     0.023 A 
ATOM     63  C   UNL A   1      42.006  28.171  28.329  1.00  0.00     0.031 A 
ATOM     64  C   UNL A   1      40.140  26.910  29.187  1.00  0.00     0.131 A 
ATOM     65  C   UNL A   1      41.998  27.358  27.186  1.00  0.00     0.055 A 
ATOM     66  C   UNL A   1      40.186  26.056  28.082  1.00  0.00     0.041 A 
ATOM     67  F   UNL A   1      39.187  26.688  30.104  1.00  0.00    -0.206 F 
ATOM     68  C   UNL A   1      41.109  26.287  27.066  1.00  0.00     0.022 A 
BRANCH  65  69
ATOM     69  S   UNL A   1      43.076  27.805  25.799  1.00  0.00     0.124 S 
ATOM     70  O   UNL A   1      42.247  27.441  24.652  1.00  0.00    -0.237 OA
ATOM     71  O   UNL A   1      43.285  29.233  26.007  1.00  0.00    -0.237 OA
ATOM     72  O   UNL A   1      44.255  26.965  25.995  1.00  0.00    -0.744 OA
ENDBRANCH  65  69
ENDBRANCH  48  62
BRANCH  49  73
ATOM     73  C   UNL A   1      39.764  33.951  37.278  1.00  0.00     0.023 A 
ATOM     74  C   UNL A   1      39.046  33.443  38.371  1.00  0.00     0.031 A 
ATOM     75  C   UNL A   1      40.225  35.279  37.349  1.00  0.00     0.131 A 
ATOM     76  C   UNL A   1      38.772  34.270  39.472  1.00  0.00     0.055 A 
ATOM     77  C   UNL A   1      39.992  36.081  38.467  1.00  0.00     0.041 A 
ATOM     78  F   UNL A   1      40.922  35.811  36.332  1.00  0.00    -0.206 F 
ATOM     79  C   UNL A   1      39.250  35.580  39.533  1.00  0.00     0.022 A 
BRANCH  76  80
ATOM     80  S   UNL A   1      37.713  33.626  40.798  1.00  0.00     0.124 S 
ATOM     81  O   UNL A   1      38.621  32.721  41.491  1.00  0.00    -0.237 OA
ATOM     82  O   UNL A   1      37.350  34.845  41.513  1.00  0.00    -0.237 OA
ATOM     83  O   UNL A   1      36.619  32.981  40.075  1.00  0.00    -0.744 OA
ENDBRANCH  76  80
ENDBRANCH  49  73
BRANCH  61  84
ATOM     84  C   UNL A   1      44.250  28.838  35.776  1.00  0.00     0.023 A 
ATOM     85  C   UNL A   1      44.037  27.739  36.627  1.00  0.00     0.031 A 
ATOM     86  C   UNL A   1      45.551  29.363  35.682  1.00  0.00     0.131 A 
ATOM     87  C   UNL A   1      45.100  27.230  37.388  1.00  0.00     0.055 A 
ATOM     88  C   UNL A   1      46.615  28.818  36.401  1.00  0.00     0.041 A 
ATOM     89  F   UNL A   1      45.807  30.413  34.886  1.00  0.00    -0.206 F 
ATOM     90  C   UNL A   1      46.390  27.752  37.267  1.00  0.00     0.022 A 
BRANCH  87  91
ATOM     91  S   UNL A   1      44.759  25.918  38.593  1.00  0.00     0.124 S 
ATOM     92  O   UNL A   1      44.017  24.954  37.788  1.00  0.00    -0.237 OA
ATOM     93  O   UNL A   1      46.099  25.510  39.001  1.00  0.00    -0.237 OA
ATOM     94  O   UNL A   1      43.978  26.597  39.626  1.00  0.00    -0.744 OA
ENDBRANCH  87  91
ENDBRANCH  61  84
ENDBRANCH  35  36
ENDBRANCH  27  30
ENDBRANCH  25  26
ENDBRANCH  24  25
ENDBRANCH   1  24
TORSDOF 19
ENDMDL
MODEL 3
REMARK VINA RESULT:     -11.1      2.227      3.113
REMARK SMILES COCC[C@H](NC(=O)c1ccc(C)cc1F)C(=O)NCCCCNC(=O)c1ccc(-c2c3nc(c(-c4cc(S(=O)(=O)[O-])ccc4F)c4ccc([nH]4)c(-c4cc(S(=O)(=O)[O-])ccc4F)c4nc(c(-c5cc(S(=O)(=O)[O-])ccc5F)c5ccc2[nH]5)C=C4)C=C3)cc1
REMARK SMILES IDX 21 1 20 2 19 3 17 4 18 5 5 7 4 8 3 9 2 10 1 11 6 12 7 13
REMARK SMILES IDX 8 15 9 16 10 17 15 18 11 19 14 20 16 21 12 22 13 23 22 24
REMARK SMILES IDX 23 25 24 26 25 27 26 29 27 30 28 31 89 32 29 33 88 34 30 35
REMARK SMILES IDX 31 36 32 37 82 38 33 39 87 40 81 41 83 42 34 43 86 44 80 45
REMARK SMILES IDX 79 46 35 48 67 49 47 50 66 51 48 52 51 53 65 54 84 55 49 56
REMARK SMILES IDX 50 57 64 59 85 60 52 61 36 62 37 63 45 64 38 65 44 66 46 67
REMARK SMILES IDX 43 68 39 69 40 70 41 71 42 72 68 73 69 74 77 75 70 76 76 77
REMARK SMILES IDX 78 78 75 79 71 80 72 81 73 82 74 83 53 84 54 85 62 86 55 87
REMARK SMILES IDX 61 88 63 89 60 90 56 91 57 92 58 93 59 94
REMARK H PARENT 19 6 6 14 24 28 83 47 51 58
REMARK Flexibility Score: inf
ROOT
ATOM      1  C   UNL A   1      32.019  29.222  27.254  1.00  0.00     0.023 C 
ENDROOT
BRANCH   1   2
ATOM      2  C   UNL A   1      32.413  27.947  26.518  1.00  0.00     0.116 C 
BRANCH   2   3
ATOM      3  N   UNL A   1      31.249  27.224  26.053  1.00  0.00    -0.354 N 
ATOM      4  C   UNL A   1      30.651  27.261  24.829  1.00  0.00     0.242 C 
ATOM      5  O   UNL A   1      29.691  26.515  24.624  1.00  0.00    -0.273 OA
ATOM      6  H   UNL A   1      30.831  26.622  26.712  1.00  0.00     0.163 HD
BRANCH   4   7
ATOM      7  C   UNL A   1      31.254  28.094  23.675  1.00  0.00     0.173 C 
BRANCH   7   8
ATOM      8  C   UNL A   1      30.358  29.323  23.465  1.00  0.00     0.063 C 
BRANCH   8   9
ATOM      9  C   UNL A   1      29.284  29.129  22.390  1.00  0.00     0.162 C 
BRANCH   9  10
ATOM     10  O   UNL A   1      29.372  30.053  21.310  1.00  0.00    -0.385 OA
ATOM     11  C   UNL A   1      28.741  31.305  21.547  1.00  0.00     0.194 C 
ENDBRANCH   9  10
ENDBRANCH   8   9
ENDBRANCH   7   8
BRANCH   7  12
ATOM     12  N   UNL A   1      31.661  27.224  22.546  1.00  0.00    -0.340 N 
ATOM     13  C   UNL A   1      32.284  26.017  22.367  1.00  0.00     0.254 C 
ATOM     14  H   UNL A   1      31.412  27.626  21.682  1.00  0.00     0.164 HD
ATOM     15  O   UNL A   1      32.397  25.554  21.236  1.00  0.00    -0.269 OA
BRANCH  13  16
ATOM     16  C   UNL A   1      32.850  25.267  23.487  1.00  0.00     0.075 A 
ATOM     17  C   UNL A   1      34.030  25.685  24.100  1.00  0.00     0.017 A 
ATOM     18  C   UNL A   1      32.218  24.099  23.904  1.00  0.00     0.136 A 
ATOM     19  C   UNL A   1      34.650  24.844  25.030  1.00  0.00     0.004 A 
ATOM     20  C   UNL A   1      32.827  23.265  24.837  1.00  0.00     0.043 A 
ATOM     21  F   UNL A   1      31.055  23.710  23.363  1.00  0.00    -0.206 F 
ATOM     22  C   UNL A   1      34.079  23.607  25.364  1.00  0.00    -0.048 A 
ATOM     23  C   UNL A   1      34.791  22.654  26.278  1.00  0.00     0.044 C 
ENDBRANCH  13  16
ENDBRANCH   7  12
ENDBRANCH   4   7
ENDBRANCH   2   3
ENDBRANCH   1   2
BRANCH   1  24
ATOM     24  C   UNL A   1      32.495  30.503  26.566  1.00  0.00     0.023 C 
BRANCH  24  25
ATOM     25  C   UNL A   1      33.355  31.419  27.433  1.00  0.00     0.116 C 
BRANCH  25  26
ATOM     26  N   UNL A   1      32.849  32.782  27.503  1.00  0.00    -0.352 N 
ATOM     27  C   UNL A   1      33.267  33.801  28.329  1.00  0.00     0.251 C 
ATOM     28  H   UNL A   1      32.117  33.002  26.882  1.00  0.00     0.163 HD
ATOM     29  O   UNL A   1      32.678  34.873  28.351  1.00  0.00    -0.269 OA
BRANCH  27  30
ATOM     30  C   UNL A   1      34.418  33.550  29.218  1.00  0.00     0.039 A 
ATOM     31  C   UNL A   1      34.241  32.737  30.338  1.00  0.00     0.014 A 
ATOM     32  C   UNL A   1      35.684  34.033  28.874  1.00  0.00     0.014 A 
ATOM     33  C   UNL A   1      35.358  32.328  31.070  1.00  0.00     0.010 A 
ATOM     34  C   UNL A   1      36.799  33.580  29.571  1.00  0.00     0.010 A 
ATOM     35  C   UNL A   1      36.648  32.705  30.659  1.00  0.00    -0.014 A 
BRANCH  35  36
ATOM     36  C   UNL A   1      37.859  32.152  31.316  1.00  0.00     0.031 A 
ATOM     37  C   UNL A   1      38.614  31.022  30.676  1.00  0.00     0.074 A 
ATOM     38  C   UNL A   1      38.215  32.607  32.534  1.00  0.00     0.049 A 
ATOM     39  N   UNL A   1      39.617  30.329  31.146  1.00  0.00    -0.248 NA
ATOM     40  C   UNL A   1      38.157  30.601  29.343  1.00  0.00     0.031 C 
ATOM     41  C   UNL A   1      37.530  33.672  33.272  1.00  0.00     0.029 A 
ATOM     42  N   UNL A   1      39.224  32.217  33.378  1.00  0.00    -0.354 N 
ATOM     43  C   UNL A   1      39.909  29.380  30.173  1.00  0.00     0.074 A 
ATOM     44  C   UNL A   1      38.940  29.558  29.111  1.00  0.00     0.031 C 
ATOM     45  C   UNL A   1      38.145  33.855  34.451  1.00  0.00     0.029 A 
ATOM     46  C   UNL A   1      39.234  32.893  34.578  1.00  0.00     0.049 A 
ATOM     47  H   UNL A   1      39.881  31.520  33.148  1.00  0.00     0.167 HD
ATOM     48  C   UNL A   1      40.905  28.459  30.161  1.00  0.00     0.034 A 
ATOM     49  C   UNL A   1      40.015  32.737  35.665  1.00  0.00     0.034 A 
ATOM     50  C   UNL A   1      41.865  28.303  31.226  1.00  0.00     0.049 A 
ATOM     51  C   UNL A   1      41.086  31.678  35.645  1.00  0.00     0.074 A 
ATOM     52  C   UNL A   1      42.962  27.461  31.281  1.00  0.00     0.029 A 
ATOM     53  N   UNL A   1      41.837  28.995  32.430  1.00  0.00    -0.354 N 
ATOM     54  N   UNL A   1      41.389  30.830  34.691  1.00  0.00    -0.248 NA
ATOM     55  C   UNL A   1      41.920  31.556  36.848  1.00  0.00     0.031 C 
ATOM     56  C   UNL A   1      43.554  27.593  32.542  1.00  0.00     0.029 A 
ATOM     57  C   UNL A   1      42.870  28.567  33.251  1.00  0.00     0.049 A 
ATOM     58  H   UNL A   1      41.179  29.688  32.667  1.00  0.00     0.167 HD
ATOM     59  C   UNL A   1      42.460  30.083  35.174  1.00  0.00     0.074 A 
ATOM     60  C   UNL A   1      42.761  30.595  36.495  1.00  0.00     0.031 C 
ATOM     61  C   UNL A   1      43.136  29.068  34.578  1.00  0.00     0.034 A 
BRANCH  48  62
ATOM     62  C   UNL A   1      40.980  27.534  28.971  1.00  0.00     0.023 A 
ATOM     63  C   UNL A   1      41.969  27.682  27.983  1.00  0.00     0.031 A 
ATOM     64  C   UNL A   1      40.036  26.505  28.810  1.00  0.00     0.131 A 
ATOM     65  C   UNL A   1      41.949  26.864  26.844  1.00  0.00     0.055 A 
ATOM     66  C   UNL A   1      40.068  25.643  27.711  1.00  0.00     0.041 A 
ATOM     67  F   UNL A   1      39.057  26.329  29.710  1.00  0.00    -0.206 F 
ATOM     68  C   UNL A   1      41.020  25.830  26.713  1.00  0.00     0.022 A 
BRANCH  65  69
ATOM     69  S   UNL A   1      43.072  27.257  25.476  1.00  0.00     0.124 S 
ATOM     70  O   UNL A   1      44.178  27.904  26.178  1.00  0.00    -0.237 OA
ATOM     71  O   UNL A   1      43.355  25.943  24.911  1.00  0.00    -0.237 OA
ATOM     72  O   UNL A   1      42.281  28.145  24.627  1.00  0.00    -0.744 OA
ENDBRANCH  65  69
ENDBRANCH  48  62
BRANCH  49  73
ATOM     73  C   UNL A   1      39.796  33.575  36.878  1.00  0.00     0.023 A 
ATOM     74  C   UNL A   1      39.097  33.074  37.986  1.00  0.00     0.031 A 
ATOM     75  C   UNL A   1      40.253  34.905  36.931  1.00  0.00     0.131 A 
ATOM     76  C   UNL A   1      38.836  33.909  39.084  1.00  0.00     0.055 A 
ATOM     77  C   UNL A   1      40.033  35.716  38.044  1.00  0.00     0.041 A 
ATOM     78  F   UNL A   1      40.932  35.431  35.898  1.00  0.00    -0.206 F 
ATOM     79  C   UNL A   1      39.309  35.222  39.126  1.00  0.00     0.022 A 
BRANCH  76  80
ATOM     80  S   UNL A   1      37.800  33.274  40.431  1.00  0.00     0.124 S 
ATOM     81  O   UNL A   1      37.643  34.457  41.269  1.00  0.00    -0.237 OA
ATOM     82  O   UNL A   1      36.609  32.831  39.714  1.00  0.00    -0.237 OA
ATOM     83  O   UNL A   1      38.612  32.204  41.008  1.00  0.00    -0.744 OA
ENDBRANCH  76  80
ENDBRANCH  49  73
BRANCH  61  84
ATOM     84  C   UNL A   1      44.279  28.465  35.355  1.00  0.00     0.023 A 
ATOM     85  C   UNL A   1      44.071  27.419  36.272  1.00  0.00     0.031 A 
ATOM     86  C   UNL A   1      45.588  28.947  35.183  1.00  0.00     0.131 A 
ATOM     87  C   UNL A   1      45.149  26.922  37.019  1.00  0.00     0.055 A 
ATOM     88  C   UNL A   1      46.665  28.411  35.889  1.00  0.00     0.041 A 
ATOM     89  F   UNL A   1      45.840  29.946  34.322  1.00  0.00    -0.206 F 
ATOM     90  C   UNL A   1      46.447  27.400  36.820  1.00  0.00     0.022 A 
BRANCH  87  91
ATOM     91  S   UNL A   1      44.822  25.686  38.305  1.00  0.00     0.124 S 
ATOM     92  O   UNL A   1      43.768  26.330  39.082  1.00  0.00    -0.237 OA
ATOM     93  O   UNL A   1      44.418  24.520  37.526  1.00  0.00    -0.237 OA
ATOM     94  O   UNL A   1      46.107  25.557  38.990  1.00  0.00    -0.744 OA
ENDBRANCH  87  91
ENDBRANCH  61  84
ENDBRANCH  35  36
ENDBRANCH  27  30
ENDBRANCH  25  26
ENDBRANCH  24  25
ENDBRANCH   1  24
TORSDOF 19
ENDMDL
