MODEL 1
REMARK VINA RESULT:     -12.3      0.000      0.000
REMARK SMILES CCOC(=O)c1c(NC(=O)[C@@H]2[C@@H]3CC[C@@H](C3)[C@@H]2C(=O)NCCCCNC(=O)c2ccc(-c3c4nc(c(-c5cc(S(=O)(=O)[O-])ccc5F)c5ccc([nH]5)c(-c5cc(S(=O)(=O)[O-])ccc5F)c5nc(c(-c6cc(S(=O)(=O)[O-])ccc6F)c6ccc3[nH]6)C=C5)C=C4)cc2)sc2c1CCCC2
REMARK SMILES IDX 21 1 20 2 18 3 19 4 17 6 11 7 12 8 13 9 16 10 15 11 14 12
REMARK SMILES IDX 9 13 8 14 10 16 7 17 6 18 93 19 91 20 92 21 94 22 97 23
REMARK SMILES IDX 95 24 96 25 4 26 5 27 3 28 2 29 1 30 22 31 23 32 24 33 25 34
REMARK SMILES IDX 26 35 27 37 28 38 29 39 90 40 30 41 89 42 31 43 32 44 33 45
REMARK SMILES IDX 83 46 34 47 88 48 82 49 84 50 35 51 87 52 81 53 80 54 36 56
REMARK SMILES IDX 68 57 48 58 67 59 49 60 52 61 66 62 85 63 50 64 51 65 65 67
REMARK SMILES IDX 86 68 53 69 37 70 38 71 46 72 39 73 45 74 47 75 44 76 40 77
REMARK SMILES IDX 41 78 42 79 43 80 69 81 70 82 78 83 71 84 77 85 79 86 76 87
REMARK SMILES IDX 72 88 73 89 74 90 75 91 54 92 55 93 63 94 56 95 62 96 64 97
REMARK SMILES IDX 61 98 57 99 58 100 59 101 60 102
REMARK H PARENT 20 5 8 15 25 36 84 55 52 66
REMARK Flexibility Score: inf
ROOT
ATOM      1  C   UNL A   1      34.648  24.141  24.353  1.00  0.00     0.116 C 
ENDROOT
BRANCH   1   2
ATOM      2  N   UNL A   1      34.068  25.195  23.558  1.00  0.00    -0.356 N 
ATOM      3  C   UNL A   1      33.502  26.373  23.924  1.00  0.00     0.224 C 
ATOM      4  O   UNL A   1      33.248  27.165  23.007  1.00  0.00    -0.275 OA
ATOM      5  H   UNL A   1      34.087  25.033  22.587  1.00  0.00     0.163 HD
BRANCH   3   6
ATOM      6  C   UNL A   1      33.040  26.734  25.344  1.00  0.00     0.094 C 
ATOM      7  C   UNL A   1      31.597  27.118  25.755  1.00  0.00     0.094 C 
ATOM      8  C   UNL A   1      31.797  28.506  26.425  1.00  0.00     0.002 C 
ATOM      9  C   UNL A   1      32.397  29.626  25.550  1.00  0.00     0.005 C 
ATOM     10  C   UNL A   1      33.043  28.179  27.269  1.00  0.00     0.009 C 
ATOM     11  C   UNL A   1      33.895  27.827  26.039  1.00  0.00     0.002 C 
ATOM     12  C   UNL A   1      33.833  29.155  25.283  1.00  0.00     0.005 C 
BRANCH   7  13
ATOM     13  C   UNL A   1      30.481  26.781  24.792  1.00  0.00     0.229 C 
ATOM     14  N   UNL A   1      29.924  25.557  24.682  1.00  0.00    -0.317 N 
ATOM     15  H   UNL A   1      28.942  25.570  24.623  1.00  0.00     0.170 HD
ATOM     16  O   UNL A   1      30.042  27.638  24.019  1.00  0.00    -0.274 OA
BRANCH  14  17
ATOM     17  C   UNL A   1      30.466  24.295  24.637  1.00  0.00     0.110 A 
ATOM     18  C   UNL A   1      30.954  23.316  25.484  1.00  0.00     0.098 A 
ATOM     19  C   UNL A   1      31.558  22.243  24.716  1.00  0.00    -0.017 A 
ATOM     20  S   UNL A   1      30.650  23.872  22.980  1.00  0.00    -0.122 S 
ATOM     21  C   UNL A   1      31.433  22.426  23.356  1.00  0.00     0.011 A 
ATOM     22  C   UNL A   1      32.259  21.043  25.287  1.00  0.00     0.038 C 
ATOM     23  C   UNL A   1      31.968  21.510  22.300  1.00  0.00     0.047 C 
ATOM     24  C   UNL A   1      33.125  20.337  24.234  1.00  0.00     0.005 C 
ATOM     25  C   UNL A   1      32.364  20.158  22.914  1.00  0.00     0.006 C 
BRANCH  18  26
ATOM     26  C   UNL A   1      30.944  23.264  26.935  1.00  0.00     0.341 C 
ATOM     27  O   UNL A   1      29.972  22.851  27.558  1.00  0.00    -0.246 OA
BRANCH  26  28
ATOM     28  O   UNL A   1      32.149  23.566  27.496  1.00  0.00    -0.462 OA
BRANCH  28  29
ATOM     29  C   UNL A   1      32.816  22.463  28.133  1.00  0.00     0.230 C 
ATOM     30  C   UNL A   1      34.302  22.525  27.841  1.00  0.00     0.049 C 
ENDBRANCH  28  29
ENDBRANCH  26  28
ENDBRANCH  18  26
ENDBRANCH  14  17
ENDBRANCH   7  13
ENDBRANCH   3   6
ENDBRANCH   1   2
BRANCH   1  31
ATOM     31  C   UNL A   1      36.008  23.674  23.862  1.00  0.00     0.023 C 
BRANCH  31  32
ATOM     32  C   UNL A   1      36.230  22.180  24.023  1.00  0.00     0.023 C 
BRANCH  32  33
ATOM     33  C   UNL A   1      36.752  21.768  25.392  1.00  0.00     0.116 C 
BRANCH  33  34
ATOM     34  N   UNL A   1      37.826  20.777  25.325  1.00  0.00    -0.352 N 
ATOM     35  C   UNL A   1      39.103  20.872  25.831  1.00  0.00     0.251 C 
ATOM     36  H   UNL A   1      37.609  19.937  24.860  1.00  0.00     0.163 HD
ATOM     37  O   UNL A   1      39.945  20.011  25.609  1.00  0.00    -0.269 OA
BRANCH  35  38
ATOM     38  C   UNL A   1      39.421  22.078  26.613  1.00  0.00     0.039 A 
ATOM     39  C   UNL A   1      40.401  22.001  27.601  1.00  0.00     0.014 A 
ATOM     40  C   UNL A   1      38.918  23.306  26.179  1.00  0.00     0.014 A 
ATOM     41  C   UNL A   1      40.968  23.181  28.080  1.00  0.00     0.010 A 
ATOM     42  C   UNL A   1      39.554  24.469  26.585  1.00  0.00     0.010 A 
ATOM     43  C   UNL A   1      40.601  24.417  27.522  1.00  0.00    -0.014 A 
BRANCH  43  44
ATOM     44  C   UNL A   1      41.318  25.670  27.869  1.00  0.00     0.031 A 
ATOM     45  C   UNL A   1      40.584  26.766  28.587  1.00  0.00     0.074 A 
ATOM     46  C   UNL A   1      42.588  25.854  27.450  1.00  0.00     0.049 A 
ATOM     47  N   UNL A   1      40.980  27.977  28.875  1.00  0.00    -0.248 NA
ATOM     48  C   UNL A   1      39.203  26.470  28.999  1.00  0.00     0.031 C 
ATOM     49  C   UNL A   1      43.382  24.884  26.691  1.00  0.00     0.029 A 
ATOM     50  N   UNL A   1      43.431  26.929  27.589  1.00  0.00    -0.354 N 
ATOM     51  C   UNL A   1      39.893  28.594  29.481  1.00  0.00     0.074 A 
ATOM     52  C   UNL A   1      38.802  27.645  29.457  1.00  0.00     0.031 C 
ATOM     53  C   UNL A   1      44.601  25.398  26.455  1.00  0.00     0.029 A 
ATOM     54  C   UNL A   1      44.661  26.751  26.997  1.00  0.00     0.049 A 
ATOM     55  H   UNL A   1      43.178  27.752  28.066  1.00  0.00     0.167 HD
ATOM     56  C   UNL A   1      39.821  29.829  30.033  1.00  0.00     0.034 A 
ATOM     57  C   UNL A   1      45.712  27.590  26.889  1.00  0.00     0.034 A 
ATOM     58  C   UNL A   1      40.928  30.751  30.067  1.00  0.00     0.049 A 
ATOM     59  C   UNL A   1      45.600  28.967  27.493  1.00  0.00     0.074 A 
ATOM     60  C   UNL A   1      40.995  31.992  30.674  1.00  0.00     0.029 A 
ATOM     61  N   UNL A   1      42.159  30.536  29.463  1.00  0.00    -0.354 N 
ATOM     62  N   UNL A   1      44.587  29.510  28.129  1.00  0.00    -0.248 NA
ATOM     63  C   UNL A   1      46.771  29.844  27.366  1.00  0.00     0.031 C 
ATOM     64  C   UNL A   1      42.242  32.556  30.378  1.00  0.00     0.029 A 
ATOM     65  C   UNL A   1      42.979  31.638  29.647  1.00  0.00     0.049 A 
ATOM     66  H   UNL A   1      42.412  29.720  28.973  1.00  0.00     0.167 HD
ATOM     67  C   UNL A   1      45.007  30.786  28.493  1.00  0.00     0.074 A 
ATOM     68  C   UNL A   1      46.372  30.922  28.026  1.00  0.00     0.031 C 
ATOM     69  C   UNL A   1      44.330  31.759  29.153  1.00  0.00     0.034 A 
BRANCH  56  70
ATOM     70  C   UNL A   1      38.497  30.249  30.622  1.00  0.00     0.023 A 
ATOM     71  C   UNL A   1      37.531  30.926  29.857  1.00  0.00     0.031 A 
ATOM     72  C   UNL A   1      38.209  29.998  31.975  1.00  0.00     0.131 A 
ATOM     73  C   UNL A   1      36.359  31.397  30.467  1.00  0.00     0.055 A 
ATOM     74  C   UNL A   1      37.006  30.398  32.556  1.00  0.00     0.041 A 
ATOM     75  F   UNL A   1      39.104  29.375  32.760  1.00  0.00    -0.206 F 
ATOM     76  C   UNL A   1      36.078  31.115  31.806  1.00  0.00     0.022 A 
BRANCH  73  77
ATOM     77  S   UNL A   1      35.275  32.500  29.520  1.00  0.00     0.124 S 
ATOM     78  O   UNL A   1      34.628  31.563  28.605  1.00  0.00    -0.237 OA
ATOM     79  O   UNL A   1      34.424  33.072  30.556  1.00  0.00    -0.237 OA
ATOM     80  O   UNL A   1      36.206  33.435  28.889  1.00  0.00    -0.744 OA
ENDBRANCH  73  77
ENDBRANCH  56  70
BRANCH  57  81
ATOM     81  C   UNL A   1      46.948  27.175  26.166  1.00  0.00     0.023 A 
ATOM     82  C   UNL A   1      48.018  26.572  26.848  1.00  0.00     0.031 A 
ATOM     83  C   UNL A   1      47.102  27.421  24.789  1.00  0.00     0.131 A 
ATOM     84  C   UNL A   1      49.209  26.277  26.164  1.00  0.00     0.055 A 
ATOM     85  C   UNL A   1      48.270  27.080  24.103  1.00  0.00     0.041 A 
ATOM     86  F   UNL A   1      46.110  27.992  24.087  1.00  0.00    -0.206 F 
ATOM     87  C   UNL A   1      49.338  26.516  24.794  1.00  0.00     0.022 A 
BRANCH  84  88
ATOM     88  S   UNL A   1      50.624  25.654  27.113  1.00  0.00     0.124 S 
ATOM     89  O   UNL A   1      50.133  24.354  27.560  1.00  0.00    -0.237 OA
ATOM     90  O   UNL A   1      51.678  25.630  26.104  1.00  0.00    -0.237 OA
ATOM     91  O   UNL A   1      50.794  26.653  28.166  1.00  0.00    -0.744 OA
ENDBRANCH  84  88
ENDBRANCH  57  81
BRANCH  69  92
ATOM     92  C   UNL A   1      45.072  33.043  29.423  1.00  0.00     0.023 A 
ATOM     93  C   UNL A   1      44.975  34.144  28.555  1.00  0.00     0.031 A 
ATOM     94  C   UNL A   1      45.889  33.165  30.561  1.00  0.00     0.131 A 
ATOM     95  C   UNL A   1      45.720  35.303  28.813  1.00  0.00     0.055 A 
ATOM     96  C   UNL A   1      46.582  34.342  30.844  1.00  0.00     0.041 A 
ATOM     97  F   UNL A   1      46.018  32.143  31.422  1.00  0.00    -0.206 F 
ATOM     98  C   UNL A   1      46.509  35.416  29.961  1.00  0.00     0.022 A 
BRANCH  95  99
ATOM     99  S   UNL A   1      45.706  36.640  27.587  1.00  0.00     0.124 S 
ATOM    100  O   UNL A   1      44.629  36.220  26.695  1.00  0.00    -0.237 OA
ATOM    101  O   UNL A   1      45.431  37.815  28.408  1.00  0.00    -0.237 OA
ATOM    102  O   UNL A   1      47.046  36.589  27.007  1.00  0.00    -0.744 OA
ENDBRANCH  95  99
ENDBRANCH  69  92
ENDBRANCH  43  44
ENDBRANCH  35  38
ENDBRANCH  33  34
ENDBRANCH  32  33
ENDBRANCH  31  32
ENDBRANCH   1  31
TORSDOF 19
ENDMDL
MODEL 2
REMARK VINA RESULT:     -12.1      1.823      2.097
REMARK SMILES CCOC(=O)c1c(NC(=O)[C@@H]2[C@@H]3CC[C@@H](C3)[C@@H]2C(=O)NCCCCNC(=O)c2ccc(-c3c4nc(c(-c5cc(S(=O)(=O)[O-])ccc5F)c5ccc([nH]5)c(-c5cc(S(=O)(=O)[O-])ccc5F)c5nc(c(-c6cc(S(=O)(=O)[O-])ccc6F)c6ccc3[nH]6)C=C5)C=C4)cc2)sc2c1CCCC2
REMARK SMILES IDX 21 1 20 2 18 3 19 4 17 6 11 7 12 8 13 9 16 10 15 11 14 12
REMARK SMILES IDX 9 13 8 14 10 16 7 17 6 18 93 19 91 20 92 21 94 22 97 23
REMARK SMILES IDX 95 24 96 25 4 26 5 27 3 28 2 29 1 30 22 31 23 32 24 33 25 34
REMARK SMILES IDX 26 35 27 37 28 38 29 39 90 40 30 41 89 42 31 43 32 44 33 45
REMARK SMILES IDX 83 46 34 47 88 48 82 49 84 50 35 51 87 52 81 53 80 54 36 56
REMARK SMILES IDX 68 57 48 58 67 59 49 60 52 61 66 62 85 63 50 64 51 65 65 67
REMARK SMILES IDX 86 68 53 69 37 70 38 71 46 72 39 73 45 74 47 75 44 76 40 77
REMARK SMILES IDX 41 78 42 79 43 80 69 81 70 82 78 83 71 84 77 85 79 86 76 87
REMARK SMILES IDX 72 88 73 89 74 90 75 91 54 92 55 93 63 94 56 95 62 96 64 97
REMARK SMILES IDX 61 98 57 99 58 100 59 101 60 102
REMARK H PARENT 20 5 8 15 25 36 84 55 52 66
REMARK Flexibility Score: inf
ROOT
ATOM      1  C   UNL A   1      34.921  24.124  24.442  1.00  0.00     0.116 C 
ENDROOT
BRANCH   1   2
ATOM      2  N   UNL A   1      34.176  25.057  23.634  1.00  0.00    -0.356 N 
ATOM      3  C   UNL A   1      33.503  26.185  23.975  1.00  0.00     0.224 C 
ATOM      4  O   UNL A   1      33.103  26.887  23.037  1.00  0.00    -0.275 OA
ATOM      5  H   UNL A   1      34.153  24.840  22.673  1.00  0.00     0.163 HD
BRANCH   3   6
ATOM      6  C   UNL A   1      33.092  26.578  25.402  1.00  0.00     0.094 C 
ATOM      7  C   UNL A   1      31.670  27.000  25.850  1.00  0.00     0.094 C 
ATOM      8  C   UNL A   1      31.921  28.393  26.491  1.00  0.00     0.002 C 
ATOM      9  C   UNL A   1      32.517  29.486  25.582  1.00  0.00     0.005 C 
ATOM     10  C   UNL A   1      33.184  28.051  27.303  1.00  0.00     0.009 C 
ATOM     11  C   UNL A   1      33.991  27.662  26.053  1.00  0.00     0.002 C 
ATOM     12  C   UNL A   1      33.934  28.980  25.279  1.00  0.00     0.005 C 
BRANCH   7  13
ATOM     13  C   UNL A   1      30.519  26.673  24.926  1.00  0.00     0.229 C 
ATOM     14  N   UNL A   1      29.939  25.457  24.845  1.00  0.00    -0.317 N 
ATOM     15  H   UNL A   1      28.956  25.485  24.818  1.00  0.00     0.170 HD
ATOM     16  O   UNL A   1      30.069  27.530  24.160  1.00  0.00    -0.274 OA
BRANCH  14  17
ATOM     17  C   UNL A   1      30.459  24.186  24.795  1.00  0.00     0.110 A 
ATOM     18  C   UNL A   1      30.821  23.151  25.637  1.00  0.00     0.098 A 
ATOM     19  C   UNL A   1      31.495  22.105  24.888  1.00  0.00    -0.017 A 
ATOM     20  S   UNL A   1      30.837  23.849  23.150  1.00  0.00    -0.122 S 
ATOM     21  C   UNL A   1      31.541  22.365  23.536  1.00  0.00     0.011 A 
ATOM     22  C   UNL A   1      32.098  20.859  25.471  1.00  0.00     0.038 C 
ATOM     23  C   UNL A   1      32.184  21.495  22.501  1.00  0.00     0.047 C 
ATOM     24  C   UNL A   1      33.073  20.190  24.492  1.00  0.00     0.005 C 
ATOM     25  C   UNL A   1      32.477  20.102  23.081  1.00  0.00     0.006 C 
BRANCH  18  26
ATOM     26  C   UNL A   1      30.632  23.020  27.071  1.00  0.00     0.341 C 
ATOM     27  O   UNL A   1      29.514  22.965  27.571  1.00  0.00    -0.246 OA
BRANCH  26  28
ATOM     28  O   UNL A   1      31.794  22.814  27.753  1.00  0.00    -0.462 OA
BRANCH  28  29
ATOM     29  C   UNL A   1      32.910  23.602  27.305  1.00  0.00     0.230 C 
ATOM     30  C   UNL A   1      34.207  22.890  27.636  1.00  0.00     0.049 C 
ENDBRANCH  28  29
ENDBRANCH  26  28
ENDBRANCH  18  26
ENDBRANCH  14  17
ENDBRANCH   7  13
ENDBRANCH   3   6
ENDBRANCH   1   2
BRANCH   1  31
ATOM     31  C   UNL A   1      36.051  23.430  23.699  1.00  0.00     0.023 C 
BRANCH  31  32
ATOM     32  C   UNL A   1      36.340  22.029  24.210  1.00  0.00     0.023 C 
BRANCH  32  33
ATOM     33  C   UNL A   1      37.111  21.986  25.522  1.00  0.00     0.116 C 
BRANCH  33  34
ATOM     34  N   UNL A   1      38.223  21.035  25.507  1.00  0.00    -0.352 N 
ATOM     35  C   UNL A   1      39.479  21.186  26.052  1.00  0.00     0.251 C 
ATOM     36  H   UNL A   1      38.053  20.180  25.049  1.00  0.00     0.163 HD
ATOM     37  O   UNL A   1      40.359  20.354  25.872  1.00  0.00    -0.269 OA
BRANCH  35  38
ATOM     38  C   UNL A   1      39.726  22.416  26.823  1.00  0.00     0.039 A 
ATOM     39  C   UNL A   1      40.674  22.391  27.844  1.00  0.00     0.014 A 
ATOM     40  C   UNL A   1      39.193  23.617  26.352  1.00  0.00     0.014 A 
ATOM     41  C   UNL A   1      41.181  23.598  28.322  1.00  0.00     0.010 A 
ATOM     42  C   UNL A   1      39.772  24.809  26.759  1.00  0.00     0.010 A 
ATOM     43  C   UNL A   1      40.788  24.811  27.730  1.00  0.00    -0.014 A 
BRANCH  43  44
ATOM     44  C   UNL A   1      41.447  26.095  28.079  1.00  0.00     0.031 A 
ATOM     45  C   UNL A   1      40.655  27.167  28.770  1.00  0.00     0.074 A 
ATOM     46  C   UNL A   1      42.718  26.326  27.686  1.00  0.00     0.049 A 
ATOM     47  N   UNL A   1      40.996  28.396  29.053  1.00  0.00    -0.248 NA
ATOM     48  C   UNL A   1      39.278  26.821  29.155  1.00  0.00     0.031 C 
ATOM     49  C   UNL A   1      43.567  25.381  26.955  1.00  0.00     0.029 A 
ATOM     50  N   UNL A   1      43.514  27.435  27.831  1.00  0.00    -0.354 N 
ATOM     51  C   UNL A   1      39.872  28.975  29.629  1.00  0.00     0.074 A 
ATOM     52  C   UNL A   1      38.820  27.983  29.592  1.00  0.00     0.031 C 
ATOM     53  C   UNL A   1      44.769  25.941  26.739  1.00  0.00     0.029 A 
ATOM     54  C   UNL A   1      44.763  27.300  27.268  1.00  0.00     0.049 A 
ATOM     55  H   UNL A   1      43.218  28.251  28.294  1.00  0.00     0.167 HD
ATOM     56  C   UNL A   1      39.739  30.212  30.166  1.00  0.00     0.034 A 
ATOM     57  C   UNL A   1      45.782  28.180  27.173  1.00  0.00     0.034 A 
ATOM     58  C   UNL A   1      40.808  31.177  30.214  1.00  0.00     0.049 A 
ATOM     59  C   UNL A   1      45.602  29.557  27.760  1.00  0.00     0.074 A 
ATOM     60  C   UNL A   1      40.812  32.426  30.809  1.00  0.00     0.029 A 
ATOM     61  N   UNL A   1      42.059  31.006  29.639  1.00  0.00    -0.354 N 
ATOM     62  N   UNL A   1      44.555  30.065  28.369  1.00  0.00    -0.248 NA
ATOM     63  C   UNL A   1      46.739  30.479  27.648  1.00  0.00     0.031 C 
ATOM     64  C   UNL A   1      42.041  33.036  30.534  1.00  0.00     0.029 A 
ATOM     65  C   UNL A   1      42.830  32.141  29.828  1.00  0.00     0.049 A 
ATOM     66  H   UNL A   1      42.355  30.196  29.163  1.00  0.00     0.167 HD
ATOM     67  C   UNL A   1      44.916  31.361  28.727  1.00  0.00     0.074 A 
ATOM     68  C   UNL A   1      46.284  31.546  28.288  1.00  0.00     0.031 C 
ATOM     69  C   UNL A   1      44.186  32.312  29.362  1.00  0.00     0.034 A 
BRANCH  56  70
ATOM     70  C   UNL A   1      38.387  30.584  30.723  1.00  0.00     0.023 A 
ATOM     71  C   UNL A   1      37.414  31.221  29.931  1.00  0.00     0.031 A 
ATOM     72  C   UNL A   1      38.077  30.329  32.069  1.00  0.00     0.131 A 
ATOM     73  C   UNL A   1      36.212  31.650  30.512  1.00  0.00     0.055 A 
ATOM     74  C   UNL A   1      36.846  30.686  32.621  1.00  0.00     0.041 A 
ATOM     75  F   UNL A   1      38.976  29.744  32.878  1.00  0.00    -0.206 F 
ATOM     76  C   UNL A   1      35.910  31.364  31.845  1.00  0.00     0.022 A 
BRANCH  73  77
ATOM     77  S   UNL A   1      35.109  32.707  29.534  1.00  0.00     0.124 S 
ATOM     78  O   UNL A   1      34.237  33.259  30.568  1.00  0.00    -0.237 OA
ATOM     79  O   UNL A   1      36.039  33.645  28.915  1.00  0.00    -0.237 OA
ATOM     80  O   UNL A   1      34.462  31.771  28.616  1.00  0.00    -0.744 OA
ENDBRANCH  73  77
ENDBRANCH  56  70
BRANCH  57  81
ATOM     81  C   UNL A   1      47.049  27.807  26.481  1.00  0.00     0.023 A 
ATOM     82  C   UNL A   1      47.184  27.951  25.090  1.00  0.00     0.031 A 
ATOM     83  C   UNL A   1      48.128  27.252  27.192  1.00  0.00     0.131 A 
ATOM     84  C   UNL A   1      48.350  27.504  24.449  1.00  0.00     0.055 A 
ATOM     85  C   UNL A   1      49.306  26.855  26.556  1.00  0.00     0.041 A 
ATOM     86  F   UNL A   1      48.055  27.094  28.524  1.00  0.00    -0.206 F 
ATOM     87  C   UNL A   1      49.417  26.967  25.174  1.00  0.00     0.022 A 
BRANCH  84  88
ATOM     88  S   UNL A   1      48.419  27.554  22.637  1.00  0.00     0.124 S 
ATOM     89  O   UNL A   1      49.672  28.265  22.406  1.00  0.00    -0.237 OA
ATOM     90  O   UNL A   1      48.414  26.136  22.294  1.00  0.00    -0.237 OA
ATOM     91  O   UNL A   1      47.209  28.286  22.271  1.00  0.00    -0.744 OA
ENDBRANCH  84  88
ENDBRANCH  57  81
BRANCH  69  92
ATOM     92  C   UNL A   1      44.870  33.628  29.635  1.00  0.00     0.023 A 
ATOM     93  C   UNL A   1      45.603  33.844  30.814  1.00  0.00     0.031 A 
ATOM     94  C   UNL A   1      44.784  34.678  28.704  1.00  0.00     0.131 A 
ATOM     95  C   UNL A   1      46.183  35.097  31.055  1.00  0.00     0.055 A 
ATOM     96  C   UNL A   1      45.413  35.905  28.923  1.00  0.00     0.041 A 
ATOM     97  F   UNL A   1      44.095  34.525  27.562  1.00  0.00    -0.206 F 
ATOM     98  C   UNL A   1      46.107  36.123  30.109  1.00  0.00     0.022 A 
BRANCH  95  99
ATOM     99  S   UNL A   1      46.975  35.397  32.659  1.00  0.00     0.124 S 
ATOM    100  O   UNL A   1      48.369  35.595  32.275  1.00  0.00    -0.237 OA
ATOM    101  O   UNL A   1      46.272  36.583  33.138  1.00  0.00    -0.237 OA
ATOM    102  O   UNL A   1      46.706  34.172  33.409  1.00  0.00    -0.744 OA
ENDBRANCH  95  99
ENDBRANCH  69  92
ENDBRANCH  43  44
ENDBRANCH  35  38
ENDBRANCH  33  34
ENDBRANCH  32  33
ENDBRANCH  31  32
ENDBRANCH   1  31
TORSDOF 19
ENDMDL
MODEL 3
REMARK VINA RESULT:     -11.7      1.598      7.308
REMARK SMILES CCOC(=O)c1c(NC(=O)[C@@H]2[C@@H]3CC[C@@H](C3)[C@@H]2C(=O)NCCCCNC(=O)c2ccc(-c3c4nc(c(-c5cc(S(=O)(=O)[O-])ccc5F)c5ccc([nH]5)c(-c5cc(S(=O)(=O)[O-])ccc5F)c5nc(c(-c6cc(S(=O)(=O)[O-])ccc6F)c6ccc3[nH]6)C=C5)C=C4)cc2)sc2c1CCCC2
REMARK SMILES IDX 21 1 20 2 18 3 19 4 17 6 11 7 12 8 13 9 16 10 15 11 14 12
REMARK SMILES IDX 9 13 8 14 10 16 7 17 6 18 93 19 91 20 92 21 94 22 97 23
REMARK SMILES IDX 95 24 96 25 4 26 5 27 3 28 2 29 1 30 22 31 23 32 24 33 25 34
REMARK SMILES IDX 26 35 27 37 28 38 29 39 90 40 30 41 89 42 31 43 32 44 33 45
REMARK SMILES IDX 83 46 34 47 88 48 82 49 84 50 35 51 87 52 81 53 80 54 36 56
REMARK SMILES IDX 68 57 48 58 67 59 49 60 52 61 66 62 85 63 50 64 51 65 65 67
REMARK SMILES IDX 86 68 53 69 37 70 38 71 46 72 39 73 45 74 47 75 44 76 40 77
REMARK SMILES IDX 41 78 42 79 43 80 69 81 70 82 78 83 71 84 77 85 79 86 76 87
REMARK SMILES IDX 72 88 73 89 74 90 75 91 54 92 55 93 63 94 56 95 62 96 64 97
REMARK SMILES IDX 61 98 57 99 58 100 59 101 60 102
REMARK H PARENT 20 5 8 15 25 36 84 55 52 66
REMARK Flexibility Score: inf
ROOT
ATOM      1  C   UNL A   1      34.853  24.019  24.647  1.00  0.00     0.116 C 
ENDROOT
BRANCH   1   2
ATOM      2  N   UNL A   1      34.228  24.975  23.768  1.00  0.00    -0.356 N 
ATOM      3  C   UNL A   1      33.606  26.151  24.036  1.00  0.00     0.224 C 
ATOM      4  O   UNL A   1      33.318  26.852  23.057  1.00  0.00    -0.275 OA
ATOM      5  H   UNL A   1      34.258  24.735  22.813  1.00  0.00     0.163 HD
BRANCH   3   6
ATOM      6  C   UNL A   1      33.122  26.605  25.422  1.00  0.00     0.094 C 
ATOM      7  C   UNL A   1      31.689  27.083  25.767  1.00  0.00     0.094 C 
ATOM      8  C   UNL A   1      31.943  28.491  26.376  1.00  0.00     0.002 C 
ATOM      9  C   UNL A   1      32.627  29.533  25.468  1.00  0.00     0.005 C 
ATOM     10  C   UNL A   1      33.144  28.142  27.274  1.00  0.00     0.009 C 
ATOM     11  C   UNL A   1      34.013  27.686  26.090  1.00  0.00     0.002 C 
ATOM     12  C   UNL A   1      34.043  28.977  25.270  1.00  0.00     0.005 C 
BRANCH   7  13
ATOM     13  C   UNL A   1      30.586  26.757  24.786  1.00  0.00     0.229 C 
ATOM     14  N   UNL A   1      30.017  25.539  24.670  1.00  0.00    -0.317 N 
ATOM     15  H   UNL A   1      29.036  25.563  24.594  1.00  0.00     0.170 HD
ATOM     16  O   UNL A   1      30.170  27.617  24.004  1.00  0.00    -0.274 OA
BRANCH  14  17
ATOM     17  C   UNL A   1      30.544  24.271  24.637  1.00  0.00     0.110 A 
ATOM     18  C   UNL A   1      30.999  23.286  25.494  1.00  0.00     0.098 A 
ATOM     19  C   UNL A   1      31.609  22.206  24.741  1.00  0.00    -0.017 A 
ATOM     20  S   UNL A   1      30.764  23.847  22.985  1.00  0.00    -0.122 S 
ATOM     21  C   UNL A   1      31.520  22.391  23.379  1.00  0.00     0.011 A 
ATOM     22  C   UNL A   1      32.282  20.997  25.328  1.00  0.00     0.038 C 
ATOM     23  C   UNL A   1      32.069  21.469  22.335  1.00  0.00     0.047 C 
ATOM     24  C   UNL A   1      33.164  20.282  24.296  1.00  0.00     0.005 C 
ATOM     25  C   UNL A   1      32.434  20.112  22.957  1.00  0.00     0.006 C 
BRANCH  18  26
ATOM     26  C   UNL A   1      30.953  23.233  26.945  1.00  0.00     0.341 C 
ATOM     27  O   UNL A   1      29.979  22.789  27.543  1.00  0.00    -0.246 OA
BRANCH  26  28
ATOM     28  O   UNL A   1      32.133  23.573  27.537  1.00  0.00    -0.462 OA
BRANCH  28  29
ATOM     29  C   UNL A   1      32.835  22.486  28.163  1.00  0.00     0.230 C 
ATOM     30  C   UNL A   1      34.297  22.521  27.762  1.00  0.00     0.049 C 
ENDBRANCH  28  29
ENDBRANCH  26  28
ENDBRANCH  18  26
ENDBRANCH  14  17
ENDBRANCH   7  13
ENDBRANCH   3   6
ENDBRANCH   1   2
BRANCH   1  31
ATOM     31  C   UNL A   1      36.087  23.354  24.059  1.00  0.00     0.023 C 
BRANCH  31  32
ATOM     32  C   UNL A   1      36.482  22.072  24.771  1.00  0.00     0.023 C 
BRANCH  32  33
ATOM     33  C   UNL A   1      37.875  22.099  25.385  1.00  0.00     0.116 C 
BRANCH  33  34
ATOM     34  N   UNL A   1      38.483  20.773  25.492  1.00  0.00    -0.352 N 
ATOM     35  C   UNL A   1      39.754  20.452  25.916  1.00  0.00     0.251 C 
ATOM     36  H   UNL A   1      37.913  20.015  25.229  1.00  0.00     0.163 HD
ATOM     37  O   UNL A   1      40.178  19.305  25.854  1.00  0.00    -0.269 OA
BRANCH  35  38
ATOM     38  C   UNL A   1      40.591  21.559  26.406  1.00  0.00     0.039 A 
ATOM     39  C   UNL A   1      41.535  22.119  25.548  1.00  0.00     0.014 A 
ATOM     40  C   UNL A   1      40.248  22.171  27.614  1.00  0.00     0.014 A 
ATOM     41  C   UNL A   1      42.059  23.375  25.852  1.00  0.00     0.010 A 
ATOM     42  C   UNL A   1      40.696  23.460  27.859  1.00  0.00     0.010 A 
ATOM     43  C   UNL A   1      41.587  24.084  26.970  1.00  0.00    -0.014 A 
BRANCH  43  44
ATOM     44  C   UNL A   1      41.979  25.495  27.216  1.00  0.00     0.031 A 
ATOM     45  C   UNL A   1      43.306  25.991  26.717  1.00  0.00     0.074 A 
ATOM     46  C   UNL A   1      41.189  26.289  27.969  1.00  0.00     0.049 A 
ATOM     47  N   UNL A   1      43.893  27.139  26.927  1.00  0.00    -0.248 NA
ATOM     48  C   UNL A   1      44.097  25.049  25.908  1.00  0.00     0.031 C 
ATOM     49  C   UNL A   1      39.905  25.898  28.559  1.00  0.00     0.029 A 
ATOM     50  N   UNL A   1      41.356  27.588  28.383  1.00  0.00    -0.354 N 
ATOM     51  C   UNL A   1      45.127  27.051  26.296  1.00  0.00     0.074 A 
ATOM     52  C   UNL A   1      45.231  25.713  25.755  1.00  0.00     0.031 C 
ATOM     53  C   UNL A   1      39.393  26.940  29.235  1.00  0.00     0.029 A 
ATOM     54  C   UNL A   1      40.330  28.056  29.172  1.00  0.00     0.049 A 
ATOM     55  H   UNL A   1      42.138  28.133  28.138  1.00  0.00     0.167 HD
ATOM     56  C   UNL A   1      46.075  28.008  26.156  1.00  0.00     0.034 A 
ATOM     57  C   UNL A   1      40.171  29.245  29.790  1.00  0.00     0.034 A 
ATOM     58  C   UNL A   1      45.942  29.343  26.682  1.00  0.00     0.049 A 
ATOM     59  C   UNL A   1      41.250  30.287  29.636  1.00  0.00     0.074 A 
ATOM     60  C   UNL A   1      46.799  30.418  26.528  1.00  0.00     0.029 A 
ATOM     61  N   UNL A   1      44.889  29.784  27.472  1.00  0.00    -0.354 N 
ATOM     62  N   UNL A   1      42.381  30.213  28.973  1.00  0.00    -0.248 NA
ATOM     63  C   UNL A   1      41.032  31.572  30.313  1.00  0.00     0.031 C 
ATOM     64  C   UNL A   1      46.299  31.487  27.280  1.00  0.00     0.029 A 
ATOM     65  C   UNL A   1      45.093  31.102  27.847  1.00  0.00     0.049 A 
ATOM     66  H   UNL A   1      44.111  29.238  27.730  1.00  0.00     0.167 HD
ATOM     67  C   UNL A   1      43.000  31.448  29.139  1.00  0.00     0.074 A 
ATOM     68  C   UNL A   1      42.106  32.255  29.944  1.00  0.00     0.031 C 
ATOM     69  C   UNL A   1      44.198  31.880  28.669  1.00  0.00     0.034 A 
BRANCH  56  70
ATOM     70  C   UNL A   1      47.338  27.631  25.420  1.00  0.00     0.023 A 
ATOM     71  C   UNL A   1      47.514  27.932  24.058  1.00  0.00     0.031 A 
ATOM     72  C   UNL A   1      48.364  26.933  26.079  1.00  0.00     0.131 A 
ATOM     73  C   UNL A   1      48.653  27.470  23.382  1.00  0.00     0.055 A 
ATOM     74  C   UNL A   1      49.531  26.546  25.420  1.00  0.00     0.041 A 
ATOM     75  F   UNL A   1      48.240  26.598  27.374  1.00  0.00    -0.206 F 
ATOM     76  C   UNL A   1      49.675  26.801  24.058  1.00  0.00     0.022 A 
BRANCH  73  77
ATOM     77  S   UNL A   1      48.711  27.636  21.576  1.00  0.00     0.124 S 
ATOM     78  O   UNL A   1      49.254  26.339  21.179  1.00  0.00    -0.237 OA
ATOM     79  O   UNL A   1      47.314  27.874  21.236  1.00  0.00    -0.237 OA
ATOM     80  O   UNL A   1      49.609  28.770  21.366  1.00  0.00    -0.744 OA
ENDBRANCH  73  77
ENDBRANCH  56  70
BRANCH  57  81
ATOM     81  C   UNL A   1      38.967  29.514  30.628  1.00  0.00     0.023 A 
ATOM     82  C   UNL A   1      37.961  30.391  30.189  1.00  0.00     0.031 A 
ATOM     83  C   UNL A   1      38.827  28.939  31.904  1.00  0.00     0.131 A 
ATOM     84  C   UNL A   1      36.885  30.703  31.036  1.00  0.00     0.055 A 
ATOM     85  C   UNL A   1      37.729  29.214  32.722  1.00  0.00     0.041 A 
ATOM     86  F   UNL A   1      39.757  28.092  32.373  1.00  0.00    -0.206 F 
ATOM     87  C   UNL A   1      36.756  30.112  32.294  1.00  0.00     0.022 A 
BRANCH  84  88
ATOM     88  S   UNL A   1      35.696  31.964  30.500  1.00  0.00     0.124 S 
ATOM     89  O   UNL A   1      34.745  31.967  31.606  1.00  0.00    -0.237 OA
ATOM     90  O   UNL A   1      36.543  33.146  30.378  1.00  0.00    -0.237 OA
ATOM     91  O   UNL A   1      35.184  31.435  29.238  1.00  0.00    -0.744 OA
ENDBRANCH  84  88
ENDBRANCH  57  81
BRANCH  69  92
ATOM     92  C   UNL A   1      44.590  33.297  29.002  1.00  0.00     0.023 A 
ATOM     93  C   UNL A   1      44.100  34.387  28.264  1.00  0.00     0.031 A 
ATOM     94  C   UNL A   1      45.468  33.558  30.069  1.00  0.00     0.131 A 
ATOM     95  C   UNL A   1      44.527  35.686  28.572  1.00  0.00     0.055 A 
ATOM     96  C   UNL A   1      45.844  34.858  30.408  1.00  0.00     0.041 A 
ATOM     97  F   UNL A   1      45.967  32.552  30.806  1.00  0.00    -0.206 F 
ATOM     98  C   UNL A   1      45.382  35.931  29.650  1.00  0.00     0.022 A 
BRANCH  95  99
ATOM     99  S   UNL A   1      44.011  37.052  27.495  1.00  0.00     0.124 S 
ATOM    100  O   UNL A   1      43.149  36.371  26.534  1.00  0.00    -0.237 OA
ATOM    101  O   UNL A   1      43.339  37.950  28.429  1.00  0.00    -0.237 OA
ATOM    102  O   UNL A   1      45.271  37.555  26.951  1.00  0.00    -0.744 OA
ENDBRANCH  95  99
ENDBRANCH  69  92
ENDBRANCH  43  44
ENDBRANCH  35  38
ENDBRANCH  33  34
ENDBRANCH  32  33
ENDBRANCH  31  32
ENDBRANCH   1  31
TORSDOF 19
ENDMDL
