MODEL 1
REMARK VINA RESULT:     -11.3      0.000      0.000
REMARK SMILES O=C(NCCCCNC(=O)c1noc(-c2ccccc2Cl)n1)c1ccc(-c2c3nc(c(-c4cc(S(=O)(=O)[O-])ccc4F)c4ccc([nH]4)c(-c4cc(S(=O)(=O)[O-])ccc4F)c4nc(c(-c5cc(S(=O)(=O)[O-])ccc5F)c5ccc2[nH]5)C=C4)C=C3)cc1
REMARK SMILES IDX 4 1 3 2 1 3 2 4 23 6 24 7 85 8 25 9 84 10 26 11 27 12 28 13
REMARK SMILES IDX 78 14 29 15 83 16 77 17 79 18 30 19 82 20 76 21 75 22 31 24
REMARK SMILES IDX 63 25 43 26 62 27 44 28 47 29 61 30 80 31 45 32 46 33 60 35
REMARK SMILES IDX 81 36 48 37 32 38 33 39 41 40 34 41 40 42 42 43 39 44 35 45
REMARK SMILES IDX 36 46 37 47 38 48 64 49 65 50 73 51 66 52 72 53 74 54 71 55
REMARK SMILES IDX 67 56 68 57 69 58 70 59 49 60 50 61 58 62 51 63 57 64 59 65
REMARK SMILES IDX 56 66 52 67 53 68 54 69 55 70 5 71 6 72 7 73 8 74 9 75 10 77
REMARK SMILES IDX 11 78 12 79 22 80 13 81 14 82 15 83 16 84 20 85 17 86 19 87
REMARK SMILES IDX 21 88 18 89
REMARK H PARENT 3 5 79 23 47 34 8 76
REMARK Flexibility Score: inf
ROOT
ATOM      1  C   UNL A   1      34.576  33.032  28.834  1.00  0.00     0.116 C 
ENDROOT
BRANCH   1   2
ATOM      2  N   UNL A   1      34.013  32.013  27.961  1.00  0.00    -0.352 N 
ATOM      3  O   UNL A   1      33.991  30.165  26.677  1.00  0.00    -0.269 OA
ATOM      4  C   UNL A   1      34.556  30.821  27.548  1.00  0.00     0.251 C 
ATOM      5  H   UNL A   1      33.112  32.206  27.617  1.00  0.00     0.163 HD
BRANCH   4   6
ATOM      6  C   UNL A   1      35.825  30.340  28.135  1.00  0.00     0.039 A 
ATOM      7  C   UNL A   1      37.042  30.531  27.472  1.00  0.00     0.014 A 
ATOM      8  C   UNL A   1      35.795  29.702  29.377  1.00  0.00     0.014 A 
ATOM      9  C   UNL A   1      38.210  29.977  27.992  1.00  0.00     0.010 A 
ATOM     10  C   UNL A   1      36.978  29.204  29.929  1.00  0.00     0.010 A 
ATOM     11  C   UNL A   1      38.190  29.312  29.227  1.00  0.00    -0.014 A 
BRANCH  11  12
ATOM     12  C   UNL A   1      39.440  28.747  29.795  1.00  0.00     0.031 A 
ATOM     13  C   UNL A   1      40.069  29.362  31.014  1.00  0.00     0.074 A 
ATOM     14  C   UNL A   1      40.023  27.695  29.191  1.00  0.00     0.049 A 
ATOM     15  N   UNL A   1      41.206  29.074  31.595  1.00  0.00    -0.248 NA
ATOM     16  C   UNL A   1      39.322  30.452  31.657  1.00  0.00     0.031 C 
ATOM     17  C   UNL A   1      39.503  27.013  28.004  1.00  0.00     0.029 A 
ATOM     18  N   UNL A   1      41.185  27.026  29.479  1.00  0.00    -0.354 N 
ATOM     19  C   UNL A   1      41.325  29.962  32.659  1.00  0.00     0.074 A 
ATOM     20  C   UNL A   1      40.156  30.818  32.618  1.00  0.00     0.031 C 
ATOM     21  C   UNL A   1      40.340  26.022  27.665  1.00  0.00     0.029 A 
ATOM     22  C   UNL A   1      41.486  26.038  28.571  1.00  0.00     0.049 A 
ATOM     23  H   UNL A   1      41.748  27.232  30.259  1.00  0.00     0.167 HD
ATOM     24  C   UNL A   1      42.314  30.048  33.585  1.00  0.00     0.034 A 
ATOM     25  C   UNL A   1      42.578  25.259  28.452  1.00  0.00     0.034 A 
ATOM     26  C   UNL A   1      43.473  29.185  33.602  1.00  0.00     0.049 A 
ATOM     27  C   UNL A   1      43.690  25.404  29.453  1.00  0.00     0.074 A 
ATOM     28  C   UNL A   1      44.518  29.160  34.510  1.00  0.00     0.029 A 
ATOM     29  N   UNL A   1      43.750  28.204  32.658  1.00  0.00    -0.354 N 
ATOM     30  N   UNL A   1      43.786  26.239  30.461  1.00  0.00    -0.248 NA
ATOM     31  C   UNL A   1      44.837  24.501  29.303  1.00  0.00     0.031 C 
ATOM     32  C   UNL A   1      45.455  28.212  34.079  1.00  0.00     0.029 A 
ATOM     33  C   UNL A   1      44.961  27.591  32.943  1.00  0.00     0.049 A 
ATOM     34  H   UNL A   1      43.169  27.975  31.896  1.00  0.00     0.167 HD
ATOM     35  C   UNL A   1      44.995  25.944  31.083  1.00  0.00     0.074 A 
ATOM     36  C   UNL A   1      45.591  24.854  30.336  1.00  0.00     0.031 C 
ATOM     37  C   UNL A   1      45.551  26.514  32.181  1.00  0.00     0.034 A 
BRANCH  24  38
ATOM     38  C   UNL A   1      42.203  31.149  34.614  1.00  0.00     0.023 A 
ATOM     39  C   UNL A   1      42.793  32.410  34.418  1.00  0.00     0.031 A 
ATOM     40  C   UNL A   1      41.540  30.918  35.833  1.00  0.00     0.131 A 
ATOM     41  C   UNL A   1      42.790  33.355  35.455  1.00  0.00     0.055 A 
ATOM     42  C   UNL A   1      41.465  31.895  36.828  1.00  0.00     0.041 A 
ATOM     43  F   UNL A   1      40.971  29.729  36.088  1.00  0.00    -0.206 F 
ATOM     44  C   UNL A   1      42.109  33.115  36.651  1.00  0.00     0.022 A 
BRANCH  41  45
ATOM     45  S   UNL A   1      43.837  34.827  35.287  1.00  0.00     0.124 S 
ATOM     46  O   UNL A   1      43.085  35.616  34.312  1.00  0.00    -0.237 OA
ATOM     47  O   UNL A   1      43.865  35.351  36.646  1.00  0.00    -0.237 OA
ATOM     48  O   UNL A   1      45.105  34.293  34.795  1.00  0.00    -0.744 OA
ENDBRANCH  41  45
ENDBRANCH  24  38
BRANCH  25  49
ATOM     49  C   UNL A   1      42.679  24.311  27.310  1.00  0.00     0.023 A 
ATOM     50  C   UNL A   1      42.121  23.027  27.377  1.00  0.00     0.031 A 
ATOM     51  C   UNL A   1      43.321  24.696  26.118  1.00  0.00     0.131 A 
ATOM     52  C   UNL A   1      42.232  22.162  26.277  1.00  0.00     0.055 A 
ATOM     53  C   UNL A   1      43.391  23.848  25.012  1.00  0.00     0.041 A 
ATOM     54  F   UNL A   1      43.860  25.920  26.003  1.00  0.00    -0.206 F 
ATOM     55  C   UNL A   1      42.849  22.570  25.091  1.00  0.00     0.022 A 
BRANCH  52  56
ATOM     56  S   UNL A   1      41.579  20.477  26.426  1.00  0.00     0.124 S 
ATOM     57  O   UNL A   1      42.314  19.780  25.376  1.00  0.00    -0.237 OA
ATOM     58  O   UNL A   1      41.937  20.133  27.798  1.00  0.00    -0.237 OA
ATOM     59  O   UNL A   1      40.148  20.644  26.181  1.00  0.00    -0.744 OA
ENDBRANCH  52  56
ENDBRANCH  25  49
BRANCH  37  60
ATOM     60  C   UNL A   1      46.850  25.929  32.674  1.00  0.00     0.023 A 
ATOM     61  C   UNL A   1      46.887  24.880  33.610  1.00  0.00     0.031 A 
ATOM     62  C   UNL A   1      48.071  26.428  32.187  1.00  0.00     0.131 A 
ATOM     63  C   UNL A   1      48.123  24.388  34.055  1.00  0.00     0.055 A 
ATOM     64  C   UNL A   1      49.295  25.903  32.597  1.00  0.00     0.041 A 
ATOM     65  F   UNL A   1      48.090  27.431  31.295  1.00  0.00    -0.206 F 
ATOM     66  C   UNL A   1      49.327  24.881  33.542  1.00  0.00     0.022 A 
BRANCH  63  67
ATOM     67  S   UNL A   1      48.146  23.125  35.357  1.00  0.00     0.124 S 
ATOM     68  O   UNL A   1      48.586  21.942  34.623  1.00  0.00    -0.237 OA
ATOM     69  O   UNL A   1      49.102  23.674  36.312  1.00  0.00    -0.237 OA
ATOM     70  O   UNL A   1      46.760  23.086  35.821  1.00  0.00    -0.744 OA
ENDBRANCH  63  67
ENDBRANCH  37  60
ENDBRANCH  11  12
ENDBRANCH   4   6
ENDBRANCH   1   2
BRANCH   1  71
ATOM     71  C   UNL A   1      35.114  34.234  28.064  1.00  0.00     0.023 C 
BRANCH  71  72
ATOM     72  C   UNL A   1      34.433  35.565  28.377  1.00  0.00     0.023 C 
BRANCH  72  73
ATOM     73  C   UNL A   1      33.270  35.484  29.365  1.00  0.00     0.116 C 
BRANCH  73  74
ATOM     74  N   UNL A   1      33.143  36.695  30.159  1.00  0.00    -0.349 N 
ATOM     75  C   UNL A   1      33.217  36.831  31.532  1.00  0.00     0.292 C 
ATOM     76  H   UNL A   1      32.985  37.525  29.653  1.00  0.00     0.163 HD
ATOM     77  O   UNL A   1      32.912  37.915  32.031  1.00  0.00    -0.266 OA
BRANCH  75  78
ATOM     78  C   UNL A   1      33.652  35.679  32.331  1.00  0.00     0.260 A 
ATOM     79  N   UNL A   1      32.900  34.572  32.484  1.00  0.00    -0.051 NA
ATOM     80  N   UNL A   1      34.876  35.616  32.972  1.00  0.00    -0.182 NA
ATOM     81  O   UNL A   1      33.718  33.721  33.231  1.00  0.00    -0.333 OA
ATOM     82  C   UNL A   1      34.865  34.411  33.490  1.00  0.00     0.259 A 
BRANCH  82  83
ATOM     83  C   UNL A   1      35.905  33.710  34.213  1.00  0.00     0.058 A 
ATOM     84  C   UNL A   1      36.312  34.196  35.469  1.00  0.00     0.015 A 
ATOM     85  C   UNL A   1      36.475  32.523  33.731  1.00  0.00     0.053 A 
ATOM     86  C   UNL A   1      37.256  33.504  36.229  1.00  0.00     0.001 A 
ATOM     87  C   UNL A   1      37.427  31.836  34.494  1.00  0.00     0.021 A 
ATOM     88  Cl  UNL A   1      36.071  31.862  32.184  1.00  0.00    -0.083 Cl
ATOM     89  C   UNL A   1      37.812  32.323  35.743  1.00  0.00     0.002 A 
ENDBRANCH  82  83
ENDBRANCH  75  78
ENDBRANCH  73  74
ENDBRANCH  72  73
ENDBRANCH  71  72
ENDBRANCH   1  71
TORSDOF 15
ENDMDL
MODEL 2
REMARK VINA RESULT:     -11.0      5.798      9.497
REMARK SMILES O=C(NCCCCNC(=O)c1noc(-c2ccccc2Cl)n1)c1ccc(-c2c3nc(c(-c4cc(S(=O)(=O)[O-])ccc4F)c4ccc([nH]4)c(-c4cc(S(=O)(=O)[O-])ccc4F)c4nc(c(-c5cc(S(=O)(=O)[O-])ccc5F)c5ccc2[nH]5)C=C4)C=C3)cc1
REMARK SMILES IDX 4 1 3 2 1 3 2 4 23 6 24 7 85 8 25 9 84 10 26 11 27 12 28 13
REMARK SMILES IDX 78 14 29 15 83 16 77 17 79 18 30 19 82 20 76 21 75 22 31 24
REMARK SMILES IDX 63 25 43 26 62 27 44 28 47 29 61 30 80 31 45 32 46 33 60 35
REMARK SMILES IDX 81 36 48 37 32 38 33 39 41 40 34 41 40 42 42 43 39 44 35 45
REMARK SMILES IDX 36 46 37 47 38 48 64 49 65 50 73 51 66 52 72 53 74 54 71 55
REMARK SMILES IDX 67 56 68 57 69 58 70 59 49 60 50 61 58 62 51 63 57 64 59 65
REMARK SMILES IDX 56 66 52 67 53 68 54 69 55 70 5 71 6 72 7 73 8 74 9 75 10 77
REMARK SMILES IDX 11 78 12 79 22 80 13 81 14 82 15 83 16 84 20 85 17 86 19 87
REMARK SMILES IDX 21 88 18 89
REMARK H PARENT 3 5 79 23 47 34 8 76
REMARK Flexibility Score: inf
ROOT
ATOM      1  C   UNL A   1      36.374  21.991  25.520  1.00  0.00     0.116 C 
ENDROOT
BRANCH   1   2
ATOM      2  N   UNL A   1      37.333  20.900  25.599  1.00  0.00    -0.352 N 
ATOM      3  O   UNL A   1      39.358  19.926  25.734  1.00  0.00    -0.269 OA
ATOM      4  C   UNL A   1      38.679  20.940  25.871  1.00  0.00     0.251 C 
ATOM      5  H   UNL A   1      36.965  20.003  25.434  1.00  0.00     0.163 HD
BRANCH   4   6
ATOM      6  C   UNL A   1      39.312  22.205  26.306  1.00  0.00     0.039 A 
ATOM      7  C   UNL A   1      38.860  23.437  25.826  1.00  0.00     0.014 A 
ATOM      8  C   UNL A   1      40.365  22.151  27.222  1.00  0.00     0.014 A 
ATOM      9  C   UNL A   1      39.538  24.606  26.166  1.00  0.00     0.010 A 
ATOM     10  C   UNL A   1      41.003  23.330  27.613  1.00  0.00     0.010 A 
ATOM     11  C   UNL A   1      40.613  24.564  27.066  1.00  0.00    -0.014 A 
BRANCH  11  12
ATOM     12  C   UNL A   1      41.318  25.813  27.452  1.00  0.00     0.031 A 
ATOM     13  C   UNL A   1      40.620  26.858  28.277  1.00  0.00     0.074 A 
ATOM     14  C   UNL A   1      42.580  26.015  27.030  1.00  0.00     0.049 A 
ATOM     15  N   UNL A   1      41.033  28.050  28.626  1.00  0.00    -0.248 NA
ATOM     16  C   UNL A   1      39.276  26.518  28.762  1.00  0.00     0.031 C 
ATOM     17  C   UNL A   1      43.360  25.071  26.228  1.00  0.00     0.029 A 
ATOM     18  N   UNL A   1      43.424  27.083  27.203  1.00  0.00    -0.354 N 
ATOM     19  C   UNL A   1      39.991  28.615  29.354  1.00  0.00     0.074 A 
ATOM     20  C   UNL A   1      38.917  27.643  29.364  1.00  0.00     0.031 C 
ATOM     21  C   UNL A   1      44.567  25.599  25.978  1.00  0.00     0.029 A 
ATOM     22  C   UNL A   1      44.624  26.942  26.548  1.00  0.00     0.049 A 
ATOM     23  H   UNL A   1      43.192  27.872  27.743  1.00  0.00     0.167 HD
ATOM     24  C   UNL A   1      39.942  29.828  29.961  1.00  0.00     0.034 A 
ATOM     25  C   UNL A   1      45.642  27.809  26.387  1.00  0.00     0.034 A 
ATOM     26  C   UNL A   1      41.025  30.783  29.934  1.00  0.00     0.049 A 
ATOM     27  C   UNL A   1      45.549  29.170  27.019  1.00  0.00     0.074 A 
ATOM     28  C   UNL A   1      41.098  32.026  30.541  1.00  0.00     0.029 A 
ATOM     29  N   UNL A   1      42.222  30.611  29.249  1.00  0.00    -0.354 N 
ATOM     30  N   UNL A   1      44.564  29.689  27.714  1.00  0.00    -0.248 NA
ATOM     31  C   UNL A   1      46.704  30.060  26.849  1.00  0.00     0.031 C 
ATOM     32  C   UNL A   1      42.306  32.628  30.170  1.00  0.00     0.029 A 
ATOM     33  C   UNL A   1      43.023  31.734  29.392  1.00  0.00     0.049 A 
ATOM     34  H   UNL A   1      42.467  29.806  28.736  1.00  0.00     0.167 HD
ATOM     35  C   UNL A   1      44.991  30.958  28.088  1.00  0.00     0.074 A 
ATOM     36  C   UNL A   1      46.323  31.126  27.541  1.00  0.00     0.031 C 
ATOM     37  C   UNL A   1      44.345  31.893  28.829  1.00  0.00     0.034 A 
BRANCH  24  38
ATOM     38  C   UNL A   1      38.651  30.201  30.655  1.00  0.00     0.023 A 
ATOM     39  C   UNL A   1      37.610  30.860  29.978  1.00  0.00     0.031 A 
ATOM     40  C   UNL A   1      38.479  29.939  32.026  1.00  0.00     0.131 A 
ATOM     41  C   UNL A   1      36.489  31.317  30.689  1.00  0.00     0.055 A 
ATOM     42  C   UNL A   1      37.322  30.319  32.709  1.00  0.00     0.041 A 
ATOM     43  F   UNL A   1      39.444  29.330  32.732  1.00  0.00    -0.206 F 
ATOM     44  C   UNL A   1      36.328  31.030  32.046  1.00  0.00     0.022 A 
BRANCH  41  45
ATOM     45  S   UNL A   1      35.335  32.441  29.855  1.00  0.00     0.124 S 
ATOM     46  O   UNL A   1      34.808  31.589  28.790  1.00  0.00    -0.237 OA
ATOM     47  O   UNL A   1      34.402  32.782  30.921  1.00  0.00    -0.237 OA
ATOM     48  O   UNL A   1      36.190  33.535  29.399  1.00  0.00    -0.744 OA
ENDBRANCH  41  45
ENDBRANCH  24  38
BRANCH  25  49
ATOM     49  C   UNL A   1      46.808  27.420  25.550  1.00  0.00     0.023 A 
ATOM     50  C   UNL A   1      46.916  27.830  24.214  1.00  0.00     0.031 A 
ATOM     51  C   UNL A   1      47.850  26.646  26.094  1.00  0.00     0.131 A 
ATOM     52  C   UNL A   1      48.036  27.448  23.457  1.00  0.00     0.055 A 
ATOM     53  C   UNL A   1      48.981  26.305  25.351  1.00  0.00     0.041 A 
ATOM     54  F   UNL A   1      47.797  26.241  27.373  1.00  0.00    -0.206 F 
ATOM     55  C   UNL A   1      49.074  26.702  24.021  1.00  0.00     0.022 A 
BRANCH  52  56
ATOM     56  S   UNL A   1      48.104  27.918  21.707  1.00  0.00     0.124 S 
ATOM     57  O   UNL A   1      48.276  26.623  21.059  1.00  0.00    -0.237 OA
ATOM     58  O   UNL A   1      46.810  28.565  21.515  1.00  0.00    -0.237 OA
ATOM     59  O   UNL A   1      49.260  28.809  21.639  1.00  0.00    -0.744 OA
ENDBRANCH  52  56
ENDBRANCH  25  49
BRANCH  37  60
ATOM     60  C   UNL A   1      45.096  33.163  29.138  1.00  0.00     0.023 A 
ATOM     61  C   UNL A   1      45.098  34.260  28.258  1.00  0.00     0.031 A 
ATOM     62  C   UNL A   1      45.813  33.276  30.342  1.00  0.00     0.131 A 
ATOM     63  C   UNL A   1      45.834  35.410  28.581  1.00  0.00     0.055 A 
ATOM     64  C   UNL A   1      46.503  34.439  30.680  1.00  0.00     0.041 A 
ATOM     65  F   UNL A   1      45.845  32.256  31.215  1.00  0.00    -0.206 F 
ATOM     66  C   UNL A   1      46.522  35.512  29.794  1.00  0.00     0.022 A 
BRANCH  63  67
ATOM     67  S   UNL A   1      45.927  36.759  27.373  1.00  0.00     0.124 S 
ATOM     68  O   UNL A   1      44.980  37.725  27.924  1.00  0.00    -0.237 OA
ATOM     69  O   UNL A   1      47.334  37.140  27.433  1.00  0.00    -0.237 OA
ATOM     70  O   UNL A   1      45.510  36.128  26.122  1.00  0.00    -0.744 OA
ENDBRANCH  63  67
ENDBRANCH  37  60
ENDBRANCH  11  12
ENDBRANCH   4   6
ENDBRANCH   1   2
BRANCH   1  71
ATOM     71  C   UNL A   1      35.482  21.901  24.285  1.00  0.00     0.023 C 
BRANCH  71  72
ATOM     72  C   UNL A   1      34.285  22.850  24.276  1.00  0.00     0.023 C 
BRANCH  72  73
ATOM     73  C   UNL A   1      32.960  22.229  24.713  1.00  0.00     0.116 C 
BRANCH  73  74
ATOM     74  N   UNL A   1      32.933  21.948  26.139  1.00  0.00    -0.349 N 
ATOM     75  C   UNL A   1      32.481  22.758  27.164  1.00  0.00     0.292 C 
ATOM     76  H   UNL A   1      33.282  21.068  26.409  1.00  0.00     0.163 HD
ATOM     77  O   UNL A   1      32.700  22.412  28.325  1.00  0.00    -0.266 OA
BRANCH  75  78
ATOM     78  C   UNL A   1      31.763  23.992  26.821  1.00  0.00     0.260 A 
ATOM     79  N   UNL A   1      30.419  24.076  26.811  1.00  0.00    -0.051 NA
ATOM     80  N   UNL A   1      32.399  25.180  26.507  1.00  0.00    -0.182 NA
ATOM     81  O   UNL A   1      30.177  25.420  26.520  1.00  0.00    -0.333 OA
ATOM     82  C   UNL A   1      31.394  26.007  26.344  1.00  0.00     0.259 A 
BRANCH  82  83
ATOM     83  C   UNL A   1      31.406  27.432  26.085  1.00  0.00     0.058 A 
ATOM     84  C   UNL A   1      31.795  28.310  27.113  1.00  0.00     0.015 A 
ATOM     85  C   UNL A   1      31.105  27.961  24.822  1.00  0.00     0.053 A 
ATOM     86  C   UNL A   1      31.893  29.683  26.878  1.00  0.00     0.001 A 
ATOM     87  C   UNL A   1      31.198  29.338  24.593  1.00  0.00     0.021 A 
ATOM     88  Cl  UNL A   1      30.582  26.970  23.503  1.00  0.00    -0.083 Cl
ATOM     89  C   UNL A   1      31.597  30.196  25.618  1.00  0.00     0.002 A 
ENDBRANCH  82  83
ENDBRANCH  75  78
ENDBRANCH  73  74
ENDBRANCH  72  73
ENDBRANCH  71  72
ENDBRANCH   1  71
TORSDOF 15
ENDMDL
MODEL 3
REMARK VINA RESULT:     -11.0      4.407     10.346
REMARK SMILES O=C(NCCCCNC(=O)c1noc(-c2ccccc2Cl)n1)c1ccc(-c2c3nc(c(-c4cc(S(=O)(=O)[O-])ccc4F)c4ccc([nH]4)c(-c4cc(S(=O)(=O)[O-])ccc4F)c4nc(c(-c5cc(S(=O)(=O)[O-])ccc5F)c5ccc2[nH]5)C=C4)C=C3)cc1
REMARK SMILES IDX 4 1 3 2 1 3 2 4 23 6 24 7 85 8 25 9 84 10 26 11 27 12 28 13
REMARK SMILES IDX 78 14 29 15 83 16 77 17 79 18 30 19 82 20 76 21 75 22 31 24
REMARK SMILES IDX 63 25 43 26 62 27 44 28 47 29 61 30 80 31 45 32 46 33 60 35
REMARK SMILES IDX 81 36 48 37 32 38 33 39 41 40 34 41 40 42 42 43 39 44 35 45
REMARK SMILES IDX 36 46 37 47 38 48 64 49 65 50 73 51 66 52 72 53 74 54 71 55
REMARK SMILES IDX 67 56 68 57 69 58 70 59 49 60 50 61 58 62 51 63 57 64 59 65
REMARK SMILES IDX 56 66 52 67 53 68 54 69 55 70 5 71 6 72 7 73 8 74 9 75 10 77
REMARK SMILES IDX 11 78 12 79 22 80 13 81 14 82 15 83 16 84 20 85 17 86 19 87
REMARK SMILES IDX 21 88 18 89
REMARK H PARENT 3 5 79 23 47 34 8 76
REMARK Flexibility Score: inf
ROOT
ATOM      1  C   UNL A   1      32.134  29.939  26.454  1.00  0.00     0.116 C 
ENDROOT
BRANCH   1   2
ATOM      2  N   UNL A   1      32.003  31.384  26.555  1.00  0.00    -0.352 N 
ATOM      3  O   UNL A   1      32.408  33.452  27.346  1.00  0.00    -0.269 OA
ATOM      4  C   UNL A   1      32.775  32.283  27.251  1.00  0.00     0.251 C 
ATOM      5  H   UNL A   1      31.253  31.774  26.053  1.00  0.00     0.163 HD
BRANCH   4   6
ATOM      6  C   UNL A   1      34.028  31.842  27.900  1.00  0.00     0.039 A 
ATOM      7  C   UNL A   1      34.222  30.503  28.252  1.00  0.00     0.014 A 
ATOM      8  C   UNL A   1      35.029  32.784  28.143  1.00  0.00     0.014 A 
ATOM      9  C   UNL A   1      35.365  30.130  28.958  1.00  0.00     0.010 A 
ATOM     10  C   UNL A   1      36.203  32.396  28.793  1.00  0.00     0.010 A 
ATOM     11  C   UNL A   1      36.367  31.071  29.231  1.00  0.00    -0.014 A 
BRANCH  11  12
ATOM     12  C   UNL A   1      37.598  30.667  29.957  1.00  0.00     0.031 A 
ATOM     13  C   UNL A   1      38.584  29.728  29.321  1.00  0.00     0.074 A 
ATOM     14  C   UNL A   1      37.810  31.128  31.204  1.00  0.00     0.049 A 
ATOM     15  N   UNL A   1      39.659  29.184  29.832  1.00  0.00    -0.248 NA
ATOM     16  C   UNL A   1      38.316  29.342  27.929  1.00  0.00     0.031 C 
ATOM     17  C   UNL A   1      36.925  32.048  31.922  1.00  0.00     0.029 A 
ATOM     18  N   UNL A   1      38.823  30.876  32.094  1.00  0.00    -0.354 N 
ATOM     19  C   UNL A   1      40.187  28.372  28.834  1.00  0.00     0.074 A 
ATOM     20  C   UNL A   1      39.290  28.473  27.700  1.00  0.00     0.031 C 
ATOM     21  C   UNL A   1      37.433  32.284  33.140  1.00  0.00     0.029 A 
ATOM     22  C   UNL A   1      38.643  31.486  33.313  1.00  0.00     0.049 A 
ATOM     23  H   UNL A   1      39.602  30.314  31.880  1.00  0.00     0.167 HD
ATOM     24  C   UNL A   1      41.317  27.620  28.862  1.00  0.00     0.034 A 
ATOM     25  C   UNL A   1      39.347  31.384  34.456  1.00  0.00     0.034 A 
ATOM     26  C   UNL A   1      42.194  27.532  30.006  1.00  0.00     0.049 A 
ATOM     27  C   UNL A   1      40.565  30.503  34.488  1.00  0.00     0.074 A 
ATOM     28  C   UNL A   1      43.380  26.830  30.134  1.00  0.00     0.029 A 
ATOM     29  N   UNL A   1      41.972  28.154  31.229  1.00  0.00    -0.354 N 
ATOM     30  N   UNL A   1      41.060  29.750  33.534  1.00  0.00    -0.248 NA
ATOM     31  C   UNL A   1      41.321  30.463  35.745  1.00  0.00     0.031 C 
ATOM     32  C   UNL A   1      43.839  26.974  31.450  1.00  0.00     0.029 A 
ATOM     33  C   UNL A   1      42.980  27.827  32.124  1.00  0.00     0.049 A 
ATOM     34  H   UNL A   1      41.209  28.743  31.431  1.00  0.00     0.167 HD
ATOM     35  C   UNL A   1      42.203  29.164  34.069  1.00  0.00     0.074 A 
ATOM     36  C   UNL A   1      42.322  29.653  35.429  1.00  0.00     0.031 C 
ATOM     37  C   UNL A   1      43.080  28.311  33.482  1.00  0.00     0.034 A 
BRANCH  24  38
ATOM     38  C   UNL A   1      41.628  26.795  27.633  1.00  0.00     0.023 A 
ATOM     39  C   UNL A   1      41.325  25.424  27.565  1.00  0.00     0.031 A 
ATOM     40  C   UNL A   1      42.282  27.377  26.533  1.00  0.00     0.131 A 
ATOM     41  C   UNL A   1      41.758  24.663  26.468  1.00  0.00     0.055 A 
ATOM     42  C   UNL A   1      42.632  26.633  25.405  1.00  0.00     0.041 A 
ATOM     43  F   UNL A   1      42.614  28.678  26.544  1.00  0.00    -0.206 F 
ATOM     44  C   UNL A   1      42.389  25.263  25.376  1.00  0.00     0.022 A 
BRANCH  41  45
ATOM     45  S   UNL A   1      41.643  22.856  26.569  1.00  0.00     0.124 S 
ATOM     46  O   UNL A   1      42.278  22.447  25.318  1.00  0.00    -0.237 OA
ATOM     47  O   UNL A   1      42.385  22.561  27.789  1.00  0.00    -0.237 OA
ATOM     48  O   UNL A   1      40.205  22.606  26.636  1.00  0.00    -0.744 OA
ENDBRANCH  41  45
ENDBRANCH  24  38
BRANCH  25  49
ATOM     49  C   UNL A   1      38.878  32.104  35.670  1.00  0.00     0.023 A 
ATOM     50  C   UNL A   1      38.200  31.435  36.698  1.00  0.00     0.031 A 
ATOM     51  C   UNL A   1      39.130  33.480  35.825  1.00  0.00     0.131 A 
ATOM     52  C   UNL A   1      37.778  32.147  37.832  1.00  0.00     0.055 A 
ATOM     53  C   UNL A   1      38.746  34.175  36.973  1.00  0.00     0.041 A 
ATOM     54  F   UNL A   1      39.787  34.161  34.873  1.00  0.00    -0.206 F 
ATOM     55  C   UNL A   1      38.060  33.508  37.982  1.00  0.00     0.022 A 
BRANCH  52  56
ATOM     56  S   UNL A   1      36.825  31.273  39.103  1.00  0.00     0.124 S 
ATOM     57  O   UNL A   1      35.627  32.100  39.197  1.00  0.00    -0.237 OA
ATOM     58  O   UNL A   1      36.650  29.956  38.501  1.00  0.00    -0.237 OA
ATOM     59  O   UNL A   1      37.703  31.310  40.272  1.00  0.00    -0.744 OA
ENDBRANCH  52  56
ENDBRANCH  25  49
BRANCH  37  60
ATOM     60  C   UNL A   1      44.280  27.895  34.294  1.00  0.00     0.023 A 
ATOM     61  C   UNL A   1      44.282  26.726  35.074  1.00  0.00     0.031 A 
ATOM     62  C   UNL A   1      45.445  28.683  34.274  1.00  0.00     0.131 A 
ATOM     63  C   UNL A   1      45.417  26.396  35.832  1.00  0.00     0.055 A 
ATOM     64  C   UNL A   1      46.585  28.325  34.991  1.00  0.00     0.041 A 
ATOM     65  F   UNL A   1      45.492  29.811  33.547  1.00  0.00    -0.206 F 
ATOM     66  C   UNL A   1      46.573  27.180  35.782  1.00  0.00     0.022 A 
BRANCH  63  67
ATOM     67  S   UNL A   1      45.349  24.954  36.929  1.00  0.00     0.124 S 
ATOM     68  O   UNL A   1      46.586  25.094  37.691  1.00  0.00    -0.237 OA
ATOM     69  O   UNL A   1      44.114  25.181  37.672  1.00  0.00    -0.237 OA
ATOM     70  O   UNL A   1      45.314  23.821  36.006  1.00  0.00    -0.744 OA
ENDBRANCH  63  67
ENDBRANCH  37  60
ENDBRANCH  11  12
ENDBRANCH   4   6
ENDBRANCH   1   2
BRANCH   1  71
ATOM     71  C   UNL A   1      32.171  29.451  25.009  1.00  0.00     0.023 C 
BRANCH  71  72
ATOM     72  C   UNL A   1      31.018  28.535  24.602  1.00  0.00     0.023 C 
BRANCH  72  73
ATOM     73  C   UNL A   1      31.183  27.845  23.248  1.00  0.00     0.116 C 
BRANCH  73  74
ATOM     74  N   UNL A   1      32.353  28.324  22.531  1.00  0.00    -0.349 N 
ATOM     75  C   UNL A   1      33.427  27.593  22.059  1.00  0.00     0.292 C 
ATOM     76  H   UNL A   1      32.383  29.293  22.359  1.00  0.00     0.163 HD
ATOM     77  O   UNL A   1      34.406  28.203  21.626  1.00  0.00    -0.266 OA
BRANCH  75  78
ATOM     78  C   UNL A   1      33.353  26.128  22.097  1.00  0.00     0.260 A 
ATOM     79  N   UNL A   1      33.223  25.375  20.988  1.00  0.00    -0.051 NA
ATOM     80  N   UNL A   1      33.437  25.392  23.266  1.00  0.00    -0.182 NA
ATOM     81  O   UNL A   1      33.278  24.066  21.473  1.00  0.00    -0.333 OA
ATOM     82  C   UNL A   1      33.395  24.156  22.828  1.00  0.00     0.259 A 
BRANCH  82  83
ATOM     83  C   UNL A   1      33.529  22.914  23.560  1.00  0.00     0.058 A 
ATOM     84  C   UNL A   1      32.383  22.135  23.798  1.00  0.00     0.015 A 
ATOM     85  C   UNL A   1      34.775  22.430  23.983  1.00  0.00     0.053 A 
ATOM     86  C   UNL A   1      32.483  20.895  24.433  1.00  0.00     0.001 A 
ATOM     87  C   UNL A   1      34.870  21.190  24.625  1.00  0.00     0.021 A 
ATOM     88  Cl  UNL A   1      36.238  23.329  23.771  1.00  0.00    -0.083 Cl
ATOM     89  C   UNL A   1      33.727  20.422  24.844  1.00  0.00     0.002 A 
ENDBRANCH  82  83
ENDBRANCH  75  78
ENDBRANCH  73  74
ENDBRANCH  72  73
ENDBRANCH  71  72
ENDBRANCH   1  71
TORSDOF 15
ENDMDL
