MODEL 1
REMARK VINA RESULT:     -11.9      0.000      0.000
REMARK SMILES Cc1cc(Br)c(C)c([C@@H]2[NH2+][C@H](C(=O)NCCCCNC(=O)c3ccc(-c4c5nc(c(-c6cc(S(=O)(=O)[O-])ccc6F)c6ccc([nH]6)c(-c6cc(S(=O)(=O)[O-])ccc6F)c6nc(c(-c7cc(S(=O)(=O)[O-])ccc7F)c7ccc4[nH]7)C=C6)C=C5)cc3)CS2)c1O
REMARK SMILES IDX 17 1 16 2 15 3 14 4 12 5 13 6 11 8 9 9 10 10 86 11 85 14
REMARK SMILES IDX 8 15 1 16 2 17 3 18 87 19 4 20 5 21 6 22 7 23 88 24 18 26
REMARK SMILES IDX 19 27 20 28 21 30 22 31 23 32 84 33 24 34 83 35 25 36 26 37
REMARK SMILES IDX 27 38 77 39 28 40 82 41 76 42 78 43 29 44 81 45 75 46 74 47
REMARK SMILES IDX 30 49 62 50 42 51 61 52 43 53 46 54 60 55 79 56 44 57 45 58
REMARK SMILES IDX 59 60 80 61 47 62 31 63 32 64 40 65 33 66 39 67 41 68 38 69
REMARK SMILES IDX 34 70 35 71 36 72 37 73 63 74 64 75 72 76 65 77 71 78 73 79
REMARK SMILES IDX 70 80 66 81 67 82 68 83 69 84 48 85 49 86 57 87 50 88 56 89
REMARK SMILES IDX 58 90 55 91 51 92 52 93 53 94 54 95
REMARK H PARENT 14 7 10 12 10 13 88 25 19 29 78 48 46 59
REMARK Flexibility Score: inf
ROOT
ATOM      1  C   UNL A   1      31.770  28.458  26.324  1.00  0.00     0.023 C 
ENDROOT
BRANCH   1   2
ATOM      2  C   UNL A   1      32.138  27.236  27.155  1.00  0.00     0.023 C 
BRANCH   2   3
ATOM      3  C   UNL A   1      31.993  25.873  26.481  1.00  0.00     0.116 C 
BRANCH   3   4
ATOM      4  N   UNL A   1      30.790  25.100  26.776  1.00  0.00    -0.351 N 
ATOM      5  C   UNL A   1      30.489  23.771  26.682  1.00  0.00     0.279 C 
ATOM      6  O   UNL A   1      29.657  23.392  27.524  1.00  0.00    -0.268 OA
ATOM      7  H   UNL A   1      30.044  25.648  27.112  1.00  0.00     0.163 HD
BRANCH   5   8
ATOM      8  C   UNL A   1      30.965  22.766  25.602  1.00  0.00     0.283 C 
ATOM      9  C   UNL A   1      31.587  23.754  23.456  1.00  0.00     0.278 C 
ATOM     10  N   UNL A   1      30.513  23.116  24.228  1.00  0.00    -0.320 N 
ATOM     11  S   UNL A   1      33.156  23.120  24.154  1.00  0.00    -0.087 SA
ATOM     12  H   UNL A   1      30.219  22.265  23.749  1.00  0.00     0.348 HD
ATOM     13  H   UNL A   1      29.738  23.775  24.304  1.00  0.00     0.348 HD
ATOM     14  C   UNL A   1      32.395  22.299  25.572  1.00  0.00     0.151 C 
BRANCH   9  15
ATOM     15  C   UNL A   1      31.500  25.281  23.243  1.00  0.00     0.066 A 
ATOM     16  C   UNL A   1      28.789  28.020  23.283  1.00  0.00     0.048 C 
ATOM     17  C   UNL A   1      30.129  27.361  23.095  1.00  0.00    -0.008 A 
ATOM     18  C   UNL A   1      31.264  28.110  22.830  1.00  0.00     0.023 A 
ATOM     19  C   UNL A   1      30.266  25.974  23.258  1.00  0.00     0.128 A 
ATOM     20  C   UNL A   1      32.509  27.480  22.760  1.00  0.00     0.021 A 
ATOM     21  Br  UNL A   1      33.989  28.627  22.395  1.00  0.00    -0.051 Br
ATOM     22  C   UNL A   1      32.657  26.079  22.970  1.00  0.00    -0.023 A 
ATOM     23  C   UNL A   1      34.056  25.505  22.939  1.00  0.00     0.046 C 
BRANCH  19  24
ATOM     24  O   UNL A   1      29.085  25.317  23.430  1.00  0.00    -0.507 OA
ATOM     25  H   UNL A   1      28.400  25.412  22.798  1.00  0.00     0.293 HD
ENDBRANCH  19  24
ENDBRANCH   9  15
ENDBRANCH   5   8
ENDBRANCH   3   4
ENDBRANCH   2   3
ENDBRANCH   1   2
BRANCH   1  26
ATOM     26  C   UNL A   1      32.902  29.428  26.040  1.00  0.00     0.116 C 
BRANCH  26  27
ATOM     27  N   UNL A   1      32.628  30.799  26.459  1.00  0.00    -0.352 N 
ATOM     28  C   UNL A   1      33.379  31.632  27.267  1.00  0.00     0.251 C 
ATOM     29  H   UNL A   1      31.789  31.184  26.117  1.00  0.00     0.163 HD
ATOM     30  O   UNL A   1      32.922  32.724  27.602  1.00  0.00    -0.269 OA
BRANCH  28  31
ATOM     31  C   UNL A   1      34.709  31.195  27.762  1.00  0.00     0.039 A 
ATOM     32  C   UNL A   1      34.924  29.871  28.132  1.00  0.00     0.014 A 
ATOM     33  C   UNL A   1      35.750  32.122  27.897  1.00  0.00     0.014 A 
ATOM     34  C   UNL A   1      36.062  29.527  28.847  1.00  0.00     0.010 A 
ATOM     35  C   UNL A   1      36.964  31.731  28.484  1.00  0.00     0.010 A 
ATOM     36  C   UNL A   1      37.115  30.440  29.012  1.00  0.00    -0.014 A 
BRANCH  36  37
ATOM     37  C   UNL A   1      38.363  29.991  29.696  1.00  0.00     0.031 A 
ATOM     38  C   UNL A   1      39.332  29.052  29.026  1.00  0.00     0.074 A 
ATOM     39  C   UNL A   1      38.647  30.487  30.919  1.00  0.00     0.049 A 
ATOM     40  N   UNL A   1      40.446  28.550  29.494  1.00  0.00    -0.248 NA
ATOM     41  C   UNL A   1      39.011  28.608  27.659  1.00  0.00     0.031 C 
ATOM     42  C   UNL A   1      37.788  31.413  31.663  1.00  0.00     0.029 A 
ATOM     43  N   UNL A   1      39.735  30.321  31.742  1.00  0.00    -0.354 N 
ATOM     44  C   UNL A   1      40.939  27.707  28.502  1.00  0.00     0.074 A 
ATOM     45  C   UNL A   1      39.989  27.746  27.413  1.00  0.00     0.031 C 
ATOM     46  C   UNL A   1      38.415  31.800  32.779  1.00  0.00     0.029 A 
ATOM     47  C   UNL A   1      39.662  31.056  32.905  1.00  0.00     0.049 A 
ATOM     48  H   UNL A   1      40.493  29.735  31.522  1.00  0.00     0.167 HD
ATOM     49  C   UNL A   1      42.082  26.978  28.505  1.00  0.00     0.034 A 
ATOM     50  C   UNL A   1      40.479  31.106  33.977  1.00  0.00     0.034 A 
ATOM     51  C   UNL A   1      43.032  26.986  29.591  1.00  0.00     0.049 A 
ATOM     52  C   UNL A   1      41.726  30.265  33.964  1.00  0.00     0.074 A 
ATOM     53  C   UNL A   1      44.233  26.304  29.678  1.00  0.00     0.029 A 
ATOM     54  N   UNL A   1      42.901  27.710  30.768  1.00  0.00    -0.354 N 
ATOM     55  N   UNL A   1      42.180  29.486  33.012  1.00  0.00    -0.248 NA
ATOM     56  C   UNL A   1      42.567  30.297  35.167  1.00  0.00     0.031 C 
ATOM     57  C   UNL A   1      44.788  26.554  30.931  1.00  0.00     0.029 A 
ATOM     58  C   UNL A   1      43.985  27.466  31.597  1.00  0.00     0.049 A 
ATOM     59  H   UNL A   1      42.149  28.308  30.983  1.00  0.00     0.167 HD
ATOM     60  C   UNL A   1      43.368  28.945  33.493  1.00  0.00     0.074 A 
ATOM     61  C   UNL A   1      43.578  29.515  34.808  1.00  0.00     0.031 C 
ATOM     62  C   UNL A   1      44.198  28.051  32.902  1.00  0.00     0.034 A 
BRANCH  49  63
ATOM     63  C   UNL A   1      42.401  26.104  27.311  1.00  0.00     0.023 A 
ATOM     64  C   UNL A   1      41.985  24.758  27.297  1.00  0.00     0.031 A 
ATOM     65  C   UNL A   1      43.235  26.547  26.269  1.00  0.00     0.131 A 
ATOM     66  C   UNL A   1      42.439  23.893  26.294  1.00  0.00     0.055 A 
ATOM     67  C   UNL A   1      43.644  25.693  25.242  1.00  0.00     0.041 A 
ATOM     68  F   UNL A   1      43.666  27.819  26.234  1.00  0.00    -0.206 F 
ATOM     69  C   UNL A   1      43.259  24.356  25.261  1.00  0.00     0.022 A 
BRANCH  66  70
ATOM     70  S   UNL A   1      42.054  22.121  26.334  1.00  0.00     0.124 S 
ATOM     71  O   UNL A   1      42.864  21.613  25.229  1.00  0.00    -0.237 OA
ATOM     72  O   UNL A   1      42.511  21.739  27.667  1.00  0.00    -0.237 OA
ATOM     73  O   UNL A   1      40.613  22.069  26.122  1.00  0.00    -0.744 OA
ENDBRANCH  66  70
ENDBRANCH  49  63
BRANCH  50  74
ATOM     74  C   UNL A   1      40.127  32.002  35.120  1.00  0.00     0.023 A 
ATOM     75  C   UNL A   1      39.328  31.534  36.183  1.00  0.00     0.031 A 
ATOM     76  C   UNL A   1      40.464  33.364  35.104  1.00  0.00     0.131 A 
ATOM     77  C   UNL A   1      38.812  32.437  37.120  1.00  0.00     0.055 A 
ATOM     78  C   UNL A   1      40.022  34.245  36.094  1.00  0.00     0.041 A 
ATOM     79  F   UNL A   1      41.214  33.863  34.110  1.00  0.00    -0.206 F 
ATOM     80  C   UNL A   1      39.170  33.787  37.095  1.00  0.00     0.022 A 
BRANCH  77  81
ATOM     81  S   UNL A   1      37.523  31.921  38.292  1.00  0.00     0.124 S 
ATOM     82  O   UNL A   1      38.193  32.095  39.577  1.00  0.00    -0.237 OA
ATOM     83  O   UNL A   1      36.458  32.877  38.000  1.00  0.00    -0.237 OA
ATOM     84  O   UNL A   1      37.240  30.543  37.907  1.00  0.00    -0.744 OA
ENDBRANCH  77  81
ENDBRANCH  50  74
BRANCH  62  85
ATOM     85  C   UNL A   1      45.437  27.617  33.646  1.00  0.00     0.023 A 
ATOM     86  C   UNL A   1      45.386  26.497  34.498  1.00  0.00     0.031 A 
ATOM     87  C   UNL A   1      46.607  28.396  33.643  1.00  0.00     0.131 A 
ATOM     88  C   UNL A   1      46.459  26.220  35.352  1.00  0.00     0.055 A 
ATOM     89  C   UNL A   1      47.699  28.080  34.452  1.00  0.00     0.041 A 
ATOM     90  F   UNL A   1      46.702  29.481  32.856  1.00  0.00    -0.206 F 
ATOM     91  C   UNL A   1      47.621  26.998  35.325  1.00  0.00     0.022 A 
BRANCH  88  92
ATOM     92  S   UNL A   1      46.347  24.906  36.597  1.00  0.00     0.124 S 
ATOM     93  O   UNL A   1      47.124  25.467  37.700  1.00  0.00    -0.237 OA
ATOM     94  O   UNL A   1      44.907  24.825  36.827  1.00  0.00    -0.237 OA
ATOM     95  O   UNL A   1      46.945  23.747  35.943  1.00  0.00    -0.744 OA
ENDBRANCH  88  92
ENDBRANCH  62  85
ENDBRANCH  36  37
ENDBRANCH  28  31
ENDBRANCH  26  27
ENDBRANCH   1  26
TORSDOF 16
ENDMDL
MODEL 2
REMARK VINA RESULT:     -11.8      2.328      3.339
REMARK SMILES Cc1cc(Br)c(C)c([C@@H]2[NH2+][C@H](C(=O)NCCCCNC(=O)c3ccc(-c4c5nc(c(-c6cc(S(=O)(=O)[O-])ccc6F)c6ccc([nH]6)c(-c6cc(S(=O)(=O)[O-])ccc6F)c6nc(c(-c7cc(S(=O)(=O)[O-])ccc7F)c7ccc4[nH]7)C=C6)C=C5)cc3)CS2)c1O
REMARK SMILES IDX 17 1 16 2 15 3 14 4 12 5 13 6 11 8 9 9 10 10 86 11 85 14
REMARK SMILES IDX 8 15 1 16 2 17 3 18 87 19 4 20 5 21 6 22 7 23 88 24 18 26
REMARK SMILES IDX 19 27 20 28 21 30 22 31 23 32 84 33 24 34 83 35 25 36 26 37
REMARK SMILES IDX 27 38 77 39 28 40 82 41 76 42 78 43 29 44 81 45 75 46 74 47
REMARK SMILES IDX 30 49 62 50 42 51 61 52 43 53 46 54 60 55 79 56 44 57 45 58
REMARK SMILES IDX 59 60 80 61 47 62 31 63 32 64 40 65 33 66 39 67 41 68 38 69
REMARK SMILES IDX 34 70 35 71 36 72 37 73 63 74 64 75 72 76 65 77 71 78 73 79
REMARK SMILES IDX 70 80 66 81 67 82 68 83 69 84 48 85 49 86 57 87 50 88 56 89
REMARK SMILES IDX 58 90 55 91 51 92 52 93 53 94 54 95
REMARK H PARENT 14 7 10 12 10 13 88 25 19 29 78 48 46 59
REMARK Flexibility Score: inf
ROOT
ATOM      1  C   UNL A   1      31.953  29.510  24.783  1.00  0.00     0.023 C 
ENDROOT
BRANCH   1   2
ATOM      2  C   UNL A   1      33.168  28.986  24.028  1.00  0.00     0.023 C 
BRANCH   2   3
ATOM      3  C   UNL A   1      32.901  28.227  22.729  1.00  0.00     0.116 C 
BRANCH   3   4
ATOM      4  N   UNL A   1      33.499  26.903  22.587  1.00  0.00    -0.351 N 
ATOM      5  C   UNL A   1      32.979  25.668  22.328  1.00  0.00     0.279 C 
ATOM      6  O   UNL A   1      33.760  24.921  21.713  1.00  0.00    -0.268 OA
ATOM      7  H   UNL A   1      34.477  26.901  22.702  1.00  0.00     0.163 HD
BRANCH   5   8
ATOM      8  C   UNL A   1      31.624  25.089  22.811  1.00  0.00     0.283 C 
ATOM      9  C   UNL A   1      31.776  23.049  24.146  1.00  0.00     0.278 C 
ATOM     10  N   UNL A   1      31.580  23.601  22.801  1.00  0.00    -0.320 N 
ATOM     11  S   UNL A   1      31.178  24.330  25.310  1.00  0.00    -0.087 SA
ATOM     12  H   UNL A   1      30.672  23.300  22.446  1.00  0.00     0.348 HD
ATOM     13  H   UNL A   1      32.333  23.263  22.202  1.00  0.00     0.348 HD
ATOM     14  C   UNL A   1      30.971  25.616  24.059  1.00  0.00     0.151 C 
BRANCH   9  15
ATOM     15  C   UNL A   1      33.151  22.423  24.465  1.00  0.00     0.066 A 
ATOM     16  C   UNL A   1      36.657  23.619  25.531  1.00  0.00     0.048 C 
ATOM     17  C   UNL A   1      35.554  22.699  25.081  1.00  0.00    -0.008 A 
ATOM     18  C   UNL A   1      35.739  21.326  25.040  1.00  0.00     0.023 A 
ATOM     19  C   UNL A   1      34.288  23.213  24.760  1.00  0.00     0.128 A 
ATOM     20  C   UNL A   1      34.667  20.492  24.714  1.00  0.00     0.021 A 
ATOM     21  Br  UNL A   1      35.056  18.624  24.701  1.00  0.00    -0.051 Br
ATOM     22  C   UNL A   1      33.370  21.008  24.432  1.00  0.00    -0.023 A 
ATOM     23  C   UNL A   1      32.261  20.017  24.156  1.00  0.00     0.046 C 
BRANCH  19  24
ATOM     24  O   UNL A   1      34.230  24.573  24.747  1.00  0.00    -0.507 OA
ATOM     25  H   UNL A   1      33.890  25.020  23.996  1.00  0.00     0.293 HD
ENDBRANCH  19  24
ENDBRANCH   9  15
ENDBRANCH   5   8
ENDBRANCH   3   4
ENDBRANCH   2   3
ENDBRANCH   1   2
BRANCH   1  26
ATOM     26  C   UNL A   1      32.200  29.925  26.222  1.00  0.00     0.116 C 
BRANCH  26  27
ATOM     27  N   UNL A   1      31.997  31.349  26.471  1.00  0.00    -0.352 N 
ATOM     28  C   UNL A   1      32.780  32.230  27.194  1.00  0.00     0.251 C 
ATOM     29  H   UNL A   1      31.187  31.737  26.066  1.00  0.00     0.163 HD
ATOM     30  O   UNL A   1      32.380  33.377  27.388  1.00  0.00    -0.269 OA
BRANCH  28  31
ATOM     31  C   UNL A   1      34.074  31.782  27.768  1.00  0.00     0.039 A 
ATOM     32  C   UNL A   1      34.254  30.456  28.151  1.00  0.00     0.014 A 
ATOM     33  C   UNL A   1      35.112  32.700  27.966  1.00  0.00     0.014 A 
ATOM     34  C   UNL A   1      35.344  30.104  28.934  1.00  0.00     0.010 A 
ATOM     35  C   UNL A   1      36.285  32.300  28.625  1.00  0.00     0.010 A 
ATOM     36  C   UNL A   1      36.394  31.008  29.161  1.00  0.00    -0.014 A 
BRANCH  36  37
ATOM     37  C   UNL A   1      37.594  30.550  29.920  1.00  0.00     0.031 A 
ATOM     38  C   UNL A   1      38.609  29.625  29.300  1.00  0.00     0.074 A 
ATOM     39  C   UNL A   1      37.794  31.024  31.168  1.00  0.00     0.049 A 
ATOM     40  N   UNL A   1      39.691  29.117  29.833  1.00  0.00    -0.248 NA
ATOM     41  C   UNL A   1      38.382  29.205  27.907  1.00  0.00     0.031 C 
ATOM     42  C   UNL A   1      36.884  31.935  31.868  1.00  0.00     0.029 A 
ATOM     43  N   UNL A   1      38.824  30.846  32.059  1.00  0.00    -0.354 N 
ATOM     44  C   UNL A   1      40.252  28.292  28.862  1.00  0.00     0.074 A 
ATOM     45  C   UNL A   1      39.377  28.349  27.712  1.00  0.00     0.031 C 
ATOM     46  C   UNL A   1      37.433  32.303  33.031  1.00  0.00     0.029 A 
ATOM     47  C   UNL A   1      38.671  31.560  33.227  1.00  0.00     0.049 A 
ATOM     48  H   UNL A   1      39.598  30.265  31.880  1.00  0.00     0.167 HD
ATOM     49  C   UNL A   1      41.395  27.566  28.928  1.00  0.00     0.034 A 
ATOM     50  C   UNL A   1      39.414  31.593  34.353  1.00  0.00     0.034 A 
ATOM     51  C   UNL A   1      42.269  27.556  30.076  1.00  0.00     0.049 A 
ATOM     52  C   UNL A   1      40.661  30.754  34.409  1.00  0.00     0.074 A 
ATOM     53  C   UNL A   1      43.464  26.876  30.231  1.00  0.00     0.029 A 
ATOM     54  N   UNL A   1      42.058  28.259  31.254  1.00  0.00    -0.354 N 
ATOM     55  N   UNL A   1      41.181  29.993  33.476  1.00  0.00    -0.248 NA
ATOM     56  C   UNL A   1      41.420  30.766  35.666  1.00  0.00     0.031 C 
ATOM     57  C   UNL A   1      43.933  27.104  31.523  1.00  0.00     0.029 A 
ATOM     58  C   UNL A   1      43.084  28.003  32.149  1.00  0.00     0.049 A 
ATOM     59  H   UNL A   1      41.291  28.852  31.429  1.00  0.00     0.167 HD
ATOM     60  C   UNL A   1      42.336  29.447  34.026  1.00  0.00     0.074 A 
ATOM     61  C   UNL A   1      42.455  29.993  35.362  1.00  0.00     0.031 C 
ATOM     62  C   UNL A   1      43.206  28.565  33.476  1.00  0.00     0.034 A 
BRANCH  49  63
ATOM     63  C   UNL A   1      41.796  26.714  27.743  1.00  0.00     0.023 A 
ATOM     64  C   UNL A   1      41.412  25.360  27.692  1.00  0.00     0.031 A 
ATOM     65  C   UNL A   1      42.673  27.188  26.752  1.00  0.00     0.131 A 
ATOM     66  C   UNL A   1      41.938  24.518  26.705  1.00  0.00     0.055 A 
ATOM     67  C   UNL A   1      43.155  26.357  25.738  1.00  0.00     0.041 A 
ATOM     68  F   UNL A   1      43.077  28.470  26.754  1.00  0.00    -0.206 F 
ATOM     69  C   UNL A   1      42.801  25.012  25.722  1.00  0.00     0.022 A 
BRANCH  66  70
ATOM     70  S   UNL A   1      41.592  22.737  26.705  1.00  0.00     0.124 S 
ATOM     71  O   UNL A   1      42.123  22.329  25.406  1.00  0.00    -0.237 OA
ATOM     72  O   UNL A   1      42.355  22.278  27.861  1.00  0.00    -0.237 OA
ATOM     73  O   UNL A   1      40.142  22.660  26.834  1.00  0.00    -0.744 OA
ENDBRANCH  66  70
ENDBRANCH  49  63
BRANCH  50  74
ATOM     74  C   UNL A   1      38.983  32.467  35.485  1.00  0.00     0.023 A 
ATOM     75  C   UNL A   1      39.436  33.798  35.581  1.00  0.00     0.031 A 
ATOM     76  C   UNL A   1      38.230  31.951  36.552  1.00  0.00     0.131 A 
ATOM     77  C   UNL A   1      39.221  34.526  36.757  1.00  0.00     0.055 A 
ATOM     78  C   UNL A   1      37.939  32.714  37.685  1.00  0.00     0.041 A 
ATOM     79  F   UNL A   1      37.783  30.687  36.516  1.00  0.00    -0.206 F 
ATOM     80  C   UNL A   1      38.457  34.001  37.803  1.00  0.00     0.022 A 
BRANCH  77  81
ATOM     81  S   UNL A   1      40.071  36.107  37.037  1.00  0.00     0.124 S 
ATOM     82  O   UNL A   1      41.431  35.672  37.339  1.00  0.00    -0.237 OA
ATOM     83  O   UNL A   1      39.892  36.772  35.748  1.00  0.00    -0.237 OA
ATOM     84  O   UNL A   1      39.336  36.702  38.147  1.00  0.00    -0.744 OA
ENDBRANCH  77  81
ENDBRANCH  50  74
BRANCH  62  85
ATOM     85  C   UNL A   1      44.394  28.120  34.294  1.00  0.00     0.023 A 
ATOM     86  C   UNL A   1      44.219  27.182  35.330  1.00  0.00     0.031 A 
ATOM     87  C   UNL A   1      45.650  28.737  34.161  1.00  0.00     0.131 A 
ATOM     88  C   UNL A   1      45.263  26.931  36.227  1.00  0.00     0.055 A 
ATOM     89  C   UNL A   1      46.708  28.437  35.022  1.00  0.00     0.041 A 
ATOM     90  F   UNL A   1      45.865  29.646  33.196  1.00  0.00    -0.206 F 
ATOM     91  C   UNL A   1      46.510  27.543  36.072  1.00  0.00     0.022 A 
BRANCH  88  92
ATOM     92  S   UNL A   1      45.010  25.880  37.684  1.00  0.00     0.124 S 
ATOM     93  O   UNL A   1      44.711  24.586  37.077  1.00  0.00    -0.237 OA
ATOM     94  O   UNL A   1      46.305  25.970  38.354  1.00  0.00    -0.237 OA
ATOM     95  O   UNL A   1      43.896  26.510  38.384  1.00  0.00    -0.744 OA
ENDBRANCH  88  92
ENDBRANCH  62  85
ENDBRANCH  36  37
ENDBRANCH  28  31
ENDBRANCH  26  27
ENDBRANCH   1  26
TORSDOF 16
ENDMDL
MODEL 3
REMARK VINA RESULT:     -11.8      4.997      9.679
REMARK SMILES Cc1cc(Br)c(C)c([C@@H]2[NH2+][C@H](C(=O)NCCCCNC(=O)c3ccc(-c4c5nc(c(-c6cc(S(=O)(=O)[O-])ccc6F)c6ccc([nH]6)c(-c6cc(S(=O)(=O)[O-])ccc6F)c6nc(c(-c7cc(S(=O)(=O)[O-])ccc7F)c7ccc4[nH]7)C=C6)C=C5)cc3)CS2)c1O
REMARK SMILES IDX 17 1 16 2 15 3 14 4 12 5 13 6 11 8 9 9 10 10 86 11 85 14
REMARK SMILES IDX 8 15 1 16 2 17 3 18 87 19 4 20 5 21 6 22 7 23 88 24 18 26
REMARK SMILES IDX 19 27 20 28 21 30 22 31 23 32 84 33 24 34 83 35 25 36 26 37
REMARK SMILES IDX 27 38 77 39 28 40 82 41 76 42 78 43 29 44 81 45 75 46 74 47
REMARK SMILES IDX 30 49 62 50 42 51 61 52 43 53 46 54 60 55 79 56 44 57 45 58
REMARK SMILES IDX 59 60 80 61 47 62 31 63 32 64 40 65 33 66 39 67 41 68 38 69
REMARK SMILES IDX 34 70 35 71 36 72 37 73 63 74 64 75 72 76 65 77 71 78 73 79
REMARK SMILES IDX 70 80 66 81 67 82 68 83 69 84 48 85 49 86 57 87 50 88 56 89
REMARK SMILES IDX 58 90 55 91 51 92 52 93 53 94 54 95
REMARK H PARENT 14 7 10 12 10 13 88 25 19 29 78 48 46 59
REMARK Flexibility Score: inf
ROOT
ATOM      1  C   UNL A   1      35.158  21.457  26.157  1.00  0.00     0.023 C 
ENDROOT
BRANCH   1   2
ATOM      2  C   UNL A   1      34.411  22.519  26.953  1.00  0.00     0.023 C 
BRANCH   2   3
ATOM      3  C   UNL A   1      32.914  22.299  27.164  1.00  0.00     0.116 C 
BRANCH   3   4
ATOM      4  N   UNL A   1      32.043  23.468  27.078  1.00  0.00    -0.351 N 
ATOM      5  C   UNL A   1      31.040  23.822  26.222  1.00  0.00     0.279 C 
ATOM      6  O   UNL A   1      30.165  24.529  26.751  1.00  0.00    -0.268 OA
ATOM      7  H   UNL A   1      32.214  24.137  27.780  1.00  0.00     0.163 HD
BRANCH   5   8
ATOM      8  C   UNL A   1      30.952  23.547  24.699  1.00  0.00     0.283 C 
ATOM      9  C   UNL A   1      31.168  25.515  23.268  1.00  0.00     0.278 C 
ATOM     10  N   UNL A   1      30.232  24.611  23.946  1.00  0.00    -0.320 N 
ATOM     11  S   UNL A   1      32.678  24.531  22.944  1.00  0.00    -0.087 SA
ATOM     12  H   UNL A   1      29.629  24.173  23.251  1.00  0.00     0.348 HD
ATOM     13  H   UNL A   1      29.683  25.156  24.610  1.00  0.00     0.348 HD
ATOM     14  C   UNL A   1      32.170  23.106  23.932  1.00  0.00     0.151 C 
BRANCH   9  15
ATOM     15  C   UNL A   1      31.382  26.913  23.887  1.00  0.00     0.066 A 
ATOM     16  C   UNL A   1      29.679  30.370  23.791  1.00  0.00     0.048 C 
ATOM     17  C   UNL A   1      30.696  29.304  24.098  1.00  0.00    -0.008 A 
ATOM     18  C   UNL A   1      31.738  29.541  24.980  1.00  0.00     0.023 A 
ATOM     19  C   UNL A   1      30.564  28.019  23.550  1.00  0.00     0.128 A 
ATOM     20  C   UNL A   1      32.607  28.503  25.321  1.00  0.00     0.021 A 
ATOM     21  Br  UNL A   1      33.994  28.964  26.548  1.00  0.00    -0.051 Br
ATOM     22  C   UNL A   1      32.449  27.187  24.801  1.00  0.00    -0.023 A 
ATOM     23  C   UNL A   1      33.403  26.118  25.286  1.00  0.00     0.046 C 
BRANCH  19  24
ATOM     24  O   UNL A   1      29.564  27.908  22.633  1.00  0.00    -0.507 OA
ATOM     25  H   UNL A   1      29.102  28.672  22.349  1.00  0.00     0.293 HD
ENDBRANCH  19  24
ENDBRANCH   9  15
ENDBRANCH   5   8
ENDBRANCH   3   4
ENDBRANCH   2   3
ENDBRANCH   1   2
BRANCH   1  26
ATOM     26  C   UNL A   1      36.478  21.894  25.550  1.00  0.00     0.116 C 
BRANCH  26  27
ATOM     27  N   UNL A   1      37.510  20.862  25.568  1.00  0.00    -0.352 N 
ATOM     28  C   UNL A   1      38.846  20.967  25.911  1.00  0.00     0.251 C 
ATOM     29  H   UNL A   1      37.212  19.963  25.298  1.00  0.00     0.163 HD
ATOM     30  O   UNL A   1      39.590  20.001  25.752  1.00  0.00    -0.269 OA
BRANCH  28  31
ATOM     31  C   UNL A   1      39.387  22.251  26.426  1.00  0.00     0.039 A 
ATOM     32  C   UNL A   1      38.861  23.464  25.990  1.00  0.00     0.014 A 
ATOM     33  C   UNL A   1      40.458  22.252  27.328  1.00  0.00     0.014 A 
ATOM     34  C   UNL A   1      39.539  24.646  26.251  1.00  0.00     0.010 A 
ATOM     35  C   UNL A   1      41.047  23.466  27.713  1.00  0.00     0.010 A 
ATOM     36  C   UNL A   1      40.626  24.675  27.139  1.00  0.00    -0.014 A 
BRANCH  36  37
ATOM     37  C   UNL A   1      41.256  25.987  27.470  1.00  0.00     0.031 A 
ATOM     38  C   UNL A   1      40.554  26.999  28.338  1.00  0.00     0.074 A 
ATOM     39  C   UNL A   1      42.505  26.238  27.023  1.00  0.00     0.049 A 
ATOM     40  N   UNL A   1      40.955  28.191  28.697  1.00  0.00    -0.248 NA
ATOM     41  C   UNL A   1      39.228  26.636  28.865  1.00  0.00     0.031 C 
ATOM     42  C   UNL A   1      43.288  25.328  26.183  1.00  0.00     0.029 A 
ATOM     43  N   UNL A   1      43.352  27.301  27.227  1.00  0.00    -0.354 N 
ATOM     44  C   UNL A   1      39.923  28.736  29.457  1.00  0.00     0.074 A 
ATOM     45  C   UNL A   1      38.865  27.751  29.487  1.00  0.00     0.031 C 
ATOM     46  C   UNL A   1      44.519  25.823  26.021  1.00  0.00     0.029 A 
ATOM     47  C   UNL A   1      44.583  27.146  26.629  1.00  0.00     0.049 A 
ATOM     48  H   UNL A   1      43.103  28.095  27.752  1.00  0.00     0.167 HD
ATOM     49  C   UNL A   1      39.874  29.941  30.074  1.00  0.00     0.034 A 
ATOM     50  C   UNL A   1      45.638  27.981  26.539  1.00  0.00     0.034 A 
ATOM     51  C   UNL A   1      40.960  30.891  30.058  1.00  0.00     0.049 A 
ATOM     52  C   UNL A   1      45.545  29.324  27.210  1.00  0.00     0.074 A 
ATOM     53  C   UNL A   1      41.020  32.128  30.676  1.00  0.00     0.029 A 
ATOM     54  N   UNL A   1      42.173  30.715  29.407  1.00  0.00    -0.354 N 
ATOM     55  N   UNL A   1      44.567  29.814  27.934  1.00  0.00    -0.248 NA
ATOM     56  C   UNL A   1      46.685  30.234  27.048  1.00  0.00     0.031 C 
ATOM     57  C   UNL A   1      42.230  32.729  30.337  1.00  0.00     0.029 A 
ATOM     58  C   UNL A   1      42.972  31.833  29.584  1.00  0.00     0.049 A 
ATOM     59  H   UNL A   1      42.428  29.914  28.894  1.00  0.00     0.167 HD
ATOM     60  C   UNL A   1      44.978  31.082  28.328  1.00  0.00     0.074 A 
ATOM     61  C   UNL A   1      46.309  31.270  27.789  1.00  0.00     0.031 C 
ATOM     62  C   UNL A   1      44.308  32.007  29.057  1.00  0.00     0.034 A 
BRANCH  49  63
ATOM     63  C   UNL A   1      38.623  30.331  30.831  1.00  0.00     0.023 A 
ATOM     64  C   UNL A   1      37.588  31.020  30.166  1.00  0.00     0.031 A 
ATOM     65  C   UNL A   1      38.514  30.163  32.222  1.00  0.00     0.131 A 
ATOM     66  C   UNL A   1      36.519  31.554  30.895  1.00  0.00     0.055 A 
ATOM     67  C   UNL A   1      37.419  30.653  32.938  1.00  0.00     0.041 A 
ATOM     68  F   UNL A   1      39.472  29.518  32.908  1.00  0.00    -0.206 F 
ATOM     69  C   UNL A   1      36.425  31.366  32.278  1.00  0.00     0.022 A 
BRANCH  66  70
ATOM     70  S   UNL A   1      35.256  32.582  30.096  1.00  0.00     0.124 S 
ATOM     71  O   UNL A   1      34.842  31.734  28.980  1.00  0.00    -0.237 OA
ATOM     72  O   UNL A   1      34.269  32.735  31.161  1.00  0.00    -0.237 OA
ATOM     73  O   UNL A   1      35.974  33.794  29.721  1.00  0.00    -0.744 OA
ENDBRANCH  66  70
ENDBRANCH  49  63
BRANCH  50  74
ATOM     74  C   UNL A   1      46.857  27.538  25.797  1.00  0.00     0.023 A 
ATOM     75  C   UNL A   1      47.105  27.988  24.485  1.00  0.00     0.031 A 
ATOM     76  C   UNL A   1      47.714  26.562  26.329  1.00  0.00     0.131 A 
ATOM     77  C   UNL A   1      48.113  27.389  23.719  1.00  0.00     0.055 A 
ATOM     78  C   UNL A   1      48.776  26.033  25.593  1.00  0.00     0.041 A 
ATOM     79  F   UNL A   1      47.515  26.091  27.570  1.00  0.00    -0.206 F 
ATOM     80  C   UNL A   1      48.964  26.428  24.271  1.00  0.00     0.022 A 
BRANCH  77  81
ATOM     81  S   UNL A   1      48.237  27.711  21.936  1.00  0.00     0.124 S 
ATOM     82  O   UNL A   1      48.420  26.368  21.396  1.00  0.00    -0.237 OA
ATOM     83  O   UNL A   1      46.945  28.333  21.657  1.00  0.00    -0.237 OA
ATOM     84  O   UNL A   1      49.389  28.599  21.826  1.00  0.00    -0.744 OA
ENDBRANCH  77  81
ENDBRANCH  50  74
BRANCH  62  85
ATOM     85  C   UNL A   1      44.985  33.325  29.347  1.00  0.00     0.023 A 
ATOM     86  C   UNL A   1      44.921  34.368  28.404  1.00  0.00     0.031 A 
ATOM     87  C   UNL A   1      45.820  33.491  30.465  1.00  0.00     0.131 A 
ATOM     88  C   UNL A   1      45.720  35.505  28.565  1.00  0.00     0.055 A 
ATOM     89  C   UNL A   1      46.569  34.654  30.653  1.00  0.00     0.041 A 
ATOM     90  F   UNL A   1      45.924  32.521  31.389  1.00  0.00    -0.206 F 
ATOM     91  C   UNL A   1      46.535  35.660  29.691  1.00  0.00     0.022 A 
BRANCH  88  92
ATOM     92  S   UNL A   1      45.809  36.775  27.273  1.00  0.00     0.124 S 
ATOM     93  O   UNL A   1      46.360  36.025  26.148  1.00  0.00    -0.237 OA
ATOM     94  O   UNL A   1      44.410  37.169  27.134  1.00  0.00    -0.237 OA
ATOM     95  O   UNL A   1      46.694  37.790  27.835  1.00  0.00    -0.744 OA
ENDBRANCH  88  92
ENDBRANCH  62  85
ENDBRANCH  36  37
ENDBRANCH  28  31
ENDBRANCH  26  27
ENDBRANCH   1  26
TORSDOF 16
ENDMDL
