MODEL 1
REMARK VINA RESULT:     -12.4      0.000      0.000
REMARK SMILES CC1=C2C(=O)N(C[C@H]3CCCO3)C(=O)N=C2S[C@@H]1C(=O)NCCCCNC(=O)c1ccc(-c2c3nc(c(-c4cc(S(=O)(=O)[O-])ccc4F)c4ccc([nH]4)c(-c4cc(S(=O)(=O)[O-])ccc4F)c4nc(c(-c5cc(S(=O)(=O)[O-])ccc5F)c5ccc2[nH]5)C=C4)C=C3)cc1
REMARK SMILES IDX 24 1 23 2 22 3 21 4 19 5 20 6 18 8 1 9 2 10 3 11 4 12 16 13
REMARK SMILES IDX 17 14 5 15 6 16 15 17 13 18 14 19 7 20 8 21 9 22 12 23 10 24
REMARK SMILES IDX 11 25 25 26 26 27 27 28 28 30 29 31 30 32 91 33 31 34 90 35
REMARK SMILES IDX 32 36 33 37 34 38 84 39 35 40 89 41 83 42 85 43 36 44 88 45
REMARK SMILES IDX 82 46 81 47 37 49 69 50 49 51 68 52 50 53 53 54 67 55 86 56
REMARK SMILES IDX 51 57 52 58 66 60 87 61 54 62 38 63 39 64 47 65 40 66 46 67
REMARK SMILES IDX 48 68 45 69 41 70 42 71 43 72 44 73 70 74 71 75 79 76 72 77
REMARK SMILES IDX 78 78 80 79 77 80 73 81 74 82 75 83 76 84 55 85 56 86 64 87
REMARK SMILES IDX 57 88 63 89 65 90 62 91 58 92 59 93 60 94 61 95
REMARK H PARENT 21 7 26 29 85 48 53 59
REMARK Flexibility Score: inf
ROOT
ATOM      1  C   UNL A   1      32.525  29.664  25.345  1.00  0.00     0.023 C 
ENDROOT
BRANCH   1   2
ATOM      2  C   UNL A   1      33.470  28.738  24.579  1.00  0.00     0.023 C 
BRANCH   2   3
ATOM      3  C   UNL A   1      33.340  28.833  23.063  1.00  0.00     0.116 C 
BRANCH   3   4
ATOM      4  N   UNL A   1      31.961  29.013  22.649  1.00  0.00    -0.355 N 
ATOM      5  C   UNL A   1      30.988  28.108  22.347  1.00  0.00     0.237 C 
ATOM      6  O   UNL A   1      29.885  28.554  22.011  1.00  0.00    -0.273 OA
ATOM      7  H   UNL A   1      31.680  29.953  22.572  1.00  0.00     0.163 HD
BRANCH   5   8
ATOM      8  C   UNL A   1      31.188  26.590  22.468  1.00  0.00     0.169 C 
ATOM      9  C   UNL A   1      30.498  26.444  24.946  1.00  0.00     0.042 C 
ATOM     10  C   UNL A   1      31.474  26.109  23.864  1.00  0.00    -0.035 C 
ATOM     11  C   UNL A   1      32.597  25.389  24.002  1.00  0.00     0.073 C 
ATOM     12  C   UNL A   1      33.217  24.841  25.202  1.00  0.00     0.264 C 
ATOM     13  C   UNL A   1      33.298  25.143  22.757  1.00  0.00     0.116 C 
ATOM     14  S   UNL A   1      32.567  25.995  21.430  1.00  0.00    -0.087 SA
ATOM     15  O   UNL A   1      33.064  25.377  26.290  1.00  0.00    -0.268 OA
ATOM     16  N   UNL A   1      34.019  23.758  24.930  1.00  0.00    -0.256 N 
ATOM     17  N   UNL A   1      34.325  24.389  22.631  1.00  0.00    -0.186 NA
ATOM     18  C   UNL A   1      34.736  23.663  23.727  1.00  0.00     0.351 C 
ATOM     19  O   UNL A   1      35.707  22.916  23.630  1.00  0.00    -0.246 OA
BRANCH  16  20
ATOM     20  C   UNL A   1      34.108  22.641  25.872  1.00  0.00     0.163 C 
BRANCH  20  21
ATOM     21  C   UNL A   1      32.962  21.617  26.003  1.00  0.00     0.138 C 
ATOM     22  C   UNL A   1      31.843  21.676  24.969  1.00  0.00     0.036 C 
ATOM     23  O   UNL A   1      33.563  20.311  25.766  1.00  0.00    -0.376 OA
ATOM     24  C   UNL A   1      32.415  20.950  23.784  1.00  0.00     0.031 C 
ATOM     25  C   UNL A   1      33.228  19.863  24.442  1.00  0.00     0.160 C 
ENDBRANCH  20  21
ENDBRANCH  16  20
ENDBRANCH   5   8
ENDBRANCH   3   4
ENDBRANCH   2   3
ENDBRANCH   1   2
BRANCH   1  26
ATOM     26  C   UNL A   1      32.968  30.012  26.762  1.00  0.00     0.116 C 
BRANCH  26  27
ATOM     27  N   UNL A   1      32.937  31.440  27.042  1.00  0.00    -0.352 N 
ATOM     28  C   UNL A   1      33.877  32.200  27.698  1.00  0.00     0.251 C 
ATOM     29  H   UNL A   1      32.142  31.923  26.720  1.00  0.00     0.163 HD
ATOM     30  O   UNL A   1      33.649  33.379  27.950  1.00  0.00    -0.269 OA
BRANCH  28  31
ATOM     31  C   UNL A   1      35.137  31.564  28.132  1.00  0.00     0.039 A 
ATOM     32  C   UNL A   1      36.302  32.332  28.171  1.00  0.00     0.014 A 
ATOM     33  C   UNL A   1      35.150  30.232  28.553  1.00  0.00     0.014 A 
ATOM     34  C   UNL A   1      37.469  31.783  28.707  1.00  0.00     0.010 A 
ATOM     35  C   UNL A   1      36.293  29.709  29.147  1.00  0.00     0.010 A 
ATOM     36  C   UNL A   1      37.462  30.482  29.233  1.00  0.00    -0.014 A 
BRANCH  36  37
ATOM     37  C   UNL A   1      38.667  29.906  29.880  1.00  0.00     0.031 A 
ATOM     38  C   UNL A   1      39.091  30.387  31.238  1.00  0.00     0.074 A 
ATOM     39  C   UNL A   1      39.419  29.010  29.213  1.00  0.00     0.049 A 
ATOM     40  N   UNL A   1      40.152  30.074  31.937  1.00  0.00    -0.248 NA
ATOM     41  C   UNL A   1      38.219  31.383  31.877  1.00  0.00     0.031 C 
ATOM     42  C   UNL A   1      39.133  28.498  27.871  1.00  0.00     0.029 A 
ATOM     43  N   UNL A   1      40.581  28.376  29.570  1.00  0.00    -0.354 N 
ATOM     44  C   UNL A   1      40.082  30.843  33.094  1.00  0.00     0.074 A 
ATOM     45  C   UNL A   1      38.914  31.688  32.961  1.00  0.00     0.031 C 
ATOM     46  C   UNL A   1      40.079  27.606  27.532  1.00  0.00     0.029 A 
ATOM     47  C   UNL A   1      41.055  27.513  28.611  1.00  0.00     0.049 A 
ATOM     48  H   UNL A   1      41.033  28.525  30.433  1.00  0.00     0.167 HD
ATOM     49  C   UNL A   1      40.901  30.827  34.176  1.00  0.00     0.034 A 
ATOM     50  C   UNL A   1      42.157  26.737  28.604  1.00  0.00     0.034 A 
ATOM     51  C   UNL A   1      42.059  29.973  34.291  1.00  0.00     0.049 A 
ATOM     52  C   UNL A   1      43.071  26.755  29.799  1.00  0.00     0.074 A 
ATOM     53  C   UNL A   1      42.927  29.829  35.360  1.00  0.00     0.029 A 
ATOM     54  N   UNL A   1      42.518  29.121  33.293  1.00  0.00    -0.354 N 
ATOM     55  N   UNL A   1      42.971  27.454  30.905  1.00  0.00    -0.248 NA
ATOM     56  C   UNL A   1      44.243  25.873  29.744  1.00  0.00     0.031 C 
ATOM     57  C   UNL A   1      43.940  28.936  34.987  1.00  0.00     0.029 A 
ATOM     58  C   UNL A   1      43.671  28.472  33.710  1.00  0.00     0.049 A 
ATOM     59  H   UNL A   1      42.086  28.995  32.417  1.00  0.00     0.167 HD
ATOM     60  C   UNL A   1      44.056  27.076  31.690  1.00  0.00     0.074 A 
ATOM     61  C   UNL A   1      44.791  26.084  30.931  1.00  0.00     0.031 C 
ATOM     62  C   UNL A   1      44.406  27.503  32.931  1.00  0.00     0.034 A 
BRANCH  49  63
ATOM     63  C   UNL A   1      40.571  31.787  35.294  1.00  0.00     0.023 A 
ATOM     64  C   UNL A   1      39.606  31.473  36.271  1.00  0.00     0.031 A 
ATOM     65  C   UNL A   1      41.162  33.061  35.344  1.00  0.00     0.131 A 
ATOM     66  C   UNL A   1      39.181  32.454  37.178  1.00  0.00     0.055 A 
ATOM     67  C   UNL A   1      40.802  34.002  36.313  1.00  0.00     0.041 A 
ATOM     68  F   UNL A   1      42.074  33.428  34.432  1.00  0.00    -0.206 F 
ATOM     69  C   UNL A   1      39.789  33.709  37.222  1.00  0.00     0.022 A 
BRANCH  66  70
ATOM     70  S   UNL A   1      37.691  32.129  38.161  1.00  0.00     0.124 S 
ATOM     71  O   UNL A   1      36.777  33.153  37.658  1.00  0.00    -0.237 OA
ATOM     72  O   UNL A   1      37.371  30.753  37.801  1.00  0.00    -0.237 OA
ATOM     73  O   UNL A   1      38.139  32.327  39.538  1.00  0.00    -0.744 OA
ENDBRANCH  66  70
ENDBRANCH  49  63
BRANCH  50  74
ATOM     74  C   UNL A   1      42.450  25.868  27.432  1.00  0.00     0.023 A 
ATOM     75  C   UNL A   1      42.041  24.527  27.416  1.00  0.00     0.031 A 
ATOM     76  C   UNL A   1      43.152  26.363  26.319  1.00  0.00     0.131 A 
ATOM     77  C   UNL A   1      42.362  23.712  26.320  1.00  0.00     0.055 A 
ATOM     78  C   UNL A   1      43.437  25.559  25.214  1.00  0.00     0.041 A 
ATOM     79  F   UNL A   1      43.553  27.644  26.284  1.00  0.00    -0.206 F 
ATOM     80  C   UNL A   1      43.048  24.222  25.215  1.00  0.00     0.022 A 
BRANCH  77  81
ATOM     81  S   UNL A   1      41.901  21.959  26.376  1.00  0.00     0.124 S 
ATOM     82  O   UNL A   1      42.276  21.597  27.738  1.00  0.00    -0.237 OA
ATOM     83  O   UNL A   1      40.470  22.013  26.097  1.00  0.00    -0.237 OA
ATOM     84  O   UNL A   1      42.716  21.360  25.322  1.00  0.00    -0.744 OA
ENDBRANCH  77  81
ENDBRANCH  50  74
BRANCH  62  85
ATOM     85  C   UNL A   1      45.622  26.862  33.549  1.00  0.00     0.023 A 
ATOM     86  C   UNL A   1      45.540  25.645  34.249  1.00  0.00     0.031 A 
ATOM     87  C   UNL A   1      46.877  27.491  33.455  1.00  0.00     0.131 A 
ATOM     88  C   UNL A   1      46.684  25.120  34.871  1.00  0.00     0.055 A 
ATOM     89  C   UNL A   1      48.020  26.938  34.032  1.00  0.00     0.041 A 
ATOM     90  F   UNL A   1      47.007  28.656  32.800  1.00  0.00    -0.206 F 
ATOM     91  C   UNL A   1      47.925  25.752  34.755  1.00  0.00     0.022 A 
BRANCH  88  92
ATOM     92  S   UNL A   1      46.512  23.641  35.906  1.00  0.00     0.124 S 
ATOM     93  O   UNL A   1      45.204  23.848  36.518  1.00  0.00    -0.237 OA
ATOM     94  O   UNL A   1      46.593  22.562  34.926  1.00  0.00    -0.237 OA
ATOM     95  O   UNL A   1      47.647  23.730  36.824  1.00  0.00    -0.744 OA
ENDBRANCH  88  92
ENDBRANCH  62  85
ENDBRANCH  36  37
ENDBRANCH  28  31
ENDBRANCH  26  27
ENDBRANCH   1  26
TORSDOF 16
ENDMDL
MODEL 2
REMARK VINA RESULT:     -12.3      4.717     10.025
REMARK SMILES CC1=C2C(=O)N(C[C@H]3CCCO3)C(=O)N=C2S[C@@H]1C(=O)NCCCCNC(=O)c1ccc(-c2c3nc(c(-c4cc(S(=O)(=O)[O-])ccc4F)c4ccc([nH]4)c(-c4cc(S(=O)(=O)[O-])ccc4F)c4nc(c(-c5cc(S(=O)(=O)[O-])ccc5F)c5ccc2[nH]5)C=C4)C=C3)cc1
REMARK SMILES IDX 24 1 23 2 22 3 21 4 19 5 20 6 18 8 1 9 2 10 3 11 4 12 16 13
REMARK SMILES IDX 17 14 5 15 6 16 15 17 13 18 14 19 7 20 8 21 9 22 12 23 10 24
REMARK SMILES IDX 11 25 25 26 26 27 27 28 28 30 29 31 30 32 91 33 31 34 90 35
REMARK SMILES IDX 32 36 33 37 34 38 84 39 35 40 89 41 83 42 85 43 36 44 88 45
REMARK SMILES IDX 82 46 81 47 37 49 69 50 49 51 68 52 50 53 53 54 67 55 86 56
REMARK SMILES IDX 51 57 52 58 66 60 87 61 54 62 38 63 39 64 47 65 40 66 46 67
REMARK SMILES IDX 48 68 45 69 41 70 42 71 43 72 44 73 70 74 71 75 79 76 72 77
REMARK SMILES IDX 78 78 80 79 77 80 73 81 74 82 75 83 76 84 55 85 56 86 64 87
REMARK SMILES IDX 57 88 63 89 65 90 62 91 58 92 59 93 60 94 61 95
REMARK H PARENT 21 7 26 29 85 48 53 59
REMARK Flexibility Score: inf
ROOT
ATOM      1  C   UNL A   1      36.087  21.569  25.473  1.00  0.00     0.023 C 
ENDROOT
BRANCH   1   2
ATOM      2  C   UNL A   1      35.174  22.447  26.329  1.00  0.00     0.023 C 
BRANCH   2   3
ATOM      3  C   UNL A   1      34.090  21.677  27.074  1.00  0.00     0.116 C 
BRANCH   3   4
ATOM      4  N   UNL A   1      33.534  20.606  26.267  1.00  0.00    -0.355 N 
ATOM      5  C   UNL A   1      32.466  20.582  25.421  1.00  0.00     0.237 C 
ATOM      6  O   UNL A   1      32.215  19.509  24.859  1.00  0.00    -0.273 OA
ATOM      7  H   UNL A   1      34.013  19.750  26.343  1.00  0.00     0.163 HD
BRANCH   5   8
ATOM      8  C   UNL A   1      31.622  21.823  25.097  1.00  0.00     0.169 C 
ATOM      9  C   UNL A   1      33.101  22.629  23.147  1.00  0.00     0.042 C 
ATOM     10  C   UNL A   1      32.381  22.933  24.423  1.00  0.00    -0.035 C 
ATOM     11  C   UNL A   1      32.318  24.124  25.035  1.00  0.00     0.073 C 
ATOM     12  C   UNL A   1      32.985  25.379  24.713  1.00  0.00     0.264 C 
ATOM     13  C   UNL A   1      31.465  24.142  26.207  1.00  0.00     0.116 C 
ATOM     14  S   UNL A   1      30.875  22.553  26.595  1.00  0.00    -0.087 SA
ATOM     15  O   UNL A   1      34.064  25.389  24.139  1.00  0.00    -0.268 OA
ATOM     16  N   UNL A   1      32.308  26.472  25.199  1.00  0.00    -0.256 N 
ATOM     17  N   UNL A   1      31.166  25.188  26.881  1.00  0.00    -0.186 NA
ATOM     18  C   UNL A   1      31.587  26.410  26.402  1.00  0.00     0.351 C 
ATOM     19  O   UNL A   1      31.298  27.434  27.018  1.00  0.00    -0.246 OA
BRANCH  16  20
ATOM     20  C   UNL A   1      32.277  27.727  24.446  1.00  0.00     0.163 C 
BRANCH  20  21
ATOM     21  C   UNL A   1      31.726  27.778  23.006  1.00  0.00     0.138 C 
ATOM     22  C   UNL A   1      30.390  27.092  22.739  1.00  0.00     0.036 C 
ATOM     23  O   UNL A   1      31.437  29.180  22.737  1.00  0.00    -0.376 OA
ATOM     24  C   UNL A   1      29.375  28.096  23.211  1.00  0.00     0.031 C 
ATOM     25  C   UNL A   1      30.020  29.403  22.824  1.00  0.00     0.160 C 
ENDBRANCH  20  21
ENDBRANCH  16  20
ENDBRANCH   5   8
ENDBRANCH   3   4
ENDBRANCH   2   3
ENDBRANCH   1   2
BRANCH   1  26
ATOM     26  C   UNL A   1      37.521  22.068  25.336  1.00  0.00     0.116 C 
BRANCH  26  27
ATOM     27  N   UNL A   1      38.516  21.079  25.726  1.00  0.00    -0.352 N 
ATOM     28  C   UNL A   1      39.698  21.281  26.398  1.00  0.00     0.251 C 
ATOM     29  H   UNL A   1      38.316  20.148  25.478  1.00  0.00     0.163 HD
ATOM     30  O   UNL A   1      40.483  20.352  26.556  1.00  0.00    -0.269 OA
BRANCH  28  31
ATOM     31  C   UNL A   1      40.025  22.638  26.883  1.00  0.00     0.039 A 
ATOM     32  C   UNL A   1      40.934  22.779  27.932  1.00  0.00     0.014 A 
ATOM     33  C   UNL A   1      39.478  23.763  26.261  1.00  0.00     0.014 A 
ATOM     34  C   UNL A   1      41.355  24.056  28.310  1.00  0.00     0.010 A 
ATOM     35  C   UNL A   1      39.948  25.029  26.592  1.00  0.00     0.010 A 
ATOM     36  C   UNL A   1      40.894  25.187  27.617  1.00  0.00    -0.014 A 
BRANCH  36  37
ATOM     37  C   UNL A   1      41.388  26.546  27.947  1.00  0.00     0.031 A 
ATOM     38  C   UNL A   1      42.803  26.930  27.620  1.00  0.00     0.074 A 
ATOM     39  C   UNL A   1      40.588  27.405  28.608  1.00  0.00     0.049 A 
ATOM     40  N   UNL A   1      43.450  28.033  27.896  1.00  0.00    -0.248 NA
ATOM     41  C   UNL A   1      43.605  25.918  26.918  1.00  0.00     0.031 C 
ATOM     42  C   UNL A   1      39.210  27.132  29.018  1.00  0.00     0.029 A 
ATOM     43  N   UNL A   1      40.822  28.679  29.056  1.00  0.00    -0.354 N 
ATOM     44  C   UNL A   1      44.741  27.844  27.414  1.00  0.00     0.074 A 
ATOM     45  C   UNL A   1      44.797  26.492  26.896  1.00  0.00     0.031 C 
ATOM     46  C   UNL A   1      38.712  28.218  29.632  1.00  0.00     0.029 A 
ATOM     47  C   UNL A   1      39.744  29.246  29.693  1.00  0.00     0.049 A 
ATOM     48  H   UNL A   1      41.682  29.144  28.934  1.00  0.00     0.167 HD
ATOM     49  C   UNL A   1      45.774  28.723  27.381  1.00  0.00     0.034 A 
ATOM     50  C   UNL A   1      39.607  30.458  30.265  1.00  0.00     0.034 A 
ATOM     51  C   UNL A   1      45.695  30.069  27.898  1.00  0.00     0.049 A 
ATOM     52  C   UNL A   1      40.773  31.410  30.248  1.00  0.00     0.074 A 
ATOM     53  C   UNL A   1      46.656  31.065  27.869  1.00  0.00     0.029 A 
ATOM     54  N   UNL A   1      44.591  30.605  28.550  1.00  0.00    -0.354 N 
ATOM     55  N   UNL A   1      41.974  31.235  29.751  1.00  0.00    -0.248 NA
ATOM     56  C   UNL A   1      40.558  32.724  30.868  1.00  0.00     0.031 C 
ATOM     57  C   UNL A   1      46.154  32.181  28.553  1.00  0.00     0.029 A 
ATOM     58  C   UNL A   1      44.857  31.905  28.952  1.00  0.00     0.049 A 
ATOM     59  H   UNL A   1      43.742  30.130  28.703  1.00  0.00     0.167 HD
ATOM     60  C   UNL A   1      42.652  32.430  29.974  1.00  0.00     0.074 A 
ATOM     61  C   UNL A   1      41.723  33.315  30.645  1.00  0.00     0.031 C 
ATOM     62  C   UNL A   1      43.926  32.767  29.643  1.00  0.00     0.034 A 
BRANCH  49  63
ATOM     63  C   UNL A   1      47.072  28.228  26.789  1.00  0.00     0.023 A 
ATOM     64  C   UNL A   1      47.314  28.280  25.403  1.00  0.00     0.031 A 
ATOM     65  C   UNL A   1      48.047  27.623  27.601  1.00  0.00     0.131 A 
ATOM     66  C   UNL A   1      48.438  27.640  24.862  1.00  0.00     0.055 A 
ATOM     67  C   UNL A   1      49.213  27.072  27.065  1.00  0.00     0.041 A 
ATOM     68  F   UNL A   1      47.867  27.526  28.927  1.00  0.00    -0.206 F 
ATOM     69  C   UNL A   1      49.403  27.056  25.685  1.00  0.00     0.022 A 
BRANCH  66  70
ATOM     70  S   UNL A   1      48.516  27.410  23.064  1.00  0.00     0.124 S 
ATOM     71  O   UNL A   1      48.434  25.955  22.949  1.00  0.00    -0.237 OA
ATOM     72  O   UNL A   1      47.351  28.155  22.601  1.00  0.00    -0.237 OA
ATOM     73  O   UNL A   1      49.810  27.983  22.701  1.00  0.00    -0.744 OA
ENDBRANCH  66  70
ENDBRANCH  49  63
BRANCH  50  74
ATOM     74  C   UNL A   1      38.315  30.847  30.891  1.00  0.00     0.023 A 
ATOM     75  C   UNL A   1      37.351  31.558  30.160  1.00  0.00     0.031 A 
ATOM     76  C   UNL A   1      38.029  30.523  32.229  1.00  0.00     0.131 A 
ATOM     77  C   UNL A   1      36.155  31.950  30.779  1.00  0.00     0.055 A 
ATOM     78  C   UNL A   1      36.822  30.883  32.829  1.00  0.00     0.041 A 
ATOM     79  F   UNL A   1      38.915  29.833  32.964  1.00  0.00    -0.206 F 
ATOM     80  C   UNL A   1      35.880  31.609  32.105  1.00  0.00     0.022 A 
BRANCH  77  81
ATOM     81  S   UNL A   1      34.975  32.950  29.832  1.00  0.00     0.124 S 
ATOM     82  O   UNL A   1      34.453  31.974  28.883  1.00  0.00    -0.237 OA
ATOM     83  O   UNL A   1      34.052  33.394  30.870  1.00  0.00    -0.237 OA
ATOM     84  O   UNL A   1      35.809  34.001  29.253  1.00  0.00    -0.744 OA
ENDBRANCH  77  81
ENDBRANCH  50  74
BRANCH  62  85
ATOM     85  C   UNL A   1      44.362  34.171  29.977  1.00  0.00     0.023 A 
ATOM     86  C   UNL A   1      44.129  35.245  29.100  1.00  0.00     0.031 A 
ATOM     87  C   UNL A   1      45.043  34.431  31.180  1.00  0.00     0.131 A 
ATOM     88  C   UNL A   1      44.616  36.522  29.417  1.00  0.00     0.055 A 
ATOM     89  C   UNL A   1      45.480  35.714  31.513  1.00  0.00     0.041 A 
ATOM     90  F   UNL A   1      45.293  33.440  32.050  1.00  0.00    -0.206 F 
ATOM     91  C   UNL A   1      45.278  36.766  30.624  1.00  0.00     0.022 A 
BRANCH  88  92
ATOM     92  S   UNL A   1      44.447  37.849  28.191  1.00  0.00     0.124 S 
ATOM     93  O   UNL A   1      43.539  38.771  28.864  1.00  0.00    -0.237 OA
ATOM     94  O   UNL A   1      45.824  38.310  28.038  1.00  0.00    -0.237 OA
ATOM     95  O   UNL A   1      43.888  37.169  27.024  1.00  0.00    -0.744 OA
ENDBRANCH  88  92
ENDBRANCH  62  85
ENDBRANCH  36  37
ENDBRANCH  28  31
ENDBRANCH  26  27
ENDBRANCH   1  26
TORSDOF 16
ENDMDL
MODEL 3
REMARK VINA RESULT:     -12.3      5.614      8.693
REMARK SMILES CC1=C2C(=O)N(C[C@H]3CCCO3)C(=O)N=C2S[C@@H]1C(=O)NCCCCNC(=O)c1ccc(-c2c3nc(c(-c4cc(S(=O)(=O)[O-])ccc4F)c4ccc([nH]4)c(-c4cc(S(=O)(=O)[O-])ccc4F)c4nc(c(-c5cc(S(=O)(=O)[O-])ccc5F)c5ccc2[nH]5)C=C4)C=C3)cc1
REMARK SMILES IDX 24 1 23 2 22 3 21 4 19 5 20 6 18 8 1 9 2 10 3 11 4 12 16 13
REMARK SMILES IDX 17 14 5 15 6 16 15 17 13 18 14 19 7 20 8 21 9 22 12 23 10 24
REMARK SMILES IDX 11 25 25 26 26 27 27 28 28 30 29 31 30 32 91 33 31 34 90 35
REMARK SMILES IDX 32 36 33 37 34 38 84 39 35 40 89 41 83 42 85 43 36 44 88 45
REMARK SMILES IDX 82 46 81 47 37 49 69 50 49 51 68 52 50 53 53 54 67 55 86 56
REMARK SMILES IDX 51 57 52 58 66 60 87 61 54 62 38 63 39 64 47 65 40 66 46 67
REMARK SMILES IDX 48 68 45 69 41 70 42 71 43 72 44 73 70 74 71 75 79 76 72 77
REMARK SMILES IDX 78 78 80 79 77 80 73 81 74 82 75 83 76 84 55 85 56 86 64 87
REMARK SMILES IDX 57 88 63 89 65 90 62 91 58 92 59 93 60 94 61 95
REMARK H PARENT 21 7 26 29 85 48 53 59
REMARK Flexibility Score: inf
ROOT
ATOM      1  C   UNL A   1      38.116  20.928  24.982  1.00  0.00     0.023 C 
ENDROOT
BRANCH   1   2
ATOM      2  C   UNL A   1      36.970  19.918  25.001  1.00  0.00     0.023 C 
BRANCH   2   3
ATOM      3  C   UNL A   1      35.583  20.549  24.994  1.00  0.00     0.116 C 
BRANCH   3   4
ATOM      4  N   UNL A   1      34.535  19.552  25.114  1.00  0.00    -0.355 N 
ATOM      5  C   UNL A   1      33.186  19.682  25.265  1.00  0.00     0.237 C 
ATOM      6  O   UNL A   1      32.524  18.641  25.348  1.00  0.00    -0.273 OA
ATOM      7  H   UNL A   1      34.853  18.622  25.080  1.00  0.00     0.163 HD
BRANCH   5   8
ATOM      8  C   UNL A   1      32.469  21.039  25.271  1.00  0.00     0.169 C 
ATOM      9  C   UNL A   1      32.147  21.163  22.718  1.00  0.00     0.042 C 
ATOM     10  C   UNL A   1      32.593  21.815  23.989  1.00  0.00    -0.035 C 
ATOM     11  C   UNL A   1      33.084  23.057  24.115  1.00  0.00     0.073 C 
ATOM     12  C   UNL A   1      33.410  24.044  23.094  1.00  0.00     0.264 C 
ATOM     13  C   UNL A   1      33.341  23.453  25.486  1.00  0.00     0.116 C 
ATOM     14  S   UNL A   1      33.089  22.136  26.593  1.00  0.00    -0.087 SA
ATOM     15  O   UNL A   1      33.741  23.699  21.969  1.00  0.00    -0.268 OA
ATOM     16  N   UNL A   1      33.379  25.329  23.579  1.00  0.00    -0.256 N 
ATOM     17  N   UNL A   1      33.702  24.624  25.854  1.00  0.00    -0.186 NA
ATOM     18  C   UNL A   1      33.743  25.620  24.903  1.00  0.00     0.351 C 
ATOM     19  O   UNL A   1      34.068  26.759  25.232  1.00  0.00    -0.246 OA
BRANCH  16  20
ATOM     20  C   UNL A   1      32.914  26.433  22.737  1.00  0.00     0.163 C 
BRANCH  20  21
ATOM     21  C   UNL A   1      31.426  26.569  22.353  1.00  0.00     0.138 C 
ATOM     22  C   UNL A   1      30.394  26.016  23.330  1.00  0.00     0.036 C 
ATOM     23  O   UNL A   1      31.143  27.998  22.347  1.00  0.00    -0.376 OA
ATOM     24  C   UNL A   1      30.270  27.097  24.367  1.00  0.00     0.031 C 
ATOM     25  C   UNL A   1      30.419  28.349  23.538  1.00  0.00     0.160 C 
ENDBRANCH  20  21
ENDBRANCH  16  20
ENDBRANCH   5   8
ENDBRANCH   3   4
ENDBRANCH   2   3
ENDBRANCH   1   2
BRANCH   1  26
ATOM     26  C   UNL A   1      39.108  20.804  26.133  1.00  0.00     0.116 C 
BRANCH  26  27
ATOM     27  N   UNL A   1      39.985  19.647  26.018  1.00  0.00    -0.352 N 
ATOM     28  C   UNL A   1      41.358  19.611  26.076  1.00  0.00     0.251 C 
ATOM     29  H   UNL A   1      39.537  18.782  25.882  1.00  0.00     0.163 HD
ATOM     30  O   UNL A   1      41.956  18.564  25.850  1.00  0.00    -0.269 OA
BRANCH  28  31
ATOM     31  C   UNL A   1      42.097  20.856  26.367  1.00  0.00     0.039 A 
ATOM     32  C   UNL A   1      42.510  21.660  25.303  1.00  0.00     0.014 A 
ATOM     33  C   UNL A   1      42.325  21.253  27.687  1.00  0.00     0.014 A 
ATOM     34  C   UNL A   1      43.088  22.904  25.565  1.00  0.00     0.010 A 
ATOM     35  C   UNL A   1      42.837  22.519  27.946  1.00  0.00     0.010 A 
ATOM     36  C   UNL A   1      43.220  23.358  26.888  1.00  0.00    -0.014 A 
BRANCH  36  37
ATOM     37  C   UNL A   1      43.756  24.708  27.188  1.00  0.00     0.031 A 
ATOM     38  C   UNL A   1      42.848  25.771  27.737  1.00  0.00     0.074 A 
ATOM     39  C   UNL A   1      45.038  24.998  26.894  1.00  0.00     0.049 A 
ATOM     40  N   UNL A   1      43.098  27.030  27.989  1.00  0.00    -0.248 NA
ATOM     41  C   UNL A   1      41.460  25.366  28.004  1.00  0.00     0.031 C 
ATOM     42  C   UNL A   1      46.006  24.063  26.318  1.00  0.00     0.029 A 
ATOM     43  N   UNL A   1      45.746  26.164  27.035  1.00  0.00    -0.354 N 
ATOM     44  C   UNL A   1      41.897  27.572  28.433  1.00  0.00     0.074 A 
ATOM     45  C   UNL A   1      40.907  26.519  28.342  1.00  0.00     0.031 C 
ATOM     46  C   UNL A   1      47.189  24.684  26.182  1.00  0.00     0.029 A 
ATOM     47  C   UNL A   1      47.054  26.068  26.623  1.00  0.00     0.049 A 
ATOM     48  H   UNL A   1      45.353  26.992  27.396  1.00  0.00     0.167 HD
ATOM     49  C   UNL A   1      41.649  28.823  28.896  1.00  0.00     0.034 A 
ATOM     50  C   UNL A   1      48.031  26.995  26.600  1.00  0.00     0.034 A 
ATOM     51  C   UNL A   1      42.652  29.858  28.984  1.00  0.00     0.049 A 
ATOM     52  C   UNL A   1      47.730  28.386  27.089  1.00  0.00     0.074 A 
ATOM     53  C   UNL A   1      42.530  31.141  29.489  1.00  0.00     0.029 A 
ATOM     54  N   UNL A   1      43.964  29.729  28.544  1.00  0.00    -0.354 N 
ATOM     55  N   UNL A   1      46.602  28.875  27.546  1.00  0.00    -0.248 NA
ATOM     56  C   UNL A   1      48.840  29.347  27.062  1.00  0.00     0.031 C 
ATOM     57  C   UNL A   1      43.750  31.805  29.301  1.00  0.00     0.029 A 
ATOM     58  C   UNL A   1      44.653  30.918  28.739  1.00  0.00     0.049 A 
ATOM     59  H   UNL A   1      44.349  28.913  28.152  1.00  0.00     0.167 HD
ATOM     60  C   UNL A   1      46.873  30.196  27.887  1.00  0.00     0.074 A 
ATOM     61  C   UNL A   1      48.273  30.423  27.586  1.00  0.00     0.031 C 
ATOM     62  C   UNL A   1      46.042  31.135  28.411  1.00  0.00     0.034 A 
BRANCH  49  63
ATOM     63  C   UNL A   1      40.229  29.127  29.312  1.00  0.00     0.023 A 
ATOM     64  C   UNL A   1      39.841  29.113  30.666  1.00  0.00     0.031 A 
ATOM     65  C   UNL A   1      39.231  29.351  28.348  1.00  0.00     0.131 A 
ATOM     66  C   UNL A   1      38.484  29.205  31.008  1.00  0.00     0.055 A 
ATOM     67  C   UNL A   1      37.893  29.539  28.703  1.00  0.00     0.041 A 
ATOM     68  F   UNL A   1      39.532  29.357  27.041  1.00  0.00    -0.206 F 
ATOM     69  C   UNL A   1      37.509  29.442  30.038  1.00  0.00     0.022 A 
BRANCH  66  70
ATOM     70  S   UNL A   1      37.998  28.812  32.711  1.00  0.00     0.124 S 
ATOM     71  O   UNL A   1      38.987  29.563  33.481  1.00  0.00    -0.237 OA
ATOM     72  O   UNL A   1      36.629  29.310  32.770  1.00  0.00    -0.237 OA
ATOM     73  O   UNL A   1      38.139  27.359  32.781  1.00  0.00    -0.744 OA
ENDBRANCH  66  70
ENDBRANCH  49  63
BRANCH  50  74
ATOM     74  C   UNL A   1      49.389  26.636  26.110  1.00  0.00     0.023 A 
ATOM     75  C   UNL A   1      49.827  27.054  24.845  1.00  0.00     0.031 A 
ATOM     76  C   UNL A   1      50.263  25.862  26.894  1.00  0.00     0.131 A 
ATOM     77  C   UNL A   1      51.096  26.672  24.384  1.00  0.00     0.055 A 
ATOM     78  C   UNL A   1      51.539  25.516  26.446  1.00  0.00     0.041 A 
ATOM     79  F   UNL A   1      49.892  25.450  28.116  1.00  0.00    -0.206 F 
ATOM     80  C   UNL A   1      51.958  25.914  25.180  1.00  0.00     0.022 A 
BRANCH  77  81
ATOM     81  S   UNL A   1      51.590  27.150  22.706  1.00  0.00     0.124 S 
ATOM     82  O   UNL A   1      51.836  28.579  22.865  1.00  0.00    -0.237 OA
ATOM     83  O   UNL A   1      52.768  26.317  22.487  1.00  0.00    -0.237 OA
ATOM     84  O   UNL A   1      50.425  26.802  21.897  1.00  0.00    -0.744 OA
ENDBRANCH  77  81
ENDBRANCH  50  74
BRANCH  62  85
ATOM     85  C   UNL A   1      46.650  32.478  28.722  1.00  0.00     0.023 A 
ATOM     86  C   UNL A   1      46.562  33.556  27.823  1.00  0.00     0.031 A 
ATOM     87  C   UNL A   1      47.349  32.674  29.927  1.00  0.00     0.131 A 
ATOM     88  C   UNL A   1      47.205  34.767  28.120  1.00  0.00     0.055 A 
ATOM     89  C   UNL A   1      47.943  33.898  30.240  1.00  0.00     0.041 A 
ATOM     90  F   UNL A   1      47.465  31.677  30.818  1.00  0.00    -0.206 F 
ATOM     91  C   UNL A   1      47.883  34.949  29.329  1.00  0.00     0.022 A 
BRANCH  88  92
ATOM     92  S   UNL A   1      47.216  36.079  26.868  1.00  0.00     0.124 S 
ATOM     93  O   UNL A   1      48.502  36.723  27.113  1.00  0.00    -0.237 OA
ATOM     94  O   UNL A   1      47.108  35.324  25.623  1.00  0.00    -0.237 OA
ATOM     95  O   UNL A   1      46.044  36.886  27.206  1.00  0.00    -0.744 OA
ENDBRANCH  88  92
ENDBRANCH  62  85
ENDBRANCH  36  37
ENDBRANCH  28  31
ENDBRANCH  26  27
ENDBRANCH   1  26
TORSDOF 16
ENDMDL
