MODEL 1
REMARK VINA RESULT:     -10.9      0.000      0.000
REMARK SMILES CCCC1CN(c2ccc(C(=O)NCC(=O)NCCCCNC(=O)c3ccc(-c4c5nc(c(-c6cc(S(=O)(=O)[O-])ccc6F)c6ccc([nH]6)c(-c6cc(S(=O)(=O)[O-])ccc6F)c6nc(c(-c7cc(S(=O)(=O)[O-])ccc7F)c7ccc4[nH]7)C=C6)C=C5)cc3)cc2)C1
REMARK SMILES IDX 18 1 17 2 15 3 16 4 14 6 13 7 11 8 12 9 10 11 7 12 8 13
REMARK SMILES IDX 89 14 9 15 88 16 6 17 4 18 5 19 90 20 3 21 2 22 1 23 19 24
REMARK SMILES IDX 20 25 21 26 22 27 23 28 24 30 25 31 26 32 87 33 27 34 86 35
REMARK SMILES IDX 28 36 29 37 30 38 80 39 31 40 85 41 79 42 81 43 32 44 84 45
REMARK SMILES IDX 78 46 77 47 33 49 65 50 45 51 64 52 46 53 49 54 63 55 82 56
REMARK SMILES IDX 47 57 48 58 62 60 83 61 50 62 34 63 35 64 43 65 36 66 42 67
REMARK SMILES IDX 44 68 41 69 37 70 38 71 39 72 40 73 66 74 67 75 75 76 68 77
REMARK SMILES IDX 74 78 76 79 73 80 69 81 70 82 71 83 72 84 51 85 52 86 60 87
REMARK SMILES IDX 53 88 59 89 61 90 58 91 54 92 55 93 56 94 57 95
REMARK H PARENT 17 5 13 10 22 29 81 48 49 59
REMARK Flexibility Score: inf
ROOT
ATOM      1  C   UNL A   1      32.493  30.077  25.826  1.00  0.00     0.116 C 
ENDROOT
BRANCH   1   2
ATOM      2  N   UNL A   1      31.627  29.974  24.671  1.00  0.00    -0.355 N 
ATOM      3  C   UNL A   1      31.085  28.891  24.054  1.00  0.00     0.239 C 
ATOM      4  O   UNL A   1      30.222  29.113  23.196  1.00  0.00    -0.273 OA
ATOM      5  H   UNL A   1      31.388  30.838  24.262  1.00  0.00     0.163 HD
BRANCH   3   6
ATOM      6  C   UNL A   1      31.374  27.437  24.468  1.00  0.00     0.216 C 
BRANCH   6   7
ATOM      7  N   UNL A   1      30.430  26.738  25.321  1.00  0.00    -0.343 N 
ATOM      8  C   UNL A   1      30.246  25.451  25.744  1.00  0.00     0.251 C 
ATOM      9  O   UNL A   1      29.365  25.295  26.592  1.00  0.00    -0.269 OA
ATOM     10  H   UNL A   1      29.749  27.346  25.689  1.00  0.00     0.164 HD
BRANCH   8  11
ATOM     11  C   UNL A   1      30.974  24.240  25.241  1.00  0.00     0.039 A 
ATOM     12  C   UNL A   1      32.335  21.834  24.550  1.00  0.00     0.037 A 
ATOM     13  C   UNL A   1      32.240  22.242  25.881  1.00  0.00     0.027 A 
ATOM     14  C   UNL A   1      31.728  22.629  23.578  1.00  0.00     0.027 A 
ATOM     15  C   UNL A   1      31.587  23.435  26.218  1.00  0.00     0.016 A 
ATOM     16  C   UNL A   1      31.037  23.801  23.918  1.00  0.00     0.016 A 
BRANCH  12  17
ATOM     17  N   UNL A   1      33.016  20.654  24.225  1.00  0.00    -0.371 N 
ATOM     18  C   UNL A   1      33.408  18.671  24.656  1.00  0.00     0.028 C 
ATOM     19  C   UNL A   1      34.041  20.027  25.005  1.00  0.00     0.122 C 
ATOM     20  C   UNL A   1      32.540  19.437  23.652  1.00  0.00     0.122 C 
BRANCH  18  21
ATOM     21  C   UNL A   1      34.297  17.583  24.070  1.00  0.00     0.007 C 
BRANCH  21  22
ATOM     22  C   UNL A   1      34.247  16.295  24.894  1.00  0.00    -0.003 C 
ATOM     23  C   UNL A   1      35.613  15.828  25.376  1.00  0.00     0.004 C 
ENDBRANCH  21  22
ENDBRANCH  18  21
ENDBRANCH  12  17
ENDBRANCH   8  11
ENDBRANCH   6   7
ENDBRANCH   3   6
ENDBRANCH   1   2
BRANCH   1  24
ATOM     24  C   UNL A   1      32.059  31.162  26.805  1.00  0.00     0.023 C 
BRANCH  24  25
ATOM     25  C   UNL A   1      33.188  31.715  27.677  1.00  0.00     0.023 C 
BRANCH  25  26
ATOM     26  C   UNL A   1      33.717  33.091  27.280  1.00  0.00     0.116 C 
BRANCH  26  27
ATOM     27  N   UNL A   1      33.030  34.192  27.938  1.00  0.00    -0.352 N 
ATOM     28  C   UNL A   1      33.266  34.726  29.186  1.00  0.00     0.251 C 
ATOM     29  H   UNL A   1      32.302  34.610  27.424  1.00  0.00     0.163 HD
ATOM     30  O   UNL A   1      32.530  35.597  29.634  1.00  0.00    -0.269 OA
BRANCH  28  31
ATOM     31  C   UNL A   1      34.390  34.201  29.993  1.00  0.00     0.039 A 
ATOM     32  C   UNL A   1      34.109  33.374  31.083  1.00  0.00     0.014 A 
ATOM     33  C   UNL A   1      35.712  34.476  29.635  1.00  0.00     0.014 A 
ATOM     34  C   UNL A   1      35.157  32.748  31.760  1.00  0.00     0.010 A 
ATOM     35  C   UNL A   1      36.751  33.805  30.272  1.00  0.00     0.010 A 
ATOM     36  C   UNL A   1      36.483  32.920  31.329  1.00  0.00    -0.014 A 
BRANCH  36  37
ATOM     37  C   UNL A   1      37.604  32.164  31.946  1.00  0.00     0.031 A 
ATOM     38  C   UNL A   1      38.115  32.551  33.305  1.00  0.00     0.074 A 
ATOM     39  C   UNL A   1      38.216  31.189  31.245  1.00  0.00     0.049 A 
ATOM     40  N   UNL A   1      39.153  32.098  33.960  1.00  0.00    -0.248 NA
ATOM     41  C   UNL A   1      37.373  33.608  34.006  1.00  0.00     0.031 C 
ATOM     42  C   UNL A   1      37.830  30.742  29.904  1.00  0.00     0.029 A 
ATOM     43  N   UNL A   1      39.299  30.406  31.555  1.00  0.00    -0.354 N 
ATOM     44  C   UNL A   1      39.197  32.821  35.146  1.00  0.00     0.074 A 
ATOM     45  C   UNL A   1      38.115  33.782  35.088  1.00  0.00     0.031 C 
ATOM     46  C   UNL A   1      38.653  29.754  29.517  1.00  0.00     0.029 A 
ATOM     47  C   UNL A   1      39.653  29.529  30.556  1.00  0.00     0.049 A 
ATOM     48  H   UNL A   1      39.779  30.466  32.414  1.00  0.00     0.167 HD
ATOM     49  C   UNL A   1      40.045  32.680  36.196  1.00  0.00     0.034 A 
ATOM     50  C   UNL A   1      40.678  28.658  30.477  1.00  0.00     0.034 A 
ATOM     51  C   UNL A   1      41.116  31.714  36.240  1.00  0.00     0.049 A 
ATOM     52  C   UNL A   1      41.645  28.560  31.628  1.00  0.00     0.074 A 
ATOM     53  C   UNL A   1      41.998  31.448  37.273  1.00  0.00     0.029 A 
ATOM     54  N   UNL A   1      41.459  30.860  35.198  1.00  0.00    -0.354 N 
ATOM     55  N   UNL A   1      41.650  29.225  32.760  1.00  0.00    -0.248 NA
ATOM     56  C   UNL A   1      42.745  27.597  31.488  1.00  0.00     0.031 C 
ATOM     57  C   UNL A   1      42.911  30.481  36.835  1.00  0.00     0.029 A 
ATOM     58  C   UNL A   1      42.560  30.094  35.551  1.00  0.00     0.049 A 
ATOM     59  H   UNL A   1      40.989  30.808  34.335  1.00  0.00     0.167 HD
ATOM     60  C   UNL A   1      42.740  28.741  33.478  1.00  0.00     0.074 A 
ATOM     61  C   UNL A   1      43.360  27.723  32.655  1.00  0.00     0.031 C 
ATOM     62  C   UNL A   1      43.183  29.099  34.710  1.00  0.00     0.034 A 
BRANCH  49  63
ATOM     63  C   UNL A   1      39.854  33.617  37.365  1.00  0.00     0.023 A 
ATOM     64  C   UNL A   1      39.173  33.213  38.526  1.00  0.00     0.031 A 
ATOM     65  C   UNL A   1      40.315  34.944  37.300  1.00  0.00     0.131 A 
ATOM     66  C   UNL A   1      38.891  34.147  39.534  1.00  0.00     0.055 A 
ATOM     67  C   UNL A   1      40.106  35.846  38.346  1.00  0.00     0.041 A 
ATOM     68  F   UNL A   1      40.955  35.394  36.210  1.00  0.00    -0.206 F 
ATOM     69  C   UNL A   1      39.375  35.455  39.464  1.00  0.00     0.022 A 
BRANCH  66  70
ATOM     70  S   UNL A   1      37.748  33.668  40.859  1.00  0.00     0.124 S 
ATOM     71  O   UNL A   1      36.656  33.062  40.101  1.00  0.00    -0.237 OA
ATOM     72  O   UNL A   1      38.556  32.755  41.658  1.00  0.00    -0.237 OA
ATOM     73  O   UNL A   1      37.419  34.938  41.502  1.00  0.00    -0.744 OA
ENDBRANCH  66  70
ENDBRANCH  49  63
BRANCH  50  74
ATOM     74  C   UNL A   1      40.862  27.819  29.260  1.00  0.00     0.023 A 
ATOM     75  C   UNL A   1      41.826  28.153  28.296  1.00  0.00     0.031 A 
ATOM     76  C   UNL A   1      40.054  26.693  29.024  1.00  0.00     0.131 A 
ATOM     77  C   UNL A   1      41.933  27.393  27.122  1.00  0.00     0.055 A 
ATOM     78  C   UNL A   1      40.195  25.912  27.876  1.00  0.00     0.041 A 
ATOM     79  F   UNL A   1      39.120  26.328  29.918  1.00  0.00    -0.206 F 
ATOM     80  C   UNL A   1      41.132  26.268  26.911  1.00  0.00     0.022 A 
BRANCH  77  81
ATOM     81  S   UNL A   1      43.094  27.935  25.838  1.00  0.00     0.124 S 
ATOM     82  O   UNL A   1      43.490  29.250  26.333  1.00  0.00    -0.237 OA
ATOM     83  O   UNL A   1      44.115  26.894  25.894  1.00  0.00    -0.237 OA
ATOM     84  O   UNL A   1      42.281  27.944  24.624  1.00  0.00    -0.744 OA
ENDBRANCH  77  81
ENDBRANCH  50  74
BRANCH  62  85
ATOM     85  C   UNL A   1      44.378  28.355  35.247  1.00  0.00     0.023 A 
ATOM     86  C   UNL A   1      45.686  28.843  35.080  1.00  0.00     0.031 A 
ATOM     87  C   UNL A   1      44.206  27.137  35.928  1.00  0.00     0.131 A 
ATOM     88  C   UNL A   1      46.775  28.094  35.549  1.00  0.00     0.055 A 
ATOM     89  C   UNL A   1      45.290  26.422  36.437  1.00  0.00     0.041 A 
ATOM     90  F   UNL A   1      42.978  26.627  36.113  1.00  0.00    -0.206 F 
ATOM     91  C   UNL A   1      46.585  26.895  36.240  1.00  0.00     0.022 A 
BRANCH  88  92
ATOM     92  S   UNL A   1      48.455  28.675  35.188  1.00  0.00     0.124 S 
ATOM     93  O   UNL A   1      48.612  29.763  36.150  1.00  0.00    -0.237 OA
ATOM     94  O   UNL A   1      49.260  27.484  35.437  1.00  0.00    -0.237 OA
ATOM     95  O   UNL A   1      48.382  29.091  33.788  1.00  0.00    -0.744 OA
ENDBRANCH  88  92
ENDBRANCH  62  85
ENDBRANCH  36  37
ENDBRANCH  28  31
ENDBRANCH  26  27
ENDBRANCH  25  26
ENDBRANCH  24  25
ENDBRANCH   1  24
TORSDOF 19
ENDMDL
MODEL 2
REMARK VINA RESULT:     -10.6      5.586     10.889
REMARK SMILES CCCC1CN(c2ccc(C(=O)NCC(=O)NCCCCNC(=O)c3ccc(-c4c5nc(c(-c6cc(S(=O)(=O)[O-])ccc6F)c6ccc([nH]6)c(-c6cc(S(=O)(=O)[O-])ccc6F)c6nc(c(-c7cc(S(=O)(=O)[O-])ccc7F)c7ccc4[nH]7)C=C6)C=C5)cc3)cc2)C1
REMARK SMILES IDX 18 1 17 2 15 3 16 4 14 6 13 7 11 8 12 9 10 11 7 12 8 13
REMARK SMILES IDX 89 14 9 15 88 16 6 17 4 18 5 19 90 20 3 21 2 22 1 23 19 24
REMARK SMILES IDX 20 25 21 26 22 27 23 28 24 30 25 31 26 32 87 33 27 34 86 35
REMARK SMILES IDX 28 36 29 37 30 38 80 39 31 40 85 41 79 42 81 43 32 44 84 45
REMARK SMILES IDX 78 46 77 47 33 49 65 50 45 51 64 52 46 53 49 54 63 55 82 56
REMARK SMILES IDX 47 57 48 58 62 60 83 61 50 62 34 63 35 64 43 65 36 66 42 67
REMARK SMILES IDX 44 68 41 69 37 70 38 71 39 72 40 73 66 74 67 75 75 76 68 77
REMARK SMILES IDX 74 78 76 79 73 80 69 81 70 82 71 83 72 84 51 85 52 86 60 87
REMARK SMILES IDX 53 88 59 89 61 90 58 91 54 92 55 93 56 94 57 95
REMARK H PARENT 17 5 13 10 22 29 81 48 49 59
REMARK Flexibility Score: inf
ROOT
ATOM      1  C   UNL A   1      43.676  23.105  28.866  1.00  0.00     0.116 C 
ENDROOT
BRANCH   1   2
ATOM      2  N   UNL A   1      43.071  22.080  28.043  1.00  0.00    -0.355 N 
ATOM      3  C   UNL A   1      41.927  22.084  27.310  1.00  0.00     0.239 C 
ATOM      4  O   UNL A   1      41.751  21.126  26.546  1.00  0.00    -0.273 OA
ATOM      5  H   UNL A   1      43.575  21.234  28.008  1.00  0.00     0.163 HD
BRANCH   3   6
ATOM      6  C   UNL A   1      40.940  23.265  27.270  1.00  0.00     0.216 C 
BRANCH   6   7
ATOM      7  N   UNL A   1      41.052  24.252  26.212  1.00  0.00    -0.343 N 
ATOM      8  C   UNL A   1      41.113  25.616  26.135  1.00  0.00     0.251 C 
ATOM      9  O   UNL A   1      41.338  26.072  25.011  1.00  0.00    -0.269 OA
ATOM     10  H   UNL A   1      41.097  23.832  25.322  1.00  0.00     0.164 HD
BRANCH   8  11
ATOM     11  C   UNL A   1      40.888  26.578  27.262  1.00  0.00     0.039 A 
ATOM     12  C   UNL A   1      40.320  28.570  29.218  1.00  0.00     0.037 A 
ATOM     13  C   UNL A   1      40.263  28.872  27.858  1.00  0.00     0.027 A 
ATOM     14  C   UNL A   1      40.644  27.264  29.586  1.00  0.00     0.027 A 
ATOM     15  C   UNL A   1      40.561  27.897  26.896  1.00  0.00     0.016 A 
ATOM     16  C   UNL A   1      40.900  26.276  28.624  1.00  0.00     0.016 A 
BRANCH  12  17
ATOM     17  N   UNL A   1      40.048  29.563  30.169  1.00  0.00    -0.371 N 
ATOM     18  C   UNL A   1      38.672  30.832  31.045  1.00  0.00     0.028 C 
ATOM     19  C   UNL A   1      39.685  30.921  29.893  1.00  0.00     0.122 C 
ATOM     20  C   UNL A   1      39.331  29.495  31.401  1.00  0.00     0.122 C 
BRANCH  18  21
ATOM     21  C   UNL A   1      38.710  31.899  32.130  1.00  0.00     0.007 C 
BRANCH  21  22
ATOM     22  C   UNL A   1      37.398  32.682  32.212  1.00  0.00    -0.003 C 
ATOM     23  C   UNL A   1      36.224  31.852  32.711  1.00  0.00     0.004 C 
ENDBRANCH  21  22
ENDBRANCH  18  21
ENDBRANCH  12  17
ENDBRANCH   8  11
ENDBRANCH   6   7
ENDBRANCH   3   6
ENDBRANCH   1   2
BRANCH   1  24
ATOM     24  C   UNL A   1      44.813  23.841  28.166  1.00  0.00     0.023 C 
BRANCH  24  25
ATOM     25  C   UNL A   1      45.266  23.202  26.851  1.00  0.00     0.023 C 
BRANCH  25  26
ATOM     26  C   UNL A   1      44.847  23.937  25.580  1.00  0.00     0.116 C 
BRANCH  26  27
ATOM     27  N   UNL A   1      45.961  24.539  24.862  1.00  0.00    -0.352 N 
ATOM     28  C   UNL A   1      46.483  25.807  24.998  1.00  0.00     0.251 C 
ATOM     29  H   UNL A   1      46.399  23.965  24.193  1.00  0.00     0.163 HD
ATOM     30  O   UNL A   1      47.369  26.193  24.246  1.00  0.00    -0.269 OA
BRANCH  28  31
ATOM     31  C   UNL A   1      45.927  26.707  26.032  1.00  0.00     0.039 A 
ATOM     32  C   UNL A   1      44.603  27.137  25.912  1.00  0.00     0.014 A 
ATOM     33  C   UNL A   1      46.691  27.071  27.144  1.00  0.00     0.014 A 
ATOM     34  C   UNL A   1      44.017  27.859  26.953  1.00  0.00     0.010 A 
ATOM     35  C   UNL A   1      46.087  27.738  28.205  1.00  0.00     0.010 A 
ATOM     36  C   UNL A   1      44.739  28.122  28.128  1.00  0.00    -0.014 A 
BRANCH  36  37
ATOM     37  C   UNL A   1      44.100  28.771  29.303  1.00  0.00     0.031 A 
ATOM     38  C   UNL A   1      43.752  30.233  29.259  1.00  0.00     0.074 A 
ATOM     39  C   UNL A   1      43.915  28.065  30.436  1.00  0.00     0.049 A 
ATOM     40  N   UNL A   1      43.303  31.006  30.214  1.00  0.00    -0.248 NA
ATOM     41  C   UNL A   1      43.965  30.917  27.976  1.00  0.00     0.031 C 
ATOM     42  C   UNL A   1      44.240  26.648  30.611  1.00  0.00     0.029 A 
ATOM     43  N   UNL A   1      43.422  28.445  31.659  1.00  0.00    -0.354 N 
ATOM     44  C   UNL A   1      43.190  32.273  29.652  1.00  0.00     0.074 A 
ATOM     45  C   UNL A   1      43.676  32.169  28.291  1.00  0.00     0.031 C 
ATOM     46  C   UNL A   1      43.921  26.275  31.861  1.00  0.00     0.029 A 
ATOM     47  C   UNL A   1      43.416  27.433  32.592  1.00  0.00     0.049 A 
ATOM     48  H   UNL A   1      43.102  29.357  31.851  1.00  0.00     0.167 HD
ATOM     49  C   UNL A   1      42.704  33.410  30.211  1.00  0.00     0.034 A 
ATOM     50  C   UNL A   1      43.064  27.443  33.892  1.00  0.00     0.034 A 
ATOM     51  C   UNL A   1      42.219  33.494  31.567  1.00  0.00     0.049 A 
ATOM     52  C   UNL A   1      42.584  28.730  34.510  1.00  0.00     0.074 A 
ATOM     53  C   UNL A   1      41.654  34.579  32.217  1.00  0.00     0.029 A 
ATOM     54  N   UNL A   1      42.252  32.455  32.489  1.00  0.00    -0.354 N 
ATOM     55  N   UNL A   1      42.446  29.911  33.954  1.00  0.00    -0.248 NA
ATOM     56  C   UNL A   1      42.215  28.685  35.931  1.00  0.00     0.031 C 
ATOM     57  C   UNL A   1      41.405  34.215  33.546  1.00  0.00     0.029 A 
ATOM     58  C   UNL A   1      41.752  32.883  33.710  1.00  0.00     0.049 A 
ATOM     59  H   UNL A   1      42.583  31.547  32.303  1.00  0.00     0.167 HD
ATOM     60  C   UNL A   1      41.950  30.744  34.954  1.00  0.00     0.074 A 
ATOM     61  C   UNL A   1      41.805  29.927  36.141  1.00  0.00     0.031 C 
ATOM     62  C   UNL A   1      41.635  32.063  34.893  1.00  0.00     0.034 A 
BRANCH  49  63
ATOM     63  C   UNL A   1      42.702  34.652  29.352  1.00  0.00     0.023 A 
ATOM     64  C   UNL A   1      43.880  35.379  29.110  1.00  0.00     0.031 A 
ATOM     65  C   UNL A   1      41.502  35.143  28.808  1.00  0.00     0.131 A 
ATOM     66  C   UNL A   1      43.821  36.602  28.425  1.00  0.00     0.055 A 
ATOM     67  C   UNL A   1      41.464  36.317  28.053  1.00  0.00     0.041 A 
ATOM     68  F   UNL A   1      40.342  34.503  29.020  1.00  0.00    -0.206 F 
ATOM     69  C   UNL A   1      42.625  37.065  27.873  1.00  0.00     0.022 A 
BRANCH  66  70
ATOM     70  S   UNL A   1      45.299  37.654  28.409  1.00  0.00     0.124 S 
ATOM     71  O   UNL A   1      45.988  37.175  27.212  1.00  0.00    -0.237 OA
ATOM     72  O   UNL A   1      44.732  38.994  28.328  1.00  0.00    -0.237 OA
ATOM     73  O   UNL A   1      45.962  37.331  29.671  1.00  0.00    -0.744 OA
ENDBRANCH  66  70
ENDBRANCH  49  63
BRANCH  50  74
ATOM     74  C   UNL A   1      43.166  26.202  34.710  1.00  0.00     0.023 A 
ATOM     75  C   UNL A   1      44.418  25.693  35.088  1.00  0.00     0.031 A 
ATOM     76  C   UNL A   1      42.018  25.487  35.094  1.00  0.00     0.131 A 
ATOM     77  C   UNL A   1      44.497  24.484  35.796  1.00  0.00     0.055 A 
ATOM     78  C   UNL A   1      42.099  24.309  35.837  1.00  0.00     0.041 A 
ATOM     79  F   UNL A   1      40.797  25.935  34.761  1.00  0.00    -0.206 F 
ATOM     80  C   UNL A   1      43.345  23.794  36.183  1.00  0.00     0.022 A 
BRANCH  77  81
ATOM     81  S   UNL A   1      46.134  23.787  36.147  1.00  0.00     0.124 S 
ATOM     82  O   UNL A   1      46.794  24.905  36.815  1.00  0.00    -0.237 OA
ATOM     83  O   UNL A   1      45.802  22.642  36.988  1.00  0.00    -0.237 OA
ATOM     84  O   UNL A   1      46.655  23.456  34.823  1.00  0.00    -0.744 OA
ENDBRANCH  77  81
ENDBRANCH  50  74
BRANCH  62  85
ATOM     85  C   UNL A   1      41.072  32.687  36.143  1.00  0.00     0.023 A 
ATOM     86  C   UNL A   1      39.773  32.392  36.594  1.00  0.00     0.031 A 
ATOM     87  C   UNL A   1      41.842  33.596  36.889  1.00  0.00     0.131 A 
ATOM     88  C   UNL A   1      39.267  33.034  37.733  1.00  0.00     0.055 A 
ATOM     89  C   UNL A   1      41.352  34.193  38.051  1.00  0.00     0.041 A 
ATOM     90  F   UNL A   1      43.088  33.913  36.501  1.00  0.00    -0.206 F 
ATOM     91  C   UNL A   1      40.054  33.921  38.474  1.00  0.00     0.022 A 
BRANCH  88  92
ATOM     92  S   UNL A   1      37.539  32.746  38.205  1.00  0.00     0.124 S 
ATOM     93  O   UNL A   1      37.457  33.437  39.489  1.00  0.00    -0.237 OA
ATOM     94  O   UNL A   1      36.806  33.361  37.103  1.00  0.00    -0.237 OA
ATOM     95  O   UNL A   1      37.441  31.289  38.277  1.00  0.00    -0.744 OA
ENDBRANCH  88  92
ENDBRANCH  62  85
ENDBRANCH  36  37
ENDBRANCH  28  31
ENDBRANCH  26  27
ENDBRANCH  25  26
ENDBRANCH  24  25
ENDBRANCH   1  24
TORSDOF 19
ENDMDL
MODEL 3
REMARK VINA RESULT:     -10.4      6.056     15.307
REMARK SMILES CCCC1CN(c2ccc(C(=O)NCC(=O)NCCCCNC(=O)c3ccc(-c4c5nc(c(-c6cc(S(=O)(=O)[O-])ccc6F)c6ccc([nH]6)c(-c6cc(S(=O)(=O)[O-])ccc6F)c6nc(c(-c7cc(S(=O)(=O)[O-])ccc7F)c7ccc4[nH]7)C=C6)C=C5)cc3)cc2)C1
REMARK SMILES IDX 18 1 17 2 15 3 16 4 14 6 13 7 11 8 12 9 10 11 7 12 8 13
REMARK SMILES IDX 89 14 9 15 88 16 6 17 4 18 5 19 90 20 3 21 2 22 1 23 19 24
REMARK SMILES IDX 20 25 21 26 22 27 23 28 24 30 25 31 26 32 87 33 27 34 86 35
REMARK SMILES IDX 28 36 29 37 30 38 80 39 31 40 85 41 79 42 81 43 32 44 84 45
REMARK SMILES IDX 78 46 77 47 33 49 65 50 45 51 64 52 46 53 49 54 63 55 82 56
REMARK SMILES IDX 47 57 48 58 62 60 83 61 50 62 34 63 35 64 43 65 36 66 42 67
REMARK SMILES IDX 44 68 41 69 37 70 38 71 39 72 40 73 66 74 67 75 75 76 68 77
REMARK SMILES IDX 74 78 76 79 73 80 69 81 70 82 71 83 72 84 51 85 52 86 60 87
REMARK SMILES IDX 53 88 59 89 61 90 58 91 54 92 55 93 56 94 57 95
REMARK H PARENT 17 5 13 10 22 29 81 48 49 59
REMARK Flexibility Score: inf
ROOT
ATOM      1  C   UNL A   1      46.008  22.555  38.874  1.00  0.00     0.116 C 
ENDROOT
BRANCH   1   2
ATOM      2  N   UNL A   1      45.840  22.507  37.438  1.00  0.00    -0.355 N 
ATOM      3  C   UNL A   1      45.771  21.454  36.581  1.00  0.00     0.239 C 
ATOM      4  O   UNL A   1      45.431  21.704  35.418  1.00  0.00    -0.273 OA
ATOM      5  H   UNL A   1      45.762  23.390  37.006  1.00  0.00     0.163 HD
BRANCH   3   6
ATOM      6  C   UNL A   1      45.941  19.986  37.013  1.00  0.00     0.216 C 
BRANCH   6   7
ATOM      7  N   UNL A   1      47.059  19.619  37.862  1.00  0.00    -0.343 N 
ATOM      8  C   UNL A   1      47.244  18.839  38.970  1.00  0.00     0.251 C 
ATOM      9  O   UNL A   1      48.418  18.690  39.320  1.00  0.00    -0.269 OA
ATOM     10  H   UNL A   1      47.899  20.037  37.563  1.00  0.00     0.164 HD
BRANCH   8  11
ATOM     11  C   UNL A   1      46.167  18.207  39.799  1.00  0.00     0.039 A 
ATOM     12  C   UNL A   1      44.149  16.775  41.210  1.00  0.00     0.037 A 
ATOM     13  C   UNL A   1      44.524  16.394  39.922  1.00  0.00     0.027 A 
ATOM     14  C   UNL A   1      44.805  17.862  41.787  1.00  0.00     0.027 A 
ATOM     15  C   UNL A   1      45.503  17.110  39.221  1.00  0.00     0.016 A 
ATOM     16  C   UNL A   1      45.815  18.553  41.104  1.00  0.00     0.016 A 
BRANCH  12  17
ATOM     17  N   UNL A   1      43.147  16.067  41.888  1.00  0.00    -0.371 N 
ATOM     18  C   UNL A   1      42.511  14.292  42.735  1.00  0.00     0.028 C 
ATOM     19  C   UNL A   1      42.381  14.976  41.364  1.00  0.00     0.122 C 
ATOM     20  C   UNL A   1      43.082  15.621  43.242  1.00  0.00     0.122 C 
BRANCH  18  21
ATOM     21  C   UNL A   1      41.245  13.807  43.427  1.00  0.00     0.007 C 
BRANCH  21  22
ATOM     22  C   UNL A   1      40.968  12.329  43.148  1.00  0.00    -0.003 C 
ATOM     23  C   UNL A   1      42.149  11.594  42.530  1.00  0.00     0.004 C 
ENDBRANCH  21  22
ENDBRANCH  18  21
ENDBRANCH  12  17
ENDBRANCH   8  11
ENDBRANCH   6   7
ENDBRANCH   3   6
ENDBRANCH   1   2
BRANCH   1  24
ATOM     24  C   UNL A   1      47.319  23.204  39.302  1.00  0.00     0.023 C 
BRANCH  24  25
ATOM     25  C   UNL A   1      47.211  24.696  39.625  1.00  0.00     0.023 C 
BRANCH  25  26
ATOM     26  C   UNL A   1      46.993  25.618  38.427  1.00  0.00     0.116 C 
BRANCH  26  27
ATOM     27  N   UNL A   1      47.982  25.448  37.374  1.00  0.00    -0.352 N 
ATOM     28  C   UNL A   1      47.861  25.730  36.031  1.00  0.00     0.251 C 
ATOM     29  H   UNL A   1      48.851  25.084  37.658  1.00  0.00     0.163 HD
ATOM     30  O   UNL A   1      48.762  25.439  35.255  1.00  0.00    -0.269 OA
BRANCH  28  31
ATOM     31  C   UNL A   1      46.610  26.347  35.535  1.00  0.00     0.039 A 
ATOM     32  C   UNL A   1      46.660  27.640  35.007  1.00  0.00     0.014 A 
ATOM     33  C   UNL A   1      45.413  25.628  35.536  1.00  0.00     0.014 A 
ATOM     34  C   UNL A   1      45.525  28.177  34.395  1.00  0.00     0.010 A 
ATOM     35  C   UNL A   1      44.302  26.142  34.874  1.00  0.00     0.010 A 
ATOM     36  C   UNL A   1      44.352  27.414  34.281  1.00  0.00    -0.014 A 
BRANCH  36  37
ATOM     37  C   UNL A   1      43.174  27.908  33.521  1.00  0.00     0.031 A 
ATOM     38  C   UNL A   1      43.020  27.570  32.065  1.00  0.00     0.074 A 
ATOM     39  C   UNL A   1      42.292  28.732  34.122  1.00  0.00     0.049 A 
ATOM     40  N   UNL A   1      42.135  27.999  31.204  1.00  0.00    -0.248 NA
ATOM     41  C   UNL A   1      44.015  26.647  31.501  1.00  0.00     0.031 C 
ATOM     42  C   UNL A   1      42.350  29.156  35.522  1.00  0.00     0.029 A 
ATOM     43  N   UNL A   1      41.182  29.370  33.628  1.00  0.00    -0.354 N 
ATOM     44  C   UNL A   1      42.470  27.408  29.991  1.00  0.00     0.074 A 
ATOM     45  C   UNL A   1      43.676  26.640  30.221  1.00  0.00     0.031 C 
ATOM     46  C   UNL A   1      41.312  29.969  35.778  1.00  0.00     0.029 A 
ATOM     47  C   UNL A   1      40.543  30.164  34.553  1.00  0.00     0.049 A 
ATOM     48  H   UNL A   1      40.872  29.269  32.699  1.00  0.00     0.167 HD
ATOM     49  C   UNL A   1      41.819  27.481  28.803  1.00  0.00     0.034 A 
ATOM     50  C   UNL A   1      39.474  30.973  34.423  1.00  0.00     0.034 A 
ATOM     51  C   UNL A   1      40.615  28.248  28.591  1.00  0.00     0.049 A 
ATOM     52  C   UNL A   1      38.802  31.086  33.080  1.00  0.00     0.074 A 
ATOM     53  C   UNL A   1      39.843  28.347  27.446  1.00  0.00     0.029 A 
ATOM     54  N   UNL A   1      40.012  29.059  29.544  1.00  0.00    -0.354 N 
ATOM     55  N   UNL A   1      39.108  30.490  31.951  1.00  0.00    -0.248 NA
ATOM     56  C   UNL A   1      37.642  31.984  32.994  1.00  0.00     0.031 C 
ATOM     57  C   UNL A   1      38.813  29.264  27.687  1.00  0.00     0.029 A 
ATOM     58  C   UNL A   1      38.901  29.689  29.003  1.00  0.00     0.049 A 
ATOM     59  H   UNL A   1      40.329  29.171  30.470  1.00  0.00     0.167 HD
ATOM     60  C   UNL A   1      38.162  30.923  31.026  1.00  0.00     0.074 A 
ATOM     61  C   UNL A   1      37.270  31.821  31.732  1.00  0.00     0.031 C 
ATOM     62  C   UNL A   1      38.035  30.600  29.713  1.00  0.00     0.034 A 
BRANCH  49  63
ATOM     63  C   UNL A   1      42.421  26.726  27.642  1.00  0.00     0.023 A 
ATOM     64  C   UNL A   1      42.094  25.382  27.390  1.00  0.00     0.031 A 
ATOM     65  C   UNL A   1      43.369  27.340  26.805  1.00  0.00     0.131 A 
ATOM     66  C   UNL A   1      42.774  24.670  26.391  1.00  0.00     0.055 A 
ATOM     67  C   UNL A   1      43.980  26.649  25.755  1.00  0.00     0.041 A 
ATOM     68  F   UNL A   1      43.736  28.614  27.006  1.00  0.00    -0.206 F 
ATOM     69  C   UNL A   1      43.698  25.301  25.555  1.00  0.00     0.022 A 
BRANCH  66  70
ATOM     70  S   UNL A   1      42.551  22.871  26.310  1.00  0.00     0.124 S 
ATOM     71  O   UNL A   1      41.210  22.715  26.867  1.00  0.00    -0.237 OA
ATOM     72  O   UNL A   1      42.688  22.601  24.884  1.00  0.00    -0.237 OA
ATOM     73  O   UNL A   1      43.630  22.355  27.150  1.00  0.00    -0.744 OA
ENDBRANCH  66  70
ENDBRANCH  49  63
BRANCH  50  74
ATOM     74  C   UNL A   1      38.976  31.757  35.588  1.00  0.00     0.023 A 
ATOM     75  C   UNL A   1      38.306  31.125  36.646  1.00  0.00     0.031 A 
ATOM     76  C   UNL A   1      39.132  33.154  35.644  1.00  0.00     0.131 A 
ATOM     77  C   UNL A   1      37.781  31.891  37.698  1.00  0.00     0.055 A 
ATOM     78  C   UNL A   1      38.648  33.906  36.714  1.00  0.00     0.041 A 
ATOM     79  F   UNL A   1      39.770  33.806  34.658  1.00  0.00    -0.206 F 
ATOM     80  C   UNL A   1      37.957  33.276  37.745  1.00  0.00     0.022 A 
BRANCH  77  81
ATOM     81  S   UNL A   1      36.802  31.055  38.976  1.00  0.00     0.124 S 
ATOM     82  O   UNL A   1      36.654  29.719  38.410  1.00  0.00    -0.237 OA
ATOM     83  O   UNL A   1      37.672  31.165  40.143  1.00  0.00    -0.237 OA
ATOM     84  O   UNL A   1      35.576  31.847  39.039  1.00  0.00    -0.744 OA
ENDBRANCH  77  81
ENDBRANCH  50  74
BRANCH  62  85
ATOM     85  C   UNL A   1      36.869  31.202  28.973  1.00  0.00     0.023 A 
ATOM     86  C   UNL A   1      35.822  30.407  28.475  1.00  0.00     0.031 A 
ATOM     87  C   UNL A   1      36.809  32.590  28.757  1.00  0.00     0.131 A 
ATOM     88  C   UNL A   1      34.782  31.000  27.746  1.00  0.00     0.055 A 
ATOM     89  C   UNL A   1      35.745  33.181  28.075  1.00  0.00     0.041 A 
ATOM     90  F   UNL A   1      37.784  33.394  29.210  1.00  0.00    -0.206 F 
ATOM     91  C   UNL A   1      34.727  32.384  27.556  1.00  0.00     0.022 A 
BRANCH  88  92
ATOM     92  S   UNL A   1      33.525  29.933  26.989  1.00  0.00     0.124 S 
ATOM     93  O   UNL A   1      32.598  30.910  26.425  1.00  0.00    -0.237 OA
ATOM     94  O   UNL A   1      34.304  29.165  26.025  1.00  0.00    -0.237 OA
ATOM     95  O   UNL A   1      33.003  29.163  28.117  1.00  0.00    -0.744 OA
ENDBRANCH  88  92
ENDBRANCH  62  85
ENDBRANCH  36  37
ENDBRANCH  28  31
ENDBRANCH  26  27
ENDBRANCH  25  26
ENDBRANCH  24  25
ENDBRANCH   1  24
TORSDOF 19
ENDMDL
