MODEL 1
REMARK VINA RESULT:     -11.8      0.000      0.000
REMARK SMILES O=C(CCCN1C(=O)c2ccc3c4c(ccc(c24)C1=O)C(=O)NC3=O)NCCCCNC(=O)c1ccc(-c2c3nc(c(-c4cc(S(=O)(=O)[O-])ccc4F)c4ccc([nH]4)c(-c4cc(S(=O)(=O)[O-])ccc4F)c4nc(c(-c5cc(S(=O)(=O)[O-])ccc5F)c5ccc2[nH]5)C=C4)C=C3)cc1
REMARK SMILES IDX 28 1 27 2 26 3 1 4 2 5 3 7 4 8 5 9 6 10 19 11 7 12 20 13
REMARK SMILES IDX 17 14 9 15 8 16 16 17 18 18 10 19 15 20 13 21 11 22 14 23
REMARK SMILES IDX 12 24 21 25 24 26 23 27 22 28 25 29 29 31 30 32 31 33 32 34
REMARK SMILES IDX 33 36 34 37 35 38 96 39 36 40 95 41 37 42 38 43 39 44 89 45
REMARK SMILES IDX 40 46 94 47 88 48 90 49 41 50 93 51 87 52 86 53 42 55 74 56
REMARK SMILES IDX 54 57 73 58 55 59 58 60 72 61 91 62 56 63 57 64 71 66 92 67
REMARK SMILES IDX 59 68 43 69 44 70 52 71 45 72 51 73 53 74 50 75 46 76 47 77
REMARK SMILES IDX 48 78 49 79 75 80 76 81 84 82 77 83 83 84 85 85 82 86 78 87
REMARK SMILES IDX 79 88 80 89 81 90 60 91 61 92 69 93 62 94 68 95 70 96 67 97
REMARK SMILES IDX 63 98 64 99 65 100 66 101
REMARK H PARENT 26 6 23 30 31 35 90 54 58 65
REMARK Flexibility Score: inf
ROOT
ATOM      1  C   UNL A   1      39.368  22.418  26.606  1.00  0.00     0.023 C 
ENDROOT
BRANCH   1   2
ATOM      2  C   UNL A   1      38.246  23.278  26.012  1.00  0.00     0.116 C 
BRANCH   2   3
ATOM      3  N   UNL A   1      36.980  22.582  26.000  1.00  0.00    -0.356 N 
ATOM      4  O   UNL A   1      36.962  21.910  23.812  1.00  0.00    -0.275 OA
ATOM      5  C   UNL A   1      36.436  21.940  24.919  1.00  0.00     0.220 C 
ATOM      6  H   UNL A   1      36.465  22.567  26.839  1.00  0.00     0.163 HD
BRANCH   5   7
ATOM      7  C   UNL A   1      35.091  21.272  25.195  1.00  0.00     0.102 C 
BRANCH   7   8
ATOM      8  C   UNL A   1      33.927  21.785  24.336  1.00  0.00     0.032 C 
BRANCH   8   9
ATOM      9  C   UNL A   1      32.604  22.172  25.027  1.00  0.00     0.130 C 
BRANCH   9  10
ATOM     10  N   UNL A   1      32.272  23.606  25.017  1.00  0.00    -0.274 N 
ATOM     11  C   UNL A   1      31.387  24.063  24.053  1.00  0.00     0.261 C 
ATOM     12  C   UNL A   1      32.981  24.464  25.865  1.00  0.00     0.261 C 
ATOM     13  O   UNL A   1      30.899  23.360  23.177  1.00  0.00    -0.269 OA
ATOM     14  C   UNL A   1      31.024  25.484  24.043  1.00  0.00     0.049 A 
ATOM     15  C   UNL A   1      32.713  25.923  25.734  1.00  0.00     0.049 A 
ATOM     16  O   UNL A   1      33.799  24.081  26.696  1.00  0.00    -0.269 OA
ATOM     17  C   UNL A   1      30.010  25.919  23.177  1.00  0.00     0.015 A 
ATOM     18  C   UNL A   1      31.718  26.373  24.858  1.00  0.00     0.009 A 
ATOM     19  C   UNL A   1      33.438  26.844  26.500  1.00  0.00     0.015 A 
ATOM     20  C   UNL A   1      29.680  27.266  23.118  1.00  0.00     0.015 A 
ATOM     21  C   UNL A   1      31.403  27.750  24.779  1.00  0.00     0.009 A 
ATOM     22  C   UNL A   1      33.146  28.208  26.415  1.00  0.00     0.015 A 
ATOM     23  C   UNL A   1      30.379  28.176  23.914  1.00  0.00     0.048 A 
ATOM     24  C   UNL A   1      32.124  28.656  25.570  1.00  0.00     0.048 A 
ATOM     25  C   UNL A   1      30.030  29.612  23.848  1.00  0.00     0.258 C 
ATOM     26  C   UNL A   1      31.778  30.094  25.512  1.00  0.00     0.258 C 
ATOM     27  N   UNL A   1      30.789  30.452  24.628  1.00  0.00    -0.288 N 
ATOM     28  O   UNL A   1      29.101  30.008  23.162  1.00  0.00    -0.269 OA
ATOM     29  O   UNL A   1      32.315  30.911  26.251  1.00  0.00    -0.269 OA
ATOM     30  H   UNL A   1      30.605  31.416  24.542  1.00  0.00     0.173 HD
ENDBRANCH   9  10
ENDBRANCH   8   9
ENDBRANCH   7   8
ENDBRANCH   5   7
ENDBRANCH   2   3
ENDBRANCH   1   2
BRANCH   1  31
ATOM     31  C   UNL A   1      39.681  21.097  25.887  1.00  0.00     0.023 C 
BRANCH  31  32
ATOM     32  C   UNL A   1      40.432  20.048  26.699  1.00  0.00     0.116 C 
BRANCH  32  33
ATOM     33  N   UNL A   1      41.698  19.689  26.088  1.00  0.00    -0.352 N 
ATOM     34  C   UNL A   1      42.768  20.478  25.740  1.00  0.00     0.251 C 
ATOM     35  H   UNL A   1      41.807  18.730  25.892  1.00  0.00     0.163 HD
ATOM     36  O   UNL A   1      43.658  19.998  25.041  1.00  0.00    -0.269 OA
BRANCH  34  37
ATOM     37  C   UNL A   1      42.849  21.897  26.169  1.00  0.00     0.039 A 
ATOM     38  C   UNL A   1      42.971  22.178  27.534  1.00  0.00     0.014 A 
ATOM     39  C   UNL A   1      42.764  22.951  25.254  1.00  0.00     0.014 A 
ATOM     40  C   UNL A   1      43.071  23.504  27.972  1.00  0.00     0.010 A 
ATOM     41  C   UNL A   1      42.934  24.269  25.686  1.00  0.00     0.010 A 
ATOM     42  C   UNL A   1      43.090  24.562  27.050  1.00  0.00    -0.014 A 
BRANCH  42  43
ATOM     43  C   UNL A   1      43.279  25.972  27.496  1.00  0.00     0.031 A 
ATOM     44  C   UNL A   1      44.652  26.591  27.511  1.00  0.00     0.074 A 
ATOM     45  C   UNL A   1      42.220  26.681  27.939  1.00  0.00     0.049 A 
ATOM     46  N   UNL A   1      45.023  27.773  27.937  1.00  0.00    -0.248 NA
ATOM     47  C   UNL A   1      45.754  25.762  27.004  1.00  0.00     0.031 C 
ATOM     48  C   UNL A   1      40.842  26.190  28.001  1.00  0.00     0.029 A 
ATOM     49  N   UNL A   1      42.135  27.962  28.428  1.00  0.00    -0.354 N 
ATOM     50  C   UNL A   1      46.402  27.827  27.756  1.00  0.00     0.074 A 
ATOM     51  C   UNL A   1      46.805  26.535  27.242  1.00  0.00     0.031 C 
ATOM     52  C   UNL A   1      40.049  27.163  28.477  1.00  0.00     0.029 A 
ATOM     53  C   UNL A   1      40.862  28.329  28.805  1.00  0.00     0.049 A 
ATOM     54  H   UNL A   1      42.912  28.562  28.502  1.00  0.00     0.167 HD
ATOM     55  C   UNL A   1      47.250  28.864  27.976  1.00  0.00     0.034 A 
ATOM     56  C   UNL A   1      40.403  29.465  29.368  1.00  0.00     0.034 A 
ATOM     57  C   UNL A   1      46.836  30.150  28.485  1.00  0.00     0.049 A 
ATOM     58  C   UNL A   1      41.371  30.588  29.644  1.00  0.00     0.074 A 
ATOM     59  C   UNL A   1      47.607  31.279  28.703  1.00  0.00     0.029 A 
ATOM     60  N   UNL A   1      45.541  30.480  28.865  1.00  0.00    -0.354 N 
ATOM     61  N   UNL A   1      42.666  30.636  29.429  1.00  0.00    -0.248 NA
ATOM     62  C   UNL A   1      40.814  31.815  30.230  1.00  0.00     0.031 C 
ATOM     63  C   UNL A   1      46.797  32.262  29.284  1.00  0.00     0.029 A 
ATOM     64  C   UNL A   1      45.500  31.779  29.348  1.00  0.00     0.049 A 
ATOM     65  H   UNL A   1      44.764  29.877  28.801  1.00  0.00     0.167 HD
ATOM     66  C   UNL A   1      43.069  31.910  29.822  1.00  0.00     0.074 A 
ATOM     67  C   UNL A   1      41.879  32.602  30.272  1.00  0.00     0.031 C 
ATOM     68  C   UNL A   1      44.311  32.460  29.806  1.00  0.00     0.034 A 
BRANCH  55  69
ATOM     69  C   UNL A   1      48.718  28.635  27.692  1.00  0.00     0.023 A 
ATOM     70  C   UNL A   1      49.254  28.794  26.401  1.00  0.00     0.031 A 
ATOM     71  C   UNL A   1      49.592  28.237  28.719  1.00  0.00     0.131 A 
ATOM     72  C   UNL A   1      50.598  28.478  26.156  1.00  0.00     0.055 A 
ATOM     73  C   UNL A   1      50.949  28.008  28.487  1.00  0.00     0.041 A 
ATOM     74  F   UNL A   1      49.137  28.049  29.968  1.00  0.00    -0.206 F 
ATOM     75  C   UNL A   1      51.457  28.113  27.195  1.00  0.00     0.022 A 
BRANCH  72  76
ATOM     76  S   UNL A   1      51.170  28.403  24.436  1.00  0.00     0.124 S 
ATOM     77  O   UNL A   1      51.687  29.756  24.240  1.00  0.00    -0.237 OA
ATOM     78  O   UNL A   1      52.166  27.339  24.482  1.00  0.00    -0.237 OA
ATOM     79  O   UNL A   1      49.956  28.092  23.684  1.00  0.00    -0.744 OA
ENDBRANCH  72  76
ENDBRANCH  55  69
BRANCH  56  80
ATOM     80  C   UNL A   1      38.961  29.600  29.729  1.00  0.00     0.023 A 
ATOM     81  C   UNL A   1      38.081  30.350  28.935  1.00  0.00     0.031 A 
ATOM     82  C   UNL A   1      38.452  29.017  30.906  1.00  0.00     0.131 A 
ATOM     83  C   UNL A   1      36.753  30.541  29.349  1.00  0.00     0.055 A 
ATOM     84  C   UNL A   1      37.117  29.162  31.283  1.00  0.00     0.041 A 
ATOM     85  F   UNL A   1      39.249  28.285  31.701  1.00  0.00    -0.206 F 
ATOM     86  C   UNL A   1      36.261  29.940  30.510  1.00  0.00     0.022 A 
BRANCH  83  87
ATOM     87  S   UNL A   1      35.700  31.669  28.396  1.00  0.00     0.124 S 
ATOM     88  O   UNL A   1      35.269  30.815  27.296  1.00  0.00    -0.237 OA
ATOM     89  O   UNL A   1      34.676  32.023  29.373  1.00  0.00    -0.237 OA
ATOM     90  O   UNL A   1      36.609  32.752  28.028  1.00  0.00    -0.744 OA
ENDBRANCH  83  87
ENDBRANCH  56  80
BRANCH  68  91
ATOM     91  C   UNL A   1      44.433  33.899  30.248  1.00  0.00     0.023 A 
ATOM     92  C   UNL A   1      44.209  34.970  29.365  1.00  0.00     0.031 A 
ATOM     93  C   UNL A   1      44.791  34.202  31.574  1.00  0.00     0.131 A 
ATOM     94  C   UNL A   1      44.401  36.290  29.803  1.00  0.00     0.055 A 
ATOM     95  C   UNL A   1      44.916  35.519  32.021  1.00  0.00     0.041 A 
ATOM     96  F   UNL A   1      45.021  33.221  32.462  1.00  0.00    -0.206 F 
ATOM     97  C   UNL A   1      44.735  36.572  31.130  1.00  0.00     0.022 A 
BRANCH  94  98
ATOM     98  S   UNL A   1      44.305  37.634  28.588  1.00  0.00     0.124 S 
ATOM     99  O   UNL A   1      42.918  38.068  28.722  1.00  0.00    -0.237 OA
ATOM    100  O   UNL A   1      45.316  38.568  29.075  1.00  0.00    -0.237 OA
ATOM    101  O   UNL A   1      44.629  36.976  27.323  1.00  0.00    -0.744 OA
ENDBRANCH  94  98
ENDBRANCH  68  91
ENDBRANCH  42  43
ENDBRANCH  34  37
ENDBRANCH  32  33
ENDBRANCH  31  32
ENDBRANCH   1  31
TORSDOF 17
ENDMDL
MODEL 2
REMARK VINA RESULT:     -11.7      7.433     14.400
REMARK SMILES O=C(CCCN1C(=O)c2ccc3c4c(ccc(c24)C1=O)C(=O)NC3=O)NCCCCNC(=O)c1ccc(-c2c3nc(c(-c4cc(S(=O)(=O)[O-])ccc4F)c4ccc([nH]4)c(-c4cc(S(=O)(=O)[O-])ccc4F)c4nc(c(-c5cc(S(=O)(=O)[O-])ccc5F)c5ccc2[nH]5)C=C4)C=C3)cc1
REMARK SMILES IDX 28 1 27 2 26 3 1 4 2 5 3 7 4 8 5 9 6 10 19 11 7 12 20 13
REMARK SMILES IDX 17 14 9 15 8 16 16 17 18 18 10 19 15 20 13 21 11 22 14 23
REMARK SMILES IDX 12 24 21 25 24 26 23 27 22 28 25 29 29 31 30 32 31 33 32 34
REMARK SMILES IDX 33 36 34 37 35 38 96 39 36 40 95 41 37 42 38 43 39 44 89 45
REMARK SMILES IDX 40 46 94 47 88 48 90 49 41 50 93 51 87 52 86 53 42 55 74 56
REMARK SMILES IDX 54 57 73 58 55 59 58 60 72 61 91 62 56 63 57 64 71 66 92 67
REMARK SMILES IDX 59 68 43 69 44 70 52 71 45 72 51 73 53 74 50 75 46 76 47 77
REMARK SMILES IDX 48 78 49 79 75 80 76 81 84 82 77 83 83 84 85 85 82 86 78 87
REMARK SMILES IDX 79 88 80 89 81 90 60 91 61 92 69 93 62 94 68 95 70 96 67 97
REMARK SMILES IDX 63 98 64 99 65 100 66 101
REMARK H PARENT 26 6 23 30 31 35 90 54 58 65
REMARK Flexibility Score: inf
ROOT
ATOM      1  C   UNL A   1      43.996  39.827  28.341  1.00  0.00     0.023 C 
ENDROOT
BRANCH   1   2
ATOM      2  C   UNL A   1      43.923  41.220  27.703  1.00  0.00     0.116 C 
BRANCH   2   3
ATOM      3  N   UNL A   1      42.899  41.295  26.686  1.00  0.00    -0.356 N 
ATOM      4  O   UNL A   1      44.240  41.529  24.845  1.00  0.00    -0.275 OA
ATOM      5  C   UNL A   1      43.122  41.429  25.341  1.00  0.00     0.220 C 
ATOM      6  H   UNL A   1      41.962  41.247  26.985  1.00  0.00     0.163 HD
BRANCH   5   7
ATOM      7  C   UNL A   1      41.853  41.466  24.493  1.00  0.00     0.102 C 
BRANCH   7   8
ATOM      8  C   UNL A   1      41.867  42.496  23.355  1.00  0.00     0.032 C 
BRANCH   8   9
ATOM      9  C   UNL A   1      42.305  42.045  21.947  1.00  0.00     0.130 C 
BRANCH   9  10
ATOM     10  N   UNL A   1      42.745  43.117  21.039  1.00  0.00    -0.274 N 
ATOM     11  C   UNL A   1      41.819  43.640  20.151  1.00  0.00     0.261 C 
ATOM     12  C   UNL A   1      44.104  43.446  20.999  1.00  0.00     0.261 C 
ATOM     13  O   UNL A   1      40.668  43.234  20.037  1.00  0.00    -0.269 OA
ATOM     14  C   UNL A   1      42.231  44.727  19.257  1.00  0.00     0.049 A 
ATOM     15  C   UNL A   1      44.534  44.441  19.977  1.00  0.00     0.049 A 
ATOM     16  O   UNL A   1      44.947  42.963  21.750  1.00  0.00    -0.269 OA
ATOM     17  C   UNL A   1      41.259  45.366  18.473  1.00  0.00     0.015 A 
ATOM     18  C   UNL A   1      43.576  45.071  19.173  1.00  0.00     0.009 A 
ATOM     19  C   UNL A   1      45.889  44.762  19.832  1.00  0.00     0.015 A 
ATOM     20  C   UNL A   1      41.632  46.367  17.586  1.00  0.00     0.015 A 
ATOM     21  C   UNL A   1      43.963  46.071  18.250  1.00  0.00     0.009 A 
ATOM     22  C   UNL A   1      46.282  45.736  18.910  1.00  0.00     0.015 A 
ATOM     23  C   UNL A   1      42.981  46.712  17.475  1.00  0.00     0.048 A 
ATOM     24  C   UNL A   1      45.322  46.397  18.135  1.00  0.00     0.048 A 
ATOM     25  C   UNL A   1      43.378  47.776  16.527  1.00  0.00     0.258 C 
ATOM     26  C   UNL A   1      45.727  47.463  17.192  1.00  0.00     0.258 C 
ATOM     27  N   UNL A   1      44.727  48.032  16.441  1.00  0.00    -0.288 N 
ATOM     28  O   UNL A   1      42.547  48.402  15.890  1.00  0.00    -0.269 OA
ATOM     29  O   UNL A   1      46.890  47.847  17.122  1.00  0.00    -0.269 OA
ATOM     30  H   UNL A   1      45.006  48.694  15.768  1.00  0.00     0.173 HD
ENDBRANCH   9  10
ENDBRANCH   8   9
ENDBRANCH   7   8
ENDBRANCH   5   7
ENDBRANCH   2   3
ENDBRANCH   1   2
BRANCH   1  31
ATOM     31  C   UNL A   1      44.155  38.636  27.385  1.00  0.00     0.023 C 
BRANCH  31  32
ATOM     32  C   UNL A   1      45.530  37.980  27.346  1.00  0.00     0.116 C 
BRANCH  32  33
ATOM     33  N   UNL A   1      46.163  37.960  28.652  1.00  0.00    -0.352 N 
ATOM     34  C   UNL A   1      46.190  36.973  29.607  1.00  0.00     0.251 C 
ATOM     35  H   UNL A   1      46.648  38.784  28.891  1.00  0.00     0.163 HD
ATOM     36  O   UNL A   1      46.607  37.244  30.731  1.00  0.00    -0.269 OA
BRANCH  34  37
ATOM     37  C   UNL A   1      45.699  35.603  29.311  1.00  0.00     0.039 A 
ATOM     38  C   UNL A   1      45.936  34.591  30.247  1.00  0.00     0.014 A 
ATOM     39  C   UNL A   1      45.051  35.293  28.113  1.00  0.00     0.014 A 
ATOM     40  C   UNL A   1      45.470  33.292  30.010  1.00  0.00     0.010 A 
ATOM     41  C   UNL A   1      44.525  34.014  27.909  1.00  0.00     0.010 A 
ATOM     42  C   UNL A   1      44.727  32.998  28.856  1.00  0.00    -0.014 A 
BRANCH  42  43
ATOM     43  C   UNL A   1      44.154  31.640  28.632  1.00  0.00     0.031 A 
ATOM     44  C   UNL A   1      44.902  30.620  27.814  1.00  0.00     0.074 A 
ATOM     45  C   UNL A   1      42.933  31.341  29.121  1.00  0.00     0.049 A 
ATOM     46  N   UNL A   1      44.532  29.419  27.448  1.00  0.00    -0.248 NA
ATOM     47  C   UNL A   1      46.231  31.015  27.325  1.00  0.00     0.031 C 
ATOM     48  C   UNL A   1      42.092  32.247  29.906  1.00  0.00     0.029 A 
ATOM     49  N   UNL A   1      42.181  30.195  29.025  1.00  0.00    -0.354 N 
ATOM     50  C   UNL A   1      45.578  28.916  26.679  1.00  0.00     0.074 A 
ATOM     51  C   UNL A   1      46.566  29.970  26.582  1.00  0.00     0.031 C 
ATOM     52  C   UNL A   1      40.954  31.616  30.237  1.00  0.00     0.029 A 
ATOM     53  C   UNL A   1      40.956  30.282  29.648  1.00  0.00     0.049 A 
ATOM     54  H   UNL A   1      42.489  29.387  28.555  1.00  0.00     0.167 HD
ATOM     55  C   UNL A   1      45.712  27.684  26.125  1.00  0.00     0.034 A 
ATOM     56  C   UNL A   1      39.939  29.397  29.721  1.00  0.00     0.034 A 
ATOM     57  C   UNL A   1      44.721  26.639  26.233  1.00  0.00     0.049 A 
ATOM     58  C   UNL A   1      40.093  28.050  29.061  1.00  0.00     0.074 A 
ATOM     59  C   UNL A   1      44.778  25.344  25.746  1.00  0.00     0.029 A 
ATOM     60  N   UNL A   1      43.489  26.768  26.863  1.00  0.00    -0.354 N 
ATOM     61  N   UNL A   1      41.106  27.577  28.372  1.00  0.00    -0.248 NA
ATOM     62  C   UNL A   1      38.970  27.113  29.197  1.00  0.00     0.031 C 
ATOM     63  C   UNL A   1      43.555  24.718  26.014  1.00  0.00     0.029 A 
ATOM     64  C   UNL A   1      42.766  25.590  26.745  1.00  0.00     0.049 A 
ATOM     65  H   UNL A   1      43.175  27.579  27.325  1.00  0.00     0.167 HD
ATOM     66  C   UNL A   1      40.754  26.276  28.023  1.00  0.00     0.074 A 
ATOM     67  C   UNL A   1      39.443  26.035  28.590  1.00  0.00     0.031 C 
ATOM     68  C   UNL A   1      41.454  25.360  27.303  1.00  0.00     0.034 A 
BRANCH  55  69
ATOM     69  C   UNL A   1      46.968  27.412  25.328  1.00  0.00     0.023 A 
ATOM     70  C   UNL A   1      47.110  27.853  24.000  1.00  0.00     0.031 A 
ATOM     71  C   UNL A   1      48.032  26.689  25.896  1.00  0.00     0.131 A 
ATOM     72  C   UNL A   1      48.249  27.498  23.262  1.00  0.00     0.055 A 
ATOM     73  C   UNL A   1      49.201  26.413  25.184  1.00  0.00     0.041 A 
ATOM     74  F   UNL A   1      47.949  26.224  27.153  1.00  0.00    -0.206 F 
ATOM     75  C   UNL A   1      49.308  26.805  23.852  1.00  0.00     0.022 A 
BRANCH  72  76
ATOM     76  S   UNL A   1      48.258  27.822  21.477  1.00  0.00     0.124 S 
ATOM     77  O   UNL A   1      48.588  26.503  20.941  1.00  0.00    -0.237 OA
ATOM     78  O   UNL A   1      46.898  28.288  21.235  1.00  0.00    -0.237 OA
ATOM     79  O   UNL A   1      49.302  28.832  21.317  1.00  0.00    -0.744 OA
ENDBRANCH  72  76
ENDBRANCH  55  69
BRANCH  56  80
ATOM     80  C   UNL A   1      38.676  29.756  30.430  1.00  0.00     0.023 A 
ATOM     81  C   UNL A   1      37.731  30.610  29.841  1.00  0.00     0.031 A 
ATOM     82  C   UNL A   1      38.418  29.286  31.731  1.00  0.00     0.131 A 
ATOM     83  C   UNL A   1      36.598  31.009  30.568  1.00  0.00     0.055 A 
ATOM     84  C   UNL A   1      37.261  29.640  32.428  1.00  0.00     0.041 A 
ATOM     85  F   UNL A   1      39.285  28.461  32.341  1.00  0.00    -0.206 F 
ATOM     86  C   UNL A   1      36.350  30.518  31.852  1.00  0.00     0.022 A 
BRANCH  83  87
ATOM     87  S   UNL A   1      35.500  32.259  29.847  1.00  0.00     0.124 S 
ATOM     88  O   UNL A   1      35.131  31.636  28.581  1.00  0.00    -0.237 OA
ATOM     89  O   UNL A   1      34.445  32.348  30.851  1.00  0.00    -0.237 OA
ATOM     90  O   UNL A   1      36.355  33.439  29.738  1.00  0.00    -0.744 OA
ENDBRANCH  83  87
ENDBRANCH  56  80
BRANCH  68  91
ATOM     91  C   UNL A   1      40.830  23.995  27.131  1.00  0.00     0.023 A 
ATOM     92  C   UNL A   1      39.690  23.793  26.333  1.00  0.00     0.031 A 
ATOM     93  C   UNL A   1      41.382  22.880  27.787  1.00  0.00     0.131 A 
ATOM     94  C   UNL A   1      39.106  22.518  26.257  1.00  0.00     0.055 A 
ATOM     95  C   UNL A   1      40.834  21.602  27.655  1.00  0.00     0.041 A 
ATOM     96  F   UNL A   1      42.467  23.012  28.566  1.00  0.00    -0.206 F 
ATOM     97  C   UNL A   1      39.681  21.418  26.898  1.00  0.00     0.022 A 
BRANCH  94  98
ATOM     98  S   UNL A   1      37.524  22.336  25.388  1.00  0.00     0.124 S 
ATOM     99  O   UNL A   1      37.353  23.654  24.787  1.00  0.00    -0.237 OA
ATOM    100  O   UNL A   1      37.801  21.243  24.460  1.00  0.00    -0.237 OA
ATOM    101  O   UNL A   1      36.580  22.014  26.458  1.00  0.00    -0.744 OA
ENDBRANCH  94  98
ENDBRANCH  68  91
ENDBRANCH  42  43
ENDBRANCH  34  37
ENDBRANCH  32  33
ENDBRANCH  31  32
ENDBRANCH   1  31
TORSDOF 17
ENDMDL
MODEL 3
REMARK VINA RESULT:     -11.5      1.687      2.011
REMARK SMILES O=C(CCCN1C(=O)c2ccc3c4c(ccc(c24)C1=O)C(=O)NC3=O)NCCCCNC(=O)c1ccc(-c2c3nc(c(-c4cc(S(=O)(=O)[O-])ccc4F)c4ccc([nH]4)c(-c4cc(S(=O)(=O)[O-])ccc4F)c4nc(c(-c5cc(S(=O)(=O)[O-])ccc5F)c5ccc2[nH]5)C=C4)C=C3)cc1
REMARK SMILES IDX 28 1 27 2 26 3 1 4 2 5 3 7 4 8 5 9 6 10 19 11 7 12 20 13
REMARK SMILES IDX 17 14 9 15 8 16 16 17 18 18 10 19 15 20 13 21 11 22 14 23
REMARK SMILES IDX 12 24 21 25 24 26 23 27 22 28 25 29 29 31 30 32 31 33 32 34
REMARK SMILES IDX 33 36 34 37 35 38 96 39 36 40 95 41 37 42 38 43 39 44 89 45
REMARK SMILES IDX 40 46 94 47 88 48 90 49 41 50 93 51 87 52 86 53 42 55 74 56
REMARK SMILES IDX 54 57 73 58 55 59 58 60 72 61 91 62 56 63 57 64 71 66 92 67
REMARK SMILES IDX 59 68 43 69 44 70 52 71 45 72 51 73 53 74 50 75 46 76 47 77
REMARK SMILES IDX 48 78 49 79 75 80 76 81 84 82 77 83 83 84 85 85 82 86 78 87
REMARK SMILES IDX 79 88 80 89 81 90 60 91 61 92 69 93 62 94 68 95 70 96 67 97
REMARK SMILES IDX 63 98 64 99 65 100 66 101
REMARK H PARENT 26 6 23 30 31 35 90 54 58 65
REMARK Flexibility Score: inf
ROOT
ATOM      1  C   UNL A   1      39.481  22.316  26.489  1.00  0.00     0.023 C 
ENDROOT
BRANCH   1   2
ATOM      2  C   UNL A   1      38.189  23.065  26.140  1.00  0.00     0.116 C 
BRANCH   2   3
ATOM      3  N   UNL A   1      37.072  22.164  25.966  1.00  0.00    -0.356 N 
ATOM      4  O   UNL A   1      36.824  22.334  23.697  1.00  0.00    -0.275 OA
ATOM      5  C   UNL A   1      36.480  21.852  24.771  1.00  0.00     0.220 C 
ATOM      6  H   UNL A   1      36.706  21.739  26.776  1.00  0.00     0.163 HD
BRANCH   5   7
ATOM      7  C   UNL A   1      35.328  20.857  24.880  1.00  0.00     0.102 C 
BRANCH   7   8
ATOM      8  C   UNL A   1      33.997  21.343  24.292  1.00  0.00     0.032 C 
BRANCH   8   9
ATOM      9  C   UNL A   1      32.894  21.837  25.251  1.00  0.00     0.130 C 
BRANCH   9  10
ATOM     10  N   UNL A   1      32.593  23.276  25.194  1.00  0.00    -0.274 N 
ATOM     11  C   UNL A   1      31.586  23.698  24.339  1.00  0.00     0.261 C 
ATOM     12  C   UNL A   1      33.434  24.164  25.872  1.00  0.00     0.261 C 
ATOM     13  O   UNL A   1      30.962  22.956  23.591  1.00  0.00    -0.269 OA
ATOM     14  C   UNL A   1      31.254  25.125  24.288  1.00  0.00     0.049 A 
ATOM     15  C   UNL A   1      33.179  25.620  25.686  1.00  0.00     0.049 A 
ATOM     16  O   UNL A   1      34.357  23.811  26.600  1.00  0.00    -0.269 OA
ATOM     17  C   UNL A   1      30.134  25.536  23.550  1.00  0.00     0.015 A 
ATOM     18  C   UNL A   1      32.076  26.043  24.933  1.00  0.00     0.009 A 
ATOM     19  C   UNL A   1      34.026  26.565  26.277  1.00  0.00     0.015 A 
ATOM     20  C   UNL A   1      29.826  26.885  23.449  1.00  0.00     0.015 A 
ATOM     21  C   UNL A   1      31.782  27.421  24.809  1.00  0.00     0.009 A 
ATOM     22  C   UNL A   1      33.752  27.930  26.145  1.00  0.00     0.015 A 
ATOM     23  C   UNL A   1      30.651  27.822  24.075  1.00  0.00     0.048 A 
ATOM     24  C   UNL A   1      32.627  28.353  25.428  1.00  0.00     0.048 A 
ATOM     25  C   UNL A   1      30.325  29.261  23.964  1.00  0.00     0.258 C 
ATOM     26  C   UNL A   1      32.305  29.794  25.325  1.00  0.00     0.258 C 
ATOM     27  N   UNL A   1      31.206  30.125  24.570  1.00  0.00    -0.288 N 
ATOM     28  O   UNL A   1      29.314  29.640  23.395  1.00  0.00    -0.269 OA
ATOM     29  O   UNL A   1      32.961  30.640  25.923  1.00  0.00    -0.269 OA
ATOM     30  H   UNL A   1      31.031  31.087  24.448  1.00  0.00     0.173 HD
ENDBRANCH   9  10
ENDBRANCH   8   9
ENDBRANCH   7   8
ENDBRANCH   5   7
ENDBRANCH   2   3
ENDBRANCH   1   2
BRANCH   1  31
ATOM     31  C   UNL A   1      39.659  20.920  25.874  1.00  0.00     0.023 C 
BRANCH  31  32
ATOM     32  C   UNL A   1      40.372  19.887  26.739  1.00  0.00     0.116 C 
BRANCH  32  33
ATOM     33  N   UNL A   1      41.557  19.357  26.091  1.00  0.00    -0.352 N 
ATOM     34  C   UNL A   1      42.678  20.004  25.630  1.00  0.00     0.251 C 
ATOM     35  H   UNL A   1      41.557  18.380  25.961  1.00  0.00     0.163 HD
ATOM     36  O   UNL A   1      43.471  19.388  24.922  1.00  0.00    -0.269 OA
BRANCH  34  37
ATOM     37  C   UNL A   1      42.926  21.434  25.947  1.00  0.00     0.039 A 
ATOM     38  C   UNL A   1      43.144  21.794  27.281  1.00  0.00     0.014 A 
ATOM     39  C   UNL A   1      42.904  22.423  24.961  1.00  0.00     0.014 A 
ATOM     40  C   UNL A   1      43.401  23.130  27.613  1.00  0.00     0.010 A 
ATOM     41  C   UNL A   1      43.230  23.744  25.284  1.00  0.00     0.010 A 
ATOM     42  C   UNL A   1      43.483  24.113  26.615  1.00  0.00    -0.014 A 
BRANCH  42  43
ATOM     43  C   UNL A   1      43.839  25.522  26.946  1.00  0.00     0.031 A 
ATOM     44  C   UNL A   1      45.256  26.010  26.792  1.00  0.00     0.074 A 
ATOM     45  C   UNL A   1      42.895  26.352  27.436  1.00  0.00     0.049 A 
ATOM     46  N   UNL A   1      45.769  27.174  27.101  1.00  0.00    -0.248 NA
ATOM     47  C   UNL A   1      46.225  25.052  26.242  1.00  0.00     0.031 C 
ATOM     48  C   UNL A   1      41.491  25.998  27.658  1.00  0.00     0.029 A 
ATOM     49  N   UNL A   1      42.971  27.662  27.843  1.00  0.00    -0.354 N 
ATOM     50  C   UNL A   1      47.123  27.088  26.790  1.00  0.00     0.074 A 
ATOM     51  C   UNL A   1      47.358  25.735  26.329  1.00  0.00     0.031 C 
ATOM     52  C   UNL A   1      40.838  27.067  28.138  1.00  0.00     0.029 A 
ATOM     53  C   UNL A   1      41.779  28.169  28.310  1.00  0.00     0.049 A 
ATOM     54  H   UNL A   1      43.801  28.190  27.804  1.00  0.00     0.167 HD
ATOM     55  C   UNL A   1      48.077  28.051  26.861  1.00  0.00     0.034 A 
ATOM     56  C   UNL A   1      41.478  29.374  28.836  1.00  0.00     0.034 A 
ATOM     57  C   UNL A   1      47.829  29.398  27.318  1.00  0.00     0.049 A 
ATOM     58  C   UNL A   1      42.564  30.416  28.945  1.00  0.00     0.074 A 
ATOM     59  C   UNL A   1      48.714  30.461  27.388  1.00  0.00     0.029 A 
ATOM     60  N   UNL A   1      46.611  29.870  27.793  1.00  0.00    -0.354 N 
ATOM     61  N   UNL A   1      43.831  30.329  28.609  1.00  0.00    -0.248 NA
ATOM     62  C   UNL A   1      42.178  31.721  29.496  1.00  0.00     0.031 C 
ATOM     63  C   UNL A   1      48.055  31.547  27.973  1.00  0.00     0.029 A 
ATOM     64  C   UNL A   1      46.733  31.194  28.189  1.00  0.00     0.049 A 
ATOM     65  H   UNL A   1      45.783  29.340  27.842  1.00  0.00     0.167 HD
ATOM     66  C   UNL A   1      44.382  31.580  28.875  1.00  0.00     0.074 A 
ATOM     67  C   UNL A   1      43.306  32.406  29.387  1.00  0.00     0.031 C 
ATOM     68  C   UNL A   1      45.659  32.009  28.708  1.00  0.00     0.034 A 
BRANCH  55  69
ATOM     69  C   UNL A   1      49.483  27.669  26.458  1.00  0.00     0.023 A 
ATOM     70  C   UNL A   1      49.965  27.890  25.155  1.00  0.00     0.031 A 
ATOM     71  C   UNL A   1      50.351  27.060  27.382  1.00  0.00     0.131 A 
ATOM     72  C   UNL A   1      51.240  27.434  24.792  1.00  0.00     0.055 A 
ATOM     73  C   UNL A   1      51.652  26.687  27.039  1.00  0.00     0.041 A 
ATOM     74  F   UNL A   1      49.944  26.804  28.636  1.00  0.00    -0.206 F 
ATOM     75  C   UNL A   1      52.098  26.858  25.732  1.00  0.00     0.022 A 
BRANCH  72  76
ATOM     76  S   UNL A   1      51.703  27.465  23.038  1.00  0.00     0.124 S 
ATOM     77  O   UNL A   1      50.429  27.157  22.393  1.00  0.00    -0.237 OA
ATOM     78  O   UNL A   1      52.194  28.827  22.866  1.00  0.00    -0.237 OA
ATOM     79  O   UNL A   1      52.716  26.418  22.932  1.00  0.00    -0.744 OA
ENDBRANCH  72  76
ENDBRANCH  55  69
BRANCH  56  80
ATOM     80  C   UNL A   1      40.097  29.665  29.319  1.00  0.00     0.023 A 
ATOM     81  C   UNL A   1      39.809  29.746  30.690  1.00  0.00     0.031 A 
ATOM     82  C   UNL A   1      39.030  29.817  28.412  1.00  0.00     0.131 A 
ATOM     83  C   UNL A   1      38.484  29.923  31.118  1.00  0.00     0.055 A 
ATOM     84  C   UNL A   1      37.724  30.050  28.843  1.00  0.00     0.041 A 
ATOM     85  F   UNL A   1      39.249  29.754  27.089  1.00  0.00    -0.206 F 
ATOM     86  C   UNL A   1      37.441  30.090  30.204  1.00  0.00     0.022 A 
BRANCH  83  87
ATOM     87  S   UNL A   1      38.127  29.834  32.894  1.00  0.00     0.124 S 
ATOM     88  O   UNL A   1      36.680  29.652  32.897  1.00  0.00    -0.237 OA
ATOM     89  O   UNL A   1      38.920  28.680  33.304  1.00  0.00    -0.237 OA
ATOM     90  O   UNL A   1      38.596  31.122  33.399  1.00  0.00    -0.744 OA
ENDBRANCH  83  87
ENDBRANCH  56  80
BRANCH  68  91
ATOM     91  C   UNL A   1      45.951  33.454  29.039  1.00  0.00     0.023 A 
ATOM     92  C   UNL A   1      45.684  34.493  28.130  1.00  0.00     0.031 A 
ATOM     93  C   UNL A   1      46.514  33.793  30.282  1.00  0.00     0.131 A 
ATOM     94  C   UNL A   1      46.034  35.814  28.455  1.00  0.00     0.055 A 
ATOM     95  C   UNL A   1      46.800  35.116  30.625  1.00  0.00     0.041 A 
ATOM     96  F   UNL A   1      46.795  32.843  31.188  1.00  0.00    -0.206 F 
ATOM     97  C   UNL A   1      46.573  36.134  29.704  1.00  0.00     0.022 A 
BRANCH  94  98
ATOM     98  S   UNL A   1      45.867  37.097  27.184  1.00  0.00     0.124 S 
ATOM     99  O   UNL A   1      46.716  36.579  26.116  1.00  0.00    -0.237 OA
ATOM    100  O   UNL A   1      44.432  37.089  26.918  1.00  0.00    -0.237 OA
ATOM    101  O   UNL A   1      46.367  38.302  27.845  1.00  0.00    -0.744 OA
ENDBRANCH  94  98
ENDBRANCH  68  91
ENDBRANCH  42  43
ENDBRANCH  34  37
ENDBRANCH  32  33
ENDBRANCH  31  32
ENDBRANCH   1  31
TORSDOF 17
ENDMDL
