MODEL 1
REMARK VINA RESULT:     -12.2      0.000      0.000
REMARK SMILES CC1=Nn2c(nnc(CCC(=O)NCCCCNC(=O)c3ccc(-c4c5nc(c(-c6cc(S(=O)(=O)[O-])ccc6F)c6ccc([nH]6)c(-c6cc(S(=O)(=O)[O-])ccc6F)c6nc(c(-c7cc(S(=O)(=O)[O-])ccc7F)c7ccc4[nH]7)C=C6)C=C5)cc3)c2=O)SC1
REMARK SMILES IDX 16 1 15 2 14 3 13 4 11 5 12 6 10 8 9 9 8 10 1 11 2 12 3 13
REMARK SMILES IDX 87 14 4 15 86 16 5 17 84 18 6 19 85 20 7 21 17 22 18 23
REMARK SMILES IDX 19 24 20 26 21 27 22 28 83 29 23 30 82 31 24 32 25 33 26 34
REMARK SMILES IDX 76 35 27 36 81 37 75 38 77 39 28 40 80 41 74 42 73 43 29 45
REMARK SMILES IDX 61 46 41 47 60 48 42 49 45 50 59 51 78 52 43 53 44 54 58 56
REMARK SMILES IDX 79 57 46 58 30 59 31 60 39 61 32 62 38 63 40 64 37 65 33 66
REMARK SMILES IDX 34 67 35 68 36 69 62 70 63 71 71 72 64 73 70 74 72 75 69 76
REMARK SMILES IDX 65 77 66 78 67 79 68 80 47 81 48 82 56 83 49 84 55 85 57 86
REMARK SMILES IDX 54 87 50 88 51 89 52 90 53 91
REMARK H PARENT 13 7 18 25 77 44 45 55
REMARK Flexibility Score: inf
ROOT
ATOM      1  C   UNL A   1      31.465  31.829  26.509  1.00  0.00     0.023 C 
ENDROOT
BRANCH   1   2
ATOM      2  C   UNL A   1      31.510  30.309  26.475  1.00  0.00     0.023 C 
BRANCH   2   3
ATOM      3  C   UNL A   1      31.813  29.709  25.107  1.00  0.00     0.116 C 
BRANCH   3   4
ATOM      4  N   UNL A   1      30.792  30.086  24.151  1.00  0.00    -0.356 N 
ATOM      5  C   UNL A   1      30.048  29.300  23.324  1.00  0.00     0.220 C 
ATOM      6  O   UNL A   1      29.293  29.839  22.515  1.00  0.00    -0.275 OA
ATOM      7  H   UNL A   1      30.609  31.051  24.090  1.00  0.00     0.163 HD
BRANCH   5   8
ATOM      8  C   UNL A   1      30.150  27.789  23.407  1.00  0.00     0.106 C 
BRANCH   8   9
ATOM      9  C   UNL A   1      31.003  27.208  22.281  1.00  0.00     0.074 C 
BRANCH   9  10
ATOM     10  C   UNL A   1      31.402  25.768  22.535  1.00  0.00     0.131 A 
ATOM     11  C   UNL A   1      36.587  22.911  23.339  1.00  0.00     0.064 C 
ATOM     12  C   UNL A   1      35.078  22.964  23.286  1.00  0.00     0.046 C 
ATOM     13  N   UNL A   1      34.540  23.893  22.553  1.00  0.00    -0.172 NA
ATOM     14  C   UNL A   1      34.332  22.038  24.205  1.00  0.00     0.131 C 
ATOM     15  N   UNL A   1      33.178  24.130  22.609  1.00  0.00    -0.169 N 
ATOM     16  S   UNL A   1      32.709  21.670  23.545  1.00  0.00    -0.078 SA
ATOM     17  C   UNL A   1      32.238  23.308  23.184  1.00  0.00     0.214 A 
ATOM     18  C   UNL A   1      32.744  25.303  22.026  1.00  0.00     0.296 A 
ATOM     19  N   UNL A   1      31.016  23.661  23.433  1.00  0.00    -0.123 NA
ATOM     20  O   UNL A   1      33.341  26.000  21.213  1.00  0.00    -0.265 OA
ATOM     21  N   UNL A   1      30.612  24.982  23.200  1.00  0.00    -0.147 NA
ENDBRANCH   9  10
ENDBRANCH   8   9
ENDBRANCH   5   8
ENDBRANCH   3   4
ENDBRANCH   2   3
ENDBRANCH   1   2
BRANCH   1  22
ATOM     22  C   UNL A   1      32.748  32.470  27.021  1.00  0.00     0.116 C 
BRANCH  22  23
ATOM     23  N   UNL A   1      32.529  33.785  27.620  1.00  0.00    -0.352 N 
ATOM     24  C   UNL A   1      33.191  34.444  28.629  1.00  0.00     0.251 C 
ATOM     25  H   UNL A   1      31.776  34.287  27.232  1.00  0.00     0.163 HD
ATOM     26  O   UNL A   1      32.708  35.476  29.089  1.00  0.00    -0.269 OA
BRANCH  24  27
ATOM     27  C   UNL A   1      34.424  33.882  29.218  1.00  0.00     0.039 A 
ATOM     28  C   UNL A   1      35.651  34.504  28.966  1.00  0.00     0.014 A 
ATOM     29  C   UNL A   1      34.372  32.750  30.027  1.00  0.00     0.014 A 
ATOM     30  C   UNL A   1      36.803  34.055  29.618  1.00  0.00     0.010 A 
ATOM     31  C   UNL A   1      35.484  32.383  30.767  1.00  0.00     0.010 A 
ATOM     32  C   UNL A   1      36.717  33.021  30.561  1.00  0.00    -0.014 A 
BRANCH  32  33
ATOM     33  C   UNL A   1      37.900  32.511  31.298  1.00  0.00     0.031 A 
ATOM     34  C   UNL A   1      38.701  31.392  30.689  1.00  0.00     0.074 A 
ATOM     35  C   UNL A   1      38.192  32.970  32.530  1.00  0.00     0.049 A 
ATOM     36  N   UNL A   1      39.611  30.630  31.235  1.00  0.00    -0.248 NA
ATOM     37  C   UNL A   1      38.387  31.048  29.291  1.00  0.00     0.031 C 
ATOM     38  C   UNL A   1      37.472  34.032  33.238  1.00  0.00     0.029 A 
ATOM     39  N   UNL A   1      39.170  32.589  33.412  1.00  0.00    -0.354 N 
ATOM     40  C   UNL A   1      39.941  29.690  30.265  1.00  0.00     0.074 A 
ATOM     41  C   UNL A   1      39.085  29.937  29.125  1.00  0.00     0.031 C 
ATOM     42  C   UNL A   1      38.059  34.242  34.428  1.00  0.00     0.029 A 
ATOM     43  C   UNL A   1      39.160  33.297  34.591  1.00  0.00     0.049 A 
ATOM     44  H   UNL A   1      39.820  31.876  33.219  1.00  0.00     0.167 HD
ATOM     45  C   UNL A   1      40.892  28.728  30.308  1.00  0.00     0.034 A 
ATOM     46  C   UNL A   1      39.945  33.186  35.680  1.00  0.00     0.034 A 
ATOM     47  C   UNL A   1      41.787  28.547  31.418  1.00  0.00     0.049 A 
ATOM     48  C   UNL A   1      41.013  32.125  35.700  1.00  0.00     0.074 A 
ATOM     49  C   UNL A   1      42.829  27.648  31.549  1.00  0.00     0.029 A 
ATOM     50  N   UNL A   1      41.757  29.301  32.583  1.00  0.00    -0.354 N 
ATOM     51  N   UNL A   1      41.301  31.230  34.784  1.00  0.00    -0.248 NA
ATOM     52  C   UNL A   1      41.858  32.053  36.901  1.00  0.00     0.031 C 
ATOM     53  C   UNL A   1      43.412  27.839  32.807  1.00  0.00     0.029 A 
ATOM     54  C   UNL A   1      42.760  28.886  33.439  1.00  0.00     0.049 A 
ATOM     55  H   UNL A   1      41.116  30.024  32.771  1.00  0.00     0.167 HD
ATOM     56  C   UNL A   1      42.372  30.501  35.290  1.00  0.00     0.074 A 
ATOM     57  C   UNL A   1      42.682  31.060  36.590  1.00  0.00     0.031 C 
ATOM     58  C   UNL A   1      43.043  29.465  34.728  1.00  0.00     0.034 A 
BRANCH  45  59
ATOM     59  C   UNL A   1      41.010  27.818  29.114  1.00  0.00     0.023 A 
ATOM     60  C   UNL A   1      42.011  28.010  28.147  1.00  0.00     0.031 A 
ATOM     61  C   UNL A   1      40.090  26.774  28.916  1.00  0.00     0.131 A 
ATOM     62  C   UNL A   1      42.019  27.226  26.985  1.00  0.00     0.055 A 
ATOM     63  C   UNL A   1      40.154  25.942  27.796  1.00  0.00     0.041 A 
ATOM     64  F   UNL A   1      39.101  26.559  29.799  1.00  0.00    -0.206 F 
ATOM     65  C   UNL A   1      41.114  26.176  26.816  1.00  0.00     0.022 A 
BRANCH  62  66
ATOM     66  S   UNL A   1      43.153  27.679  25.647  1.00  0.00     0.124 S 
ATOM     67  O   UNL A   1      43.977  28.696  26.298  1.00  0.00    -0.237 OA
ATOM     68  O   UNL A   1      43.817  26.416  25.347  1.00  0.00    -0.237 OA
ATOM     69  O   UNL A   1      42.264  28.181  24.601  1.00  0.00    -0.744 OA
ENDBRANCH  62  66
ENDBRANCH  45  59
BRANCH  46  70
ATOM     70  C   UNL A   1      39.760  34.106  36.834  1.00  0.00     0.023 A 
ATOM     71  C   UNL A   1      39.173  33.647  38.023  1.00  0.00     0.031 A 
ATOM     72  C   UNL A   1      40.165  35.450  36.769  1.00  0.00     0.131 A 
ATOM     73  C   UNL A   1      38.983  34.533  39.095  1.00  0.00     0.055 A 
ATOM     74  C   UNL A   1      40.002  36.320  37.849  1.00  0.00     0.041 A 
ATOM     75  F   UNL A   1      40.745  35.930  35.657  1.00  0.00    -0.206 F 
ATOM     76  C   UNL A   1      39.402  35.864  39.020  1.00  0.00     0.022 A 
BRANCH  73  77
ATOM     77  S   UNL A   1      38.155  33.922  40.589  1.00  0.00     0.124 S 
ATOM     78  O   UNL A   1      37.792  35.167  41.256  1.00  0.00    -0.237 OA
ATOM     79  O   UNL A   1      37.053  33.147  40.031  1.00  0.00    -0.237 OA
ATOM     80  O   UNL A   1      39.193  33.135  41.253  1.00  0.00    -0.744 OA
ENDBRANCH  73  77
ENDBRANCH  46  70
BRANCH  58  81
ATOM     81  C   UNL A   1      44.198  28.892  35.497  1.00  0.00     0.023 A 
ATOM     82  C   UNL A   1      44.014  27.845  36.414  1.00  0.00     0.031 A 
ATOM     83  C   UNL A   1      45.505  29.343  35.244  1.00  0.00     0.131 A 
ATOM     84  C   UNL A   1      45.126  27.289  37.062  1.00  0.00     0.055 A 
ATOM     85  C   UNL A   1      46.610  28.762  35.864  1.00  0.00     0.041 A 
ATOM     86  F   UNL A   1      45.725  30.336  34.367  1.00  0.00    -0.206 F 
ATOM     87  C   UNL A   1      46.424  27.729  36.779  1.00  0.00     0.022 A 
BRANCH  84  88
ATOM     88  S   UNL A   1      44.859  25.972  38.277  1.00  0.00     0.124 S 
ATOM     89  O   UNL A   1      44.513  24.840  37.424  1.00  0.00    -0.237 OA
ATOM     90  O   UNL A   1      46.153  25.891  38.948  1.00  0.00    -0.237 OA
ATOM     91  O   UNL A   1      43.768  26.484  39.104  1.00  0.00    -0.744 OA
ENDBRANCH  84  88
ENDBRANCH  58  81
ENDBRANCH  32  33
ENDBRANCH  24  27
ENDBRANCH  22  23
ENDBRANCH   1  22
TORSDOF 16
ENDMDL
MODEL 2
REMARK VINA RESULT:     -11.7      5.372     10.629
REMARK SMILES CC1=Nn2c(nnc(CCC(=O)NCCCCNC(=O)c3ccc(-c4c5nc(c(-c6cc(S(=O)(=O)[O-])ccc6F)c6ccc([nH]6)c(-c6cc(S(=O)(=O)[O-])ccc6F)c6nc(c(-c7cc(S(=O)(=O)[O-])ccc7F)c7ccc4[nH]7)C=C6)C=C5)cc3)c2=O)SC1
REMARK SMILES IDX 16 1 15 2 14 3 13 4 11 5 12 6 10 8 9 9 8 10 1 11 2 12 3 13
REMARK SMILES IDX 87 14 4 15 86 16 5 17 84 18 6 19 85 20 7 21 17 22 18 23
REMARK SMILES IDX 19 24 20 26 21 27 22 28 83 29 23 30 82 31 24 32 25 33 26 34
REMARK SMILES IDX 76 35 27 36 81 37 75 38 77 39 28 40 80 41 74 42 73 43 29 45
REMARK SMILES IDX 61 46 41 47 60 48 42 49 45 50 59 51 78 52 43 53 44 54 58 56
REMARK SMILES IDX 79 57 46 58 30 59 31 60 39 61 32 62 38 63 40 64 37 65 33 66
REMARK SMILES IDX 34 67 35 68 36 69 62 70 63 71 71 72 64 73 70 74 72 75 69 76
REMARK SMILES IDX 65 77 66 78 67 79 68 80 47 81 48 82 56 83 49 84 55 85 57 86
REMARK SMILES IDX 54 87 50 88 51 89 52 90 53 91
REMARK H PARENT 13 7 18 25 77 44 45 55
REMARK Flexibility Score: inf
ROOT
ATOM      1  C   UNL A   1      34.794  21.599  26.305  1.00  0.00     0.023 C 
ENDROOT
BRANCH   1   2
ATOM      2  C   UNL A   1      34.063  22.615  27.171  1.00  0.00     0.023 C 
BRANCH   2   3
ATOM      3  C   UNL A   1      33.624  23.878  26.440  1.00  0.00     0.116 C 
BRANCH   3   4
ATOM      4  N   UNL A   1      32.258  24.216  26.789  1.00  0.00    -0.356 N 
ATOM      5  C   UNL A   1      31.098  23.888  26.157  1.00  0.00     0.220 C 
ATOM      6  O   UNL A   1      30.042  24.363  26.576  1.00  0.00    -0.275 OA
ATOM      7  H   UNL A   1      32.155  24.763  27.601  1.00  0.00     0.163 HD
BRANCH   5   8
ATOM      8  C   UNL A   1      31.113  22.953  24.964  1.00  0.00     0.106 C 
BRANCH   8   9
ATOM      9  C   UNL A   1      30.687  23.655  23.677  1.00  0.00     0.074 C 
BRANCH   9  10
ATOM     10  C   UNL A   1      31.482  24.918  23.411  1.00  0.00     0.131 A 
ATOM     11  C   UNL A   1      31.544  30.426  25.724  1.00  0.00     0.064 C 
ATOM     12  C   UNL A   1      32.074  29.350  24.805  1.00  0.00     0.046 C 
ATOM     13  N   UNL A   1      31.246  28.418  24.439  1.00  0.00    -0.172 NA
ATOM     14  C   UNL A   1      33.549  29.366  24.519  1.00  0.00     0.131 C 
ATOM     15  N   UNL A   1      31.701  27.299  23.765  1.00  0.00    -0.169 N 
ATOM     16  S   UNL A   1      33.892  28.591  22.941  1.00  0.00    -0.078 SA
ATOM     17  C   UNL A   1      32.940  27.153  23.188  1.00  0.00     0.214 A 
ATOM     18  C   UNL A   1      30.815  26.245  23.674  1.00  0.00     0.296 A 
ATOM     19  N   UNL A   1      33.424  26.023  22.776  1.00  0.00    -0.123 NA
ATOM     20  O   UNL A   1      29.599  26.274  23.832  1.00  0.00    -0.265 OA
ATOM     21  N   UNL A   1      32.710  24.838  22.997  1.00  0.00    -0.147 NA
ENDBRANCH   9  10
ENDBRANCH   8   9
ENDBRANCH   5   8
ENDBRANCH   3   4
ENDBRANCH   2   3
ENDBRANCH   1   2
BRANCH   1  22
ATOM     22  C   UNL A   1      36.111  22.110  25.738  1.00  0.00     0.116 C 
BRANCH  22  23
ATOM     23  N   UNL A   1      37.113  21.059  25.584  1.00  0.00    -0.352 N 
ATOM     24  C   UNL A   1      38.478  21.073  25.751  1.00  0.00     0.251 C 
ATOM     25  H   UNL A   1      36.747  20.186  25.312  1.00  0.00     0.163 HD
ATOM     26  O   UNL A   1      39.137  20.104  25.385  1.00  0.00    -0.269 OA
BRANCH  24  27
ATOM     27  C   UNL A   1      39.161  22.269  26.287  1.00  0.00     0.039 A 
ATOM     28  C   UNL A   1      40.216  22.111  27.191  1.00  0.00     0.014 A 
ATOM     29  C   UNL A   1      38.771  23.546  25.891  1.00  0.00     0.014 A 
ATOM     30  C   UNL A   1      40.947  23.227  27.607  1.00  0.00     0.010 A 
ATOM     31  C   UNL A   1      39.570  24.635  26.201  1.00  0.00     0.010 A 
ATOM     32  C   UNL A   1      40.659  24.491  27.074  1.00  0.00    -0.014 A 
BRANCH  32  33
ATOM     33  C   UNL A   1      41.410  25.711  27.462  1.00  0.00     0.031 A 
ATOM     34  C   UNL A   1      40.724  26.735  28.326  1.00  0.00     0.074 A 
ATOM     35  C   UNL A   1      42.641  25.946  26.969  1.00  0.00     0.049 A 
ATOM     36  N   UNL A   1      41.075  27.965  28.593  1.00  0.00    -0.248 NA
ATOM     37  C   UNL A   1      39.437  26.334  28.920  1.00  0.00     0.031 C 
ATOM     38  C   UNL A   1      43.398  25.043  26.098  1.00  0.00     0.029 A 
ATOM     39  N   UNL A   1      43.469  27.027  27.123  1.00  0.00    -0.354 N 
ATOM     40  C   UNL A   1      40.031  28.496  29.343  1.00  0.00     0.074 A 
ATOM     41  C   UNL A   1      39.009  27.478  29.428  1.00  0.00     0.031 C 
ATOM     42  C   UNL A   1      44.594  25.592  25.829  1.00  0.00     0.029 A 
ATOM     43  C   UNL A   1      44.669  26.906  26.460  1.00  0.00     0.049 A 
ATOM     44  H   UNL A   1      43.229  27.817  27.659  1.00  0.00     0.167 HD
ATOM     45  C   UNL A   1      39.946  29.711  29.933  1.00  0.00     0.034 A 
ATOM     46  C   UNL A   1      45.703  27.764  26.368  1.00  0.00     0.034 A 
ATOM     47  C   UNL A   1      41.006  30.683  29.903  1.00  0.00     0.049 A 
ATOM     48  C   UNL A   1      45.600  29.102  27.051  1.00  0.00     0.074 A 
ATOM     49  C   UNL A   1      41.058  31.921  30.516  1.00  0.00     0.029 A 
ATOM     50  N   UNL A   1      42.213  30.510  29.240  1.00  0.00    -0.354 N 
ATOM     51  N   UNL A   1      44.599  29.599  27.740  1.00  0.00    -0.248 NA
ATOM     52  C   UNL A   1      46.760  29.998  26.939  1.00  0.00     0.031 C 
ATOM     53  C   UNL A   1      42.287  32.510  30.199  1.00  0.00     0.029 A 
ATOM     54  C   UNL A   1      43.016  31.620  29.426  1.00  0.00     0.049 A 
ATOM     55  H   UNL A   1      42.460  29.714  28.715  1.00  0.00     0.167 HD
ATOM     56  C   UNL A   1      45.016  30.858  28.160  1.00  0.00     0.074 A 
ATOM     57  C   UNL A   1      46.359  31.046  27.650  1.00  0.00     0.031 C 
ATOM     58  C   UNL A   1      44.350  31.775  28.905  1.00  0.00     0.034 A 
BRANCH  45  59
ATOM     59  C   UNL A   1      38.671  30.038  30.663  1.00  0.00     0.023 A 
ATOM     60  C   UNL A   1      37.634  30.749  30.035  1.00  0.00     0.031 A 
ATOM     61  C   UNL A   1      38.502  29.672  32.009  1.00  0.00     0.131 A 
ATOM     62  C   UNL A   1      36.512  31.146  30.775  1.00  0.00     0.055 A 
ATOM     63  C   UNL A   1      37.344  30.000  32.719  1.00  0.00     0.041 A 
ATOM     64  F   UNL A   1      39.469  29.009  32.663  1.00  0.00    -0.206 F 
ATOM     65  C   UNL A   1      36.347  30.753  32.105  1.00  0.00     0.022 A 
BRANCH  62  66
ATOM     66  S   UNL A   1      35.331  32.287  30.007  1.00  0.00     0.124 S 
ATOM     67  O   UNL A   1      34.391  32.511  31.103  1.00  0.00    -0.237 OA
ATOM     68  O   UNL A   1      36.172  33.422  29.645  1.00  0.00    -0.237 OA
ATOM     69  O   UNL A   1      34.799  31.520  28.882  1.00  0.00    -0.744 OA
ENDBRANCH  62  66
ENDBRANCH  45  59
BRANCH  46  70
ATOM     70  C   UNL A   1      46.927  27.384  25.613  1.00  0.00     0.023 A 
ATOM     71  C   UNL A   1      47.062  27.728  24.259  1.00  0.00     0.031 A 
ATOM     72  C   UNL A   1      47.975  26.678  26.226  1.00  0.00     0.131 A 
ATOM     73  C   UNL A   1      48.211  27.341  23.552  1.00  0.00     0.055 A 
ATOM     74  C   UNL A   1      49.130  26.323  25.528  1.00  0.00     0.041 A 
ATOM     75  F   UNL A   1      47.896  26.340  27.524  1.00  0.00    -0.206 F 
ATOM     76  C   UNL A   1      49.250  26.650  24.179  1.00  0.00     0.022 A 
BRANCH  73  77
ATOM     77  S   UNL A   1      48.319  27.741  21.786  1.00  0.00     0.124 S 
ATOM     78  O   UNL A   1      49.462  28.646  21.757  1.00  0.00    -0.237 OA
ATOM     79  O   UNL A   1      48.525  26.426  21.188  1.00  0.00    -0.237 OA
ATOM     80  O   UNL A   1      47.025  28.357  21.499  1.00  0.00    -0.744 OA
ENDBRANCH  73  77
ENDBRANCH  46  70
BRANCH  58  81
ATOM     81  C   UNL A   1      45.073  33.047  29.243  1.00  0.00     0.023 A 
ATOM     82  C   UNL A   1      45.900  33.136  30.373  1.00  0.00     0.031 A 
ATOM     83  C   UNL A   1      44.997  34.151  28.376  1.00  0.00     0.131 A 
ATOM     84  C   UNL A   1      46.613  34.318  30.618  1.00  0.00     0.055 A 
ATOM     85  C   UNL A   1      45.736  35.310  28.604  1.00  0.00     0.041 A 
ATOM     86  F   UNL A   1      44.225  34.102  27.278  1.00  0.00    -0.206 F 
ATOM     87  C   UNL A   1      46.550  35.399  29.731  1.00  0.00     0.022 A 
BRANCH  84  88
ATOM     88  S   UNL A   1      47.635  34.428  32.110  1.00  0.00     0.124 S 
ATOM     89  O   UNL A   1      46.777  33.801  33.110  1.00  0.00    -0.237 OA
ATOM     90  O   UNL A   1      48.829  33.676  31.734  1.00  0.00    -0.237 OA
ATOM     91  O   UNL A   1      47.841  35.865  32.280  1.00  0.00    -0.744 OA
ENDBRANCH  84  88
ENDBRANCH  58  81
ENDBRANCH  32  33
ENDBRANCH  24  27
ENDBRANCH  22  23
ENDBRANCH   1  22
TORSDOF 16
ENDMDL
MODEL 3
REMARK VINA RESULT:     -11.6      5.775     10.165
REMARK SMILES CC1=Nn2c(nnc(CCC(=O)NCCCCNC(=O)c3ccc(-c4c5nc(c(-c6cc(S(=O)(=O)[O-])ccc6F)c6ccc([nH]6)c(-c6cc(S(=O)(=O)[O-])ccc6F)c6nc(c(-c7cc(S(=O)(=O)[O-])ccc7F)c7ccc4[nH]7)C=C6)C=C5)cc3)c2=O)SC1
REMARK SMILES IDX 16 1 15 2 14 3 13 4 11 5 12 6 10 8 9 9 8 10 1 11 2 12 3 13
REMARK SMILES IDX 87 14 4 15 86 16 5 17 84 18 6 19 85 20 7 21 17 22 18 23
REMARK SMILES IDX 19 24 20 26 21 27 22 28 83 29 23 30 82 31 24 32 25 33 26 34
REMARK SMILES IDX 76 35 27 36 81 37 75 38 77 39 28 40 80 41 74 42 73 43 29 45
REMARK SMILES IDX 61 46 41 47 60 48 42 49 45 50 59 51 78 52 43 53 44 54 58 56
REMARK SMILES IDX 79 57 46 58 30 59 31 60 39 61 32 62 38 63 40 64 37 65 33 66
REMARK SMILES IDX 34 67 35 68 36 69 62 70 63 71 71 72 64 73 70 74 72 75 69 76
REMARK SMILES IDX 65 77 66 78 67 79 68 80 47 81 48 82 56 83 49 84 55 85 57 86
REMARK SMILES IDX 54 87 50 88 51 89 52 90 53 91
REMARK H PARENT 13 7 18 25 77 44 45 55
REMARK Flexibility Score: inf
ROOT
ATOM      1  C   UNL A   1      40.984  19.987  27.261  1.00  0.00     0.023 C 
ENDROOT
BRANCH   1   2
ATOM      2  C   UNL A   1      42.465  19.652  27.360  1.00  0.00     0.023 C 
BRANCH   2   3
ATOM      3  C   UNL A   1      42.835  18.249  26.892  1.00  0.00     0.116 C 
BRANCH   3   4
ATOM      4  N   UNL A   1      44.246  18.179  26.570  1.00  0.00    -0.356 N 
ATOM      5  C   UNL A   1      44.892  18.542  25.427  1.00  0.00     0.220 C 
ATOM      6  O   UNL A   1      46.096  18.308  25.329  1.00  0.00    -0.275 OA
ATOM      7  H   UNL A   1      44.822  17.814  27.281  1.00  0.00     0.163 HD
BRANCH   5   8
ATOM      8  C   UNL A   1      44.136  19.226  24.305  1.00  0.00     0.106 C 
BRANCH   8   9
ATOM      9  C   UNL A   1      44.972  20.308  23.625  1.00  0.00     0.074 C 
BRANCH   9  10
ATOM     10  C   UNL A   1      45.266  21.479  24.541  1.00  0.00     0.131 A 
ATOM     11  C   UNL A   1      42.593  23.870  29.319  1.00  0.00     0.064 C 
ATOM     12  C   UNL A   1      43.721  23.777  28.319  1.00  0.00     0.046 C 
ATOM     13  N   UNL A   1      43.444  23.274  27.153  1.00  0.00    -0.172 NA
ATOM     14  C   UNL A   1      45.097  24.129  28.811  1.00  0.00     0.131 C 
ATOM     15  N   UNL A   1      44.456  22.975  26.259  1.00  0.00    -0.169 N 
ATOM     16  S   UNL A   1      46.125  24.688  27.455  1.00  0.00    -0.078 SA
ATOM     17  C   UNL A   1      45.765  23.387  26.353  1.00  0.00     0.214 A 
ATOM     18  C   UNL A   1      44.099  22.191  25.181  1.00  0.00     0.296 A 
ATOM     19  N   UNL A   1      46.734  22.903  25.643  1.00  0.00    -0.123 NA
ATOM     20  O   UNL A   1      42.972  21.983  24.748  1.00  0.00    -0.265 OA
ATOM     21  N   UNL A   1      46.494  21.827  24.779  1.00  0.00    -0.147 NA
ENDBRANCH   9  10
ENDBRANCH   8   9
ENDBRANCH   5   8
ENDBRANCH   3   4
ENDBRANCH   2   3
ENDBRANCH   1   2
BRANCH   1  22
ATOM     22  C   UNL A   1      40.690  21.481  27.254  1.00  0.00     0.116 C 
BRANCH  22  23
ATOM     23  N   UNL A   1      39.484  21.822  26.505  1.00  0.00    -0.352 N 
ATOM     24  C   UNL A   1      38.809  23.012  26.364  1.00  0.00     0.251 C 
ATOM     25  H   UNL A   1      39.082  21.067  26.017  1.00  0.00     0.163 HD
ATOM     26  O   UNL A   1      37.705  23.015  25.825  1.00  0.00    -0.269 OA
BRANCH  24  27
ATOM     27  C   UNL A   1      39.360  24.263  26.923  1.00  0.00     0.039 A 
ATOM     28  C   UNL A   1      40.066  25.137  26.089  1.00  0.00     0.014 A 
ATOM     29  C   UNL A   1      39.171  24.585  28.265  1.00  0.00     0.014 A 
ATOM     30  C   UNL A   1      40.482  26.378  26.577  1.00  0.00     0.010 A 
ATOM     31  C   UNL A   1      39.471  25.861  28.714  1.00  0.00     0.010 A 
ATOM     32  C   UNL A   1      40.143  26.769  27.881  1.00  0.00    -0.014 A 
BRANCH  32  33
ATOM     33  C   UNL A   1      40.540  28.079  28.451  1.00  0.00     0.031 A 
ATOM     34  C   UNL A   1      42.004  28.365  28.651  1.00  0.00     0.074 A 
ATOM     35  C   UNL A   1      39.608  28.955  28.875  1.00  0.00     0.049 A 
ATOM     36  N   UNL A   1      42.578  29.316  29.339  1.00  0.00    -0.248 NA
ATOM     37  C   UNL A   1      42.946  27.410  28.041  1.00  0.00     0.031 C 
ATOM     38  C   UNL A   1      38.158  28.779  28.762  1.00  0.00     0.029 A 
ATOM     39  N   UNL A   1      39.746  30.168  29.499  1.00  0.00    -0.354 N 
ATOM     40  C   UNL A   1      43.941  29.045  29.283  1.00  0.00     0.074 A 
ATOM     41  C   UNL A   1      44.099  27.807  28.555  1.00  0.00     0.031 C 
ATOM     42  C   UNL A   1      37.543  29.863  29.264  1.00  0.00     0.029 A 
ATOM     43  C   UNL A   1      38.550  30.785  29.782  1.00  0.00     0.049 A 
ATOM     44  H   UNL A   1      40.620  30.561  29.723  1.00  0.00     0.167 HD
ATOM     45  C   UNL A   1      44.970  29.779  29.769  1.00  0.00     0.034 A 
ATOM     46  C   UNL A   1      38.299  31.957  30.398  1.00  0.00     0.034 A 
ATOM     47  C   UNL A   1      44.799  31.048  30.423  1.00  0.00     0.049 A 
ATOM     48  C   UNL A   1      39.457  32.770  30.910  1.00  0.00     0.074 A 
ATOM     49  C   UNL A   1      45.769  31.910  30.900  1.00  0.00     0.029 A 
ATOM     50  N   UNL A   1      43.571  31.647  30.668  1.00  0.00    -0.354 N 
ATOM     51  N   UNL A   1      40.740  32.493  30.869  1.00  0.00    -0.248 NA
ATOM     52  C   UNL A   1      39.137  34.050  31.559  1.00  0.00     0.031 C 
ATOM     53  C   UNL A   1      45.126  33.019  31.462  1.00  0.00     0.029 A 
ATOM     54  C   UNL A   1      43.758  32.866  31.293  1.00  0.00     0.049 A 
ATOM     55  H   UNL A   1      42.697  31.261  30.432  1.00  0.00     0.167 HD
ATOM     56  C   UNL A   1      41.381  33.572  31.468  1.00  0.00     0.074 A 
ATOM     57  C   UNL A   1      40.346  34.507  31.862  1.00  0.00     0.031 C 
ATOM     58  C   UNL A   1      42.706  33.775  31.671  1.00  0.00     0.034 A 
BRANCH  45  59
ATOM     59  C   UNL A   1      46.358  29.224  29.594  1.00  0.00     0.023 A 
ATOM     60  C   UNL A   1      47.075  29.415  28.400  1.00  0.00     0.031 A 
ATOM     61  C   UNL A   1      46.958  28.462  30.611  1.00  0.00     0.131 A 
ATOM     62  C   UNL A   1      48.312  28.782  28.220  1.00  0.00     0.055 A 
ATOM     63  C   UNL A   1      48.228  27.902  30.456  1.00  0.00     0.041 A 
ATOM     64  F   UNL A   1      46.310  28.232  31.764  1.00  0.00    -0.206 F 
ATOM     65  C   UNL A   1      48.906  28.049  29.249  1.00  0.00     0.022 A 
BRANCH  62  66
ATOM     66  S   UNL A   1      49.074  28.831  26.576  1.00  0.00     0.124 S 
ATOM     67  O   UNL A   1      47.908  28.659  25.712  1.00  0.00    -0.237 OA
ATOM     68  O   UNL A   1      49.697  30.149  26.552  1.00  0.00    -0.237 OA
ATOM     69  O   UNL A   1      50.002  27.702  26.596  1.00  0.00    -0.744 OA
ENDBRANCH  62  66
ENDBRANCH  45  59
BRANCH  46  70
ATOM     70  C   UNL A   1      36.900  32.436  30.555  1.00  0.00     0.023 A 
ATOM     71  C   UNL A   1      36.267  33.136  29.516  1.00  0.00     0.031 A 
ATOM     72  C   UNL A   1      36.176  32.205  31.736  1.00  0.00     0.131 A 
ATOM     73  C   UNL A   1      34.954  33.604  29.687  1.00  0.00     0.055 A 
ATOM     74  C   UNL A   1      34.860  32.645  31.891  1.00  0.00     0.041 A 
ATOM     75  F   UNL A   1      36.736  31.527  32.752  1.00  0.00    -0.206 F 
ATOM     76  C   UNL A   1      34.244  33.355  30.864  1.00  0.00     0.022 A 
BRANCH  73  77
ATOM     77  S   UNL A   1      34.195  34.566  28.350  1.00  0.00     0.124 S 
ATOM     78  O   UNL A   1      34.385  35.932  28.824  1.00  0.00    -0.237 OA
ATOM     79  O   UNL A   1      34.995  34.169  27.197  1.00  0.00    -0.237 OA
ATOM     80  O   UNL A   1      32.812  34.094  28.337  1.00  0.00    -0.744 OA
ENDBRANCH  73  77
ENDBRANCH  46  70
BRANCH  58  81
ATOM     81  C   UNL A   1      43.116  35.068  32.315  1.00  0.00     0.023 A 
ATOM     82  C   UNL A   1      43.195  35.193  33.710  1.00  0.00     0.031 A 
ATOM     83  C   UNL A   1      43.512  36.156  31.518  1.00  0.00     0.131 A 
ATOM     84  C   UNL A   1      43.649  36.394  34.273  1.00  0.00     0.055 A 
ATOM     85  C   UNL A   1      43.997  37.334  32.082  1.00  0.00     0.041 A 
ATOM     86  F   UNL A   1      43.461  36.073  30.179  1.00  0.00    -0.206 F 
ATOM     87  C   UNL A   1      44.067  37.459  33.467  1.00  0.00     0.022 A 
BRANCH  84  88
ATOM     88  S   UNL A   1      43.696  36.549  36.078  1.00  0.00     0.124 S 
ATOM     89  O   UNL A   1      42.377  36.052  36.457  1.00  0.00    -0.237 OA
ATOM     90  O   UNL A   1      44.825  35.700  36.442  1.00  0.00    -0.237 OA
ATOM     91  O   UNL A   1      43.907  37.980  36.293  1.00  0.00    -0.744 OA
ENDBRANCH  84  88
ENDBRANCH  58  81
ENDBRANCH  32  33
ENDBRANCH  24  27
ENDBRANCH  22  23
ENDBRANCH   1  22
TORSDOF 16
ENDMDL
