MODEL 1
REMARK VINA RESULT:     -12.7      0.000      0.000
REMARK SMILES CC1(C)[C@@]2(CC[C@@H]2C(=O)NCc2ccco2)[C@]1(C)C(=O)NCCCCNC(=O)c1ccc(-c2c3nc(c(-c4cc(S(=O)(=O)[O-])ccc4F)c4ccc([nH]4)c(-c4cc(S(=O)(=O)[O-])ccc4F)c4nc(c(-c5cc(S(=O)(=O)[O-])ccc5F)c5ccc2[nH]5)C=C4)C=C3)cc1
REMARK SMILES IDX 23 1 22 2 21 3 19 4 20 5 17 7 1 8 2 9 3 10 4 11 18 12 5 13
REMARK SMILES IDX 7 14 6 15 8 16 9 17 10 18 11 20 12 21 13 22 16 23 14 24
REMARK SMILES IDX 15 25 24 26 25 27 26 28 27 29 28 31 29 32 30 33 91 34 31 35
REMARK SMILES IDX 90 36 32 37 33 38 34 39 84 40 35 41 89 42 83 43 85 44 36 45
REMARK SMILES IDX 88 46 82 47 81 48 37 50 69 51 49 52 68 53 50 54 53 55 67 56
REMARK SMILES IDX 86 57 51 58 52 59 66 61 87 62 54 63 38 64 39 65 47 66 40 67
REMARK SMILES IDX 46 68 48 69 45 70 41 71 42 72 43 73 44 74 70 75 71 76 79 77
REMARK SMILES IDX 72 78 78 79 80 80 77 81 73 82 74 83 75 84 76 85 55 86 56 87
REMARK SMILES IDX 64 88 57 89 63 90 65 91 62 92 58 93 59 94 60 95 61 96
REMARK H PARENT 21 6 10 19 26 30 85 49 53 60
REMARK Flexibility Score: inf
ROOT
ATOM      1  C   UNL A   1      31.914  29.210  24.523  1.00  0.00     0.023 C 
ENDROOT
BRANCH   1   2
ATOM      2  C   UNL A   1      33.327  28.734  24.842  1.00  0.00     0.116 C 
BRANCH   2   3
ATOM      3  N   UNL A   1      33.930  27.972  23.781  1.00  0.00    -0.356 N 
ATOM      4  C   UNL A   1      33.443  26.931  23.043  1.00  0.00     0.227 C 
ATOM      5  O   UNL A   1      33.819  26.889  21.869  1.00  0.00    -0.274 OA
ATOM      6  H   UNL A   1      34.847  28.247  23.548  1.00  0.00     0.163 HD
BRANCH   4   7
ATOM      7  C   UNL A   1      32.621  25.747  23.548  1.00  0.00     0.059 C 
ATOM      8  C   UNL A   1      34.626  25.406  25.227  1.00  0.00     0.013 C 
ATOM      9  C   UNL A   1      33.196  25.078  24.836  1.00  0.00    -0.013 C 
ATOM     10  C   UNL A   1      32.326  24.947  26.068  1.00  0.00     0.013 C 
ATOM     11  C   UNL A   1      32.886  24.232  23.617  1.00  0.00     0.003 C 
ATOM     12  C   UNL A   1      31.131  26.148  23.554  1.00  0.00     0.023 C 
ATOM     13  C   UNL A   1      31.752  23.238  23.525  1.00  0.00     0.010 C 
ATOM     14  C   UNL A   1      33.793  23.330  22.834  1.00  0.00     0.086 C 
ATOM     15  C   UNL A   1      32.589  22.443  22.543  1.00  0.00     0.015 C 
BRANCH  14  16
ATOM     16  C   UNL A   1      35.099  22.780  23.445  1.00  0.00     0.224 C 
ATOM     17  O   UNL A   1      36.199  22.969  22.897  1.00  0.00    -0.275 OA
ATOM     18  N   UNL A   1      35.167  22.023  24.584  1.00  0.00    -0.349 N 
ATOM     19  H   UNL A   1      36.083  21.798  24.865  1.00  0.00     0.163 HD
BRANCH  18  20
ATOM     20  C   UNL A   1      34.139  21.496  25.447  1.00  0.00     0.191 C 
BRANCH  20  21
ATOM     21  C   UNL A   1      33.805  20.103  25.054  1.00  0.00     0.122 A 
ATOM     22  C   UNL A   1      32.642  19.355  25.026  1.00  0.00     0.047 A 
ATOM     23  O   UNL A   1      34.853  19.334  24.634  1.00  0.00    -0.467 OA
ATOM     24  C   UNL A   1      33.003  18.061  24.582  1.00  0.00     0.042 A 
ATOM     25  C   UNL A   1      34.357  18.103  24.350  1.00  0.00     0.195 A 
ENDBRANCH  20  21
ENDBRANCH  18  20
ENDBRANCH  14  16
ENDBRANCH   4   7
ENDBRANCH   2   3
ENDBRANCH   1   2
BRANCH   1  26
ATOM     26  C   UNL A   1      31.361  30.274  25.464  1.00  0.00     0.023 C 
BRANCH  26  27
ATOM     27  C   UNL A   1      32.349  30.829  26.483  1.00  0.00     0.116 C 
BRANCH  27  28
ATOM     28  N   UNL A   1      32.095  32.209  26.881  1.00  0.00    -0.352 N 
ATOM     29  C   UNL A   1      32.928  33.037  27.602  1.00  0.00     0.251 C 
ATOM     30  H   UNL A   1      31.233  32.592  26.603  1.00  0.00     0.163 HD
ATOM     31  O   UNL A   1      32.574  34.159  27.936  1.00  0.00    -0.269 OA
BRANCH  29  32
ATOM     32  C   UNL A   1      34.248  32.509  28.005  1.00  0.00     0.039 A 
ATOM     33  C   UNL A   1      35.351  33.365  28.005  1.00  0.00     0.014 A 
ATOM     34  C   UNL A   1      34.351  31.206  28.499  1.00  0.00     0.014 A 
ATOM     35  C   UNL A   1      36.544  32.944  28.594  1.00  0.00     0.010 A 
ATOM     36  C   UNL A   1      35.518  30.816  29.145  1.00  0.00     0.010 A 
ATOM     37  C   UNL A   1      36.619  31.686  29.212  1.00  0.00    -0.014 A 
BRANCH  37  38
ATOM     38  C   UNL A   1      37.827  31.241  29.951  1.00  0.00     0.031 A 
ATOM     39  C   UNL A   1      38.748  30.238  29.317  1.00  0.00     0.074 A 
ATOM     40  C   UNL A   1      38.013  31.626  31.228  1.00  0.00     0.049 A 
ATOM     41  N   UNL A   1      39.730  29.559  29.849  1.00  0.00    -0.248 NA
ATOM     42  C   UNL A   1      38.490  29.925  27.905  1.00  0.00     0.031 C 
ATOM     43  C   UNL A   1      37.154  32.553  31.967  1.00  0.00     0.029 A 
ATOM     44  N   UNL A   1      38.967  31.257  32.143  1.00  0.00    -0.354 N 
ATOM     45  C   UNL A   1      40.179  28.702  28.850  1.00  0.00     0.074 A 
ATOM     46  C   UNL A   1      39.329  28.922  27.697  1.00  0.00     0.031 C 
ATOM     47  C   UNL A   1      37.614  32.672  33.224  1.00  0.00     0.029 A 
ATOM     48  C   UNL A   1      38.772  31.800  33.393  1.00  0.00     0.049 A 
ATOM     49  H   UNL A   1      39.719  30.659  31.927  1.00  0.00     0.167 HD
ATOM     50  C   UNL A   1      41.212  27.825  28.888  1.00  0.00     0.034 A 
ATOM     51  C   UNL A   1      39.432  31.595  34.550  1.00  0.00     0.034 A 
ATOM     52  C   UNL A   1      42.066  27.650  30.036  1.00  0.00     0.049 A 
ATOM     53  C   UNL A   1      40.597  30.643  34.566  1.00  0.00     0.074 A 
ATOM     54  C   UNL A   1      43.198  26.863  30.161  1.00  0.00     0.029 A 
ATOM     55  N   UNL A   1      41.877  28.269  31.267  1.00  0.00    -0.354 N 
ATOM     56  N   UNL A   1      41.050  29.880  33.598  1.00  0.00    -0.248 NA
ATOM     57  C   UNL A   1      41.344  30.528  35.825  1.00  0.00     0.031 C 
ATOM     58  C   UNL A   1      43.662  26.966  31.477  1.00  0.00     0.029 A 
ATOM     59  C   UNL A   1      42.856  27.864  32.159  1.00  0.00     0.049 A 
ATOM     60  H   UNL A   1      41.153  28.904  31.473  1.00  0.00     0.167 HD
ATOM     61  C   UNL A   1      42.153  29.214  34.124  1.00  0.00     0.074 A 
ATOM     62  C   UNL A   1      42.295  29.664  35.494  1.00  0.00     0.031 C 
ATOM     63  C   UNL A   1      42.977  28.320  33.524  1.00  0.00     0.034 A 
BRANCH  50  64
ATOM     64  C   UNL A   1      41.439  26.973  27.662  1.00  0.00     0.023 A 
ATOM     65  C   UNL A   1      41.069  25.618  27.625  1.00  0.00     0.031 A 
ATOM     66  C   UNL A   1      42.097  27.506  26.539  1.00  0.00     0.131 A 
ATOM     67  C   UNL A   1      41.448  24.818  26.538  1.00  0.00     0.055 A 
ATOM     68  C   UNL A   1      42.391  26.725  25.419  1.00  0.00     0.041 A 
ATOM     69  F   UNL A   1      42.490  28.789  26.522  1.00  0.00    -0.206 F 
ATOM     70  C   UNL A   1      42.086  25.367  25.423  1.00  0.00     0.022 A 
BRANCH  67  71
ATOM     71  S   UNL A   1      41.254  23.020  26.682  1.00  0.00     0.124 S 
ATOM     72  O   UNL A   1      41.788  22.773  28.020  1.00  0.00    -0.237 OA
ATOM     73  O   UNL A   1      39.816  22.845  26.526  1.00  0.00    -0.237 OA
ATOM     74  O   UNL A   1      42.069  22.498  25.588  1.00  0.00    -0.744 OA
ENDBRANCH  67  71
ENDBRANCH  50  64
BRANCH  51  75
ATOM     75  C   UNL A   1      38.988  32.285  35.791  1.00  0.00     0.023 A 
ATOM     76  C   UNL A   1      38.278  31.599  36.788  1.00  0.00     0.031 A 
ATOM     77  C   UNL A   1      39.275  33.646  35.998  1.00  0.00     0.131 A 
ATOM     78  C   UNL A   1      37.852  32.283  37.937  1.00  0.00     0.055 A 
ATOM     79  C   UNL A   1      38.881  34.313  37.159  1.00  0.00     0.041 A 
ATOM     80  F   UNL A   1      39.965  34.340  35.080  1.00  0.00    -0.206 F 
ATOM     81  C   UNL A   1      38.157  33.633  38.134  1.00  0.00     0.022 A 
BRANCH  78  82
ATOM     82  S   UNL A   1      36.858  31.390  39.164  1.00  0.00     0.124 S 
ATOM     83  O   UNL A   1      35.657  32.215  39.232  1.00  0.00    -0.237 OA
ATOM     84  O   UNL A   1      36.704  30.082  38.537  1.00  0.00    -0.237 OA
ATOM     85  O   UNL A   1      37.697  31.409  40.361  1.00  0.00    -0.744 OA
ENDBRANCH  78  82
ENDBRANCH  51  75
BRANCH  63  86
ATOM     86  C   UNL A   1      44.142  27.810  34.332  1.00  0.00     0.023 A 
ATOM     87  C   UNL A   1      44.076  26.601  35.042  1.00  0.00     0.031 A 
ATOM     88  C   UNL A   1      45.342  28.541  34.365  1.00  0.00     0.131 A 
ATOM     89  C   UNL A   1      45.187  26.170  35.783  1.00  0.00     0.055 A 
ATOM     90  C   UNL A   1      46.457  28.087  35.068  1.00  0.00     0.041 A 
ATOM     91  F   UNL A   1      45.452  29.703  33.700  1.00  0.00    -0.206 F 
ATOM     92  C   UNL A   1      46.381  26.898  35.788  1.00  0.00     0.022 A 
BRANCH  89  93
ATOM     93  S   UNL A   1      45.046  24.658  36.775  1.00  0.00     0.124 S 
ATOM     94  O   UNL A   1      46.437  24.228  36.870  1.00  0.00    -0.237 OA
ATOM     95  O   UNL A   1      44.443  25.147  38.011  1.00  0.00    -0.237 OA
ATOM     96  O   UNL A   1      44.184  23.796  35.968  1.00  0.00    -0.744 OA
ENDBRANCH  89  93
ENDBRANCH  63  86
ENDBRANCH  37  38
ENDBRANCH  29  32
ENDBRANCH  27  28
ENDBRANCH  26  27
ENDBRANCH   1  26
TORSDOF 17
ENDMDL
MODEL 2
REMARK VINA RESULT:     -12.7      2.672      8.040
REMARK SMILES CC1(C)[C@@]2(CC[C@@H]2C(=O)NCc2ccco2)[C@]1(C)C(=O)NCCCCNC(=O)c1ccc(-c2c3nc(c(-c4cc(S(=O)(=O)[O-])ccc4F)c4ccc([nH]4)c(-c4cc(S(=O)(=O)[O-])ccc4F)c4nc(c(-c5cc(S(=O)(=O)[O-])ccc5F)c5ccc2[nH]5)C=C4)C=C3)cc1
REMARK SMILES IDX 23 1 22 2 21 3 19 4 20 5 17 7 1 8 2 9 3 10 4 11 18 12 5 13
REMARK SMILES IDX 7 14 6 15 8 16 9 17 10 18 11 20 12 21 13 22 16 23 14 24
REMARK SMILES IDX 15 25 24 26 25 27 26 28 27 29 28 31 29 32 30 33 91 34 31 35
REMARK SMILES IDX 90 36 32 37 33 38 34 39 84 40 35 41 89 42 83 43 85 44 36 45
REMARK SMILES IDX 88 46 82 47 81 48 37 50 69 51 49 52 68 53 50 54 53 55 67 56
REMARK SMILES IDX 86 57 51 58 52 59 66 61 87 62 54 63 38 64 39 65 47 66 40 67
REMARK SMILES IDX 46 68 48 69 45 70 41 71 42 72 43 73 44 74 70 75 71 76 79 77
REMARK SMILES IDX 72 78 78 79 80 80 77 81 73 82 74 83 75 84 76 85 55 86 56 87
REMARK SMILES IDX 64 88 57 89 63 90 65 91 62 92 58 93 59 94 60 95 61 96
REMARK H PARENT 21 6 10 19 26 30 85 49 53 60
REMARK Flexibility Score: inf
ROOT
ATOM      1  C   UNL A   1      31.676  28.190  27.143  1.00  0.00     0.023 C 
ENDROOT
BRANCH   1   2
ATOM      2  C   UNL A   1      31.042  27.133  26.246  1.00  0.00     0.116 C 
BRANCH   2   3
ATOM      3  N   UNL A   1      31.099  27.458  24.845  1.00  0.00    -0.356 N 
ATOM      4  C   UNL A   1      31.473  26.702  23.770  1.00  0.00     0.227 C 
ATOM      5  O   UNL A   1      30.861  26.927  22.723  1.00  0.00    -0.274 OA
ATOM      6  H   UNL A   1      30.823  28.377  24.624  1.00  0.00     0.163 HD
BRANCH   4   7
ATOM      7  C   UNL A   1      32.652  25.735  23.686  1.00  0.00     0.059 C 
ATOM      8  C   UNL A   1      30.795  23.868  23.836  1.00  0.00     0.013 C 
ATOM      9  C   UNL A   1      32.236  24.239  23.532  1.00  0.00    -0.013 C 
ATOM     10  C   UNL A   1      32.756  23.430  22.362  1.00  0.00     0.013 C 
ATOM     11  C   UNL A   1      33.194  24.648  24.633  1.00  0.00     0.003 C 
ATOM     12  C   UNL A   1      33.682  26.299  22.686  1.00  0.00     0.023 C 
ATOM     13  C   UNL A   1      34.665  24.307  24.666  1.00  0.00     0.010 C 
ATOM     14  C   UNL A   1      33.075  24.450  26.115  1.00  0.00     0.086 C 
ATOM     15  C   UNL A   1      34.592  24.338  26.179  1.00  0.00     0.015 C 
BRANCH  14  16
ATOM     16  C   UNL A   1      32.139  23.376  26.707  1.00  0.00     0.224 C 
ATOM     17  O   UNL A   1      31.085  23.686  27.291  1.00  0.00    -0.275 OA
ATOM     18  N   UNL A   1      32.388  22.030  26.688  1.00  0.00    -0.349 N 
ATOM     19  H   UNL A   1      31.663  21.479  27.062  1.00  0.00     0.163 HD
BRANCH  18  20
ATOM     20  C   UNL A   1      33.520  21.272  26.216  1.00  0.00     0.191 C 
BRANCH  20  21
ATOM     21  C   UNL A   1      33.070  20.209  25.280  1.00  0.00     0.122 A 
ATOM     22  C   UNL A   1      32.726  20.177  23.941  1.00  0.00     0.047 A 
ATOM     23  O   UNL A   1      32.929  18.962  25.819  1.00  0.00    -0.467 OA
ATOM     24  C   UNL A   1      32.341  18.846  23.655  1.00  0.00     0.042 A 
ATOM     25  C   UNL A   1      32.489  18.146  24.828  1.00  0.00     0.195 A 
ENDBRANCH  20  21
ENDBRANCH  18  20
ENDBRANCH  14  16
ENDBRANCH   4   7
ENDBRANCH   2   3
ENDBRANCH   1   2
BRANCH   1  26
ATOM     26  C   UNL A   1      33.201  28.201  27.154  1.00  0.00     0.023 C 
BRANCH  26  27
ATOM     27  C   UNL A   1      33.857  29.279  26.299  1.00  0.00     0.116 C 
BRANCH  27  28
ATOM     28  N   UNL A   1      33.860  30.607  26.900  1.00  0.00    -0.352 N 
ATOM     29  C   UNL A   1      34.802  31.135  27.755  1.00  0.00     0.251 C 
ATOM     30  H   UNL A   1      33.104  31.194  26.667  1.00  0.00     0.163 HD
ATOM     31  O   UNL A   1      34.659  32.244  28.252  1.00  0.00    -0.269 OA
BRANCH  29  32
ATOM     32  C   UNL A   1      35.970  30.298  28.098  1.00  0.00     0.039 A 
ATOM     33  C   UNL A   1      37.105  30.350  27.285  1.00  0.00     0.014 A 
ATOM     34  C   UNL A   1      35.974  29.568  29.289  1.00  0.00     0.014 A 
ATOM     35  C   UNL A   1      38.286  29.743  27.719  1.00  0.00     0.010 A 
ATOM     36  C   UNL A   1      37.167  29.025  29.748  1.00  0.00     0.010 A 
ATOM     37  C   UNL A   1      38.337  29.121  28.976  1.00  0.00    -0.014 A 
BRANCH  37  38
ATOM     38  C   UNL A   1      39.598  28.565  29.529  1.00  0.00     0.031 A 
ATOM     39  C   UNL A   1      40.290  29.286  30.649  1.00  0.00     0.074 A 
ATOM     40  C   UNL A   1      40.182  27.507  28.934  1.00  0.00     0.049 A 
ATOM     41  N   UNL A   1      41.488  29.104  31.140  1.00  0.00    -0.248 NA
ATOM     42  C   UNL A   1      39.545  30.394  31.264  1.00  0.00     0.031 C 
ATOM     43  C   UNL A   1      39.631  26.760  27.802  1.00  0.00     0.029 A 
ATOM     44  N   UNL A   1      41.388  26.899  29.177  1.00  0.00    -0.354 N 
ATOM     45  C   UNL A   1      41.661  30.105  32.090  1.00  0.00     0.074 A 
ATOM     46  C   UNL A   1      40.457  30.913  32.070  1.00  0.00     0.031 C 
ATOM     47  C   UNL A   1      40.500  25.801  27.443  1.00  0.00     0.029 A 
ATOM     48  C   UNL A   1      41.686  25.891  28.288  1.00  0.00     0.049 A 
ATOM     49  H   UNL A   1      41.985  27.159  29.916  1.00  0.00     0.167 HD
ATOM     50  C   UNL A   1      42.719  30.321  32.910  1.00  0.00     0.034 A 
ATOM     51  C   UNL A   1      42.800  25.145  28.150  1.00  0.00     0.034 A 
ATOM     52  C   UNL A   1      43.890  29.481  32.935  1.00  0.00     0.049 A 
ATOM     53  C   UNL A   1      43.953  25.375  29.091  1.00  0.00     0.074 A 
ATOM     54  C   UNL A   1      44.981  29.543  33.785  1.00  0.00     0.029 A 
ATOM     55  N   UNL A   1      44.128  28.425  32.062  1.00  0.00    -0.354 N 
ATOM     56  N   UNL A   1      44.081  26.288  30.026  1.00  0.00    -0.248 NA
ATOM     57  C   UNL A   1      45.105  24.473  28.965  1.00  0.00     0.031 C 
ATOM     58  C   UNL A   1      45.899  28.561  33.394  1.00  0.00     0.029 A 
ATOM     59  C   UNL A   1      45.356  27.846  32.338  1.00  0.00     0.049 A 
ATOM     60  H   UNL A   1      43.513  28.132  31.351  1.00  0.00     0.167 HD
ATOM     61  C   UNL A   1      45.319  26.053  30.617  1.00  0.00     0.074 A 
ATOM     62  C   UNL A   1      45.897  24.914  29.933  1.00  0.00     0.031 C 
ATOM     63  C   UNL A   1      45.917  26.713  31.640  1.00  0.00     0.034 A 
BRANCH  50  64
ATOM     64  C   UNL A   1      42.657  31.530  33.812  1.00  0.00     0.023 A 
ATOM     65  C   UNL A   1      42.183  31.444  35.132  1.00  0.00     0.031 A 
ATOM     66  C   UNL A   1      43.014  32.799  33.323  1.00  0.00     0.131 A 
ATOM     67  C   UNL A   1      41.980  32.612  35.881  1.00  0.00     0.055 A 
ATOM     68  C   UNL A   1      42.896  33.949  34.107  1.00  0.00     0.041 A 
ATOM     69  F   UNL A   1      43.458  32.948  32.065  1.00  0.00    -0.206 F 
ATOM     70  C   UNL A   1      42.357  33.862  35.387  1.00  0.00     0.022 A 
BRANCH  67  71
ATOM     71  S   UNL A   1      41.056  32.487  37.436  1.00  0.00     0.124 S 
ATOM     72  O   UNL A   1      41.914  31.601  38.220  1.00  0.00    -0.237 OA
ATOM     73  O   UNL A   1      40.995  33.874  37.879  1.00  0.00    -0.237 OA
ATOM     74  O   UNL A   1      39.778  31.904  37.030  1.00  0.00    -0.744 OA
ENDBRANCH  67  71
ENDBRANCH  50  64
BRANCH  51  75
ATOM     75  C   UNL A   1      42.888  24.133  27.064  1.00  0.00     0.023 A 
ATOM     76  C   UNL A   1      42.265  22.882  27.186  1.00  0.00     0.031 A 
ATOM     77  C   UNL A   1      43.596  24.409  25.881  1.00  0.00     0.131 A 
ATOM     78  C   UNL A   1      42.387  21.938  26.154  1.00  0.00     0.055 A 
ATOM     79  C   UNL A   1      43.683  23.482  24.841  1.00  0.00     0.041 A 
ATOM     80  F   UNL A   1      44.195  25.598  25.712  1.00  0.00    -0.206 F 
ATOM     81  C   UNL A   1      43.082  22.233  24.978  1.00  0.00     0.022 A 
BRANCH  78  82
ATOM     82  S   UNL A   1      41.647  20.298  26.382  1.00  0.00     0.124 S 
ATOM     83  O   UNL A   1      42.331  19.517  25.357  1.00  0.00    -0.237 OA
ATOM     84  O   UNL A   1      42.003  19.994  27.764  1.00  0.00    -0.237 OA
ATOM     85  O   UNL A   1      40.224  20.530  26.144  1.00  0.00    -0.744 OA
ENDBRANCH  78  82
ENDBRANCH  51  75
BRANCH  63  86
ATOM     86  C   UNL A   1      47.244  26.183  32.117  1.00  0.00     0.023 A 
ATOM     87  C   UNL A   1      47.336  25.269  33.179  1.00  0.00     0.031 A 
ATOM     88  C   UNL A   1      48.428  26.585  31.475  1.00  0.00     0.131 A 
ATOM     89  C   UNL A   1      48.596  24.806  33.588  1.00  0.00     0.055 A 
ATOM     90  C   UNL A   1      49.673  26.090  31.858  1.00  0.00     0.041 A 
ATOM     91  F   UNL A   1      48.388  27.457  30.454  1.00  0.00    -0.206 F 
ATOM     92  C   UNL A   1      49.763  25.199  32.924  1.00  0.00     0.022 A 
BRANCH  89  93
ATOM     93  S   UNL A   1      48.701  23.706  35.027  1.00  0.00     0.124 S 
ATOM     94  O   UNL A   1      47.307  23.631  35.451  1.00  0.00    -0.237 OA
ATOM     95  O   UNL A   1      49.260  22.488  34.451  1.00  0.00    -0.237 OA
ATOM     96  O   UNL A   1      49.590  24.421  35.941  1.00  0.00    -0.744 OA
ENDBRANCH  89  93
ENDBRANCH  63  86
ENDBRANCH  37  38
ENDBRANCH  29  32
ENDBRANCH  27  28
ENDBRANCH  26  27
ENDBRANCH   1  26
TORSDOF 17
ENDMDL
MODEL 3
REMARK VINA RESULT:     -12.7      5.169     10.532
REMARK SMILES CC1(C)[C@@]2(CC[C@@H]2C(=O)NCc2ccco2)[C@]1(C)C(=O)NCCCCNC(=O)c1ccc(-c2c3nc(c(-c4cc(S(=O)(=O)[O-])ccc4F)c4ccc([nH]4)c(-c4cc(S(=O)(=O)[O-])ccc4F)c4nc(c(-c5cc(S(=O)(=O)[O-])ccc5F)c5ccc2[nH]5)C=C4)C=C3)cc1
REMARK SMILES IDX 23 1 22 2 21 3 19 4 20 5 17 7 1 8 2 9 3 10 4 11 18 12 5 13
REMARK SMILES IDX 7 14 6 15 8 16 9 17 10 18 11 20 12 21 13 22 16 23 14 24
REMARK SMILES IDX 15 25 24 26 25 27 26 28 27 29 28 31 29 32 30 33 91 34 31 35
REMARK SMILES IDX 90 36 32 37 33 38 34 39 84 40 35 41 89 42 83 43 85 44 36 45
REMARK SMILES IDX 88 46 82 47 81 48 37 50 69 51 49 52 68 53 50 54 53 55 67 56
REMARK SMILES IDX 86 57 51 58 52 59 66 61 87 62 54 63 38 64 39 65 47 66 40 67
REMARK SMILES IDX 46 68 48 69 45 70 41 71 42 72 43 73 44 74 70 75 71 76 79 77
REMARK SMILES IDX 72 78 78 79 80 80 77 81 73 82 74 83 75 84 76 85 55 86 56 87
REMARK SMILES IDX 64 88 57 89 63 90 65 91 62 92 58 93 59 94 60 95 61 96
REMARK H PARENT 21 6 10 19 26 30 85 49 53 60
REMARK Flexibility Score: inf
ROOT
ATOM      1  C   UNL A   1      34.721  21.292  25.233  1.00  0.00     0.023 C 
ENDROOT
BRANCH   1   2
ATOM      2  C   UNL A   1      33.575  20.895  26.157  1.00  0.00     0.116 C 
BRANCH   2   3
ATOM      3  N   UNL A   1      33.062  21.988  26.940  1.00  0.00    -0.356 N 
ATOM      4  C   UNL A   1      32.040  22.861  26.690  1.00  0.00     0.227 C 
ATOM      5  O   UNL A   1      31.402  23.229  27.679  1.00  0.00    -0.274 OA
ATOM      6  H   UNL A   1      33.523  22.132  27.798  1.00  0.00     0.163 HD
BRANCH   4   7
ATOM      7  C   UNL A   1      31.708  23.537  25.362  1.00  0.00     0.059 C 
ATOM      8  C   UNL A   1      33.667  25.181  26.008  1.00  0.00     0.013 C 
ATOM      9  C   UNL A   1      32.721  24.651  24.946  1.00  0.00    -0.013 C 
ATOM     10  C   UNL A   1      33.420  24.569  23.606  1.00  0.00     0.013 C 
ATOM     11  C   UNL A   1      31.236  24.954  24.989  1.00  0.00     0.003 C 
ATOM     12  C   UNL A   1      31.377  22.446  24.322  1.00  0.00     0.023 C 
ATOM     13  C   UNL A   1      30.371  25.193  23.775  1.00  0.00     0.010 C 
ATOM     14  C   UNL A   1      30.507  26.012  25.765  1.00  0.00     0.086 C 
ATOM     15  C   UNL A   1      29.494  26.084  24.631  1.00  0.00     0.015 C 
BRANCH  14  16
ATOM     16  C   UNL A   1      31.239  27.259  26.303  1.00  0.00     0.224 C 
ATOM     17  O   UNL A   1      31.196  27.565  27.508  1.00  0.00    -0.275 OA
ATOM     18  N   UNL A   1      31.946  28.141  25.530  1.00  0.00    -0.349 N 
ATOM     19  H   UNL A   1      32.396  28.853  26.039  1.00  0.00     0.163 HD
BRANCH  18  20
ATOM     20  C   UNL A   1      32.151  28.214  24.105  1.00  0.00     0.191 C 
BRANCH  20  21
ATOM     21  C   UNL A   1      31.064  29.003  23.471  1.00  0.00     0.122 A 
ATOM     22  C   UNL A   1      30.589  29.137  22.179  1.00  0.00     0.047 A 
ATOM     23  O   UNL A   1      30.351  29.815  24.306  1.00  0.00    -0.467 OA
ATOM     24  C   UNL A   1      29.545  30.089  22.228  1.00  0.00     0.042 A 
ATOM     25  C   UNL A   1      29.435  30.466  23.545  1.00  0.00     0.195 A 
ENDBRANCH  20  21
ENDBRANCH  18  20
ENDBRANCH  14  16
ENDBRANCH   4   7
ENDBRANCH   2   3
ENDBRANCH   1   2
BRANCH   1  26
ATOM     26  C   UNL A   1      35.896  21.982  25.917  1.00  0.00     0.023 C 
BRANCH  26  27
ATOM     27  C   UNL A   1      37.186  22.040  25.108  1.00  0.00     0.116 C 
BRANCH  27  28
ATOM     28  N   UNL A   1      38.065  20.891  25.291  1.00  0.00    -0.352 N 
ATOM     29  C   UNL A   1      39.261  20.855  25.975  1.00  0.00     0.251 C 
ATOM     30  H   UNL A   1      37.771  20.046  24.882  1.00  0.00     0.163 HD
ATOM     31  O   UNL A   1      39.947  19.843  26.002  1.00  0.00    -0.269 OA
BRANCH  29  32
ATOM     32  C   UNL A   1      39.717  22.096  26.635  1.00  0.00     0.039 A 
ATOM     33  C   UNL A   1      40.677  22.014  27.646  1.00  0.00     0.014 A 
ATOM     34  C   UNL A   1      39.282  23.335  26.158  1.00  0.00     0.014 A 
ATOM     35  C   UNL A   1      41.277  23.184  28.117  1.00  0.00     0.010 A 
ATOM     36  C   UNL A   1      39.929  24.489  26.579  1.00  0.00     0.010 A 
ATOM     37  C   UNL A   1      40.943  24.423  27.550  1.00  0.00    -0.014 A 
BRANCH  37  38
ATOM     38  C   UNL A   1      41.636  25.678  27.936  1.00  0.00     0.031 A 
ATOM     39  C   UNL A   1      40.868  26.752  28.652  1.00  0.00     0.074 A 
ATOM     40  C   UNL A   1      42.897  25.904  27.520  1.00  0.00     0.049 A 
ATOM     41  N   UNL A   1      41.202  27.992  28.895  1.00  0.00    -0.248 NA
ATOM     42  C   UNL A   1      39.519  26.387  29.109  1.00  0.00     0.031 C 
ATOM     43  C   UNL A   1      43.724  24.958  26.768  1.00  0.00     0.029 A 
ATOM     44  N   UNL A   1      43.692  27.017  27.639  1.00  0.00    -0.354 N 
ATOM     45  C   UNL A   1      40.088  28.571  29.493  1.00  0.00     0.074 A 
ATOM     46  C   UNL A   1      39.057  27.553  29.532  1.00  0.00     0.031 C 
ATOM     47  C   UNL A   1      44.904  25.533  26.486  1.00  0.00     0.029 A 
ATOM     48  C   UNL A   1      44.903  26.900  26.997  1.00  0.00     0.049 A 
ATOM     49  H   UNL A   1      43.421  27.823  28.136  1.00  0.00     0.167 HD
ATOM     50  C   UNL A   1      39.945  29.830  29.975  1.00  0.00     0.034 A 
ATOM     51  C   UNL A   1      45.888  27.802  26.813  1.00  0.00     0.034 A 
ATOM     52  C   UNL A   1      40.998  30.814  29.957  1.00  0.00     0.049 A 
ATOM     53  C   UNL A   1      45.727  29.185  27.385  1.00  0.00     0.074 A 
ATOM     54  C   UNL A   1      41.001  32.088  30.500  1.00  0.00     0.029 A 
ATOM     55  N   UNL A   1      42.239  30.637  29.356  1.00  0.00    -0.354 N 
ATOM     56  N   UNL A   1      44.690  29.704  28.001  1.00  0.00    -0.248 NA
ATOM     57  C   UNL A   1      46.867  30.100  27.244  1.00  0.00     0.031 C 
ATOM     58  C   UNL A   1      42.221  32.697  30.183  1.00  0.00     0.029 A 
ATOM     59  C   UNL A   1      43.003  31.783  29.494  1.00  0.00     0.049 A 
ATOM     60  H   UNL A   1      42.530  29.815  28.898  1.00  0.00     0.167 HD
ATOM     61  C   UNL A   1      45.063  31.000  28.345  1.00  0.00     0.074 A 
ATOM     62  C   UNL A   1      46.419  31.182  27.867  1.00  0.00     0.031 C 
ATOM     63  C   UNL A   1      44.352  31.947  29.005  1.00  0.00     0.034 A 
BRANCH  50  64
ATOM     64  C   UNL A   1      38.591  30.207  30.526  1.00  0.00     0.023 A 
ATOM     65  C   UNL A   1      37.604  30.800  29.720  1.00  0.00     0.031 A 
ATOM     66  C   UNL A   1      38.306  30.035  31.892  1.00  0.00     0.131 A 
ATOM     67  C   UNL A   1      36.426  31.291  30.301  1.00  0.00     0.055 A 
ATOM     68  C   UNL A   1      37.092  30.444  32.448  1.00  0.00     0.041 A 
ATOM     69  F   UNL A   1      39.215  29.491  32.717  1.00  0.00    -0.206 F 
ATOM     70  C   UNL A   1      36.152  31.096  31.656  1.00  0.00     0.022 A 
BRANCH  67  71
ATOM     71  S   UNL A   1      35.343  32.342  29.294  1.00  0.00     0.124 S 
ATOM     72  O   UNL A   1      36.248  33.427  28.922  1.00  0.00    -0.237 OA
ATOM     73  O   UNL A   1      34.944  31.445  28.218  1.00  0.00    -0.237 OA
ATOM     74  O   UNL A   1      34.277  32.721  30.219  1.00  0.00    -0.744 OA
ENDBRANCH  67  71
ENDBRANCH  50  64
BRANCH  51  75
ATOM     75  C   UNL A   1      47.100  27.431  26.032  1.00  0.00     0.023 A 
ATOM     76  C   UNL A   1      47.192  27.711  24.661  1.00  0.00     0.031 A 
ATOM     77  C   UNL A   1      48.187  26.793  26.655  1.00  0.00     0.131 A 
ATOM     78  C   UNL A   1      48.338  27.328  23.947  1.00  0.00     0.055 A 
ATOM     79  C   UNL A   1      49.340  26.447  25.949  1.00  0.00     0.041 A 
ATOM     80  F   UNL A   1      48.151  26.519  27.968  1.00  0.00    -0.206 F 
ATOM     81  C   UNL A   1      49.417  26.707  24.583  1.00  0.00     0.022 A 
BRANCH  78  82
ATOM     82  S   UNL A   1      48.388  27.622  22.157  1.00  0.00     0.124 S 
ATOM     83  O   UNL A   1      47.086  28.235  21.920  1.00  0.00    -0.237 OA
ATOM     84  O   UNL A   1      49.545  28.502  22.027  1.00  0.00    -0.237 OA
ATOM     85  O   UNL A   1      48.560  26.284  21.597  1.00  0.00    -0.744 OA
ENDBRANCH  78  82
ENDBRANCH  51  75
BRANCH  63  86
ATOM     86  C   UNL A   1      45.050  33.250  29.297  1.00  0.00     0.023 A 
ATOM     87  C   UNL A   1      44.948  34.353  28.435  1.00  0.00     0.031 A 
ATOM     88  C   UNL A   1      45.806  33.388  30.474  1.00  0.00     0.131 A 
ATOM     89  C   UNL A   1      45.619  35.544  28.749  1.00  0.00     0.055 A 
ATOM     90  C   UNL A   1      46.437  34.587  30.803  1.00  0.00     0.041 A 
ATOM     91  F   UNL A   1      45.932  32.360  31.330  1.00  0.00    -0.206 F 
ATOM     92  C   UNL A   1      46.350  35.673  29.936  1.00  0.00     0.022 A 
BRANCH  89  93
ATOM     93  S   UNL A   1      45.557  36.923  27.572  1.00  0.00     0.124 S 
ATOM     94  O   UNL A   1      46.615  36.564  26.633  1.00  0.00    -0.237 OA
ATOM     95  O   UNL A   1      44.194  36.839  27.060  1.00  0.00    -0.237 OA
ATOM     96  O   UNL A   1      45.834  38.095  28.400  1.00  0.00    -0.744 OA
ENDBRANCH  89  93
ENDBRANCH  63  86
ENDBRANCH  37  38
ENDBRANCH  29  32
ENDBRANCH  27  28
ENDBRANCH  26  27
ENDBRANCH   1  26
TORSDOF 17
ENDMDL
