MODEL 1
REMARK VINA RESULT:     -14.0      0.000      0.000
REMARK SMILES C[C@H]1[C@H](C)CC[C@@]2(C(=O)NCCCCNC(=O)c3ccc(-c4c5nc(c(-c6cc(S(=O)(=O)[O-])ccc6F)c6ccc([nH]6)c(-c6cc(S(=O)(=O)[O-])ccc6F)c6nc(c(-c7cc(S(=O)(=O)[O-])ccc7F)c7ccc4[nH]7)C=C6)C=C5)cc3)CC[C@@]3(C)C(=CC[C@@H]4[C@@]5(C)CC[C@H](O)C(C)(C)[C@@H]5CC[C@]43C)[C@H]12
REMARK SMILES IDX 13 1 12 2 11 3 10 4 8 5 9 6 7 8 1 9 2 10 3 11 103 12 4 13
REMARK SMILES IDX 5 14 85 15 6 16 81 17 83 18 86 19 82 20 84 21 101 22 87 23
REMARK SMILES IDX 88 24 100 25 102 26 89 27 99 28 90 29 91 30 98 31 92 32
REMARK SMILES IDX 95 33 93 34 96 35 97 36 94 37 14 39 15 40 16 41 17 43 18 44
REMARK SMILES IDX 19 45 80 46 20 47 79 48 21 49 22 50 23 51 73 52 24 53 78 54
REMARK SMILES IDX 72 55 74 56 25 57 77 58 71 59 70 60 26 62 58 63 38 64 57 65
REMARK SMILES IDX 39 66 42 67 56 68 75 69 40 70 41 71 55 73 76 74 43 75 27 76
REMARK SMILES IDX 28 77 36 78 29 79 35 80 37 81 34 82 30 83 31 84 32 85 33 86
REMARK SMILES IDX 59 87 60 88 68 89 61 90 67 91 69 92 66 93 62 94 63 95 64 96
REMARK SMILES IDX 65 97 44 98 45 99 53 100 46 101 52 102 54 103 51 104 47 105
REMARK SMILES IDX 48 106 49 107 50 108
REMARK H PARENT 10 7 94 38 15 42 74 61 42 72
REMARK Flexibility Score: inf
ROOT
ATOM      1  C   UNL A   1      34.625  31.122  27.340  1.00  0.00     0.023 C 
ENDROOT
BRANCH   1   2
ATOM      2  C   UNL A   1      35.090  29.664  27.431  1.00  0.00     0.023 C 
BRANCH   2   3
ATOM      3  C   UNL A   1      34.340  28.638  26.575  1.00  0.00     0.116 C 
BRANCH   3   4
ATOM      4  N   UNL A   1      33.992  29.079  25.239  1.00  0.00    -0.356 N 
ATOM      5  C   UNL A   1      32.820  28.989  24.539  1.00  0.00     0.226 C 
ATOM      6  O   UNL A   1      32.983  28.820  23.321  1.00  0.00    -0.274 OA
ATOM      7  H   UNL A   1      34.726  29.518  24.751  1.00  0.00     0.163 HD
BRANCH   5   8
ATOM      8  C   UNL A   1      31.363  29.127  25.140  1.00  0.00     0.056 C 
ATOM      9  C   UNL A   1      28.653  28.867  22.272  1.00  0.00     0.008 C 
ATOM     10  C   UNL A   1      29.809  29.477  23.086  1.00  0.00    -0.003 C 
ATOM     11  C   UNL A   1      29.389  30.870  23.649  1.00  0.00    -0.011 C 
ATOM     12  C   UNL A   1      30.244  28.536  24.234  1.00  0.00     0.034 C 
ATOM     13  C   UNL A   1      29.114  31.906  22.548  1.00  0.00     0.008 C 
ATOM     14  C   UNL A   1      30.381  31.505  24.634  1.00  0.00     0.005 C 
ATOM     15  C   UNL A   1      30.701  27.101  23.917  1.00  0.00    -0.063 C 
ATOM     16  C   UNL A   1      31.079  30.569  25.604  1.00  0.00     0.018 C 
ATOM     17  C   UNL A   1      31.295  28.261  26.465  1.00  0.00     0.018 C 
ATOM     18  C   UNL A   1      30.596  26.093  25.096  1.00  0.00    -0.006 C 
ATOM     19  C   UNL A   1      31.408  26.831  22.799  1.00  0.00    -0.027 C 
ATOM     20  C   UNL A   1      31.346  26.727  26.320  1.00  0.00     0.013 C 
ATOM     21  C   UNL A   1      29.108  25.903  25.494  1.00  0.00     0.017 C 
ATOM     22  C   UNL A   1      31.243  24.647  24.700  1.00  0.00    -0.020 C 
ATOM     23  C   UNL A   1      32.340  25.657  22.656  1.00  0.00     0.032 C 
ATOM     24  C   UNL A   1      32.623  24.983  24.022  1.00  0.00     0.006 C 
ATOM     25  C   UNL A   1      31.413  23.714  25.928  1.00  0.00     0.008 C 
ATOM     26  C   UNL A   1      30.304  23.873  23.722  1.00  0.00     0.012 C 
ATOM     27  C   UNL A   1      33.791  23.914  24.044  1.00  0.00    -0.025 C 
ATOM     28  C   UNL A   1      32.367  22.543  25.672  1.00  0.00     0.005 C 
ATOM     29  C   UNL A   1      33.736  23.049  22.770  1.00  0.00     0.012 C 
ATOM     30  C   UNL A   1      35.149  24.695  24.058  1.00  0.00     0.010 C 
ATOM     31  C   UNL A   1      33.767  23.099  25.388  1.00  0.00     0.003 C 
ATOM     32  C   UNL A   1      36.381  23.817  24.266  1.00  0.00     0.033 C 
ATOM     33  C   UNL A   1      34.963  22.097  25.610  1.00  0.00    -0.006 C 
ATOM     34  C   UNL A   1      36.285  22.916  25.500  1.00  0.00     0.120 C 
ATOM     35  C   UNL A   1      34.962  20.873  24.670  1.00  0.00     0.014 C 
ATOM     36  C   UNL A   1      34.905  21.508  27.048  1.00  0.00     0.014 C 
BRANCH  34  37
ATOM     37  O   UNL A   1      37.429  22.062  25.546  1.00  0.00    -0.393 OA
ATOM     38  H   UNL A   1      37.194  21.187  25.198  1.00  0.00     0.210 HD
ENDBRANCH  34  37
ENDBRANCH   5   8
ENDBRANCH   3   4
ENDBRANCH   2   3
ENDBRANCH   1   2
BRANCH   1  39
ATOM     39  C   UNL A   1      33.188  31.433  27.760  1.00  0.00     0.116 C 
BRANCH  39  40
ATOM     40  N   UNL A   1      32.853  32.851  27.788  1.00  0.00    -0.352 N 
ATOM     41  C   UNL A   1      33.456  33.912  28.424  1.00  0.00     0.251 C 
ATOM     42  H   UNL A   1      32.057  33.091  27.261  1.00  0.00     0.163 HD
ATOM     43  O   UNL A   1      32.984  35.039  28.295  1.00  0.00    -0.269 OA
BRANCH  41  44
ATOM     44  C   UNL A   1      34.614  33.697  29.319  1.00  0.00     0.039 A 
ATOM     45  C   UNL A   1      34.425  32.924  30.468  1.00  0.00     0.014 A 
ATOM     46  C   UNL A   1      35.879  34.206  29.020  1.00  0.00     0.014 A 
ATOM     47  C   UNL A   1      35.526  32.544  31.239  1.00  0.00     0.010 A 
ATOM     48  C   UNL A   1      36.986  33.770  29.749  1.00  0.00     0.010 A 
ATOM     49  C   UNL A   1      36.824  32.900  30.840  1.00  0.00    -0.014 A 
BRANCH  49  50
ATOM     50  C   UNL A   1      38.019  32.294  31.489  1.00  0.00     0.031 A 
ATOM     51  C   UNL A   1      38.754  31.156  30.842  1.00  0.00     0.074 A 
ATOM     52  C   UNL A   1      38.383  32.720  32.718  1.00  0.00     0.049 A 
ATOM     53  N   UNL A   1      39.743  30.438  31.309  1.00  0.00    -0.248 NA
ATOM     54  C   UNL A   1      38.296  30.756  29.504  1.00  0.00     0.031 C 
ATOM     55  C   UNL A   1      37.721  33.790  33.470  1.00  0.00     0.029 A 
ATOM     56  N   UNL A   1      39.383  32.299  33.558  1.00  0.00    -0.354 N 
ATOM     57  C   UNL A   1      40.022  29.492  30.330  1.00  0.00     0.074 A 
ATOM     58  C   UNL A   1      39.060  29.699  29.265  1.00  0.00     0.031 C 
ATOM     59  C   UNL A   1      38.344  33.952  34.648  1.00  0.00     0.029 A 
ATOM     60  C   UNL A   1      39.413  32.966  34.762  1.00  0.00     0.049 A 
ATOM     61  H   UNL A   1      40.020  31.587  33.322  1.00  0.00     0.167 HD
ATOM     62  C   UNL A   1      41.000  28.551  30.312  1.00  0.00     0.034 A 
ATOM     63  C   UNL A   1      40.196  32.794  35.846  1.00  0.00     0.034 A 
ATOM     64  C   UNL A   1      41.955  28.363  31.379  1.00  0.00     0.049 A 
ATOM     65  C   UNL A   1      41.250  31.717  35.818  1.00  0.00     0.074 A 
ATOM     66  C   UNL A   1      43.026  27.487  31.432  1.00  0.00     0.029 A 
ATOM     67  N   UNL A   1      41.949  29.052  32.585  1.00  0.00    -0.354 N 
ATOM     68  N   UNL A   1      41.535  30.867  34.860  1.00  0.00    -0.248 NA
ATOM     69  C   UNL A   1      42.085  31.575  37.018  1.00  0.00     0.031 C 
ATOM     70  C   UNL A   1      43.624  27.598  32.692  1.00  0.00     0.029 A 
ATOM     71  C   UNL A   1      42.971  28.593  33.403  1.00  0.00     0.049 A 
ATOM     72  H   UNL A   1      41.311  29.762  32.825  1.00  0.00     0.167 HD
ATOM     73  C   UNL A   1      42.600  30.106  35.334  1.00  0.00     0.074 A 
ATOM     74  C   UNL A   1      42.913  30.606  36.657  1.00  0.00     0.031 C 
ATOM     75  C   UNL A   1      43.261  29.088  34.727  1.00  0.00     0.034 A 
BRANCH  62  76
ATOM     76  C   UNL A   1      41.063  27.639  29.112  1.00  0.00     0.023 A 
ATOM     77  C   UNL A   1      42.050  27.791  28.122  1.00  0.00     0.031 A 
ATOM     78  C   UNL A   1      40.110  26.619  28.939  1.00  0.00     0.131 A 
ATOM     79  C   UNL A   1      42.014  26.993  26.969  1.00  0.00     0.055 A 
ATOM     80  C   UNL A   1      40.129  25.775  27.827  1.00  0.00     0.041 A 
ATOM     81  F   UNL A   1      39.133  26.437  29.841  1.00  0.00    -0.206 F 
ATOM     82  C   UNL A   1      41.076  25.969  26.825  1.00  0.00     0.022 A 
BRANCH  79  83
ATOM     83  S   UNL A   1      43.124  27.409  25.596  1.00  0.00     0.124 S 
ATOM     84  O   UNL A   1      44.168  28.167  26.281  1.00  0.00    -0.237 OA
ATOM     85  O   UNL A   1      43.512  26.097  25.095  1.00  0.00    -0.237 OA
ATOM     86  O   UNL A   1      42.280  28.196  24.699  1.00  0.00    -0.744 OA
ENDBRANCH  79  83
ENDBRANCH  62  76
BRANCH  63  87
ATOM     87  C   UNL A   1      40.004  33.637  37.060  1.00  0.00     0.023 A 
ATOM     88  C   UNL A   1      39.240  33.179  38.145  1.00  0.00     0.031 A 
ATOM     89  C   UNL A   1      40.550  34.932  37.137  1.00  0.00     0.131 A 
ATOM     90  C   UNL A   1      39.006  34.022  39.242  1.00  0.00     0.055 A 
ATOM     91  C   UNL A   1      40.356  35.748  38.252  1.00  0.00     0.041 A 
ATOM     92  F   UNL A   1      41.293  35.417  36.129  1.00  0.00    -0.206 F 
ATOM     93  C   UNL A   1      39.569  35.299  39.308  1.00  0.00     0.022 A 
BRANCH  90  94
ATOM     94  S   UNL A   1      37.887  33.453  40.550  1.00  0.00     0.124 S 
ATOM     95  O   UNL A   1      37.693  34.673  41.326  1.00  0.00    -0.237 OA
ATOM     96  O   UNL A   1      36.737  32.990  39.784  1.00  0.00    -0.237 OA
ATOM     97  O   UNL A   1      38.653  32.402  41.219  1.00  0.00    -0.744 OA
ENDBRANCH  90  94
ENDBRANCH  63  87
BRANCH  75  98
ATOM     98  C   UNL A   1      44.410  28.473  35.485  1.00  0.00     0.023 A 
ATOM     99  C   UNL A   1      44.206  27.475  36.454  1.00  0.00     0.031 A 
ATOM    100  C   UNL A   1      45.729  28.891  35.231  1.00  0.00     0.131 A 
ATOM    101  C   UNL A   1      45.300  26.959  37.164  1.00  0.00     0.055 A 
ATOM    102  C   UNL A   1      46.818  28.336  35.904  1.00  0.00     0.041 A 
ATOM    103  F   UNL A   1      45.979  29.844  34.318  1.00  0.00    -0.206 F 
ATOM    104  C   UNL A   1      46.605  27.371  36.885  1.00  0.00     0.022 A 
BRANCH 101 105
ATOM    105  S   UNL A   1      44.989  25.781  38.509  1.00  0.00     0.124 S 
ATOM    106  O   UNL A   1      46.292  25.717  39.163  1.00  0.00    -0.237 OA
ATOM    107  O   UNL A   1      43.928  26.440  39.264  1.00  0.00    -0.237 OA
ATOM    108  O   UNL A   1      44.585  24.562  37.810  1.00  0.00    -0.744 OA
ENDBRANCH 101 105
ENDBRANCH  75  98
ENDBRANCH  49  50
ENDBRANCH  41  44
ENDBRANCH  39  40
ENDBRANCH   1  39
TORSDOF 15
ENDMDL
MODEL 2
REMARK VINA RESULT:     -13.7      0.859      7.229
REMARK SMILES C[C@H]1[C@H](C)CC[C@@]2(C(=O)NCCCCNC(=O)c3ccc(-c4c5nc(c(-c6cc(S(=O)(=O)[O-])ccc6F)c6ccc([nH]6)c(-c6cc(S(=O)(=O)[O-])ccc6F)c6nc(c(-c7cc(S(=O)(=O)[O-])ccc7F)c7ccc4[nH]7)C=C6)C=C5)cc3)CC[C@@]3(C)C(=CC[C@@H]4[C@@]5(C)CC[C@H](O)C(C)(C)[C@@H]5CC[C@]43C)[C@H]12
REMARK SMILES IDX 13 1 12 2 11 3 10 4 8 5 9 6 7 8 1 9 2 10 3 11 103 12 4 13
REMARK SMILES IDX 5 14 85 15 6 16 81 17 83 18 86 19 82 20 84 21 101 22 87 23
REMARK SMILES IDX 88 24 100 25 102 26 89 27 99 28 90 29 91 30 98 31 92 32
REMARK SMILES IDX 95 33 93 34 96 35 97 36 94 37 14 39 15 40 16 41 17 43 18 44
REMARK SMILES IDX 19 45 80 46 20 47 79 48 21 49 22 50 23 51 73 52 24 53 78 54
REMARK SMILES IDX 72 55 74 56 25 57 77 58 71 59 70 60 26 62 58 63 38 64 57 65
REMARK SMILES IDX 39 66 42 67 56 68 75 69 40 70 41 71 55 73 76 74 43 75 27 76
REMARK SMILES IDX 28 77 36 78 29 79 35 80 37 81 34 82 30 83 31 84 32 85 33 86
REMARK SMILES IDX 59 87 60 88 68 89 61 90 67 91 69 92 66 93 62 94 63 95 64 96
REMARK SMILES IDX 65 97 44 98 45 99 53 100 46 101 52 102 54 103 51 104 47 105
REMARK SMILES IDX 48 106 49 107 50 108
REMARK H PARENT 10 7 94 38 15 42 74 61 42 72
REMARK Flexibility Score: inf
ROOT
ATOM      1  C   UNL A   1      33.791  31.023  27.988  1.00  0.00     0.023 C 
ENDROOT
BRANCH   1   2
ATOM      2  C   UNL A   1      34.847  29.960  27.663  1.00  0.00     0.023 C 
BRANCH   2   3
ATOM      3  C   UNL A   1      34.414  28.800  26.761  1.00  0.00     0.116 C 
BRANCH   3   4
ATOM      4  N   UNL A   1      34.066  29.165  25.403  1.00  0.00    -0.356 N 
ATOM      5  C   UNL A   1      32.901  29.016  24.702  1.00  0.00     0.226 C 
ATOM      6  O   UNL A   1      33.074  28.789  23.496  1.00  0.00    -0.274 OA
ATOM      7  H   UNL A   1      34.795  29.592  24.897  1.00  0.00     0.163 HD
BRANCH   5   8
ATOM      8  C   UNL A   1      31.438  29.156  25.288  1.00  0.00     0.056 C 
ATOM      9  C   UNL A   1      28.762  28.985  22.381  1.00  0.00     0.008 C 
ATOM     10  C   UNL A   1      29.913  29.566  23.223  1.00  0.00    -0.003 C 
ATOM     11  C   UNL A   1      29.500  30.951  23.810  1.00  0.00    -0.011 C 
ATOM     12  C   UNL A   1      30.325  28.596  24.355  1.00  0.00     0.034 C 
ATOM     13  C   UNL A   1      29.250  32.012  22.728  1.00  0.00     0.008 C 
ATOM     14  C   UNL A   1      30.486  31.554  24.821  1.00  0.00     0.005 C 
ATOM     15  C   UNL A   1      30.771  27.164  24.013  1.00  0.00    -0.063 C 
ATOM     16  C   UNL A   1      31.162  30.591  25.779  1.00  0.00     0.018 C 
ATOM     17  C   UNL A   1      31.344  28.263  26.593  1.00  0.00     0.018 C 
ATOM     18  C   UNL A   1      30.641  26.132  25.169  1.00  0.00    -0.006 C 
ATOM     19  C   UNL A   1      31.489  26.911  22.899  1.00  0.00    -0.027 C 
ATOM     20  C   UNL A   1      31.382  26.732  26.416  1.00  0.00     0.013 C 
ATOM     21  C   UNL A   1      29.147  25.949  25.544  1.00  0.00     0.017 C 
ATOM     22  C   UNL A   1      31.278  24.689  24.750  1.00  0.00    -0.020 C 
ATOM     23  C   UNL A   1      32.412  25.731  22.742  1.00  0.00     0.032 C 
ATOM     24  C   UNL A   1      32.671  25.025  24.097  1.00  0.00     0.006 C 
ATOM     25  C   UNL A   1      31.424  23.728  25.960  1.00  0.00     0.008 C 
ATOM     26  C   UNL A   1      30.345  23.944  23.744  1.00  0.00     0.012 C 
ATOM     27  C   UNL A   1      33.828  23.944  24.110  1.00  0.00    -0.025 C 
ATOM     28  C   UNL A   1      32.370  22.552  25.691  1.00  0.00     0.005 C 
ATOM     29  C   UNL A   1      33.781  23.107  22.818  1.00  0.00     0.012 C 
ATOM     30  C   UNL A   1      35.193  24.710  24.158  1.00  0.00     0.010 C 
ATOM     31  C   UNL A   1      33.778  23.100  25.437  1.00  0.00     0.003 C 
ATOM     32  C   UNL A   1      36.414  23.816  24.363  1.00  0.00     0.033 C 
ATOM     33  C   UNL A   1      34.961  22.082  25.652  1.00  0.00    -0.006 C 
ATOM     34  C   UNL A   1      36.293  22.890  25.576  1.00  0.00     0.120 C 
ATOM     35  C   UNL A   1      34.961  20.878  24.686  1.00  0.00     0.014 C 
ATOM     36  C   UNL A   1      34.880  21.463  27.076  1.00  0.00     0.014 C 
BRANCH  34  37
ATOM     37  O   UNL A   1      37.428  22.024  25.618  1.00  0.00    -0.393 OA
ATOM     38  H   UNL A   1      37.971  22.163  24.826  1.00  0.00     0.210 HD
ENDBRANCH  34  37
ENDBRANCH   5   8
ENDBRANCH   3   4
ENDBRANCH   2   3
ENDBRANCH   1   2
BRANCH   1  39
ATOM     39  C   UNL A   1      34.000  32.425  27.416  1.00  0.00     0.116 C 
BRANCH  39  40
ATOM     40  N   UNL A   1      33.303  33.486  28.131  1.00  0.00    -0.352 N 
ATOM     41  C   UNL A   1      33.592  34.119  29.319  1.00  0.00     0.251 C 
ATOM     42  H   UNL A   1      32.483  33.805  27.689  1.00  0.00     0.163 HD
ATOM     43  O   UNL A   1      32.842  35.003  29.728  1.00  0.00    -0.269 OA
BRANCH  41  44
ATOM     44  C   UNL A   1      34.746  33.695  30.141  1.00  0.00     0.039 A 
ATOM     45  C   UNL A   1      34.517  32.783  31.175  1.00  0.00     0.014 A 
ATOM     46  C   UNL A   1      36.041  34.144  29.879  1.00  0.00     0.014 A 
ATOM     47  C   UNL A   1      35.599  32.216  31.854  1.00  0.00     0.010 A 
ATOM     48  C   UNL A   1      37.123  33.527  30.508  1.00  0.00     0.010 A 
ATOM     49  C   UNL A   1      36.914  32.526  31.471  1.00  0.00    -0.014 A 
BRANCH  49  50
ATOM     50  C   UNL A   1      38.070  31.748  31.994  1.00  0.00     0.031 A 
ATOM     51  C   UNL A   1      38.724  32.120  33.293  1.00  0.00     0.074 A 
ATOM     52  C   UNL A   1      38.586  30.755  31.239  1.00  0.00     0.049 A 
ATOM     53  N   UNL A   1      39.801  31.626  33.847  1.00  0.00    -0.248 NA
ATOM     54  C   UNL A   1      38.098  33.210  34.055  1.00  0.00     0.031 C 
ATOM     55  C   UNL A   1      38.064  30.328  29.937  1.00  0.00     0.029 A 
ATOM     56  N   UNL A   1      39.668  29.937  31.443  1.00  0.00    -0.354 N 
ATOM     57  C   UNL A   1      39.994  32.350  35.018  1.00  0.00     0.074 A 
ATOM     58  C   UNL A   1      38.947  33.351  35.064  1.00  0.00     0.031 C 
ATOM     59  C   UNL A   1      38.816  29.317  29.471  1.00  0.00     0.029 A 
ATOM     60  C   UNL A   1      39.902  29.057  30.410  1.00  0.00     0.049 A 
ATOM     61  H   UNL A   1      40.226  29.974  32.253  1.00  0.00     0.167 HD
ATOM     62  C   UNL A   1      40.943  32.183  35.973  1.00  0.00     0.034 A 
ATOM     63  C   UNL A   1      40.888  28.158  30.223  1.00  0.00     0.034 A 
ATOM     64  C   UNL A   1      41.975  31.175  35.915  1.00  0.00     0.049 A 
ATOM     65  C   UNL A   1      41.954  28.018  31.280  1.00  0.00     0.074 A 
ATOM     66  C   UNL A   1      42.943  30.877  36.860  1.00  0.00     0.029 A 
ATOM     67  N   UNL A   1      42.184  30.309  34.849  1.00  0.00    -0.354 N 
ATOM     68  N   UNL A   1      42.087  28.675  32.408  1.00  0.00    -0.248 NA
ATOM     69  C   UNL A   1      43.002  27.017  31.037  1.00  0.00     0.031 C 
ATOM     70  C   UNL A   1      43.775  29.880  36.338  1.00  0.00     0.029 A 
ATOM     71  C   UNL A   1      43.288  29.506  35.096  1.00  0.00     0.049 A 
ATOM     72  H   UNL A   1      41.631  30.272  34.036  1.00  0.00     0.167 HD
ATOM     73  C   UNL A   1      43.221  28.148  33.021  1.00  0.00     0.074 A 
ATOM     74  C   UNL A   1      43.725  27.112  32.143  1.00  0.00     0.031 C 
ATOM     75  C   UNL A   1      43.791  28.488  34.204  1.00  0.00     0.034 A 
BRANCH  62  76
ATOM     76  C   UNL A   1      40.920  33.132  37.146  1.00  0.00     0.023 A 
ATOM     77  C   UNL A   1      40.309  32.784  38.364  1.00  0.00     0.031 A 
ATOM     78  C   UNL A   1      41.494  34.412  37.041  1.00  0.00     0.131 A 
ATOM     79  C   UNL A   1      40.215  33.730  39.396  1.00  0.00     0.055 A 
ATOM     80  C   UNL A   1      41.467  35.321  38.101  1.00  0.00     0.041 A 
ATOM     81  F   UNL A   1      42.076  34.808  35.898  1.00  0.00    -0.206 F 
ATOM     82  C   UNL A   1      40.811  34.987  39.283  1.00  0.00     0.022 A 
BRANCH  79  83
ATOM     83  S   UNL A   1      39.176  33.341  40.830  1.00  0.00     0.124 S 
ATOM     84  O   UNL A   1      38.092  34.308  40.681  1.00  0.00    -0.237 OA
ATOM     85  O   UNL A   1      38.824  31.946  40.596  1.00  0.00    -0.237 OA
ATOM     86  O   UNL A   1      40.061  33.579  41.969  1.00  0.00    -0.744 OA
ENDBRANCH  79  83
ENDBRANCH  62  76
BRANCH  63  87
ATOM     87  C   UNL A   1      40.938  27.335  28.981  1.00  0.00     0.023 A 
ATOM     88  C   UNL A   1      41.903  27.580  27.991  1.00  0.00     0.031 A 
ATOM     89  C   UNL A   1      39.997  26.316  28.748  1.00  0.00     0.131 A 
ATOM     90  C   UNL A   1      41.879  26.847  26.794  1.00  0.00     0.055 A 
ATOM     91  C   UNL A   1      40.008  25.556  27.578  1.00  0.00     0.041 A 
ATOM     92  F   UNL A   1      39.057  26.038  29.665  1.00  0.00    -0.206 F 
ATOM     93  C   UNL A   1      40.945  25.828  26.586  1.00  0.00     0.022 A 
BRANCH  90  94
ATOM     94  S   UNL A   1      43.040  27.298  25.477  1.00  0.00     0.124 S 
ATOM     95  O   UNL A   1      43.285  26.008  24.841  1.00  0.00    -0.237 OA
ATOM     96  O   UNL A   1      42.261  28.258  24.703  1.00  0.00    -0.237 OA
ATOM     97  O   UNL A   1      44.177  27.862  26.204  1.00  0.00    -0.744 OA
ENDBRANCH  90  94
ENDBRANCH  63  87
BRANCH  75  98
ATOM     98  C   UNL A   1      45.008  27.705  34.627  1.00  0.00     0.023 A 
ATOM     99  C   UNL A   1      44.899  26.518  35.372  1.00  0.00     0.031 A 
ATOM    100  C   UNL A   1      46.294  28.153  34.276  1.00  0.00     0.131 A 
ATOM    101  C   UNL A   1      46.059  25.841  35.779  1.00  0.00     0.055 A 
ATOM    102  C   UNL A   1      47.442  27.447  34.639  1.00  0.00     0.041 A 
ATOM    103  F   UNL A   1      46.454  29.283  33.568  1.00  0.00    -0.206 F 
ATOM    104  C   UNL A   1      47.328  26.289  35.404  1.00  0.00     0.022 A 
BRANCH 101 105
ATOM    105  S   UNL A   1      45.890  24.396  36.862  1.00  0.00     0.124 S 
ATOM    106  O   UNL A   1      47.283  24.079  37.163  1.00  0.00    -0.237 OA
ATOM    107  O   UNL A   1      45.102  24.924  37.971  1.00  0.00    -0.237 OA
ATOM    108  O   UNL A   1      45.199  23.417  36.024  1.00  0.00    -0.744 OA
ENDBRANCH 101 105
ENDBRANCH  75  98
ENDBRANCH  49  50
ENDBRANCH  41  44
ENDBRANCH  39  40
ENDBRANCH   1  39
TORSDOF 15
ENDMDL
MODEL 3
REMARK VINA RESULT:     -13.7      5.291     11.253
REMARK SMILES C[C@H]1[C@H](C)CC[C@@]2(C(=O)NCCCCNC(=O)c3ccc(-c4c5nc(c(-c6cc(S(=O)(=O)[O-])ccc6F)c6ccc([nH]6)c(-c6cc(S(=O)(=O)[O-])ccc6F)c6nc(c(-c7cc(S(=O)(=O)[O-])ccc7F)c7ccc4[nH]7)C=C6)C=C5)cc3)CC[C@@]3(C)C(=CC[C@@H]4[C@@]5(C)CC[C@H](O)C(C)(C)[C@@H]5CC[C@]43C)[C@H]12
REMARK SMILES IDX 13 1 12 2 11 3 10 4 8 5 9 6 7 8 1 9 2 10 3 11 103 12 4 13
REMARK SMILES IDX 5 14 85 15 6 16 81 17 83 18 86 19 82 20 84 21 101 22 87 23
REMARK SMILES IDX 88 24 100 25 102 26 89 27 99 28 90 29 91 30 98 31 92 32
REMARK SMILES IDX 95 33 93 34 96 35 97 36 94 37 14 39 15 40 16 41 17 43 18 44
REMARK SMILES IDX 19 45 80 46 20 47 79 48 21 49 22 50 23 51 73 52 24 53 78 54
REMARK SMILES IDX 72 55 74 56 25 57 77 58 71 59 70 60 26 62 58 63 38 64 57 65
REMARK SMILES IDX 39 66 42 67 56 68 75 69 40 70 41 71 55 73 76 74 43 75 27 76
REMARK SMILES IDX 28 77 36 78 29 79 35 80 37 81 34 82 30 83 31 84 32 85 33 86
REMARK SMILES IDX 59 87 60 88 68 89 61 90 67 91 69 92 66 93 62 94 63 95 64 96
REMARK SMILES IDX 65 97 44 98 45 99 53 100 46 101 52 102 54 103 51 104 47 105
REMARK SMILES IDX 48 106 49 107 50 108
REMARK H PARENT 10 7 94 38 15 42 74 61 42 72
REMARK Flexibility Score: inf
ROOT
ATOM      1  C   UNL A   1      39.125  22.269  26.686  1.00  0.00     0.023 C 
ENDROOT
BRANCH   1   2
ATOM      2  C   UNL A   1      38.500  23.655  26.484  1.00  0.00     0.023 C 
BRANCH   2   3
ATOM      3  C   UNL A   1      37.056  23.701  25.976  1.00  0.00     0.116 C 
BRANCH   3   4
ATOM      4  N   UNL A   1      36.149  22.756  26.595  1.00  0.00    -0.356 N 
ATOM      5  C   UNL A   1      35.188  21.944  26.056  1.00  0.00     0.226 C 
ATOM      6  O   UNL A   1      34.200  21.791  26.789  1.00  0.00    -0.274 OA
ATOM      7  H   UNL A   1      36.238  22.687  27.573  1.00  0.00     0.163 HD
BRANCH   5   8
ATOM      8  C   UNL A   1      35.275  21.197  24.664  1.00  0.00     0.056 C 
ATOM      9  C   UNL A   1      32.162  18.806  24.182  1.00  0.00     0.008 C 
ATOM     10  C   UNL A   1      33.482  19.318  24.786  1.00  0.00    -0.003 C 
ATOM     11  C   UNL A   1      34.602  18.247  24.610  1.00  0.00    -0.011 C 
ATOM     12  C   UNL A   1      33.909  20.660  24.146  1.00  0.00     0.034 C 
ATOM     13  C   UNL A   1      34.315  16.946  25.376  1.00  0.00     0.008 C 
ATOM     14  C   UNL A   1      36.015  18.705  25.003  1.00  0.00     0.005 C 
ATOM     15  C   UNL A   1      32.958  21.869  24.195  1.00  0.00    -0.063 C 
ATOM     16  C   UNL A   1      36.392  20.134  24.663  1.00  0.00     0.018 C 
ATOM     17  C   UNL A   1      35.725  22.250  23.569  1.00  0.00     0.018 C 
ATOM     18  C   UNL A   1      33.204  22.955  23.109  1.00  0.00    -0.006 C 
ATOM     19  C   UNL A   1      32.180  22.095  25.275  1.00  0.00    -0.027 C 
ATOM     20  C   UNL A   1      34.720  23.353  23.182  1.00  0.00     0.013 C 
ATOM     21  C   UNL A   1      32.935  22.359  21.701  1.00  0.00     0.017 C 
ATOM     22  C   UNL A   1      32.246  24.255  23.341  1.00  0.00    -0.020 C 
ATOM     23  C   UNL A   1      31.659  23.452  25.668  1.00  0.00     0.032 C 
ATOM     24  C   UNL A   1      32.361  24.584  24.877  1.00  0.00     0.006 C 
ATOM     25  C   UNL A   1      32.657  25.464  22.459  1.00  0.00     0.008 C 
ATOM     26  C   UNL A   1      30.772  23.934  22.939  1.00  0.00     0.012 C 
ATOM     27  C   UNL A   1      32.096  26.060  25.388  1.00  0.00    -0.025 C 
ATOM     28  C   UNL A   1      32.059  26.793  22.933  1.00  0.00     0.005 C 
ATOM     29  C   UNL A   1      30.617  26.220  25.788  1.00  0.00     0.012 C 
ATOM     30  C   UNL A   1      32.984  26.289  26.657  1.00  0.00     0.010 C 
ATOM     31  C   UNL A   1      32.604  27.108  24.331  1.00  0.00     0.003 C 
ATOM     32  C   UNL A   1      32.991  27.726  27.173  1.00  0.00     0.033 C 
ATOM     33  C   UNL A   1      32.537  28.620  24.770  1.00  0.00    -0.006 C 
ATOM     34  C   UNL A   1      33.344  28.756  26.098  1.00  0.00     0.120 C 
ATOM     35  C   UNL A   1      31.109  29.191  24.902  1.00  0.00     0.014 C 
ATOM     36  C   UNL A   1      33.239  29.514  23.711  1.00  0.00     0.014 C 
BRANCH  34  37
ATOM     37  O   UNL A   1      33.218  30.069  26.648  1.00  0.00    -0.393 OA
ATOM     38  H   UNL A   1      32.767  30.018  27.506  1.00  0.00     0.210 HD
ENDBRANCH  34  37
ENDBRANCH   5   8
ENDBRANCH   3   4
ENDBRANCH   2   3
ENDBRANCH   1   2
BRANCH   1  39
ATOM     39  C   UNL A   1      39.163  21.328  25.481  1.00  0.00     0.116 C 
BRANCH  39  40
ATOM     40  N   UNL A   1      39.915  20.098  25.691  1.00  0.00    -0.352 N 
ATOM     41  C   UNL A   1      41.185  19.885  26.176  1.00  0.00     0.251 C 
ATOM     42  H   UNL A   1      39.431  19.278  25.441  1.00  0.00     0.163 HD
ATOM     43  O   UNL A   1      41.611  18.735  26.265  1.00  0.00    -0.269 OA
BRANCH  41  44
ATOM     44  C   UNL A   1      42.065  21.023  26.516  1.00  0.00     0.039 A 
ATOM     45  C   UNL A   1      42.533  21.828  25.475  1.00  0.00     0.014 A 
ATOM     46  C   UNL A   1      42.395  21.329  27.838  1.00  0.00     0.014 A 
ATOM     47  C   UNL A   1      43.211  23.015  25.764  1.00  0.00     0.010 A 
ATOM     48  C   UNL A   1      43.010  22.547  28.129  1.00  0.00     0.010 A 
ATOM     49  C   UNL A   1      43.385  23.422  27.096  1.00  0.00    -0.014 A 
BRANCH  49  50
ATOM     50  C   UNL A   1      43.865  24.793  27.423  1.00  0.00     0.031 A 
ATOM     51  C   UNL A   1      42.913  25.846  27.912  1.00  0.00     0.074 A 
ATOM     52  C   UNL A   1      45.156  25.109  27.187  1.00  0.00     0.049 A 
ATOM     53  N   UNL A   1      43.131  27.115  28.141  1.00  0.00    -0.248 NA
ATOM     54  C   UNL A   1      41.526  25.419  28.147  1.00  0.00     0.031 C 
ATOM     55  C   UNL A   1      46.169  24.183  26.671  1.00  0.00     0.029 A 
ATOM     56  N   UNL A   1      45.836  26.292  27.330  1.00  0.00    -0.354 N 
ATOM     57  C   UNL A   1      41.909  27.647  28.537  1.00  0.00     0.074 A 
ATOM     58  C   UNL A   1      40.944  26.567  28.465  1.00  0.00     0.031 C 
ATOM     59  C   UNL A   1      47.341  24.830  26.560  1.00  0.00     0.029 A 
ATOM     60  C   UNL A   1      47.155  26.225  26.944  1.00  0.00     0.049 A 
ATOM     61  H   UNL A   1      45.419  27.113  27.678  1.00  0.00     0.167 HD
ATOM     62  C   UNL A   1      41.623  28.911  28.939  1.00  0.00     0.034 A 
ATOM     63  C   UNL A   1      48.106  27.178  26.883  1.00  0.00     0.034 A 
ATOM     64  C   UNL A   1      42.598  29.973  29.012  1.00  0.00     0.049 A 
ATOM     65  C   UNL A   1      47.754  28.584  27.297  1.00  0.00     0.074 A 
ATOM     66  C   UNL A   1      42.428  31.269  29.470  1.00  0.00     0.029 A 
ATOM     67  N   UNL A   1      43.922  29.868  28.604  1.00  0.00    -0.354 N 
ATOM     68  N   UNL A   1      46.605  29.055  27.722  1.00  0.00    -0.248 NA
ATOM     69  C   UNL A   1      48.826  29.585  27.224  1.00  0.00     0.031 C 
ATOM     70  C   UNL A   1      43.628  31.964  29.277  1.00  0.00     0.029 A 
ATOM     71  C   UNL A   1      44.568  31.086  28.763  1.00  0.00     0.049 A 
ATOM     72  H   UNL A   1      44.340  29.050  28.253  1.00  0.00     0.167 HD
ATOM     73  C   UNL A   1      46.825  30.403  27.989  1.00  0.00     0.074 A 
ATOM     74  C   UNL A   1      48.217  30.666  27.690  1.00  0.00     0.031 C 
ATOM     75  C   UNL A   1      45.953  31.339  28.444  1.00  0.00     0.034 A 
BRANCH  62  76
ATOM     76  C   UNL A   1      40.190  29.214  29.304  1.00  0.00     0.023 A 
ATOM     77  C   UNL A   1      39.768  29.274  30.644  1.00  0.00     0.031 A 
ATOM     78  C   UNL A   1      39.226  29.422  28.301  1.00  0.00     0.131 A 
ATOM     79  C   UNL A   1      38.409  29.454  30.943  1.00  0.00     0.055 A 
ATOM     80  C   UNL A   1      37.888  29.681  28.608  1.00  0.00     0.041 A 
ATOM     81  F   UNL A   1      39.565  29.359  27.004  1.00  0.00    -0.206 F 
ATOM     82  C   UNL A   1      37.470  29.683  29.936  1.00  0.00     0.022 A 
BRANCH  79  83
ATOM     83  S   UNL A   1      37.868  29.241  32.661  1.00  0.00     0.124 S 
ATOM     84  O   UNL A   1      36.596  29.959  32.660  1.00  0.00    -0.237 OA
ATOM     85  O   UNL A   1      37.782  27.791  32.787  1.00  0.00    -0.237 OA
ATOM     86  O   UNL A   1      38.932  29.873  33.437  1.00  0.00    -0.744 OA
ENDBRANCH  79  83
ENDBRANCH  62  76
BRANCH  63  87
ATOM     87  C   UNL A   1      49.474  26.853  26.387  1.00  0.00     0.023 A 
ATOM     88  C   UNL A   1      49.892  27.248  25.107  1.00  0.00     0.031 A 
ATOM     89  C   UNL A   1      50.371  26.108  27.174  1.00  0.00     0.131 A 
ATOM     90  C   UNL A   1      51.154  26.859  24.632  1.00  0.00     0.055 A 
ATOM     91  C   UNL A   1      51.645  25.767  26.716  1.00  0.00     0.041 A 
ATOM     92  F   UNL A   1      50.024  25.710  28.409  1.00  0.00    -0.206 F 
ATOM     93  C   UNL A   1      52.038  26.132  25.433  1.00  0.00     0.022 A 
BRANCH  90  94
ATOM     94  S   UNL A   1      51.595  27.253  22.918  1.00  0.00     0.124 S 
ATOM     95  O   UNL A   1      51.932  28.669  23.015  1.00  0.00    -0.237 OA
ATOM     96  O   UNL A   1      52.708  26.343  22.675  1.00  0.00    -0.237 OA
ATOM     97  O   UNL A   1      50.372  26.952  22.175  1.00  0.00    -0.744 OA
ENDBRANCH  90  94
ENDBRANCH  63  87
BRANCH  75  98
ATOM     98  C   UNL A   1      46.498  32.725  28.674  1.00  0.00     0.023 A 
ATOM     99  C   UNL A   1      46.587  33.666  27.634  1.00  0.00     0.031 A 
ATOM    100  C   UNL A   1      46.934  33.110  29.955  1.00  0.00     0.131 A 
ATOM    101  C   UNL A   1      47.138  34.931  27.882  1.00  0.00     0.055 A 
ATOM    102  C   UNL A   1      47.433  34.388  30.208  1.00  0.00     0.041 A 
ATOM    103  F   UNL A   1      46.874  32.249  30.984  1.00  0.00    -0.206 F 
ATOM    104  C   UNL A   1      47.546  35.304  29.165  1.00  0.00     0.022 A 
BRANCH 101 105
ATOM    105  S   UNL A   1      47.374  36.069  26.489  1.00  0.00     0.124 S 
ATOM    106  O   UNL A   1      48.474  36.903  26.962  1.00  0.00    -0.237 OA
ATOM    107  O   UNL A   1      47.688  35.160  25.391  1.00  0.00    -0.237 OA
ATOM    108  O   UNL A   1      46.084  36.749  26.378  1.00  0.00    -0.744 OA
ENDBRANCH 101 105
ENDBRANCH  75  98
ENDBRANCH  49  50
ENDBRANCH  41  44
ENDBRANCH  39  40
ENDBRANCH   1  39
TORSDOF 15
ENDMDL
