MODEL 1
REMARK VINA RESULT:     -12.8      0.000      0.000
REMARK SMILES Cc1cc(OC(F)(F)F)cc2c1O[C@H](C(F)(F)F)C(C(=O)NCCCCNC(=O)c1ccc(-c3c4nc(c(-c5cc(S(=O)(=O)[O-])ccc5F)c5ccc([nH]5)c(-c5cc(S(=O)(=O)[O-])ccc5F)c5nc(c(-c6cc(S(=O)(=O)[O-])ccc6F)c6ccc3[nH]6)C=C5)C=C4)cc1)=C2
REMARK SMILES IDX 25 1 24 2 23 3 22 4 20 5 21 6 19 8 1 9 2 10 3 11 12 12 4 13
REMARK SMILES IDX 11 14 13 15 10 16 93 17 14 18 5 19 6 20 7 21 8 22 9 23 15 24
REMARK SMILES IDX 16 25 17 26 18 27 26 28 27 29 28 30 29 32 30 33 31 34 92 35
REMARK SMILES IDX 32 36 91 37 33 38 34 39 35 40 85 41 36 42 90 43 84 44 86 45
REMARK SMILES IDX 37 46 89 47 83 48 82 49 38 51 70 52 50 53 69 54 51 55 54 56
REMARK SMILES IDX 68 57 87 58 52 59 53 60 67 62 88 63 55 64 39 65 40 66 48 67
REMARK SMILES IDX 41 68 47 69 49 70 46 71 42 72 43 73 44 74 45 75 71 76 72 77
REMARK SMILES IDX 80 78 73 79 79 80 81 81 78 82 74 83 75 84 76 85 77 86 56 87
REMARK SMILES IDX 57 88 65 89 58 90 64 91 66 92 63 93 59 94 60 95 61 96 62 97
REMARK H PARENT 22 7 27 31 86 50 54 61
REMARK Flexibility Score: inf
ROOT
ATOM      1  C   UNL A   1      34.844  21.716  24.968  1.00  0.00     0.023 C 
ENDROOT
BRANCH   1   2
ATOM      2  C   UNL A   1      34.619  22.658  23.781  1.00  0.00     0.023 C 
BRANCH   2   3
ATOM      3  C   UNL A   1      33.170  22.726  23.307  1.00  0.00     0.116 C 
BRANCH   3   4
ATOM      4  N   UNL A   1      32.230  22.569  24.402  1.00  0.00    -0.352 N 
ATOM      5  C   UNL A   1      31.510  23.383  25.208  1.00  0.00     0.251 C 
ATOM      6  O   UNL A   1      30.799  22.811  26.040  1.00  0.00    -0.270 OA
ATOM      7  H   UNL A   1      32.078  21.621  24.616  1.00  0.00     0.163 HD
BRANCH   5   8
ATOM      8  C   UNL A   1      31.518  24.875  25.156  1.00  0.00     0.067 C 
ATOM      9  C   UNL A   1      31.779  29.953  26.056  1.00  0.00     0.048 C 
ATOM     10  C   UNL A   1      31.208  29.070  24.983  1.00  0.00    -0.005 A 
ATOM     11  C   UNL A   1      30.648  29.662  23.838  1.00  0.00     0.054 A 
ATOM     12  C   UNL A   1      31.271  27.673  25.061  1.00  0.00     0.131 A 
ATOM     13  C   UNL A   1      30.128  28.876  22.807  1.00  0.00     0.130 A 
ATOM     14  C   UNL A   1      30.749  26.876  24.040  1.00  0.00     0.021 A 
ATOM     15  O   UNL A   1      31.813  27.123  26.190  1.00  0.00    -0.475 OA
ATOM     16  C   UNL A   1      30.180  27.482  22.918  1.00  0.00     0.058 A 
ATOM     17  C   UNL A   1      30.774  25.426  24.178  1.00  0.00     0.025 C 
ATOM     18  C   UNL A   1      32.312  25.760  26.073  1.00  0.00     0.314 C 
BRANCH  13  19
ATOM     19  O   UNL A   1      29.552  29.330  21.654  1.00  0.00    -0.406 OA
BRANCH  19  20
ATOM     20  C   UNL A   1      28.458  30.222  21.768  1.00  0.00     0.573 C 
ATOM     21  F   UNL A   1      27.754  30.286  20.617  1.00  0.00    -0.132 F 
ATOM     22  F   UNL A   1      27.636  29.863  22.778  1.00  0.00    -0.132 F 
ATOM     23  F   UNL A   1      28.932  31.460  22.035  1.00  0.00    -0.132 F 
ENDBRANCH  19  20
ENDBRANCH  13  19
BRANCH  18  24
ATOM     24  C   UNL A   1      33.809  25.799  25.713  1.00  0.00     0.429 C 
ATOM     25  F   UNL A   1      34.384  26.927  26.204  1.00  0.00    -0.167 F 
ATOM     26  F   UNL A   1      34.498  24.760  26.235  1.00  0.00    -0.167 F 
ATOM     27  F   UNL A   1      34.025  25.787  24.378  1.00  0.00    -0.167 F 
ENDBRANCH  18  24
ENDBRANCH   5   8
ENDBRANCH   3   4
ENDBRANCH   2   3
ENDBRANCH   1   2
BRANCH   1  28
ATOM     28  C   UNL A   1      36.153  21.921  25.728  1.00  0.00     0.116 C 
BRANCH  28  29
ATOM     29  N   UNL A   1      37.134  20.868  25.496  1.00  0.00    -0.352 N 
ATOM     30  C   UNL A   1      38.492  20.935  25.698  1.00  0.00     0.251 C 
ATOM     31  H   UNL A   1      36.784  20.013  25.157  1.00  0.00     0.163 HD
ATOM     32  O   UNL A   1      39.224  19.997  25.403  1.00  0.00    -0.269 OA
BRANCH  30  33
ATOM     33  C   UNL A   1      39.047  22.184  26.245  1.00  0.00     0.039 A 
ATOM     34  C   UNL A   1      40.139  22.114  27.111  1.00  0.00     0.014 A 
ATOM     35  C   UNL A   1      38.548  23.415  25.807  1.00  0.00     0.014 A 
ATOM     36  C   UNL A   1      40.781  23.291  27.494  1.00  0.00     0.010 A 
ATOM     37  C   UNL A   1      39.215  24.584  26.158  1.00  0.00     0.010 A 
ATOM     38  C   UNL A   1      40.339  24.529  26.998  1.00  0.00    -0.014 A 
BRANCH  38  39
ATOM     39  C   UNL A   1      41.046  25.783  27.344  1.00  0.00     0.031 A 
ATOM     40  C   UNL A   1      40.337  26.843  28.132  1.00  0.00     0.074 A 
ATOM     41  C   UNL A   1      42.298  25.987  26.891  1.00  0.00     0.049 A 
ATOM     42  N   UNL A   1      40.771  28.016  28.506  1.00  0.00    -0.248 NA
ATOM     43  C   UNL A   1      38.950  26.553  28.535  1.00  0.00     0.031 C 
ATOM     44  C   UNL A   1      43.060  25.046  26.069  1.00  0.00     0.029 A 
ATOM     45  N   UNL A   1      43.143  27.057  27.043  1.00  0.00    -0.354 N 
ATOM     46  C   UNL A   1      39.713  28.609  29.183  1.00  0.00     0.074 A 
ATOM     47  C   UNL A   1      38.600  27.687  29.126  1.00  0.00     0.031 C 
ATOM     48  C   UNL A   1      44.263  25.576  25.795  1.00  0.00     0.029 A 
ATOM     49  C   UNL A   1      44.350  26.903  26.404  1.00  0.00     0.049 A 
ATOM     50  H   UNL A   1      42.907  27.860  27.562  1.00  0.00     0.167 HD
ATOM     51  C   UNL A   1      39.684  29.804  29.816  1.00  0.00     0.034 A 
ATOM     52  C   UNL A   1      45.408  27.736  26.319  1.00  0.00     0.034 A 
ATOM     53  C   UNL A   1      40.805  30.701  29.884  1.00  0.00     0.049 A 
ATOM     54  C   UNL A   1      45.360  29.053  27.051  1.00  0.00     0.074 A 
ATOM     55  C   UNL A   1      40.894  31.907  30.554  1.00  0.00     0.029 A 
ATOM     56  N   UNL A   1      42.028  30.491  29.267  1.00  0.00    -0.354 N 
ATOM     57  N   UNL A   1      44.389  29.554  27.777  1.00  0.00    -0.248 NA
ATOM     58  C   UNL A   1      46.550  29.911  26.969  1.00  0.00     0.031 C 
ATOM     59  C   UNL A   1      42.161  32.443  30.317  1.00  0.00     0.029 A 
ATOM     60  C   UNL A   1      42.876  31.553  29.531  1.00  0.00     0.049 A 
ATOM     61  H   UNL A   1      42.260  29.705  28.723  1.00  0.00     0.167 HD
ATOM     62  C   UNL A   1      44.859  30.770  28.261  1.00  0.00     0.074 A 
ATOM     63  C   UNL A   1      46.208  30.924  27.757  1.00  0.00     0.031 C 
ATOM     64  C   UNL A   1      44.230  31.678  29.047  1.00  0.00     0.034 A 
BRANCH  51  65
ATOM     65  C   UNL A   1      38.417  30.202  30.520  1.00  0.00     0.023 A 
ATOM     66  C   UNL A   1      37.485  31.037  29.882  1.00  0.00     0.031 A 
ATOM     67  C   UNL A   1      38.184  29.831  31.856  1.00  0.00     0.131 A 
ATOM     68  C   UNL A   1      36.366  31.493  30.591  1.00  0.00     0.055 A 
ATOM     69  C   UNL A   1      37.052  30.263  32.547  1.00  0.00     0.041 A 
ATOM     70  F   UNL A   1      39.046  29.029  32.501  1.00  0.00    -0.206 F 
ATOM     71  C   UNL A   1      36.141  31.104  31.916  1.00  0.00     0.022 A 
BRANCH  68  72
ATOM     72  S   UNL A   1      35.167  32.616  29.824  1.00  0.00     0.124 S 
ATOM     73  O   UNL A   1      34.508  31.743  28.854  1.00  0.00    -0.237 OA
ATOM     74  O   UNL A   1      34.348  33.009  30.967  1.00  0.00    -0.237 OA
ATOM     75  O   UNL A   1      35.994  33.668  29.245  1.00  0.00    -0.744 OA
ENDBRANCH  68  72
ENDBRANCH  51  65
BRANCH  52  76
ATOM     76  C   UNL A   1      46.621  27.302  25.568  1.00  0.00     0.023 A 
ATOM     77  C   UNL A   1      46.883  27.778  24.271  1.00  0.00     0.031 A 
ATOM     78  C   UNL A   1      47.487  26.338  26.110  1.00  0.00     0.131 A 
ATOM     79  C   UNL A   1      47.961  27.256  23.545  1.00  0.00     0.055 A 
ATOM     80  C   UNL A   1      48.592  25.860  25.403  1.00  0.00     0.041 A 
ATOM     81  F   UNL A   1      47.266  25.846  27.339  1.00  0.00    -0.206 F 
ATOM     82  C   UNL A   1      48.827  26.313  24.108  1.00  0.00     0.022 A 
BRANCH  79  83
ATOM     83  S   UNL A   1      48.228  27.718  21.811  1.00  0.00     0.124 S 
ATOM     84  O   UNL A   1      46.960  28.352  21.464  1.00  0.00    -0.237 OA
ATOM     85  O   UNL A   1      49.375  28.616  21.917  1.00  0.00    -0.237 OA
ATOM     86  O   UNL A   1      48.495  26.444  21.152  1.00  0.00    -0.744 OA
ENDBRANCH  79  83
ENDBRANCH  52  76
BRANCH  64  87
ATOM     87  C   UNL A   1      44.972  32.926  29.444  1.00  0.00     0.023 A 
ATOM     88  C   UNL A   1      44.933  34.060  28.610  1.00  0.00     0.031 A 
ATOM     89  C   UNL A   1      45.840  32.935  30.548  1.00  0.00     0.131 A 
ATOM     90  C   UNL A   1      45.781  35.142  28.871  1.00  0.00     0.055 A 
ATOM     91  C   UNL A   1      46.656  34.032  30.825  1.00  0.00     0.041 A 
ATOM     92  F   UNL A   1      45.915  31.870  31.364  1.00  0.00    -0.206 F 
ATOM     93  C   UNL A   1      46.639  35.136  29.977  1.00  0.00     0.022 A 
BRANCH  90  94
ATOM     94  S   UNL A   1      45.854  36.564  27.748  1.00  0.00     0.124 S 
ATOM     95  O   UNL A   1      46.196  37.653  28.660  1.00  0.00    -0.237 OA
ATOM     96  O   UNL A   1      46.913  36.169  26.823  1.00  0.00    -0.237 OA
ATOM     97  O   UNL A   1      44.513  36.632  27.178  1.00  0.00    -0.744 OA
ENDBRANCH  90  94
ENDBRANCH  64  87
ENDBRANCH  38  39
ENDBRANCH  30  33
ENDBRANCH  28  29
ENDBRANCH   1  28
TORSDOF 17
ENDMDL
MODEL 2
REMARK VINA RESULT:     -12.6      5.641     10.808
REMARK SMILES Cc1cc(OC(F)(F)F)cc2c1O[C@H](C(F)(F)F)C(C(=O)NCCCCNC(=O)c1ccc(-c3c4nc(c(-c5cc(S(=O)(=O)[O-])ccc5F)c5ccc([nH]5)c(-c5cc(S(=O)(=O)[O-])ccc5F)c5nc(c(-c6cc(S(=O)(=O)[O-])ccc6F)c6ccc3[nH]6)C=C5)C=C4)cc1)=C2
REMARK SMILES IDX 25 1 24 2 23 3 22 4 20 5 21 6 19 8 1 9 2 10 3 11 12 12 4 13
REMARK SMILES IDX 11 14 13 15 10 16 93 17 14 18 5 19 6 20 7 21 8 22 9 23 15 24
REMARK SMILES IDX 16 25 17 26 18 27 26 28 27 29 28 30 29 32 30 33 31 34 92 35
REMARK SMILES IDX 32 36 91 37 33 38 34 39 35 40 85 41 36 42 90 43 84 44 86 45
REMARK SMILES IDX 37 46 89 47 83 48 82 49 38 51 70 52 50 53 69 54 51 55 54 56
REMARK SMILES IDX 68 57 87 58 52 59 53 60 67 62 88 63 55 64 39 65 40 66 48 67
REMARK SMILES IDX 41 68 47 69 49 70 46 71 42 72 43 73 44 74 45 75 71 76 72 77
REMARK SMILES IDX 80 78 73 79 79 80 81 81 78 82 74 83 75 84 76 85 77 86 56 87
REMARK SMILES IDX 57 88 65 89 58 90 64 91 66 92 63 93 59 94 60 95 61 96 62 97
REMARK H PARENT 22 7 27 31 86 50 54 61
REMARK Flexibility Score: inf
ROOT
ATOM      1  C   UNL A   1      31.357  32.272  26.736  1.00  0.00     0.023 C 
ENDROOT
BRANCH   1   2
ATOM      2  C   UNL A   1      31.411  30.857  26.152  1.00  0.00     0.023 C 
BRANCH   2   3
ATOM      3  C   UNL A   1      32.799  30.224  26.183  1.00  0.00     0.116 C 
BRANCH   3   4
ATOM      4  N   UNL A   1      33.220  29.767  24.871  1.00  0.00    -0.352 N 
ATOM      5  C   UNL A   1      33.248  28.594  24.198  1.00  0.00     0.251 C 
ATOM      6  O   UNL A   1      33.699  28.653  23.049  1.00  0.00    -0.270 OA
ATOM      7  H   UNL A   1      33.580  30.505  24.329  1.00  0.00     0.163 HD
BRANCH   5   8
ATOM      8  C   UNL A   1      32.786  27.280  24.734  1.00  0.00     0.067 C 
ATOM      9  C   UNL A   1      30.284  23.306  26.880  1.00  0.00     0.048 C 
ATOM     10  C   UNL A   1      31.703  23.612  26.492  1.00  0.00    -0.005 A 
ATOM     11  C   UNL A   1      32.677  22.607  26.621  1.00  0.00     0.054 A 
ATOM     12  C   UNL A   1      32.072  24.848  25.948  1.00  0.00     0.131 A 
ATOM     13  C   UNL A   1      34.003  22.843  26.248  1.00  0.00     0.130 A 
ATOM     14  C   UNL A   1      33.395  25.099  25.578  1.00  0.00     0.021 A 
ATOM     15  O   UNL A   1      31.106  25.810  25.841  1.00  0.00    -0.475 OA
ATOM     16  C   UNL A   1      34.354  24.094  25.730  1.00  0.00     0.058 A 
ATOM     17  C   UNL A   1      33.762  26.415  25.072  1.00  0.00     0.025 C 
ATOM     18  C   UNL A   1      31.349  26.869  24.872  1.00  0.00     0.314 C 
BRANCH  13  19
ATOM     19  O   UNL A   1      35.039  21.957  26.334  1.00  0.00    -0.406 OA
BRANCH  19  20
ATOM     20  C   UNL A   1      35.236  21.063  25.253  1.00  0.00     0.573 C 
ATOM     21  F   UNL A   1      34.308  20.081  25.253  1.00  0.00    -0.132 F 
ATOM     22  F   UNL A   1      35.203  21.712  24.069  1.00  0.00    -0.132 F 
ATOM     23  F   UNL A   1      36.452  20.487  25.380  1.00  0.00    -0.132 F 
ENDBRANCH  19  20
ENDBRANCH  13  19
BRANCH  18  24
ATOM     24  C   UNL A   1      30.710  26.478  23.526  1.00  0.00     0.429 C 
ATOM     25  F   UNL A   1      30.082  27.548  22.973  1.00  0.00    -0.167 F 
ATOM     26  F   UNL A   1      31.619  26.057  22.619  1.00  0.00    -0.167 F 
ATOM     27  F   UNL A   1      29.791  25.495  23.651  1.00  0.00    -0.167 F 
ENDBRANCH  18  24
ENDBRANCH   5   8
ENDBRANCH   3   4
ENDBRANCH   2   3
ENDBRANCH   1   2
BRANCH   1  28
ATOM     28  C   UNL A   1      32.692  32.829  27.229  1.00  0.00     0.116 C 
BRANCH  28  29
ATOM     29  N   UNL A   1      32.591  34.165  27.804  1.00  0.00    -0.352 N 
ATOM     30  C   UNL A   1      33.391  34.717  28.775  1.00  0.00     0.251 C 
ATOM     31  H   UNL A   1      31.868  34.736  27.457  1.00  0.00     0.163 HD
ATOM     32  O   UNL A   1      33.165  35.834  29.225  1.00  0.00    -0.269 OA
BRANCH  30  33
ATOM     33  C   UNL A   1      34.510  33.908  29.287  1.00  0.00     0.039 A 
ATOM     34  C   UNL A   1      35.809  34.224  28.884  1.00  0.00     0.014 A 
ATOM     35  C   UNL A   1      34.270  32.918  30.246  1.00  0.00     0.014 A 
ATOM     36  C   UNL A   1      36.886  33.582  29.495  1.00  0.00     0.010 A 
ATOM     37  C   UNL A   1      35.346  32.312  30.882  1.00  0.00     0.010 A 
ATOM     38  C   UNL A   1      36.661  32.644  30.516  1.00  0.00    -0.014 A 
BRANCH  38  39
ATOM     39  C   UNL A   1      37.794  32.000  31.219  1.00  0.00     0.031 A 
ATOM     40  C   UNL A   1      38.500  30.841  30.583  1.00  0.00     0.074 A 
ATOM     41  C   UNL A   1      38.135  32.418  32.453  1.00  0.00     0.049 A 
ATOM     42  N   UNL A   1      39.489  30.126  31.049  1.00  0.00    -0.248 NA
ATOM     43  C   UNL A   1      38.020  30.418  29.256  1.00  0.00     0.031 C 
ATOM     44  C   UNL A   1      37.476  33.499  33.188  1.00  0.00     0.029 A 
ATOM     45  N   UNL A   1      39.107  31.974  33.313  1.00  0.00    -0.354 N 
ATOM     46  C   UNL A   1      39.747  29.166  30.079  1.00  0.00     0.074 A 
ATOM     47  C   UNL A   1      38.780  29.358  29.021  1.00  0.00     0.031 C 
ATOM     48  C   UNL A   1      38.068  33.640  34.385  1.00  0.00     0.029 A 
ATOM     49  C   UNL A   1      39.134  32.646  34.512  1.00  0.00     0.049 A 
ATOM     50  H   UNL A   1      39.729  31.243  33.092  1.00  0.00     0.167 HD
ATOM     51  C   UNL A   1      40.720  28.227  30.064  1.00  0.00     0.034 A 
ATOM     52  C   UNL A   1      39.927  32.482  35.590  1.00  0.00     0.034 A 
ATOM     53  C   UNL A   1      41.689  28.061  31.112  1.00  0.00     0.049 A 
ATOM     54  C   UNL A   1      41.019  31.443  35.541  1.00  0.00     0.074 A 
ATOM     55  C   UNL A   1      42.753  27.179  31.162  1.00  0.00     0.029 A 
ATOM     56  N   UNL A   1      41.718  28.793  32.290  1.00  0.00    -0.354 N 
ATOM     57  N   UNL A   1      41.319  30.612  34.571  1.00  0.00    -0.248 NA
ATOM     58  C   UNL A   1      41.890  31.326  36.718  1.00  0.00     0.031 C 
ATOM     59  C   UNL A   1      43.406  27.354  32.383  1.00  0.00     0.029 A 
ATOM     60  C   UNL A   1      42.774  28.372  33.079  1.00  0.00     0.049 A 
ATOM     61  H   UNL A   1      41.082  29.504  32.530  1.00  0.00     0.167 HD
ATOM     62  C   UNL A   1      42.427  29.895  35.008  1.00  0.00     0.074 A 
ATOM     63  C   UNL A   1      42.755  30.399  36.325  1.00  0.00     0.031 C 
ATOM     64  C   UNL A   1      43.108  28.906  34.378  1.00  0.00     0.034 A 
BRANCH  51  65
ATOM     65  C   UNL A   1      40.817  27.325  28.865  1.00  0.00     0.023 A 
ATOM     66  C   UNL A   1      41.769  27.579  27.863  1.00  0.00     0.031 A 
ATOM     67  C   UNL A   1      39.903  26.274  28.674  1.00  0.00     0.131 A 
ATOM     68  C   UNL A   1      41.771  26.800  26.699  1.00  0.00     0.055 A 
ATOM     69  C   UNL A   1      39.930  25.482  27.526  1.00  0.00     0.041 A 
ATOM     70  F   UNL A   1      38.981  25.994  29.610  1.00  0.00    -0.206 F 
ATOM     71  C   UNL A   1      40.863  25.750  26.529  1.00  0.00     0.022 A 
BRANCH  68  72
ATOM     72  S   UNL A   1      42.945  27.128  25.357  1.00  0.00     0.124 S 
ATOM     73  O   UNL A   1      42.278  28.203  24.625  1.00  0.00    -0.237 OA
ATOM     74  O   UNL A   1      44.142  27.524  26.093  1.00  0.00    -0.237 OA
ATOM     75  O   UNL A   1      43.028  25.857  24.647  1.00  0.00    -0.744 OA
ENDBRANCH  68  72
ENDBRANCH  51  65
BRANCH  52  76
ATOM     76  C   UNL A   1      39.755  33.379  36.768  1.00  0.00     0.023 A 
ATOM     77  C   UNL A   1      39.103  32.933  37.932  1.00  0.00     0.031 A 
ATOM     78  C   UNL A   1      40.165  34.721  36.709  1.00  0.00     0.131 A 
ATOM     79  C   UNL A   1      38.844  33.836  38.971  1.00  0.00     0.055 A 
ATOM     80  C   UNL A   1      39.953  35.603  37.769  1.00  0.00     0.041 A 
ATOM     81  F   UNL A   1      40.778  35.192  35.612  1.00  0.00    -0.206 F 
ATOM     82  C   UNL A   1      39.279  35.164  38.905  1.00  0.00     0.022 A 
BRANCH  79  83
ATOM     83  S   UNL A   1      37.856  33.343  40.411  1.00  0.00     0.124 S 
ATOM     84  O   UNL A   1      38.582  32.172  40.893  1.00  0.00    -0.237 OA
ATOM     85  O   UNL A   1      37.945  34.533  41.253  1.00  0.00    -0.237 OA
ATOM     86  O   UNL A   1      36.536  33.077  39.848  1.00  0.00    -0.744 OA
ENDBRANCH  79  83
ENDBRANCH  52  76
BRANCH  64  87
ATOM     87  C   UNL A   1      44.294  28.291  35.071  1.00  0.00     0.023 A 
ATOM     88  C   UNL A   1      44.094  27.372  36.120  1.00  0.00     0.031 A 
ATOM     89  C   UNL A   1      45.600  28.738  34.811  1.00  0.00     0.131 A 
ATOM     90  C   UNL A   1      45.182  26.959  36.897  1.00  0.00     0.055 A 
ATOM     91  C   UNL A   1      46.686  28.294  35.565  1.00  0.00     0.041 A 
ATOM     92  F   UNL A   1      45.833  29.622  33.827  1.00  0.00    -0.206 F 
ATOM     93  C   UNL A   1      46.478  27.411  36.622  1.00  0.00     0.022 A 
BRANCH  90  94
ATOM     94  S   UNL A   1      44.947  25.878  38.334  1.00  0.00     0.124 S 
ATOM     95  O   UNL A   1      46.322  25.669  38.783  1.00  0.00    -0.237 OA
ATOM     96  O   UNL A   1      44.124  26.708  39.209  1.00  0.00    -0.237 OA
ATOM     97  O   UNL A   1      44.290  24.698  37.783  1.00  0.00    -0.744 OA
ENDBRANCH  90  94
ENDBRANCH  64  87
ENDBRANCH  38  39
ENDBRANCH  30  33
ENDBRANCH  28  29
ENDBRANCH   1  28
TORSDOF 17
ENDMDL
MODEL 3
REMARK VINA RESULT:     -12.5      5.281      8.092
REMARK SMILES Cc1cc(OC(F)(F)F)cc2c1O[C@H](C(F)(F)F)C(C(=O)NCCCCNC(=O)c1ccc(-c3c4nc(c(-c5cc(S(=O)(=O)[O-])ccc5F)c5ccc([nH]5)c(-c5cc(S(=O)(=O)[O-])ccc5F)c5nc(c(-c6cc(S(=O)(=O)[O-])ccc6F)c6ccc3[nH]6)C=C5)C=C4)cc1)=C2
REMARK SMILES IDX 25 1 24 2 23 3 22 4 20 5 21 6 19 8 1 9 2 10 3 11 12 12 4 13
REMARK SMILES IDX 11 14 13 15 10 16 93 17 14 18 5 19 6 20 7 21 8 22 9 23 15 24
REMARK SMILES IDX 16 25 17 26 18 27 26 28 27 29 28 30 29 32 30 33 31 34 92 35
REMARK SMILES IDX 32 36 91 37 33 38 34 39 35 40 85 41 36 42 90 43 84 44 86 45
REMARK SMILES IDX 37 46 89 47 83 48 82 49 38 51 70 52 50 53 69 54 51 55 54 56
REMARK SMILES IDX 68 57 87 58 52 59 53 60 67 62 88 63 55 64 39 65 40 66 48 67
REMARK SMILES IDX 41 68 47 69 49 70 46 71 42 72 43 73 44 74 45 75 71 76 72 77
REMARK SMILES IDX 80 78 73 79 79 80 81 81 78 82 74 83 75 84 76 85 77 86 56 87
REMARK SMILES IDX 57 88 65 89 58 90 64 91 66 92 63 93 59 94 60 95 61 96 62 97
REMARK H PARENT 22 7 27 31 86 50 54 61
REMARK Flexibility Score: inf
ROOT
ATOM      1  C   UNL A   1      31.682  28.649  25.697  1.00  0.00     0.023 C 
ENDROOT
BRANCH   1   2
ATOM      2  C   UNL A   1      31.457  27.413  26.572  1.00  0.00     0.023 C 
BRANCH   2   3
ATOM      3  C   UNL A   1      30.665  26.303  25.887  1.00  0.00     0.116 C 
BRANCH   3   4
ATOM      4  N   UNL A   1      30.867  26.296  24.449  1.00  0.00    -0.352 N 
ATOM      5  C   UNL A   1      31.593  25.581  23.559  1.00  0.00     0.251 C 
ATOM      6  O   UNL A   1      31.461  25.916  22.378  1.00  0.00    -0.270 OA
ATOM      7  H   UNL A   1      30.338  26.997  24.006  1.00  0.00     0.163 HD
BRANCH   5   8
ATOM      8  C   UNL A   1      32.509  24.453  23.900  1.00  0.00     0.067 C 
ATOM      9  C   UNL A   1      36.433  21.161  24.552  1.00  0.00     0.048 C 
ATOM     10  C   UNL A   1      34.934  21.091  24.630  1.00  0.00    -0.005 A 
ATOM     11  C   UNL A   1      34.328  19.898  25.062  1.00  0.00     0.054 A 
ATOM     12  C   UNL A   1      34.125  22.197  24.344  1.00  0.00     0.131 A 
ATOM     13  C   UNL A   1      32.939  19.799  25.171  1.00  0.00     0.130 A 
ATOM     14  C   UNL A   1      32.735  22.109  24.443  1.00  0.00     0.021 A 
ATOM     15  O   UNL A   1      34.739  23.342  23.919  1.00  0.00    -0.475 OA
ATOM     16  C   UNL A   1      32.149  20.909  24.856  1.00  0.00     0.058 A 
ATOM     17  C   UNL A   1      31.915  23.258  24.080  1.00  0.00     0.025 C 
ATOM     18  C   UNL A   1      33.993  24.580  24.088  1.00  0.00     0.314 C 
BRANCH  13  19
ATOM     19  O   UNL A   1      32.234  18.698  25.567  1.00  0.00    -0.406 OA
BRANCH  19  20
ATOM     20  C   UNL A   1      32.643  17.436  25.071  1.00  0.00     0.573 C 
ATOM     21  F   UNL A   1      31.602  16.580  24.987  1.00  0.00    -0.132 F 
ATOM     22  F   UNL A   1      33.228  17.553  23.859  1.00  0.00    -0.132 F 
ATOM     23  F   UNL A   1      33.550  16.907  25.923  1.00  0.00    -0.132 F 
ENDBRANCH  19  20
ENDBRANCH  13  19
BRANCH  18  24
ATOM     24  C   UNL A   1      34.369  25.217  25.439  1.00  0.00     0.429 C 
ATOM     25  F   UNL A   1      35.624  24.846  25.803  1.00  0.00    -0.167 F 
ATOM     26  F   UNL A   1      34.365  26.568  25.399  1.00  0.00    -0.167 F 
ATOM     27  F   UNL A   1      33.537  24.848  26.439  1.00  0.00    -0.167 F 
ENDBRANCH  18  24
ENDBRANCH   5   8
ENDBRANCH   3   4
ENDBRANCH   2   3
ENDBRANCH   1   2
BRANCH   1  28
ATOM     28  C   UNL A   1      32.896  29.502  26.066  1.00  0.00     0.116 C 
BRANCH  28  29
ATOM     29  N   UNL A   1      32.555  30.862  26.463  1.00  0.00    -0.352 N 
ATOM     30  C   UNL A   1      33.277  31.697  27.281  1.00  0.00     0.251 C 
ATOM     31  H   UNL A   1      31.712  31.223  26.103  1.00  0.00     0.163 HD
ATOM     32  O   UNL A   1      32.851  32.803  27.594  1.00  0.00    -0.269 OA
BRANCH  30  33
ATOM     33  C   UNL A   1      34.563  31.207  27.804  1.00  0.00     0.039 A 
ATOM     34  C   UNL A   1      35.598  32.120  28.010  1.00  0.00     0.014 A 
ATOM     35  C   UNL A   1      34.692  29.868  28.186  1.00  0.00     0.014 A 
ATOM     36  C   UNL A   1      36.755  31.701  28.665  1.00  0.00     0.010 A 
ATOM     37  C   UNL A   1      35.829  29.464  28.876  1.00  0.00     0.010 A 
ATOM     38  C   UNL A   1      36.865  30.378  29.126  1.00  0.00    -0.014 A 
BRANCH  38  39
ATOM     39  C   UNL A   1      38.059  29.933  29.879  1.00  0.00     0.031 A 
ATOM     40  C   UNL A   1      38.298  30.449  31.266  1.00  0.00     0.074 A 
ATOM     41  C   UNL A   1      38.955  29.120  29.285  1.00  0.00     0.049 A 
ATOM     42  N   UNL A   1      39.296  30.205  32.073  1.00  0.00    -0.248 NA
ATOM     43  C   UNL A   1      37.293  31.378  31.811  1.00  0.00     0.031 C 
ATOM     44  C   UNL A   1      38.849  28.605  27.920  1.00  0.00     0.029 A 
ATOM     45  N   UNL A   1      40.137  28.599  29.748  1.00  0.00    -0.354 N 
ATOM     46  C   UNL A   1      39.045  30.951  33.217  1.00  0.00     0.074 A 
ATOM     47  C   UNL A   1      37.828  31.695  32.982  1.00  0.00     0.031 C 
ATOM     48  C   UNL A   1      39.917  27.836  27.657  1.00  0.00     0.029 A 
ATOM     49  C   UNL A   1      40.795  27.819  28.827  1.00  0.00     0.049 A 
ATOM     50  H   UNL A   1      40.482  28.768  30.655  1.00  0.00     0.167 HD
ATOM     51  C   UNL A   1      39.754  30.990  34.367  1.00  0.00     0.034 A 
ATOM     52  C   UNL A   1      41.970  27.165  28.915  1.00  0.00     0.034 A 
ATOM     53  C   UNL A   1      40.951  30.228  34.596  1.00  0.00     0.049 A 
ATOM     54  C   UNL A   1      42.733  27.205  30.216  1.00  0.00     0.074 A 
ATOM     55  C   UNL A   1      41.708  30.152  35.751  1.00  0.00     0.029 A 
ATOM     56  N   UNL A   1      41.562  29.409  33.659  1.00  0.00    -0.354 N 
ATOM     57  N   UNL A   1      42.427  27.832  31.327  1.00  0.00    -0.248 NA
ATOM     58  C   UNL A   1      43.987  26.443  30.285  1.00  0.00     0.031 C 
ATOM     59  C   UNL A   1      42.796  29.312  35.503  1.00  0.00     0.029 A 
ATOM     60  C   UNL A   1      42.695  28.833  34.206  1.00  0.00     0.049 A 
ATOM     61  H   UNL A   1      41.239  29.260  32.742  1.00  0.00     0.167 HD
ATOM     62  C   UNL A   1      43.433  27.518  32.234  1.00  0.00     0.074 A 
ATOM     63  C   UNL A   1      44.350  26.633  31.547  1.00  0.00     0.031 C 
ATOM     64  C   UNL A   1      43.584  27.928  33.518  1.00  0.00     0.034 A 
BRANCH  51  65
ATOM     65  C   UNL A   1      39.243  31.853  35.487  1.00  0.00     0.023 A 
ATOM     66  C   UNL A   1      38.512  31.284  36.543  1.00  0.00     0.031 A 
ATOM     67  C   UNL A   1      39.400  33.250  35.453  1.00  0.00     0.131 A 
ATOM     68  C   UNL A   1      37.946  32.115  37.517  1.00  0.00     0.055 A 
ATOM     69  C   UNL A   1      38.859  34.071  36.443  1.00  0.00     0.041 A 
ATOM     70  F   UNL A   1      40.097  33.834  34.464  1.00  0.00    -0.206 F 
ATOM     71  C   UNL A   1      38.121  33.503  37.477  1.00  0.00     0.022 A 
BRANCH  68  72
ATOM     72  S   UNL A   1      36.949  31.429  38.867  1.00  0.00     0.124 S 
ATOM     73  O   UNL A   1      36.739  30.053  38.421  1.00  0.00    -0.237 OA
ATOM     74  O   UNL A   1      37.841  31.585  40.012  1.00  0.00    -0.237 OA
ATOM     75  O   UNL A   1      35.753  32.264  38.877  1.00  0.00    -0.744 OA
ENDBRANCH  68  72
ENDBRANCH  51  65
BRANCH  52  76
ATOM     76  C   UNL A   1      42.448  26.359  27.755  1.00  0.00     0.023 A 
ATOM     77  C   UNL A   1      42.021  25.033  27.565  1.00  0.00     0.031 A 
ATOM     78  C   UNL A   1      43.405  26.882  26.870  1.00  0.00     0.131 A 
ATOM     79  C   UNL A   1      42.584  24.262  26.539  1.00  0.00     0.055 A 
ATOM     80  C   UNL A   1      43.924  26.128  25.816  1.00  0.00     0.041 A 
ATOM     81  F   UNL A   1      43.851  28.139  27.023  1.00  0.00    -0.206 F 
ATOM     82  C   UNL A   1      43.520  24.806  25.653  1.00  0.00     0.022 A 
BRANCH  79  83
ATOM     83  S   UNL A   1      42.186  22.500  26.371  1.00  0.00     0.124 S 
ATOM     84  O   UNL A   1      42.654  22.209  25.020  1.00  0.00    -0.237 OA
ATOM     85  O   UNL A   1      42.975  21.915  27.452  1.00  0.00    -0.237 OA
ATOM     86  O   UNL A   1      40.741  22.454  26.561  1.00  0.00    -0.744 OA
ENDBRANCH  79  83
ENDBRANCH  52  76
BRANCH  64  87
ATOM     87  C   UNL A   1      44.770  27.428  34.300  1.00  0.00     0.023 A 
ATOM     88  C   UNL A   1      44.631  26.312  35.147  1.00  0.00     0.031 A 
ATOM     89  C   UNL A   1      45.975  28.150  34.333  1.00  0.00     0.131 A 
ATOM     90  C   UNL A   1      45.668  25.975  36.025  1.00  0.00     0.055 A 
ATOM     91  C   UNL A   1      47.019  27.785  35.183  1.00  0.00     0.041 A 
ATOM     92  F   UNL A   1      46.145  29.226  33.548  1.00  0.00    -0.206 F 
ATOM     93  C   UNL A   1      46.863  26.702  36.043  1.00  0.00     0.022 A 
BRANCH  90  94
ATOM     94  S   UNL A   1      45.477  24.625  37.221  1.00  0.00     0.124 S 
ATOM     95  O   UNL A   1      45.493  23.448  36.355  1.00  0.00    -0.237 OA
ATOM     96  O   UNL A   1      46.656  24.795  38.064  1.00  0.00    -0.237 OA
ATOM     97  O   UNL A   1      44.196  24.902  37.864  1.00  0.00    -0.744 OA
ENDBRANCH  90  94
ENDBRANCH  64  87
ENDBRANCH  38  39
ENDBRANCH  30  33
ENDBRANCH  28  29
ENDBRANCH   1  28
TORSDOF 17
ENDMDL
