MODEL 1
REMARK VINA RESULT:     -13.7      0.000      0.000
REMARK SMILES O=C(NCCCCNC(=O)[C@@H]1[C@H](C(=O)Nc2ccc(Cn3cncn3)cc2)[C@@H]2C=C[C@H]1CC2)c1ccc(-c2c3nc(c(-c4cc(S(=O)(=O)[O-])ccc4F)c4ccc([nH]4)c(-c4cc(S(=O)(=O)[O-])ccc4F)c4nc(c(-c5cc(S(=O)(=O)[O-])ccc5F)c5ccc2[nH]5)C=C4)C=C3)cc1
REMARK SMILES IDX 6 1 5 2 4 3 3 4 1 5 2 6 34 8 35 9 96 10 36 11 95 12 37 13
REMARK SMILES IDX 38 14 39 15 89 16 40 17 94 18 88 19 90 20 41 21 93 22 87 23
REMARK SMILES IDX 86 24 42 26 74 27 54 28 73 29 55 30 58 31 72 32 91 33 56 34
REMARK SMILES IDX 57 35 71 37 92 38 59 39 43 40 44 41 52 42 45 43 51 44 53 45
REMARK SMILES IDX 50 46 46 47 47 48 48 49 49 50 75 51 76 52 84 53 77 54 83 55
REMARK SMILES IDX 85 56 82 57 78 58 79 59 80 60 81 61 60 62 61 63 69 64 62 65
REMARK SMILES IDX 68 66 70 67 67 68 63 69 64 70 65 71 66 72 7 73 8 74 9 75
REMARK SMILES IDX 10 77 11 78 12 79 31 80 28 81 30 82 32 83 29 84 33 85 13 86
REMARK SMILES IDX 14 87 15 88 16 90 17 91 27 92 18 93 26 94 19 95 20 96 21 97
REMARK SMILES IDX 22 98 25 99 23 100 24 101
REMARK H PARENT 3 7 90 25 58 36 8 76 15 89
REMARK Flexibility Score: inf
ROOT
ATOM      1  C   UNL A   1      31.938  27.825  27.433  1.00  0.00     0.023 C 
ENDROOT
BRANCH   1   2
ATOM      2  C   UNL A   1      31.963  29.288  26.955  1.00  0.00     0.023 C 
BRANCH   2   3
ATOM      3  C   UNL A   1      33.320  29.919  26.666  1.00  0.00     0.116 C 
BRANCH   3   4
ATOM      4  N   UNL A   1      33.601  31.156  27.359  1.00  0.00    -0.352 N 
ATOM      5  O   UNL A   1      34.598  32.875  28.313  1.00  0.00    -0.269 OA
ATOM      6  C   UNL A   1      34.702  31.695  27.962  1.00  0.00     0.251 C 
ATOM      7  H   UNL A   1      32.816  31.749  27.408  1.00  0.00     0.163 HD
BRANCH   6   8
ATOM      8  C   UNL A   1      35.952  30.959  28.282  1.00  0.00     0.039 A 
ATOM      9  C   UNL A   1      36.153  29.583  28.150  1.00  0.00     0.014 A 
ATOM     10  C   UNL A   1      37.017  31.756  28.742  1.00  0.00     0.014 A 
ATOM     11  C   UNL A   1      37.365  29.011  28.543  1.00  0.00     0.010 A 
ATOM     12  C   UNL A   1      38.226  31.191  29.129  1.00  0.00     0.010 A 
ATOM     13  C   UNL A   1      38.392  29.812  29.056  1.00  0.00    -0.014 A 
BRANCH  13  14
ATOM     14  C   UNL A   1      39.701  29.210  29.323  1.00  0.00     0.031 A 
ATOM     15  C   UNL A   1      40.050  29.116  30.771  1.00  0.00     0.074 A 
ATOM     16  C   UNL A   1      40.462  28.607  28.384  1.00  0.00     0.049 A 
ATOM     17  N   UNL A   1      41.045  29.659  31.391  1.00  0.00    -0.248 NA
ATOM     18  C   UNL A   1      39.105  28.426  31.665  1.00  0.00     0.031 C 
ATOM     19  C   UNL A   1      40.124  28.367  26.980  1.00  0.00     0.029 A 
ATOM     20  N   UNL A   1      41.667  27.976  28.517  1.00  0.00    -0.354 N 
ATOM     21  C   UNL A   1      40.976  29.213  32.710  1.00  0.00     0.074 A 
ATOM     22  C   UNL A   1      39.681  28.605  32.855  1.00  0.00     0.031 C 
ATOM     23  C   UNL A   1      40.982  27.457  26.460  1.00  0.00     0.029 A 
ATOM     24  C   UNL A   1      42.003  27.143  27.449  1.00  0.00     0.049 A 
ATOM     25  H   UNL A   1      42.250  28.100  29.300  1.00  0.00     0.167 HD
ATOM     26  C   UNL A   1      42.074  29.194  33.518  1.00  0.00     0.034 A 
ATOM     27  C   UNL A   1      43.001  26.217  27.398  1.00  0.00     0.034 A 
ATOM     28  C   UNL A   1      43.123  30.033  32.990  1.00  0.00     0.049 A 
ATOM     29  C   UNL A   1      43.990  26.585  28.441  1.00  0.00     0.074 A 
ATOM     30  C   UNL A   1      43.230  31.375  32.685  1.00  0.00     0.029 A 
ATOM     31  N   UNL A   1      44.182  29.426  32.356  1.00  0.00    -0.354 N 
ATOM     32  N   UNL A   1      44.712  27.671  28.391  1.00  0.00    -0.248 NA
ATOM     33  C   UNL A   1      43.837  26.005  29.766  1.00  0.00     0.031 C 
ATOM     34  C   UNL A   1      44.005  31.414  31.489  1.00  0.00     0.029 A 
ATOM     35  C   UNL A   1      44.390  30.108  31.183  1.00  0.00     0.049 A 
ATOM     36  H   UNL A   1      44.693  28.650  32.681  1.00  0.00     0.167 HD
ATOM     37  C   UNL A   1      44.722  28.151  29.690  1.00  0.00     0.074 A 
ATOM     38  C   UNL A   1      44.250  27.034  30.509  1.00  0.00     0.031 C 
ATOM     39  C   UNL A   1      44.840  29.486  29.953  1.00  0.00     0.034 A 
BRANCH  26  40
ATOM     40  C   UNL A   1      42.351  28.163  34.593  1.00  0.00     0.023 A 
ATOM     41  C   UNL A   1      43.107  27.031  34.223  1.00  0.00     0.031 A 
ATOM     42  C   UNL A   1      41.678  28.073  35.831  1.00  0.00     0.131 A 
ATOM     43  C   UNL A   1      43.074  25.856  34.994  1.00  0.00     0.055 A 
ATOM     44  C   UNL A   1      41.709  26.926  36.630  1.00  0.00     0.041 A 
ATOM     45  F   UNL A   1      40.879  29.040  36.293  1.00  0.00    -0.206 F 
ATOM     46  C   UNL A   1      42.378  25.795  36.196  1.00  0.00     0.022 A 
BRANCH  43  47
ATOM     47  S   UNL A   1      43.796  24.348  34.291  1.00  0.00     0.124 S 
ATOM     48  O   UNL A   1      45.005  24.201  35.094  1.00  0.00    -0.237 OA
ATOM     49  O   UNL A   1      42.740  23.370  34.530  1.00  0.00    -0.237 OA
ATOM     50  O   UNL A   1      44.015  24.699  32.890  1.00  0.00    -0.744 OA
ENDBRANCH  43  47
ENDBRANCH  26  40
BRANCH  27  51
ATOM     51  C   UNL A   1      42.967  24.873  26.743  1.00  0.00     0.023 A 
ATOM     52  C   UNL A   1      43.886  24.464  25.749  1.00  0.00     0.031 A 
ATOM     53  C   UNL A   1      42.144  23.861  27.289  1.00  0.00     0.131 A 
ATOM     54  C   UNL A   1      43.945  23.106  25.342  1.00  0.00     0.055 A 
ATOM     55  C   UNL A   1      42.204  22.527  26.883  1.00  0.00     0.041 A 
ATOM     56  F   UNL A   1      41.307  24.121  28.306  1.00  0.00    -0.206 F 
ATOM     57  C   UNL A   1      43.113  22.141  25.912  1.00  0.00     0.022 A 
BRANCH  54  58
ATOM     58  S   UNL A   1      45.179  22.545  24.118  1.00  0.00     0.124 S 
ATOM     59  O   UNL A   1      46.028  23.726  23.967  1.00  0.00    -0.237 OA
ATOM     60  O   UNL A   1      45.777  21.395  24.774  1.00  0.00    -0.237 OA
ATOM     61  O   UNL A   1      44.370  22.224  22.939  1.00  0.00    -0.744 OA
ENDBRANCH  54  58
ENDBRANCH  27  51
BRANCH  39  62
ATOM     62  C   UNL A   1      45.257  30.415  28.832  1.00  0.00     0.023 A 
ATOM     63  C   UNL A   1      46.592  30.775  28.530  1.00  0.00     0.031 A 
ATOM     64  C   UNL A   1      44.250  30.852  27.953  1.00  0.00     0.131 A 
ATOM     65  C   UNL A   1      46.869  31.552  27.388  1.00  0.00     0.055 A 
ATOM     66  C   UNL A   1      44.532  31.599  26.812  1.00  0.00     0.041 A 
ATOM     67  F   UNL A   1      42.966  30.522  28.172  1.00  0.00    -0.206 F 
ATOM     68  C   UNL A   1      45.843  31.957  26.527  1.00  0.00     0.022 A 
BRANCH  65  69
ATOM     69  S   UNL A   1      48.575  32.067  27.003  1.00  0.00     0.124 S 
ATOM     70  O   UNL A   1      49.207  30.836  26.542  1.00  0.00    -0.237 OA
ATOM     71  O   UNL A   1      48.374  33.102  25.994  1.00  0.00    -0.237 OA
ATOM     72  O   UNL A   1      49.076  32.563  28.288  1.00  0.00    -0.744 OA
ENDBRANCH  65  69
ENDBRANCH  39  62
ENDBRANCH  13  14
ENDBRANCH   6   8
ENDBRANCH   3   4
ENDBRANCH   2   3
ENDBRANCH   1   2
BRANCH   1  73
ATOM     73  C   UNL A   1      31.802  26.710  26.382  1.00  0.00     0.116 C 
BRANCH  73  74
ATOM     74  N   UNL A   1      31.692  25.379  26.953  1.00  0.00    -0.356 N 
ATOM     75  C   UNL A   1      31.921  24.252  26.219  1.00  0.00     0.224 C 
ATOM     76  H   UNL A   1      31.445  25.286  27.901  1.00  0.00     0.163 HD
ATOM     77  O   UNL A   1      30.925  23.565  26.019  1.00  0.00    -0.275 OA
BRANCH  75  78
ATOM     78  C   UNL A   1      33.333  23.969  25.691  1.00  0.00     0.098 C 
ATOM     79  C   UNL A   1      33.430  23.700  24.180  1.00  0.00     0.098 C 
ATOM     80  C   UNL A   1      34.268  22.950  26.445  1.00  0.00     0.025 C 
ATOM     81  C   UNL A   1      34.705  22.863  23.872  1.00  0.00     0.025 C 
ATOM     82  C   UNL A   1      34.326  21.556  25.828  1.00  0.00    -0.027 C 
ATOM     83  C   UNL A   1      35.722  23.428  26.163  1.00  0.00     0.009 C 
ATOM     84  C   UNL A   1      34.562  21.509  24.506  1.00  0.00    -0.027 C 
ATOM     85  C   UNL A   1      35.928  23.499  24.614  1.00  0.00     0.009 C 
BRANCH  79  86
ATOM     86  C   UNL A   1      32.169  23.323  23.382  1.00  0.00     0.228 C 
ATOM     87  O   UNL A   1      32.001  22.112  23.155  1.00  0.00    -0.274 OA
ATOM     88  N   UNL A   1      31.132  24.124  23.013  1.00  0.00    -0.326 N 
ATOM     89  H   UNL A   1      30.369  23.605  22.665  1.00  0.00     0.169 HD
BRANCH  88  90
ATOM     90  C   UNL A   1      30.879  25.503  23.003  1.00  0.00     0.041 A 
ATOM     91  C   UNL A   1      29.655  25.926  23.519  1.00  0.00     0.026 A 
ATOM     92  C   UNL A   1      31.731  26.474  22.487  1.00  0.00     0.026 A 
ATOM     93  C   UNL A   1      29.406  27.289  23.727  1.00  0.00     0.008 A 
ATOM     94  C   UNL A   1      31.477  27.835  22.647  1.00  0.00     0.008 A 
ATOM     95  C   UNL A   1      30.354  28.250  23.353  1.00  0.00    -0.026 A 
BRANCH  95  96
ATOM     96  C   UNL A   1      30.199  29.706  23.688  1.00  0.00     0.181 C 
BRANCH  96  97
ATOM     97  N   UNL A   1      29.251  30.346  22.807  1.00  0.00    -0.249 N 
ATOM     98  C   UNL A   1      28.431  31.389  23.099  1.00  0.00     0.220 A 
ATOM     99  N   UNL A   1      29.104  29.953  21.525  1.00  0.00    -0.160 NA
ATOM    100  N   UNL A   1      27.715  31.693  22.041  1.00  0.00    -0.224 NA
ATOM    101  C   UNL A   1      28.137  30.780  21.116  1.00  0.00     0.246 A 
ENDBRANCH  96  97
ENDBRANCH  95  96
ENDBRANCH  88  90
ENDBRANCH  79  86
ENDBRANCH  75  78
ENDBRANCH  73  74
ENDBRANCH   1  73
TORSDOF 18
ENDMDL
MODEL 2
REMARK VINA RESULT:     -13.6      2.290      4.716
REMARK SMILES O=C(NCCCCNC(=O)[C@@H]1[C@H](C(=O)Nc2ccc(Cn3cncn3)cc2)[C@@H]2C=C[C@H]1CC2)c1ccc(-c2c3nc(c(-c4cc(S(=O)(=O)[O-])ccc4F)c4ccc([nH]4)c(-c4cc(S(=O)(=O)[O-])ccc4F)c4nc(c(-c5cc(S(=O)(=O)[O-])ccc5F)c5ccc2[nH]5)C=C4)C=C3)cc1
REMARK SMILES IDX 6 1 5 2 4 3 3 4 1 5 2 6 34 8 35 9 96 10 36 11 95 12 37 13
REMARK SMILES IDX 38 14 39 15 89 16 40 17 94 18 88 19 90 20 41 21 93 22 87 23
REMARK SMILES IDX 86 24 42 26 74 27 54 28 73 29 55 30 58 31 72 32 91 33 56 34
REMARK SMILES IDX 57 35 71 37 92 38 59 39 43 40 44 41 52 42 45 43 51 44 53 45
REMARK SMILES IDX 50 46 46 47 47 48 48 49 49 50 75 51 76 52 84 53 77 54 83 55
REMARK SMILES IDX 85 56 82 57 78 58 79 59 80 60 81 61 60 62 61 63 69 64 62 65
REMARK SMILES IDX 68 66 70 67 67 68 63 69 64 70 65 71 66 72 7 73 8 74 9 75
REMARK SMILES IDX 10 77 11 78 12 79 31 80 28 81 30 82 32 83 29 84 33 85 13 86
REMARK SMILES IDX 14 87 15 88 16 90 17 91 27 92 18 93 26 94 19 95 20 96 21 97
REMARK SMILES IDX 22 98 25 99 23 100 24 101
REMARK H PARENT 3 7 90 25 58 36 8 76 15 89
REMARK Flexibility Score: inf
ROOT
ATOM      1  C   UNL A   1      32.484  28.531  27.590  1.00  0.00     0.023 C 
ENDROOT
BRANCH   1   2
ATOM      2  C   UNL A   1      32.623  30.009  27.183  1.00  0.00     0.023 C 
BRANCH   2   3
ATOM      3  C   UNL A   1      34.030  30.589  27.077  1.00  0.00     0.116 C 
BRANCH   3   4
ATOM      4  N   UNL A   1      34.344  31.653  28.003  1.00  0.00    -0.352 N 
ATOM      5  O   UNL A   1      35.386  33.078  29.323  1.00  0.00    -0.269 OA
ATOM      6  C   UNL A   1      35.428  31.974  28.770  1.00  0.00     0.251 C 
ATOM      7  H   UNL A   1      33.606  32.297  28.104  1.00  0.00     0.163 HD
BRANCH   6   8
ATOM      8  C   UNL A   1      36.586  31.082  29.037  1.00  0.00     0.039 A 
ATOM      9  C   UNL A   1      36.553  29.687  29.091  1.00  0.00     0.014 A 
ATOM     10  C   UNL A   1      37.816  31.737  29.233  1.00  0.00     0.014 A 
ATOM     11  C   UNL A   1      37.709  28.970  29.410  1.00  0.00     0.010 A 
ATOM     12  C   UNL A   1      38.970  31.027  29.545  1.00  0.00     0.010 A 
ATOM     13  C   UNL A   1      38.911  29.642  29.661  1.00  0.00    -0.014 A 
BRANCH  13  14
ATOM     14  C   UNL A   1      40.138  28.864  29.849  1.00  0.00     0.031 A 
ATOM     15  C   UNL A   1      40.516  28.647  31.276  1.00  0.00     0.074 A 
ATOM     16  C   UNL A   1      40.785  28.221  28.853  1.00  0.00     0.049 A 
ATOM     17  N   UNL A   1      41.592  29.024  31.885  1.00  0.00    -0.248 NA
ATOM     18  C   UNL A   1      39.517  28.037  32.170  1.00  0.00     0.031 C 
ATOM     19  C   UNL A   1      40.376  28.102  27.452  1.00  0.00     0.029 A 
ATOM     20  N   UNL A   1      41.902  27.434  28.909  1.00  0.00    -0.354 N 
ATOM     21  C   UNL A   1      41.506  28.520  33.182  1.00  0.00     0.074 A 
ATOM     22  C   UNL A   1      40.148  28.076  33.344  1.00  0.00     0.031 C 
ATOM     23  C   UNL A   1      41.092  27.120  26.856  1.00  0.00     0.029 A 
ATOM     24  C   UNL A   1      42.094  26.625  27.790  1.00  0.00     0.049 A 
ATOM     25  H   UNL A   1      42.520  27.440  29.675  1.00  0.00     0.167 HD
ATOM     26  C   UNL A   1      42.616  28.316  33.946  1.00  0.00     0.034 A 
ATOM     27  C   UNL A   1      42.961  25.582  27.654  1.00  0.00     0.034 A 
ATOM     28  C   UNL A   1      43.749  29.042  33.422  1.00  0.00     0.049 A 
ATOM     29  C   UNL A   1      44.021  25.763  28.676  1.00  0.00     0.074 A 
ATOM     30  C   UNL A   1      44.020  30.374  33.180  1.00  0.00     0.029 A 
ATOM     31  N   UNL A   1      44.700  28.339  32.718  1.00  0.00    -0.354 N 
ATOM     32  N   UNL A   1      44.876  26.749  28.654  1.00  0.00    -0.248 NA
ATOM     33  C   UNL A   1      43.834  25.136  29.976  1.00  0.00     0.031 C 
ATOM     34  C   UNL A   1      44.757  30.378  31.959  1.00  0.00     0.029 A 
ATOM     35  C   UNL A   1      44.959  29.051  31.575  1.00  0.00     0.049 A 
ATOM     36  H   UNL A   1      45.116  27.487  32.985  1.00  0.00     0.167 HD
ATOM     37  C   UNL A   1      44.988  27.152  29.975  1.00  0.00     0.074 A 
ATOM     38  C   UNL A   1      44.401  26.063  30.754  1.00  0.00     0.031 C 
ATOM     39  C   UNL A   1      45.286  28.445  30.299  1.00  0.00     0.034 A 
BRANCH  26  40
ATOM     40  C   UNL A   1      42.791  27.202  34.957  1.00  0.00     0.023 A 
ATOM     41  C   UNL A   1      43.548  26.080  34.559  1.00  0.00     0.031 A 
ATOM     42  C   UNL A   1      42.025  27.037  36.132  1.00  0.00     0.131 A 
ATOM     43  C   UNL A   1      43.433  24.852  35.233  1.00  0.00     0.055 A 
ATOM     44  C   UNL A   1      41.971  25.833  36.841  1.00  0.00     0.041 A 
ATOM     45  F   UNL A   1      41.213  27.988  36.606  1.00  0.00    -0.206 F 
ATOM     46  C   UNL A   1      42.648  24.721  36.373  1.00  0.00     0.022 A 
BRANCH  43  47
ATOM     47  S   UNL A   1      44.174  23.383  34.474  1.00  0.00     0.124 S 
ATOM     48  O   UNL A   1      43.041  22.826  33.744  1.00  0.00    -0.237 OA
ATOM     49  O   UNL A   1      45.238  23.967  33.664  1.00  0.00    -0.237 OA
ATOM     50  O   UNL A   1      44.625  22.600  35.622  1.00  0.00    -0.744 OA
ENDBRANCH  43  47
ENDBRANCH  26  40
BRANCH  27  51
ATOM     51  C   UNL A   1      42.733  24.291  26.935  1.00  0.00     0.023 A 
ATOM     52  C   UNL A   1      43.676  23.707  26.058  1.00  0.00     0.031 A 
ATOM     53  C   UNL A   1      41.640  23.477  27.311  1.00  0.00     0.131 A 
ATOM     54  C   UNL A   1      43.499  22.378  25.596  1.00  0.00     0.055 A 
ATOM     55  C   UNL A   1      41.469  22.170  26.852  1.00  0.00     0.041 A 
ATOM     56  F   UNL A   1      40.740  23.897  28.215  1.00  0.00    -0.206 F 
ATOM     57  C   UNL A   1      42.404  21.611  25.997  1.00  0.00     0.022 A 
BRANCH  54  58
ATOM     58  S   UNL A   1      44.746  21.580  24.527  1.00  0.00     0.124 S 
ATOM     59  O   UNL A   1      44.620  22.337  23.282  1.00  0.00    -0.237 OA
ATOM     60  O   UNL A   1      45.975  21.766  25.279  1.00  0.00    -0.237 OA
ATOM     61  O   UNL A   1      44.286  20.191  24.442  1.00  0.00    -0.744 OA
ENDBRANCH  54  58
ENDBRANCH  27  51
BRANCH  39  62
ATOM     62  C   UNL A   1      45.786  29.372  29.211  1.00  0.00     0.023 A 
ATOM     63  C   UNL A   1      44.967  30.199  28.408  1.00  0.00     0.031 A 
ATOM     64  C   UNL A   1      47.180  29.509  29.076  1.00  0.00     0.131 A 
ATOM     65  C   UNL A   1      45.555  31.110  27.507  1.00  0.00     0.055 A 
ATOM     66  C   UNL A   1      47.756  30.429  28.203  1.00  0.00     0.041 A 
ATOM     67  F   UNL A   1      48.012  28.769  29.829  1.00  0.00    -0.206 F 
ATOM     68  C   UNL A   1      46.945  31.230  27.410  1.00  0.00     0.022 A 
BRANCH  65  69
ATOM     69  S   UNL A   1      44.519  32.154  26.430  1.00  0.00     0.124 S 
ATOM     70  O   UNL A   1      45.431  32.558  25.366  1.00  0.00    -0.237 OA
ATOM     71  O   UNL A   1      43.447  31.243  26.043  1.00  0.00    -0.237 OA
ATOM     72  O   UNL A   1      44.099  33.242  27.316  1.00  0.00    -0.744 OA
ENDBRANCH  65  69
ENDBRANCH  39  62
ENDBRANCH  13  14
ENDBRANCH   6   8
ENDBRANCH   3   4
ENDBRANCH   2   3
ENDBRANCH   1   2
BRANCH   1  73
ATOM     73  C   UNL A   1      31.259  27.744  27.097  1.00  0.00     0.116 C 
BRANCH  73  74
ATOM     74  N   UNL A   1      31.498  26.319  26.952  1.00  0.00    -0.356 N 
ATOM     75  C   UNL A   1      30.950  25.589  25.938  1.00  0.00     0.224 C 
ATOM     76  H   UNL A   1      32.074  25.864  27.607  1.00  0.00     0.163 HD
ATOM     77  O   UNL A   1      30.108  24.773  26.297  1.00  0.00    -0.275 OA
BRANCH  75  78
ATOM     78  C   UNL A   1      31.382  25.865  24.492  1.00  0.00     0.098 C 
ATOM     79  C   UNL A   1      32.752  25.292  24.092  1.00  0.00     0.098 C 
ATOM     80  C   UNL A   1      31.248  27.315  23.891  1.00  0.00     0.025 C 
ATOM     81  C   UNL A   1      33.338  26.103  22.900  1.00  0.00     0.025 C 
ATOM     82  C   UNL A   1      32.540  28.126  23.877  1.00  0.00    -0.027 C 
ATOM     83  C   UNL A   1      31.038  27.117  22.362  1.00  0.00     0.009 C 
ATOM     84  C   UNL A   1      33.613  27.507  23.357  1.00  0.00    -0.027 C 
ATOM     85  C   UNL A   1      32.233  26.274  21.804  1.00  0.00     0.009 C 
BRANCH  79  86
ATOM     86  C   UNL A   1      33.758  24.872  25.179  1.00  0.00     0.228 C 
ATOM     87  O   UNL A   1      34.311  25.794  25.805  1.00  0.00    -0.274 OA
ATOM     88  N   UNL A   1      34.020  23.623  25.651  1.00  0.00    -0.326 N 
ATOM     89  H   UNL A   1      34.575  23.642  26.464  1.00  0.00     0.169 HD
BRANCH  88  90
ATOM     90  C   UNL A   1      33.698  22.314  25.265  1.00  0.00     0.041 A 
ATOM     91  C   UNL A   1      32.345  22.016  25.102  1.00  0.00     0.026 A 
ATOM     92  C   UNL A   1      34.612  21.284  25.071  1.00  0.00     0.026 A 
ATOM     93  C   UNL A   1      31.951  20.799  24.531  1.00  0.00     0.008 A 
ATOM     94  C   UNL A   1      34.230  20.051  24.544  1.00  0.00     0.008 A 
ATOM     95  C   UNL A   1      32.906  19.833  24.184  1.00  0.00    -0.026 A 
BRANCH  95  96
ATOM     96  C   UNL A   1      32.547  18.581  23.437  1.00  0.00     0.181 C 
BRANCH  96  97
ATOM     97  N   UNL A   1      32.811  17.406  24.234  1.00  0.00    -0.249 N 
ATOM     98  C   UNL A   1      33.710  16.420  23.972  1.00  0.00     0.220 A 
ATOM     99  N   UNL A   1      32.163  17.180  25.394  1.00  0.00    -0.160 NA
ATOM    100  N   UNL A   1      33.663  15.521  24.927  1.00  0.00    -0.224 NA
ATOM    101  C   UNL A   1      32.693  16.007  25.756  1.00  0.00     0.246 A 
ENDBRANCH  96  97
ENDBRANCH  95  96
ENDBRANCH  88  90
ENDBRANCH  79  86
ENDBRANCH  75  78
ENDBRANCH  73  74
ENDBRANCH   1  73
TORSDOF 18
ENDMDL
MODEL 3
REMARK VINA RESULT:     -13.3      1.734      2.082
REMARK SMILES O=C(NCCCCNC(=O)[C@@H]1[C@H](C(=O)Nc2ccc(Cn3cncn3)cc2)[C@@H]2C=C[C@H]1CC2)c1ccc(-c2c3nc(c(-c4cc(S(=O)(=O)[O-])ccc4F)c4ccc([nH]4)c(-c4cc(S(=O)(=O)[O-])ccc4F)c4nc(c(-c5cc(S(=O)(=O)[O-])ccc5F)c5ccc2[nH]5)C=C4)C=C3)cc1
REMARK SMILES IDX 6 1 5 2 4 3 3 4 1 5 2 6 34 8 35 9 96 10 36 11 95 12 37 13
REMARK SMILES IDX 38 14 39 15 89 16 40 17 94 18 88 19 90 20 41 21 93 22 87 23
REMARK SMILES IDX 86 24 42 26 74 27 54 28 73 29 55 30 58 31 72 32 91 33 56 34
REMARK SMILES IDX 57 35 71 37 92 38 59 39 43 40 44 41 52 42 45 43 51 44 53 45
REMARK SMILES IDX 50 46 46 47 47 48 48 49 49 50 75 51 76 52 84 53 77 54 83 55
REMARK SMILES IDX 85 56 82 57 78 58 79 59 80 60 81 61 60 62 61 63 69 64 62 65
REMARK SMILES IDX 68 66 70 67 67 68 63 69 64 70 65 71 66 72 7 73 8 74 9 75
REMARK SMILES IDX 10 77 11 78 12 79 31 80 28 81 30 82 32 83 29 84 33 85 13 86
REMARK SMILES IDX 14 87 15 88 16 90 17 91 27 92 18 93 26 94 19 95 20 96 21 97
REMARK SMILES IDX 22 98 25 99 23 100 24 101
REMARK H PARENT 3 7 90 25 58 36 8 76 15 89
REMARK Flexibility Score: inf
ROOT
ATOM      1  C   UNL A   1      32.005  28.580  25.955  1.00  0.00     0.023 C 
ENDROOT
BRANCH   1   2
ATOM      2  C   UNL A   1      33.006  29.743  26.074  1.00  0.00     0.023 C 
BRANCH   2   3
ATOM      3  C   UNL A   1      33.608  30.026  27.446  1.00  0.00     0.116 C 
BRANCH   3   4
ATOM      4  N   UNL A   1      34.169  31.345  27.629  1.00  0.00    -0.352 N 
ATOM      5  O   UNL A   1      35.535  33.068  27.772  1.00  0.00    -0.269 OA
ATOM      6  C   UNL A   1      35.428  31.839  27.823  1.00  0.00     0.251 C 
ATOM      7  H   UNL A   1      33.485  32.053  27.609  1.00  0.00     0.163 HD
BRANCH   6   8
ATOM      8  C   UNL A   1      36.627  31.027  28.154  1.00  0.00     0.039 A 
ATOM      9  C   UNL A   1      36.831  29.687  27.819  1.00  0.00     0.014 A 
ATOM     10  C   UNL A   1      37.638  31.709  28.857  1.00  0.00     0.014 A 
ATOM     11  C   UNL A   1      37.985  29.025  28.245  1.00  0.00     0.010 A 
ATOM     12  C   UNL A   1      38.790  31.055  29.278  1.00  0.00     0.010 A 
ATOM     13  C   UNL A   1      38.952  29.702  28.996  1.00  0.00    -0.014 A 
BRANCH  13  14
ATOM     14  C   UNL A   1      40.217  29.030  29.305  1.00  0.00     0.031 A 
ATOM     15  C   UNL A   1      40.501  28.895  30.763  1.00  0.00     0.074 A 
ATOM     16  C   UNL A   1      40.984  28.403  28.386  1.00  0.00     0.049 A 
ATOM     17  N   UNL A   1      41.496  29.376  31.432  1.00  0.00    -0.248 NA
ATOM     18  C   UNL A   1      39.486  28.242  31.607  1.00  0.00     0.031 C 
ATOM     19  C   UNL A   1      40.692  28.202  26.966  1.00  0.00     0.029 A 
ATOM     20  N   UNL A   1      42.149  27.709  28.556  1.00  0.00    -0.354 N 
ATOM     21  C   UNL A   1      41.350  28.914  32.740  1.00  0.00     0.074 A 
ATOM     22  C   UNL A   1      40.021  28.372  32.822  1.00  0.00     0.031 C 
ATOM     23  C   UNL A   1      41.523  27.258  26.465  1.00  0.00     0.029 A 
ATOM     24  C   UNL A   1      42.485  26.877  27.489  1.00  0.00     0.049 A 
ATOM     25  H   UNL A   1      42.705  27.790  29.365  1.00  0.00     0.167 HD
ATOM     26  C   UNL A   1      42.412  28.826  33.591  1.00  0.00     0.034 A 
ATOM     27  C   UNL A   1      43.436  25.901  27.461  1.00  0.00     0.034 A 
ATOM     28  C   UNL A   1      43.523  29.618  33.120  1.00  0.00     0.049 A 
ATOM     29  C   UNL A   1      44.399  26.201  28.549  1.00  0.00     0.074 A 
ATOM     30  C   UNL A   1      43.711  30.958  32.843  1.00  0.00     0.029 A 
ATOM     31  N   UNL A   1      44.575  28.967  32.518  1.00  0.00    -0.354 N 
ATOM     32  N   UNL A   1      45.176  27.249  28.548  1.00  0.00    -0.248 NA
ATOM     33  C   UNL A   1      44.162  25.609  29.856  1.00  0.00     0.031 C 
ATOM     34  C   UNL A   1      44.535  30.975  31.680  1.00  0.00     0.029 A 
ATOM     35  C   UNL A   1      44.865  29.655  31.367  1.00  0.00     0.049 A 
ATOM     36  H   UNL A   1      45.032  28.160  32.850  1.00  0.00     0.167 HD
ATOM     37  C   UNL A   1      45.158  27.707  29.855  1.00  0.00     0.074 A 
ATOM     38  C   UNL A   1      44.597  26.604  30.634  1.00  0.00     0.031 C 
ATOM     39  C   UNL A   1      45.333  29.031  30.145  1.00  0.00     0.034 A 
BRANCH  26  40
ATOM     40  C   UNL A   1      42.592  27.766  34.657  1.00  0.00     0.023 A 
ATOM     41  C   UNL A   1      43.388  26.648  34.330  1.00  0.00     0.031 A 
ATOM     42  C   UNL A   1      41.804  27.636  35.822  1.00  0.00     0.131 A 
ATOM     43  C   UNL A   1      43.290  25.451  35.060  1.00  0.00     0.055 A 
ATOM     44  C   UNL A   1      41.766  26.466  36.587  1.00  0.00     0.041 A 
ATOM     45  F   UNL A   1      40.957  28.586  36.233  1.00  0.00    -0.206 F 
ATOM     46  C   UNL A   1      42.482  25.352  36.187  1.00  0.00     0.022 A 
BRANCH  43  47
ATOM     47  S   UNL A   1      44.087  23.968  34.388  1.00  0.00     0.124 S 
ATOM     48  O   UNL A   1      42.941  23.227  33.873  1.00  0.00    -0.237 OA
ATOM     49  O   UNL A   1      44.988  24.536  33.392  1.00  0.00    -0.237 OA
ATOM     50  O   UNL A   1      44.741  23.377  35.554  1.00  0.00    -0.744 OA
ENDBRANCH  43  47
ENDBRANCH  26  40
BRANCH  27  51
ATOM     51  C   UNL A   1      43.361  24.571  26.782  1.00  0.00     0.023 A 
ATOM     52  C   UNL A   1      42.515  23.520  27.210  1.00  0.00     0.031 A 
ATOM     53  C   UNL A   1      43.969  24.409  25.516  1.00  0.00     0.131 A 
ATOM     54  C   UNL A   1      42.318  22.380  26.391  1.00  0.00     0.055 A 
ATOM     55  C   UNL A   1      43.772  23.283  24.714  1.00  0.00     0.041 A 
ATOM     56  F   UNL A   1      44.710  25.387  24.971  1.00  0.00    -0.206 F 
ATOM     57  C   UNL A   1      42.938  22.265  25.145  1.00  0.00     0.022 A 
BRANCH  54  58
ATOM     58  S   UNL A   1      41.169  21.051  26.890  1.00  0.00     0.124 S 
ATOM     59  O   UNL A   1      42.007  19.857  26.782  1.00  0.00    -0.237 OA
ATOM     60  O   UNL A   1      40.782  21.453  28.232  1.00  0.00    -0.237 OA
ATOM     61  O   UNL A   1      40.097  21.133  25.894  1.00  0.00    -0.744 OA
ENDBRANCH  54  58
ENDBRANCH  27  51
BRANCH  39  62
ATOM     62  C   UNL A   1      45.843  29.954  29.058  1.00  0.00     0.023 A 
ATOM     63  C   UNL A   1      45.037  30.825  28.288  1.00  0.00     0.031 A 
ATOM     64  C   UNL A   1      47.237  30.037  28.892  1.00  0.00     0.131 A 
ATOM     65  C   UNL A   1      45.639  31.726  27.386  1.00  0.00     0.055 A 
ATOM     66  C   UNL A   1      47.828  30.947  28.018  1.00  0.00     0.041 A 
ATOM     67  F   UNL A   1      48.057  29.255  29.613  1.00  0.00    -0.206 F 
ATOM     68  C   UNL A   1      47.030  31.792  27.256  1.00  0.00     0.022 A 
BRANCH  65  69
ATOM     69  S   UNL A   1      44.620  32.825  26.349  1.00  0.00     0.124 S 
ATOM     70  O   UNL A   1      43.744  31.905  25.635  1.00  0.00    -0.237 OA
ATOM     71  O   UNL A   1      43.977  33.685  27.337  1.00  0.00    -0.237 OA
ATOM     72  O   UNL A   1      45.606  33.504  25.506  1.00  0.00    -0.744 OA
ENDBRANCH  65  69
ENDBRANCH  39  62
ENDBRANCH  13  14
ENDBRANCH   6   8
ENDBRANCH   3   4
ENDBRANCH   2   3
ENDBRANCH   1   2
BRANCH   1  73
ATOM     73  C   UNL A   1      32.543  27.176  25.632  1.00  0.00     0.116 C 
BRANCH  73  74
ATOM     74  N   UNL A   1      32.597  26.291  26.782  1.00  0.00    -0.356 N 
ATOM     75  C   UNL A   1      32.467  24.938  26.666  1.00  0.00     0.224 C 
ATOM     76  H   UNL A   1      32.732  26.681  27.676  1.00  0.00     0.163 HD
ATOM     77  O   UNL A   1      31.438  24.483  27.155  1.00  0.00    -0.275 OA
BRANCH  75  78
ATOM     78  C   UNL A   1      33.548  24.137  25.930  1.00  0.00     0.098 C 
ATOM     79  C   UNL A   1      33.057  23.322  24.722  1.00  0.00     0.098 C 
ATOM     80  C   UNL A   1      34.574  23.261  26.745  1.00  0.00     0.025 C 
ATOM     81  C   UNL A   1      34.029  22.138  24.451  1.00  0.00     0.025 C 
ATOM     82  C   UNL A   1      34.247  21.773  26.796  1.00  0.00    -0.027 C 
ATOM     83  C   UNL A   1      35.868  23.222  25.882  1.00  0.00     0.009 C 
ATOM     84  C   UNL A   1      33.978  21.191  25.615  1.00  0.00    -0.027 C 
ATOM     85  C   UNL A   1      35.502  22.670  24.464  1.00  0.00     0.009 C 
BRANCH  79  86
ATOM     86  C   UNL A   1      31.558  23.011  24.561  1.00  0.00     0.228 C 
ATOM     87  O   UNL A   1      31.170  21.915  25.003  1.00  0.00    -0.274 OA
ATOM     88  N   UNL A   1      30.565  23.837  24.128  1.00  0.00    -0.326 N 
ATOM     89  H   UNL A   1      29.671  23.454  24.285  1.00  0.00     0.169 HD
BRANCH  88  90
ATOM     90  C   UNL A   1      30.499  25.095  23.514  1.00  0.00     0.041 A 
ATOM     91  C   UNL A   1      29.513  25.970  23.967  1.00  0.00     0.026 A 
ATOM     92  C   UNL A   1      31.310  25.524  22.469  1.00  0.00     0.026 A 
ATOM     93  C   UNL A   1      29.505  27.307  23.549  1.00  0.00     0.008 A 
ATOM     94  C   UNL A   1      31.285  26.840  22.010  1.00  0.00     0.008 A 
ATOM     95  C   UNL A   1      30.442  27.766  22.614  1.00  0.00    -0.026 A 
BRANCH  95  96
ATOM     96  C   UNL A   1      30.567  29.217  22.247  1.00  0.00     0.181 C 
BRANCH  96  97
ATOM     97  N   UNL A   1      29.364  29.944  22.576  1.00  0.00    -0.249 N 
ATOM     98  C   UNL A   1      28.204  29.977  21.868  1.00  0.00     0.220 A 
ATOM     99  N   UNL A   1      29.271  30.684  23.699  1.00  0.00    -0.160 NA
ATOM    100  N   UNL A   1      27.337  30.745  22.485  1.00  0.00    -0.224 NA
ATOM    101  C   UNL A   1      28.034  31.175  23.578  1.00  0.00     0.246 A 
ENDBRANCH  96  97
ENDBRANCH  95  96
ENDBRANCH  88  90
ENDBRANCH  79  86
ENDBRANCH  75  78
ENDBRANCH  73  74
ENDBRANCH   1  73
TORSDOF 18
ENDMDL
