MODEL 1
REMARK VINA RESULT:     -12.5      0.000      0.000
REMARK SMILES Cc1cc(N2N=C(C(=O)NCCCCNC(=O)c3ccc(-c4c5nc(c(-c6cc(S(=O)(=O)[O-])ccc6F)c6ccc([nH]6)c(-c6cc(S(=O)(=O)[O-])ccc6F)c6nc(c(-c7cc(S(=O)(=O)[O-])ccc7F)c7ccc4[nH]7)C=C6)C=C5)cc3)C[C@H]2c2ccccc2)c([N+](=O)[O-])cc1C
REMARK SMILES IDX 13 1 12 2 11 3 10 4 8 5 9 6 7 8 5 9 6 10 82 11 81 12 4 13
REMARK SMILES IDX 1 14 2 15 3 16 94 17 93 18 95 19 89 20 90 21 91 22 92 23
REMARK SMILES IDX 83 24 84 25 88 26 85 27 87 28 86 29 14 30 15 31 16 32 17 34
REMARK SMILES IDX 18 35 19 36 80 37 20 38 79 39 21 40 22 41 23 42 73 43 24 44
REMARK SMILES IDX 78 45 72 46 74 47 25 48 77 49 71 50 70 51 26 53 58 54 38 55
REMARK SMILES IDX 57 56 39 57 42 58 56 59 75 60 40 61 41 62 55 64 76 65 43 66
REMARK SMILES IDX 27 67 28 68 36 69 29 70 35 71 37 72 34 73 30 74 31 75 32 76
REMARK SMILES IDX 33 77 59 78 60 79 68 80 61 81 67 82 69 83 66 84 62 85 63 86
REMARK SMILES IDX 64 87 65 88 44 89 45 90 53 91 46 92 52 93 54 94 51 95 47 96
REMARK SMILES IDX 48 97 49 98 50 99
REMARK H PARENT 10 7 15 33 74 52 42 63
REMARK Flexibility Score: inf
ROOT
ATOM      1  C   UNL A   1      36.624  22.621  24.056  1.00  0.00     0.023 C 
ENDROOT
BRANCH   1   2
ATOM      2  C   UNL A   1      35.103  22.573  23.923  1.00  0.00     0.023 C 
BRANCH   2   3
ATOM      3  C   UNL A   1      34.353  23.335  25.009  1.00  0.00     0.116 C 
BRANCH   3   4
ATOM      4  N   UNL A   1      32.985  22.878  25.138  1.00  0.00    -0.351 N 
ATOM      5  C   UNL A   1      31.777  23.499  25.327  1.00  0.00     0.267 C 
ATOM      6  O   UNL A   1      30.781  22.783  25.421  1.00  0.00    -0.268 OA
ATOM      7  H   UNL A   1      32.904  21.899  25.075  1.00  0.00     0.163 HD
BRANCH   5   8
ATOM      8  C   UNL A   1      31.581  25.008  25.389  1.00  0.00     0.128 C 
ATOM      9  N   UNL A   1      31.365  27.010  24.657  1.00  0.00    -0.250 N 
ATOM     10  N   UNL A   1      31.480  25.705  24.294  1.00  0.00    -0.171 NA
ATOM     11  C   UNL A   1      31.316  27.210  26.110  1.00  0.00     0.144 C 
ATOM     12  C   UNL A   1      31.422  25.784  26.654  1.00  0.00     0.096 C 
BRANCH   9  13
ATOM     13  C   UNL A   1      30.685  27.899  23.824  1.00  0.00     0.138 A 
ATOM     14  C   UNL A   1      26.990  28.615  23.192  1.00  0.00     0.045 C 
ATOM     15  C   UNL A   1      28.485  28.715  23.055  1.00  0.00    -0.046 A 
ATOM     16  C   UNL A   1      29.284  27.933  23.909  1.00  0.00     0.039 A 
ATOM     17  C   UNL A   1      29.105  29.545  22.107  1.00  0.00    -0.041 A 
ATOM     18  C   UNL A   1      30.507  29.562  22.035  1.00  0.00     0.091 A 
ATOM     19  C   UNL A   1      28.337  30.431  21.165  1.00  0.00     0.045 C 
ATOM     20  C   UNL A   1      31.278  28.740  22.877  1.00  0.00     0.294 A 
BRANCH  20  21
ATOM     21  N   UNL A   1      32.715  28.726  22.651  1.00  0.00     0.065 N 
ATOM     22  O   UNL A   1      33.152  27.895  21.840  1.00  0.00    -0.258 OA
ATOM     23  O   UNL A   1      33.421  29.447  23.378  1.00  0.00    -0.258 OA
ENDBRANCH  20  21
ENDBRANCH   9  13
BRANCH  11  24
ATOM     24  C   UNL A   1      32.408  28.171  26.570  1.00  0.00    -0.023 A 
ATOM     25  C   UNL A   1      33.774  27.846  26.572  1.00  0.00     0.006 A 
ATOM     26  C   UNL A   1      32.042  29.470  26.971  1.00  0.00     0.006 A 
ATOM     27  C   UNL A   1      34.732  28.767  27.006  1.00  0.00     0.000 A 
ATOM     28  C   UNL A   1      33.002  30.403  27.364  1.00  0.00     0.000 A 
ATOM     29  C   UNL A   1      34.347  30.046  27.396  1.00  0.00     0.000 A 
ENDBRANCH  11  24
ENDBRANCH   5   8
ENDBRANCH   3   4
ENDBRANCH   2   3
ENDBRANCH   1   2
BRANCH   1  30
ATOM     30  C   UNL A   1      37.147  23.052  25.424  1.00  0.00     0.116 C 
BRANCH  30  31
ATOM     31  N   UNL A   1      38.220  22.206  25.930  1.00  0.00    -0.352 N 
ATOM     32  C   UNL A   1      39.359  22.578  26.604  1.00  0.00     0.251 C 
ATOM     33  H   UNL A   1      38.115  21.241  25.767  1.00  0.00     0.163 HD
ATOM     34  O   UNL A   1      40.214  21.740  26.874  1.00  0.00    -0.269 OA
BRANCH  32  35
ATOM     35  C   UNL A   1      39.553  23.999  26.955  1.00  0.00     0.039 A 
ATOM     36  C   UNL A   1      39.267  24.419  28.255  1.00  0.00     0.014 A 
ATOM     37  C   UNL A   1      40.081  24.892  26.019  1.00  0.00     0.014 A 
ATOM     38  C   UNL A   1      39.587  25.721  28.641  1.00  0.00     0.010 A 
ATOM     39  C   UNL A   1      40.468  26.163  26.428  1.00  0.00     0.010 A 
ATOM     40  C   UNL A   1      40.230  26.589  27.743  1.00  0.00    -0.014 A 
BRANCH  40  41
ATOM     41  C   UNL A   1      40.669  27.945  28.161  1.00  0.00     0.031 A 
ATOM     42  C   UNL A   1      42.135  28.264  28.253  1.00  0.00     0.074 A 
ATOM     43  C   UNL A   1      39.750  28.853  28.545  1.00  0.00     0.049 A 
ATOM     44  N   UNL A   1      42.721  29.350  28.687  1.00  0.00    -0.248 NA
ATOM     45  C   UNL A   1      43.062  27.201  27.840  1.00  0.00     0.031 C 
ATOM     46  C   UNL A   1      38.301  28.636  28.563  1.00  0.00     0.029 A 
ATOM     47  N   UNL A   1      39.897  30.135  29.012  1.00  0.00    -0.354 N 
ATOM     48  C   UNL A   1      44.087  29.093  28.620  1.00  0.00     0.074 A 
ATOM     49  C   UNL A   1      44.233  27.725  28.166  1.00  0.00     0.031 C 
ATOM     50  C   UNL A   1      37.695  29.747  29.009  1.00  0.00     0.029 A 
ATOM     51  C   UNL A   1      38.708  30.743  29.344  1.00  0.00     0.049 A 
ATOM     52  H   UNL A   1      40.772  30.578  29.103  1.00  0.00     0.167 HD
ATOM     53  C   UNL A   1      45.122  29.928  28.890  1.00  0.00     0.034 A 
ATOM     54  C   UNL A   1      38.463  31.957  29.874  1.00  0.00     0.034 A 
ATOM     55  C   UNL A   1      44.952  31.293  29.326  1.00  0.00     0.049 A 
ATOM     56  C   UNL A   1      39.623  32.876  30.153  1.00  0.00     0.074 A 
ATOM     57  C   UNL A   1      45.922  32.255  29.549  1.00  0.00     0.029 A 
ATOM     58  N   UNL A   1      43.730  31.889  29.616  1.00  0.00    -0.354 N 
ATOM     59  N   UNL A   1      40.909  32.648  30.010  1.00  0.00    -0.248 NA
ATOM     60  C   UNL A   1      39.299  34.220  30.647  1.00  0.00     0.031 C 
ATOM     61  C   UNL A   1      45.294  33.407  30.036  1.00  0.00     0.029 A 
ATOM     62  C   UNL A   1      43.925  33.194  30.047  1.00  0.00     0.049 A 
ATOM     63  H   UNL A   1      42.854  31.450  29.528  1.00  0.00     0.167 HD
ATOM     64  C   UNL A   1      41.545  33.830  30.378  1.00  0.00     0.074 A 
ATOM     65  C   UNL A   1      40.501  34.771  30.731  1.00  0.00     0.031 C 
ATOM     66  C   UNL A   1      42.873  34.114  30.415  1.00  0.00     0.034 A 
BRANCH  53  67
ATOM     67  C   UNL A   1      46.518  29.368  28.743  1.00  0.00     0.023 A 
ATOM     68  C   UNL A   1      47.098  29.150  27.481  1.00  0.00     0.031 A 
ATOM     69  C   UNL A   1      47.259  28.994  29.878  1.00  0.00     0.131 A 
ATOM     70  C   UNL A   1      48.330  28.488  27.379  1.00  0.00     0.055 A 
ATOM     71  C   UNL A   1      48.527  28.418  29.772  1.00  0.00     0.041 A 
ATOM     72  F   UNL A   1      46.754  29.158  31.110  1.00  0.00    -0.206 F 
ATOM     73  C   UNL A   1      49.062  28.143  28.516  1.00  0.00     0.022 A 
BRANCH  70  74
ATOM     74  S   UNL A   1      48.876  27.929  25.741  1.00  0.00     0.124 S 
ATOM     75  O   UNL A   1      48.938  26.481  25.930  1.00  0.00    -0.237 OA
ATOM     76  O   UNL A   1      47.812  28.415  24.871  1.00  0.00    -0.237 OA
ATOM     77  O   UNL A   1      50.172  28.582  25.570  1.00  0.00    -0.744 OA
ENDBRANCH  70  74
ENDBRANCH  53  67
BRANCH  54  78
ATOM     78  C   UNL A   1      37.065  32.368  30.187  1.00  0.00     0.023 A 
ATOM     79  C   UNL A   1      36.282  33.057  29.249  1.00  0.00     0.031 A 
ATOM     80  C   UNL A   1      36.498  32.085  31.444  1.00  0.00     0.131 A 
ATOM     81  C   UNL A   1      34.986  33.474  29.593  1.00  0.00     0.055 A 
ATOM     82  C   UNL A   1      35.193  32.463  31.765  1.00  0.00     0.041 A 
ATOM     83  F   UNL A   1      37.203  31.418  32.371  1.00  0.00    -0.206 F 
ATOM     84  C   UNL A   1      34.433  33.170  30.839  1.00  0.00     0.022 A 
BRANCH  81  85
ATOM     85  S   UNL A   1      34.049  34.471  28.402  1.00  0.00     0.124 S 
ATOM     86  O   UNL A   1      33.937  35.745  29.103  1.00  0.00    -0.237 OA
ATOM     87  O   UNL A   1      34.926  34.454  27.237  1.00  0.00    -0.237 OA
ATOM     88  O   UNL A   1      32.799  33.730  28.248  1.00  0.00    -0.744 OA
ENDBRANCH  81  85
ENDBRANCH  54  78
BRANCH  66  89
ATOM     89  C   UNL A   1      43.261  35.514  30.820  1.00  0.00     0.023 A 
ATOM     90  C   UNL A   1      43.431  36.539  29.873  1.00  0.00     0.031 A 
ATOM     91  C   UNL A   1      43.473  35.824  32.175  1.00  0.00     0.131 A 
ATOM     92  C   UNL A   1      43.851  37.812  30.288  1.00  0.00     0.055 A 
ATOM     93  C   UNL A   1      43.835  37.107  32.588  1.00  0.00     0.041 A 
ATOM     94  F   UNL A   1      43.328  34.882  33.122  1.00  0.00    -0.206 F 
ATOM     95  C   UNL A   1      44.039  38.105  31.641  1.00  0.00     0.022 A 
BRANCH  92  96
ATOM     96  S   UNL A   1      44.236  39.058  29.027  1.00  0.00     0.124 S 
ATOM     97  O   UNL A   1      45.675  39.232  29.203  1.00  0.00    -0.237 OA
ATOM     98  O   UNL A   1      43.819  38.395  27.796  1.00  0.00    -0.237 OA
ATOM     99  O   UNL A   1      43.421  40.205  29.419  1.00  0.00    -0.744 OA
ENDBRANCH  92  96
ENDBRANCH  66  89
ENDBRANCH  40  41
ENDBRANCH  32  35
ENDBRANCH  30  31
ENDBRANCH   1  30
TORSDOF 17
ENDMDL
MODEL 2
REMARK VINA RESULT:     -12.2      4.257      9.828
REMARK SMILES Cc1cc(N2N=C(C(=O)NCCCCNC(=O)c3ccc(-c4c5nc(c(-c6cc(S(=O)(=O)[O-])ccc6F)c6ccc([nH]6)c(-c6cc(S(=O)(=O)[O-])ccc6F)c6nc(c(-c7cc(S(=O)(=O)[O-])ccc7F)c7ccc4[nH]7)C=C6)C=C5)cc3)C[C@H]2c2ccccc2)c([N+](=O)[O-])cc1C
REMARK SMILES IDX 13 1 12 2 11 3 10 4 8 5 9 6 7 8 5 9 6 10 82 11 81 12 4 13
REMARK SMILES IDX 1 14 2 15 3 16 94 17 93 18 95 19 89 20 90 21 91 22 92 23
REMARK SMILES IDX 83 24 84 25 88 26 85 27 87 28 86 29 14 30 15 31 16 32 17 34
REMARK SMILES IDX 18 35 19 36 80 37 20 38 79 39 21 40 22 41 23 42 73 43 24 44
REMARK SMILES IDX 78 45 72 46 74 47 25 48 77 49 71 50 70 51 26 53 58 54 38 55
REMARK SMILES IDX 57 56 39 57 42 58 56 59 75 60 40 61 41 62 55 64 76 65 43 66
REMARK SMILES IDX 27 67 28 68 36 69 29 70 35 71 37 72 34 73 30 74 31 75 32 76
REMARK SMILES IDX 33 77 59 78 60 79 68 80 61 81 67 82 69 83 66 84 62 85 63 86
REMARK SMILES IDX 64 87 65 88 44 89 45 90 53 91 46 92 52 93 54 94 51 95 47 96
REMARK SMILES IDX 48 97 49 98 50 99
REMARK H PARENT 10 7 15 33 74 52 42 63
REMARK Flexibility Score: inf
ROOT
ATOM      1  C   UNL A   1      32.514  28.391  26.448  1.00  0.00     0.023 C 
ENDROOT
BRANCH   1   2
ATOM      2  C   UNL A   1      32.610  26.899  26.134  1.00  0.00     0.023 C 
BRANCH   2   3
ATOM      3  C   UNL A   1      31.353  26.306  25.509  1.00  0.00     0.116 C 
BRANCH   3   4
ATOM      4  N   UNL A   1      31.416  26.316  24.063  1.00  0.00    -0.351 N 
ATOM      5  C   UNL A   1      32.089  25.576  23.124  1.00  0.00     0.267 C 
ATOM      6  O   UNL A   1      31.927  25.878  21.943  1.00  0.00    -0.268 OA
ATOM      7  H   UNL A   1      30.846  27.011  23.662  1.00  0.00     0.163 HD
BRANCH   5   8
ATOM      8  C   UNL A   1      32.985  24.386  23.442  1.00  0.00     0.128 C 
ATOM      9  N   UNL A   1      33.578  22.537  24.347  1.00  0.00    -0.250 N 
ATOM     10  N   UNL A   1      32.554  23.420  24.202  1.00  0.00    -0.171 NA
ATOM     11  C   UNL A   1      34.771  22.892  23.571  1.00  0.00     0.144 C 
ATOM     12  C   UNL A   1      34.353  24.189  22.877  1.00  0.00     0.096 C 
BRANCH   9  13
ATOM     13  C   UNL A   1      33.295  21.191  24.584  1.00  0.00     0.138 A 
ATOM     14  C   UNL A   1      32.150  18.307  22.362  1.00  0.00     0.045 C 
ATOM     15  C   UNL A   1      32.559  19.046  23.606  1.00  0.00    -0.046 A 
ATOM     16  C   UNL A   1      32.957  20.389  23.482  1.00  0.00     0.039 A 
ATOM     17  C   UNL A   1      32.548  18.451  24.879  1.00  0.00    -0.041 A 
ATOM     18  C   UNL A   1      32.926  19.220  25.991  1.00  0.00     0.091 A 
ATOM     19  C   UNL A   1      32.157  17.017  25.111  1.00  0.00     0.045 C 
ATOM     20  C   UNL A   1      33.283  20.573  25.838  1.00  0.00     0.294 A 
BRANCH  20  21
ATOM     21  N   UNL A   1      33.540  21.329  27.054  1.00  0.00     0.065 N 
ATOM     22  O   UNL A   1      32.573  21.901  27.580  1.00  0.00    -0.258 OA
ATOM     23  O   UNL A   1      34.724  21.465  27.409  1.00  0.00    -0.258 OA
ENDBRANCH  20  21
ENDBRANCH   9  13
BRANCH  11  24
ATOM     24  C   UNL A   1      36.001  22.994  24.468  1.00  0.00    -0.023 A 
ATOM     25  C   UNL A   1      36.211  24.046  25.374  1.00  0.00     0.006 A 
ATOM     26  C   UNL A   1      36.956  21.961  24.428  1.00  0.00     0.006 A 
ATOM     27  C   UNL A   1      37.358  24.090  26.172  1.00  0.00     0.000 A 
ATOM     28  C   UNL A   1      38.080  21.983  25.255  1.00  0.00     0.000 A 
ATOM     29  C   UNL A   1      38.288  23.055  26.117  1.00  0.00     0.000 A 
ENDBRANCH  11  24
ENDBRANCH   5   8
ENDBRANCH   3   4
ENDBRANCH   2   3
ENDBRANCH   1   2
BRANCH   1  30
ATOM     30  C   UNL A   1      33.781  29.198  26.176  1.00  0.00     0.116 C 
BRANCH  30  31
ATOM     31  N   UNL A   1      33.755  30.535  26.754  1.00  0.00    -0.352 N 
ATOM     32  C   UNL A   1      34.633  31.099  27.649  1.00  0.00     0.251 C 
ATOM     33  H   UNL A   1      33.010  31.110  26.466  1.00  0.00     0.163 HD
ATOM     34  O   UNL A   1      34.407  32.212  28.114  1.00  0.00    -0.269 OA
BRANCH  32  35
ATOM     35  C   UNL A   1      35.821  30.329  28.070  1.00  0.00     0.039 A 
ATOM     36  C   UNL A   1      36.972  30.378  27.282  1.00  0.00     0.014 A 
ATOM     37  C   UNL A   1      35.812  29.619  29.274  1.00  0.00     0.014 A 
ATOM     38  C   UNL A   1      38.145  29.780  27.744  1.00  0.00     0.010 A 
ATOM     39  C   UNL A   1      37.000  29.091  29.766  1.00  0.00     0.010 A 
ATOM     40  C   UNL A   1      38.180  29.169  29.009  1.00  0.00    -0.014 A 
BRANCH  40  41
ATOM     41  C   UNL A   1      39.439  28.613  29.564  1.00  0.00     0.031 A 
ATOM     42  C   UNL A   1      40.132  29.311  30.700  1.00  0.00     0.074 A 
ATOM     43  C   UNL A   1      40.004  27.536  28.983  1.00  0.00     0.049 A 
ATOM     44  N   UNL A   1      41.284  29.043  31.259  1.00  0.00    -0.248 NA
ATOM     45  C   UNL A   1      39.455  30.494  31.251  1.00  0.00     0.031 C 
ATOM     46  C   UNL A   1      39.459  26.813  27.830  1.00  0.00     0.029 A 
ATOM     47  N   UNL A   1      41.170  26.871  29.268  1.00  0.00    -0.354 N 
ATOM     48  C   UNL A   1      41.480  30.036  32.213  1.00  0.00     0.074 A 
ATOM     49  C   UNL A   1      40.358  30.945  32.106  1.00  0.00     0.031 C 
ATOM     50  C   UNL A   1      40.285  25.803  27.513  1.00  0.00     0.029 A 
ATOM     51  C   UNL A   1      41.434  25.826  28.413  1.00  0.00     0.049 A 
ATOM     52  H   UNL A   1      41.763  27.119  30.013  1.00  0.00     0.167 HD
ATOM     53  C   UNL A   1      42.490  30.164  33.110  1.00  0.00     0.034 A 
ATOM     54  C   UNL A   1      42.490  24.992  28.349  1.00  0.00     0.034 A 
ATOM     55  C   UNL A   1      43.591  29.236  33.210  1.00  0.00     0.049 A 
ATOM     56  C   UNL A   1      43.595  25.139  29.361  1.00  0.00     0.074 A 
ATOM     57  C   UNL A   1      44.624  29.217  34.130  1.00  0.00     0.029 A 
ATOM     58  N   UNL A   1      43.807  28.165  32.350  1.00  0.00    -0.354 N 
ATOM     59  N   UNL A   1      43.730  26.037  30.311  1.00  0.00    -0.248 NA
ATOM     60  C   UNL A   1      44.681  24.152  29.307  1.00  0.00     0.031 C 
ATOM     61  C   UNL A   1      45.498  28.179  33.788  1.00  0.00     0.029 A 
ATOM     62  C   UNL A   1      44.974  27.500  32.700  1.00  0.00     0.049 A 
ATOM     63  H   UNL A   1      43.218  27.914  31.603  1.00  0.00     0.167 HD
ATOM     64  C   UNL A   1      44.905  25.708  30.979  1.00  0.00     0.074 A 
ATOM     65  C   UNL A   1      45.430  24.521  30.334  1.00  0.00     0.031 C 
ATOM     66  C   UNL A   1      45.495  26.328  32.034  1.00  0.00     0.034 A 
BRANCH  53  67
ATOM     67  C   UNL A   1      42.452  31.365  34.027  1.00  0.00     0.023 A 
ATOM     68  C   UNL A   1      41.669  31.380  35.195  1.00  0.00     0.031 A 
ATOM     69  C   UNL A   1      43.164  32.533  33.701  1.00  0.00     0.131 A 
ATOM     70  C   UNL A   1      41.538  32.561  35.938  1.00  0.00     0.055 A 
ATOM     71  C   UNL A   1      43.101  33.680  34.496  1.00  0.00     0.041 A 
ATOM     72  F   UNL A   1      43.914  32.591  32.590  1.00  0.00    -0.206 F 
ATOM     73  C   UNL A   1      42.269  33.705  35.612  1.00  0.00     0.022 A 
BRANCH  70  74
ATOM     74  S   UNL A   1      40.265  32.632  37.229  1.00  0.00     0.124 S 
ATOM     75  O   UNL A   1      41.066  32.473  38.441  1.00  0.00    -0.237 OA
ATOM     76  O   UNL A   1      39.675  33.949  37.019  1.00  0.00    -0.237 OA
ATOM     77  O   UNL A   1      39.395  31.500  36.916  1.00  0.00    -0.744 OA
ENDBRANCH  70  74
ENDBRANCH  53  67
BRANCH  54  78
ATOM     78  C   UNL A   1      42.560  23.953  27.282  1.00  0.00     0.023 A 
ATOM     79  C   UNL A   1      42.035  22.667  27.483  1.00  0.00     0.031 A 
ATOM     80  C   UNL A   1      43.169  24.234  26.045  1.00  0.00     0.131 A 
ATOM     81  C   UNL A   1      42.162  21.696  26.477  1.00  0.00     0.055 A 
ATOM     82  C   UNL A   1      43.252  23.279  25.031  1.00  0.00     0.041 A 
ATOM     83  F   UNL A   1      43.675  25.453  25.800  1.00  0.00    -0.206 F 
ATOM     84  C   UNL A   1      42.755  21.997  25.248  1.00  0.00     0.022 A 
BRANCH  81  85
ATOM     85  S   UNL A   1      41.586  20.011  26.818  1.00  0.00     0.124 S 
ATOM     86  O   UNL A   1      42.844  19.299  27.010  1.00  0.00    -0.237 OA
ATOM     87  O   UNL A   1      40.770  20.206  28.012  1.00  0.00    -0.237 OA
ATOM     88  O   UNL A   1      40.843  19.654  25.611  1.00  0.00    -0.744 OA
ENDBRANCH  81  85
ENDBRANCH  54  78
BRANCH  66  89
ATOM     89  C   UNL A   1      46.758  25.705  32.573  1.00  0.00     0.023 A 
ATOM     90  C   UNL A   1      48.015  25.959  31.995  1.00  0.00     0.031 A 
ATOM     91  C   UNL A   1      46.702  24.835  33.677  1.00  0.00     0.131 A 
ATOM     92  C   UNL A   1      49.156  25.310  32.490  1.00  0.00     0.055 A 
ATOM     93  C   UNL A   1      47.848  24.238  34.202  1.00  0.00     0.041 A 
ATOM     94  F   UNL A   1      45.527  24.556  34.266  1.00  0.00    -0.206 F 
ATOM     95  C   UNL A   1      49.082  24.464  33.600  1.00  0.00     0.022 A 
BRANCH  92  96
ATOM     96  S   UNL A   1      50.728  25.517  31.610  1.00  0.00     0.124 S 
ATOM     97  O   UNL A   1      50.413  24.971  30.294  1.00  0.00    -0.237 OA
ATOM     98  O   UNL A   1      50.931  26.960  31.671  1.00  0.00    -0.237 OA
ATOM     99  O   UNL A   1      51.670  24.726  32.400  1.00  0.00    -0.744 OA
ENDBRANCH  92  96
ENDBRANCH  66  89
ENDBRANCH  40  41
ENDBRANCH  32  35
ENDBRANCH  30  31
ENDBRANCH   1  30
TORSDOF 17
ENDMDL
MODEL 3
REMARK VINA RESULT:     -12.1      4.592      9.895
REMARK SMILES Cc1cc(N2N=C(C(=O)NCCCCNC(=O)c3ccc(-c4c5nc(c(-c6cc(S(=O)(=O)[O-])ccc6F)c6ccc([nH]6)c(-c6cc(S(=O)(=O)[O-])ccc6F)c6nc(c(-c7cc(S(=O)(=O)[O-])ccc7F)c7ccc4[nH]7)C=C6)C=C5)cc3)C[C@H]2c2ccccc2)c([N+](=O)[O-])cc1C
REMARK SMILES IDX 13 1 12 2 11 3 10 4 8 5 9 6 7 8 5 9 6 10 82 11 81 12 4 13
REMARK SMILES IDX 1 14 2 15 3 16 94 17 93 18 95 19 89 20 90 21 91 22 92 23
REMARK SMILES IDX 83 24 84 25 88 26 85 27 87 28 86 29 14 30 15 31 16 32 17 34
REMARK SMILES IDX 18 35 19 36 80 37 20 38 79 39 21 40 22 41 23 42 73 43 24 44
REMARK SMILES IDX 78 45 72 46 74 47 25 48 77 49 71 50 70 51 26 53 58 54 38 55
REMARK SMILES IDX 57 56 39 57 42 58 56 59 75 60 40 61 41 62 55 64 76 65 43 66
REMARK SMILES IDX 27 67 28 68 36 69 29 70 35 71 37 72 34 73 30 74 31 75 32 76
REMARK SMILES IDX 33 77 59 78 60 79 68 80 61 81 67 82 69 83 66 84 62 85 63 86
REMARK SMILES IDX 64 87 65 88 44 89 45 90 53 91 46 92 52 93 54 94 51 95 47 96
REMARK SMILES IDX 48 97 49 98 50 99
REMARK H PARENT 10 7 15 33 74 52 42 63
REMARK Flexibility Score: inf
ROOT
ATOM      1  C   UNL A   1      33.664  27.221  26.164  1.00  0.00     0.023 C 
ENDROOT
BRANCH   1   2
ATOM      2  C   UNL A   1      32.148  27.405  26.196  1.00  0.00     0.023 C 
BRANCH   2   3
ATOM      3  C   UNL A   1      31.362  26.264  25.562  1.00  0.00     0.116 C 
BRANCH   3   4
ATOM      4  N   UNL A   1      31.451  26.288  24.118  1.00  0.00    -0.351 N 
ATOM      5  C   UNL A   1      32.147  25.562  23.184  1.00  0.00     0.267 C 
ATOM      6  O   UNL A   1      32.005  25.874  22.003  1.00  0.00    -0.268 OA
ATOM      7  H   UNL A   1      30.882  26.982  23.712  1.00  0.00     0.163 HD
BRANCH   5   8
ATOM      8  C   UNL A   1      33.048  24.378  23.508  1.00  0.00     0.128 C 
ATOM      9  N   UNL A   1      33.654  22.542  24.431  1.00  0.00    -0.250 N 
ATOM     10  N   UNL A   1      32.628  23.422  24.286  1.00  0.00    -0.171 NA
ATOM     11  C   UNL A   1      34.838  22.888  23.637  1.00  0.00     0.144 C 
ATOM     12  C   UNL A   1      34.410  24.175  22.930  1.00  0.00     0.096 C 
BRANCH   9  13
ATOM     13  C   UNL A   1      33.376  21.199  24.690  1.00  0.00     0.138 A 
ATOM     14  C   UNL A   1      32.229  18.279  22.517  1.00  0.00     0.045 C 
ATOM     15  C   UNL A   1      32.641  19.038  23.748  1.00  0.00    -0.046 A 
ATOM     16  C   UNL A   1      33.035  20.380  23.602  1.00  0.00     0.039 A 
ATOM     17  C   UNL A   1      32.637  18.462  25.030  1.00  0.00    -0.041 A 
ATOM     18  C   UNL A   1      33.018  19.249  26.128  1.00  0.00     0.091 A 
ATOM     19  C   UNL A   1      32.250  17.031  25.285  1.00  0.00     0.045 C 
ATOM     20  C   UNL A   1      33.371  20.600  25.954  1.00  0.00     0.294 A 
BRANCH  20  21
ATOM     21  N   UNL A   1      33.631  21.375  27.157  1.00  0.00     0.065 N 
ATOM     22  O   UNL A   1      34.811  21.457  27.532  1.00  0.00    -0.258 OA
ATOM     23  O   UNL A   1      32.651  21.788  27.801  1.00  0.00    -0.258 OA
ENDBRANCH  20  21
ENDBRANCH   9  13
BRANCH  11  24
ATOM     24  C   UNL A   1      36.078  23.003  24.519  1.00  0.00    -0.023 A 
ATOM     25  C   UNL A   1      36.288  24.058  25.422  1.00  0.00     0.006 A 
ATOM     26  C   UNL A   1      37.044  21.981  24.466  1.00  0.00     0.006 A 
ATOM     27  C   UNL A   1      37.445  24.114  26.205  1.00  0.00     0.000 A 
ATOM     28  C   UNL A   1      38.178  22.016  25.279  1.00  0.00     0.000 A 
ATOM     29  C   UNL A   1      38.385  23.090  26.138  1.00  0.00     0.000 A 
ENDBRANCH  11  24
ENDBRANCH   5   8
ENDBRANCH   3   4
ENDBRANCH   2   3
ENDBRANCH   1   2
BRANCH   1  30
ATOM     30  C   UNL A   1      34.468  28.479  25.842  1.00  0.00     0.116 C 
BRANCH  30  31
ATOM     31  N   UNL A   1      33.865  29.702  26.355  1.00  0.00    -0.352 N 
ATOM     32  C   UNL A   1      34.314  30.521  27.364  1.00  0.00     0.251 C 
ATOM     33  H   UNL A   1      33.026  29.978  25.921  1.00  0.00     0.163 HD
ATOM     34  O   UNL A   1      33.627  31.465  27.740  1.00  0.00    -0.269 OA
BRANCH  32  35
ATOM     35  C   UNL A   1      35.606  30.218  28.013  1.00  0.00     0.039 A 
ATOM     36  C   UNL A   1      35.605  29.653  29.289  1.00  0.00     0.014 A 
ATOM     37  C   UNL A   1      36.806  30.430  27.330  1.00  0.00     0.014 A 
ATOM     38  C   UNL A   1      36.808  29.224  29.850  1.00  0.00     0.010 A 
ATOM     39  C   UNL A   1      37.992  29.933  27.859  1.00  0.00     0.010 A 
ATOM     40  C   UNL A   1      38.005  29.321  29.121  1.00  0.00    -0.014 A 
BRANCH  40  41
ATOM     41  C   UNL A   1      39.281  28.783  29.656  1.00  0.00     0.031 A 
ATOM     42  C   UNL A   1      39.978  29.488  30.786  1.00  0.00     0.074 A 
ATOM     43  C   UNL A   1      39.855  27.717  29.064  1.00  0.00     0.049 A 
ATOM     44  N   UNL A   1      41.141  29.237  31.329  1.00  0.00    -0.248 NA
ATOM     45  C   UNL A   1      39.288  30.658  31.351  1.00  0.00     0.031 C 
ATOM     46  C   UNL A   1      39.307  26.990  27.915  1.00  0.00     0.029 A 
ATOM     47  N   UNL A   1      41.036  27.070  29.330  1.00  0.00    -0.354 N 
ATOM     48  C   UNL A   1      41.333  30.230  32.284  1.00  0.00     0.074 A 
ATOM     49  C   UNL A   1      40.195  31.121  32.195  1.00  0.00     0.031 C 
ATOM     50  C   UNL A   1      40.145  25.995  27.584  1.00  0.00     0.029 A 
ATOM     51  C   UNL A   1      41.306  26.033  28.468  1.00  0.00     0.049 A 
ATOM     52  H   UNL A   1      41.635  27.326  30.069  1.00  0.00     0.167 HD
ATOM     53  C   UNL A   1      42.354  30.371  33.168  1.00  0.00     0.034 A 
ATOM     54  C   UNL A   1      42.374  25.216  28.387  1.00  0.00     0.034 A 
ATOM     55  C   UNL A   1      43.470  29.460  33.249  1.00  0.00     0.049 A 
ATOM     56  C   UNL A   1      43.490  25.378  29.385  1.00  0.00     0.074 A 
ATOM     57  C   UNL A   1      44.516  29.455  34.155  1.00  0.00     0.029 A 
ATOM     58  N   UNL A   1      43.693  28.396  32.383  1.00  0.00    -0.354 N 
ATOM     59  N   UNL A   1      43.623  26.275  30.337  1.00  0.00    -0.248 NA
ATOM     60  C   UNL A   1      44.590  24.409  29.312  1.00  0.00     0.031 C 
ATOM     61  C   UNL A   1      45.402  28.433  33.798  1.00  0.00     0.029 A 
ATOM     62  C   UNL A   1      44.875  27.749  32.714  1.00  0.00     0.049 A 
ATOM     63  H   UNL A   1      43.098  28.138  31.643  1.00  0.00     0.167 HD
ATOM     64  C   UNL A   1      44.812  25.963  30.988  1.00  0.00     0.074 A 
ATOM     65  C   UNL A   1      45.348  24.787  30.331  1.00  0.00     0.031 C 
ATOM     66  C   UNL A   1      45.406  26.589  32.037  1.00  0.00     0.034 A 
BRANCH  53  67
ATOM     67  C   UNL A   1      42.308  31.568  34.089  1.00  0.00     0.023 A 
ATOM     68  C   UNL A   1      41.616  31.533  35.313  1.00  0.00     0.031 A 
ATOM     69  C   UNL A   1      42.917  32.779  33.716  1.00  0.00     0.131 A 
ATOM     70  C   UNL A   1      41.466  32.704  36.069  1.00  0.00     0.055 A 
ATOM     71  C   UNL A   1      42.841  33.920  34.518  1.00  0.00     0.041 A 
ATOM     72  F   UNL A   1      43.576  32.883  32.551  1.00  0.00    -0.206 F 
ATOM     73  C   UNL A   1      42.095  33.892  35.694  1.00  0.00     0.022 A 
BRANCH  70  74
ATOM     74  S   UNL A   1      40.293  32.694  37.453  1.00  0.00     0.124 S 
ATOM     75  O   UNL A   1      39.324  31.692  37.011  1.00  0.00    -0.237 OA
ATOM     76  O   UNL A   1      41.137  32.315  38.580  1.00  0.00    -0.237 OA
ATOM     77  O   UNL A   1      39.787  34.065  37.484  1.00  0.00    -0.744 OA
ENDBRANCH  70  74
ENDBRANCH  53  67
BRANCH  54  78
ATOM     78  C   UNL A   1      42.447  24.183  27.316  1.00  0.00     0.023 A 
ATOM     79  C   UNL A   1      41.928  22.894  27.512  1.00  0.00     0.031 A 
ATOM     80  C   UNL A   1      43.052  24.473  26.078  1.00  0.00     0.131 A 
ATOM     81  C   UNL A   1      42.057  21.928  26.501  1.00  0.00     0.055 A 
ATOM     82  C   UNL A   1      43.137  23.522  25.060  1.00  0.00     0.041 A 
ATOM     83  F   UNL A   1      43.552  25.695  25.838  1.00  0.00    -0.206 F 
ATOM     84  C   UNL A   1      42.647  22.238  25.273  1.00  0.00     0.022 A 
BRANCH  81  85
ATOM     85  S   UNL A   1      41.490  20.239  26.835  1.00  0.00     0.124 S 
ATOM     86  O   UNL A   1      42.731  19.579  27.226  1.00  0.00    -0.237 OA
ATOM     87  O   UNL A   1      40.514  20.452  27.899  1.00  0.00    -0.237 OA
ATOM     88  O   UNL A   1      40.929  19.809  25.557  1.00  0.00    -0.744 OA
ENDBRANCH  81  85
ENDBRANCH  54  78
BRANCH  66  89
ATOM     89  C   UNL A   1      46.686  25.984  32.557  1.00  0.00     0.023 A 
ATOM     90  C   UNL A   1      46.684  24.968  33.529  1.00  0.00     0.031 A 
ATOM     91  C   UNL A   1      47.928  26.439  32.079  1.00  0.00     0.131 A 
ATOM     92  C   UNL A   1      47.899  24.476  34.029  1.00  0.00     0.055 A 
ATOM     93  C   UNL A   1      49.133  25.905  32.538  1.00  0.00     0.041 A 
ATOM     94  F   UNL A   1      47.988  27.409  31.152  1.00  0.00    -0.206 F 
ATOM     95  C   UNL A   1      49.122  24.928  33.528  1.00  0.00     0.022 A 
BRANCH  92  96
ATOM     96  S   UNL A   1      47.862  23.300  35.409  1.00  0.00     0.124 S 
ATOM     97  O   UNL A   1      46.782  23.833  36.233  1.00  0.00    -0.237 OA
ATOM     98  O   UNL A   1      47.586  22.036  34.734  1.00  0.00    -0.237 OA
ATOM     99  O   UNL A   1      49.198  23.411  35.991  1.00  0.00    -0.744 OA
ENDBRANCH  92  96
ENDBRANCH  66  89
ENDBRANCH  40  41
ENDBRANCH  32  35
ENDBRANCH  30  31
ENDBRANCH   1  30
TORSDOF 17
ENDMDL
