MODEL 1
REMARK VINA RESULT:     -11.4      0.000      0.000
REMARK SMILES CC[N@@H+]1CCO[C@@H](c2ncc(C(=O)NCCCCNC(=O)c3ccc(-c4c5nc(c(-c6cc(S(=O)(=O)[O-])ccc6F)c6ccc([nH]6)c(-c6cc(S(=O)(=O)[O-])ccc6F)c6nc(c(-c7cc(S(=O)(=O)[O-])ccc7F)c7ccc4[nH]7)C=C6)C=C5)cc3)s2)C1
REMARK SMILES IDX 17 1 16 2 15 3 14 4 12 5 13 6 11 8 8 9 9 10 85 11 10 12 7 13
REMARK SMILES IDX 3 14 4 15 86 16 5 18 6 19 2 20 1 21 18 22 19 23 20 24 21 26
REMARK SMILES IDX 22 27 23 28 84 29 24 30 83 31 25 32 26 33 27 34 77 35 28 36
REMARK SMILES IDX 82 37 76 38 78 39 29 40 81 41 75 42 74 43 30 45 62 46 42 47
REMARK SMILES IDX 61 48 43 49 46 50 60 51 79 52 44 53 45 54 59 56 80 57 47 58
REMARK SMILES IDX 31 59 32 60 40 61 33 62 39 63 41 64 38 65 34 66 35 67 36 68
REMARK SMILES IDX 37 69 63 70 64 71 72 72 65 73 71 74 73 75 70 76 66 77 67 78
REMARK SMILES IDX 68 79 69 80 48 81 49 82 57 83 50 84 56 85 58 86 55 87 51 88
REMARK SMILES IDX 52 89 53 90 54 91
REMARK H PARENT 14 7 3 17 19 25 78 44 46 55
REMARK Flexibility Score: inf
ROOT
ATOM      1  C   UNL A   1      31.860  31.323  26.454  1.00  0.00     0.023 C 
ENDROOT
BRANCH   1   2
ATOM      2  C   UNL A   1      32.100  29.823  26.253  1.00  0.00     0.023 C 
BRANCH   2   3
ATOM      3  C   UNL A   1      32.808  29.455  24.949  1.00  0.00     0.116 C 
BRANCH   3   4
ATOM      4  N   UNL A   1      31.922  29.564  23.803  1.00  0.00    -0.351 N 
ATOM      5  C   UNL A   1      31.555  28.632  22.860  1.00  0.00     0.263 C 
ATOM      6  O   UNL A   1      30.647  28.969  22.092  1.00  0.00    -0.268 OA
ATOM      7  H   UNL A   1      31.515  30.452  23.682  1.00  0.00     0.163 HD
BRANCH   5   8
ATOM      8  C   UNL A   1      32.209  27.341  22.793  1.00  0.00     0.112 A 
ATOM      9  C   UNL A   1      32.815  24.996  23.077  1.00  0.00     0.128 A 
ATOM     10  N   UNL A   1      33.626  25.572  22.211  1.00  0.00    -0.246 NA
ATOM     11  S   UNL A   1      31.612  26.025  23.737  1.00  0.00    -0.111 S 
ATOM     12  C   UNL A   1      33.267  26.888  22.034  1.00  0.00     0.137 A 
BRANCH   9  13
ATOM     13  C   UNL A   1      32.986  23.551  23.455  1.00  0.00     0.232 C 
ATOM     14  N   UNL A   1      33.286  22.010  25.419  1.00  0.00    -0.331 N 
ATOM     15  C   UNL A   1      32.381  21.081  24.700  1.00  0.00     0.291 C 
ATOM     16  C   UNL A   1      32.971  23.387  24.985  1.00  0.00     0.302 C 
ATOM     17  H   UNL A   1      33.127  21.979  26.426  1.00  0.00     0.348 HD
ATOM     18  C   UNL A   1      32.288  21.332  23.176  1.00  0.00     0.222 C 
ATOM     19  O   UNL A   1      31.983  22.704  22.864  1.00  0.00    -0.359 OA
BRANCH  14  20
ATOM     20  C   UNL A   1      34.697  21.598  25.324  1.00  0.00     0.258 C 
ATOM     21  C   UNL A   1      35.023  20.155  24.934  1.00  0.00     0.071 C 
ENDBRANCH  14  20
ENDBRANCH   9  13
ENDBRANCH   5   8
ENDBRANCH   3   4
ENDBRANCH   2   3
ENDBRANCH   1   2
BRANCH   1  22
ATOM     22  C   UNL A   1      32.919  32.055  27.272  1.00  0.00     0.116 C 
BRANCH  22  23
ATOM     23  N   UNL A   1      32.603  33.456  27.504  1.00  0.00    -0.352 N 
ATOM     24  C   UNL A   1      33.178  34.331  28.396  1.00  0.00     0.251 C 
ATOM     25  H   UNL A   1      31.881  33.827  26.949  1.00  0.00     0.163 HD
ATOM     26  O   UNL A   1      32.707  35.457  28.530  1.00  0.00    -0.269 OA
BRANCH  24  27
ATOM     27  C   UNL A   1      34.326  33.894  29.219  1.00  0.00     0.039 A 
ATOM     28  C   UNL A   1      34.082  33.087  30.333  1.00  0.00     0.014 A 
ATOM     29  C   UNL A   1      35.635  34.256  28.886  1.00  0.00     0.014 A 
ATOM     30  C   UNL A   1      35.156  32.578  31.065  1.00  0.00     0.010 A 
ATOM     31  C   UNL A   1      36.706  33.695  29.579  1.00  0.00     0.010 A 
ATOM     32  C   UNL A   1      36.478  32.843  30.670  1.00  0.00    -0.014 A 
BRANCH  32  33
ATOM     33  C   UNL A   1      37.624  32.210  31.371  1.00  0.00     0.031 A 
ATOM     34  C   UNL A   1      38.375  31.072  30.736  1.00  0.00     0.074 A 
ATOM     35  C   UNL A   1      37.949  32.629  32.610  1.00  0.00     0.049 A 
ATOM     36  N   UNL A   1      39.379  30.378  31.209  1.00  0.00    -0.248 NA
ATOM     37  C   UNL A   1      37.917  30.642  29.408  1.00  0.00     0.031 C 
ATOM     38  C   UNL A   1      37.257  33.685  33.353  1.00  0.00     0.029 A 
ATOM     39  N   UNL A   1      38.939  32.219  33.468  1.00  0.00    -0.354 N 
ATOM     40  C   UNL A   1      39.670  29.424  30.239  1.00  0.00     0.074 A 
ATOM     41  C   UNL A   1      38.694  29.592  29.182  1.00  0.00     0.031 C 
ATOM     42  C   UNL A   1      37.860  33.858  34.539  1.00  0.00     0.029 A 
ATOM     43  C   UNL A   1      38.956  32.902  34.662  1.00  0.00     0.049 A 
ATOM     44  H   UNL A   1      39.576  31.501  33.249  1.00  0.00     0.167 HD
ATOM     45  C   UNL A   1      40.673  28.510  30.222  1.00  0.00     0.034 A 
ATOM     46  C   UNL A   1      39.760  32.773  35.734  1.00  0.00     0.034 A 
ATOM     47  C   UNL A   1      41.641  28.360  31.283  1.00  0.00     0.049 A 
ATOM     48  C   UNL A   1      40.862  31.746  35.694  1.00  0.00     0.074 A 
ATOM     49  C   UNL A   1      42.731  27.510  31.343  1.00  0.00     0.029 A 
ATOM     50  N   UNL A   1      41.630  29.071  32.477  1.00  0.00    -0.354 N 
ATOM     51  N   UNL A   1      41.166  30.895  34.741  1.00  0.00    -0.248 NA
ATOM     52  C   UNL A   1      41.740  31.675  36.869  1.00  0.00     0.031 C 
ATOM     53  C   UNL A   1      43.339  27.660  32.596  1.00  0.00     0.029 A 
ATOM     54  C   UNL A   1      42.675  28.657  33.291  1.00  0.00     0.049 A 
ATOM     55  H   UNL A   1      40.977  29.769  32.711  1.00  0.00     0.167 HD
ATOM     56  C   UNL A   1      42.284  30.202  35.195  1.00  0.00     0.074 A 
ATOM     57  C   UNL A   1      42.614  30.755  36.493  1.00  0.00     0.031 C 
ATOM     58  C   UNL A   1      42.977  29.199  34.595  1.00  0.00     0.034 A 
BRANCH  45  59
ATOM     59  C   UNL A   1      40.752  27.590  29.027  1.00  0.00     0.023 A 
ATOM     60  C   UNL A   1      41.700  27.786  28.005  1.00  0.00     0.031 A 
ATOM     61  C   UNL A   1      39.852  26.519  28.888  1.00  0.00     0.131 A 
ATOM     62  C   UNL A   1      41.676  26.976  26.860  1.00  0.00     0.055 A 
ATOM     63  C   UNL A   1      39.886  25.665  27.784  1.00  0.00     0.041 A 
ATOM     64  F   UNL A   1      38.912  26.291  29.819  1.00  0.00    -0.206 F 
ATOM     65  C   UNL A   1      40.792  25.901  26.754  1.00  0.00     0.022 A 
BRANCH  62  66
ATOM     66  S   UNL A   1      42.720  27.438  25.451  1.00  0.00     0.124 S 
ATOM     67  O   UNL A   1      42.672  26.224  24.639  1.00  0.00    -0.237 OA
ATOM     68  O   UNL A   1      42.022  28.598  24.908  1.00  0.00    -0.237 OA
ATOM     69  O   UNL A   1      44.017  27.719  26.062  1.00  0.00    -0.744 OA
ENDBRANCH  62  66
ENDBRANCH  45  59
BRANCH  46  70
ATOM     70  C   UNL A   1      39.559  33.628  36.938  1.00  0.00     0.023 A 
ATOM     71  C   UNL A   1      38.919  33.125  38.083  1.00  0.00     0.031 A 
ATOM     72  C   UNL A   1      39.966  34.973  36.947  1.00  0.00     0.131 A 
ATOM     73  C   UNL A   1      38.661  33.974  39.170  1.00  0.00     0.055 A 
ATOM     74  C   UNL A   1      39.754  35.800  38.052  1.00  0.00     0.041 A 
ATOM     75  F   UNL A   1      40.590  35.501  35.882  1.00  0.00    -0.206 F 
ATOM     76  C   UNL A   1      39.085  35.305  39.167  1.00  0.00     0.022 A 
BRANCH  73  77
ATOM     77  S   UNL A   1      37.691  33.333  40.562  1.00  0.00     0.124 S 
ATOM     78  O   UNL A   1      36.491  32.847  39.889  1.00  0.00    -0.237 OA
ATOM     79  O   UNL A   1      38.580  32.312  41.105  1.00  0.00    -0.237 OA
ATOM     80  O   UNL A   1      37.500  34.506  41.412  1.00  0.00    -0.744 OA
ENDBRANCH  73  77
ENDBRANCH  46  70
BRANCH  58  81
ATOM     81  C   UNL A   1      44.174  28.663  35.342  1.00  0.00     0.023 A 
ATOM     82  C   UNL A   1      44.060  27.589  36.243  1.00  0.00     0.031 A 
ATOM     83  C   UNL A   1      45.437  29.259  35.181  1.00  0.00     0.131 A 
ATOM     84  C   UNL A   1      45.171  27.192  37.001  1.00  0.00     0.055 A 
ATOM     85  C   UNL A   1      46.554  28.816  35.890  1.00  0.00     0.041 A 
ATOM     86  F   UNL A   1      45.605  30.290  34.337  1.00  0.00    -0.206 F 
ATOM     87  C   UNL A   1      46.421  27.788  36.820  1.00  0.00     0.022 A 
BRANCH  84  88
ATOM     88  S   UNL A   1      44.933  25.962  38.314  1.00  0.00     0.124 S 
ATOM     89  O   UNL A   1      46.309  25.631  38.673  1.00  0.00    -0.237 OA
ATOM     90  O   UNL A   1      44.177  26.713  39.310  1.00  0.00    -0.237 OA
ATOM     91  O   UNL A   1      44.191  24.892  37.650  1.00  0.00    -0.744 OA
ENDBRANCH  84  88
ENDBRANCH  58  81
ENDBRANCH  32  33
ENDBRANCH  24  27
ENDBRANCH  22  23
ENDBRANCH   1  22
TORSDOF 16
ENDMDL
MODEL 2
REMARK VINA RESULT:     -11.2      5.619     11.049
REMARK SMILES CC[N@@H+]1CCO[C@@H](c2ncc(C(=O)NCCCCNC(=O)c3ccc(-c4c5nc(c(-c6cc(S(=O)(=O)[O-])ccc6F)c6ccc([nH]6)c(-c6cc(S(=O)(=O)[O-])ccc6F)c6nc(c(-c7cc(S(=O)(=O)[O-])ccc7F)c7ccc4[nH]7)C=C6)C=C5)cc3)s2)C1
REMARK SMILES IDX 17 1 16 2 15 3 14 4 12 5 13 6 11 8 8 9 9 10 85 11 10 12 7 13
REMARK SMILES IDX 3 14 4 15 86 16 5 18 6 19 2 20 1 21 18 22 19 23 20 24 21 26
REMARK SMILES IDX 22 27 23 28 84 29 24 30 83 31 25 32 26 33 27 34 77 35 28 36
REMARK SMILES IDX 82 37 76 38 78 39 29 40 81 41 75 42 74 43 30 45 62 46 42 47
REMARK SMILES IDX 61 48 43 49 46 50 60 51 79 52 44 53 45 54 59 56 80 57 47 58
REMARK SMILES IDX 31 59 32 60 40 61 33 62 39 63 41 64 38 65 34 66 35 67 36 68
REMARK SMILES IDX 37 69 63 70 64 71 72 72 65 73 71 74 73 75 70 76 66 77 67 78
REMARK SMILES IDX 68 79 69 80 48 81 49 82 57 83 50 84 56 85 58 86 55 87 51 88
REMARK SMILES IDX 52 89 53 90 54 91
REMARK H PARENT 14 7 3 17 19 25 78 44 46 55
REMARK Flexibility Score: inf
ROOT
ATOM      1  C   UNL A   1      35.581  21.462  24.598  1.00  0.00     0.023 C 
ENDROOT
BRANCH   1   2
ATOM      2  C   UNL A   1      34.680  20.294  25.013  1.00  0.00     0.023 C 
BRANCH   2   3
ATOM      3  C   UNL A   1      33.194  20.635  25.117  1.00  0.00     0.116 C 
BRANCH   3   4
ATOM      4  N   UNL A   1      32.487  20.357  23.879  1.00  0.00    -0.351 N 
ATOM      5  C   UNL A   1      32.274  21.143  22.770  1.00  0.00     0.263 C 
ATOM      6  O   UNL A   1      31.776  20.575  21.793  1.00  0.00    -0.268 OA
ATOM      7  H   UNL A   1      32.095  19.455  23.824  1.00  0.00     0.163 HD
BRANCH   5   8
ATOM      8  C   UNL A   1      32.624  22.548  22.775  1.00  0.00     0.112 A 
ATOM      9  C   UNL A   1      32.788  24.928  23.281  1.00  0.00     0.128 A 
ATOM     10  N   UNL A   1      33.653  24.605  22.340  1.00  0.00    -0.246 NA
ATOM     11  S   UNL A   1      31.824  23.631  23.856  1.00  0.00    -0.111 S 
ATOM     12  C   UNL A   1      33.576  23.258  22.073  1.00  0.00     0.137 A 
BRANCH   9  13
ATOM     13  C   UNL A   1      32.663  26.347  23.763  1.00  0.00     0.232 C 
ATOM     14  N   UNL A   1      33.245  27.881  25.668  1.00  0.00    -0.331 N 
ATOM     15  C   UNL A   1      33.520  28.902  24.630  1.00  0.00     0.291 C 
ATOM     16  C   UNL A   1      33.454  26.547  25.068  1.00  0.00     0.302 C 
ATOM     17  H   UNL A   1      33.901  27.955  26.446  1.00  0.00     0.348 HD
ATOM     18  C   UNL A   1      32.835  28.631  23.269  1.00  0.00     0.222 C 
ATOM     19  O   UNL A   1      33.098  27.304  22.778  1.00  0.00    -0.359 OA
BRANCH  14  20
ATOM     20  C   UNL A   1      31.954  28.104  26.341  1.00  0.00     0.258 C 
ATOM     21  C   UNL A   1      31.792  29.325  27.248  1.00  0.00     0.071 C 
ENDBRANCH  14  20
ENDBRANCH   9  13
ENDBRANCH   5   8
ENDBRANCH   3   4
ENDBRANCH   2   3
ENDBRANCH   1   2
BRANCH   1  22
ATOM     22  C   UNL A   1      36.700  21.810  25.575  1.00  0.00     0.116 C 
BRANCH  22  23
ATOM     23  N   UNL A   1      37.710  20.769  25.691  1.00  0.00    -0.352 N 
ATOM     24  C   UNL A   1      39.021  20.884  26.087  1.00  0.00     0.251 C 
ATOM     25  H   UNL A   1      37.414  19.861  25.455  1.00  0.00     0.163 HD
ATOM     26  O   UNL A   1      39.762  19.907  26.022  1.00  0.00    -0.269 OA
BRANCH  24  27
ATOM     27  C   UNL A   1      39.542  22.191  26.541  1.00  0.00     0.039 A 
ATOM     28  C   UNL A   1      40.648  22.212  27.394  1.00  0.00     0.014 A 
ATOM     29  C   UNL A   1      38.963  23.389  26.111  1.00  0.00     0.014 A 
ATOM     30  C   UNL A   1      41.220  23.434  27.753  1.00  0.00     0.010 A 
ATOM     31  C   UNL A   1      39.574  24.604  26.418  1.00  0.00     0.010 A 
ATOM     32  C   UNL A   1      40.714  24.637  27.235  1.00  0.00    -0.014 A 
BRANCH  32  33
ATOM     33  C   UNL A   1      41.390  25.930  27.516  1.00  0.00     0.031 A 
ATOM     34  C   UNL A   1      40.690  27.003  28.305  1.00  0.00     0.074 A 
ATOM     35  C   UNL A   1      42.618  26.155  27.007  1.00  0.00     0.049 A 
ATOM     36  N   UNL A   1      41.108  28.202  28.622  1.00  0.00    -0.248 NA
ATOM     37  C   UNL A   1      39.332  26.695  28.773  1.00  0.00     0.031 C 
ATOM     38  C   UNL A   1      43.374  25.212  26.178  1.00  0.00     0.029 A 
ATOM     39  N   UNL A   1      43.448  27.244  27.107  1.00  0.00    -0.354 N 
ATOM     40  C   UNL A   1      40.063  28.794  29.323  1.00  0.00     0.074 A 
ATOM     41  C   UNL A   1      38.971  27.844  29.326  1.00  0.00     0.031 C 
ATOM     42  C   UNL A   1      44.562  25.752  25.869  1.00  0.00     0.029 A 
ATOM     43  C   UNL A   1      44.643  27.091  26.443  1.00  0.00     0.049 A 
ATOM     44  H   UNL A   1      43.208  28.058  27.605  1.00  0.00     0.167 HD
ATOM     45  C   UNL A   1      40.028  30.009  29.926  1.00  0.00     0.034 A 
ATOM     46  C   UNL A   1      45.684  27.935  26.309  1.00  0.00     0.034 A 
ATOM     47  C   UNL A   1      41.129  30.943  29.917  1.00  0.00     0.049 A 
ATOM     48  C   UNL A   1      45.618  29.281  26.983  1.00  0.00     0.074 A 
ATOM     49  C   UNL A   1      41.223  32.173  30.544  1.00  0.00     0.029 A 
ATOM     50  N   UNL A   1      42.327  30.756  29.237  1.00  0.00    -0.354 N 
ATOM     51  N   UNL A   1      44.647  29.801  27.697  1.00  0.00    -0.248 NA
ATOM     52  C   UNL A   1      46.797  30.145  26.845  1.00  0.00     0.031 C 
ATOM     53  C   UNL A   1      42.447  32.755  30.192  1.00  0.00     0.029 A 
ATOM     54  C   UNL A   1      43.151  31.859  29.405  1.00  0.00     0.049 A 
ATOM     55  H   UNL A   1      42.558  29.955  28.714  1.00  0.00     0.167 HD
ATOM     56  C   UNL A   1      45.109  31.047  28.112  1.00  0.00     0.074 A 
ATOM     57  C   UNL A   1      46.453  31.185  27.589  1.00  0.00     0.031 C 
ATOM     58  C   UNL A   1      44.480  31.994  28.856  1.00  0.00     0.034 A 
BRANCH  45  59
ATOM     59  C   UNL A   1      38.745  30.400  30.623  1.00  0.00     0.023 A 
ATOM     60  C   UNL A   1      37.704  31.055  29.940  1.00  0.00     0.031 A 
ATOM     61  C   UNL A   1      38.570  30.142  31.994  1.00  0.00     0.131 A 
ATOM     62  C   UNL A   1      36.572  31.496  30.643  1.00  0.00     0.055 A 
ATOM     63  C   UNL A   1      37.405  30.511  32.671  1.00  0.00     0.041 A 
ATOM     64  F   UNL A   1      39.535  29.538  32.705  1.00  0.00    -0.206 F 
ATOM     65  C   UNL A   1      36.404  31.206  31.998  1.00  0.00     0.022 A 
BRANCH  62  66
ATOM     66  S   UNL A   1      35.392  32.577  29.791  1.00  0.00     0.124 S 
ATOM     67  O   UNL A   1      35.064  31.782  28.609  1.00  0.00    -0.237 OA
ATOM     68  O   UNL A   1      34.328  32.723  30.777  1.00  0.00    -0.237 OA
ATOM     69  O   UNL A   1      36.166  33.787  29.523  1.00  0.00    -0.744 OA
ENDBRANCH  62  66
ENDBRANCH  45  59
BRANCH  46  70
ATOM     70  C   UNL A   1      46.877  27.543  25.505  1.00  0.00     0.023 A 
ATOM     71  C   UNL A   1      46.994  27.916  24.157  1.00  0.00     0.031 A 
ATOM     72  C   UNL A   1      47.897  26.753  26.063  1.00  0.00     0.131 A 
ATOM     73  C   UNL A   1      48.082  27.461  23.397  1.00  0.00     0.055 A 
ATOM     74  C   UNL A   1      49.004  26.345  25.316  1.00  0.00     0.041 A 
ATOM     75  F   UNL A   1      47.839  26.375  27.349  1.00  0.00    -0.206 F 
ATOM     76  C   UNL A   1      49.094  26.687  23.971  1.00  0.00     0.022 A 
BRANCH  73  77
ATOM     77  S   UNL A   1      48.115  27.828  21.621  1.00  0.00     0.124 S 
ATOM     78  O   UNL A   1      46.803  28.432  21.417  1.00  0.00    -0.237 OA
ATOM     79  O   UNL A   1      49.259  28.729  21.521  1.00  0.00    -0.237 OA
ATOM     80  O   UNL A   1      48.303  26.516  21.006  1.00  0.00    -0.744 OA
ENDBRANCH  73  77
ENDBRANCH  46  70
BRANCH  58  81
ATOM     81  C   UNL A   1      45.265  33.247  29.161  1.00  0.00     0.023 A 
ATOM     82  C   UNL A   1      45.189  34.383  28.334  1.00  0.00     0.031 A 
ATOM     83  C   UNL A   1      46.129  33.292  30.268  1.00  0.00     0.131 A 
ATOM     84  C   UNL A   1      46.017  35.487  28.587  1.00  0.00     0.055 A 
ATOM     85  C   UNL A   1      46.902  34.418  30.552  1.00  0.00     0.041 A 
ATOM     86  F   UNL A   1      46.245  32.236  31.090  1.00  0.00    -0.206 F 
ATOM     87  C   UNL A   1      46.861  35.518  29.699  1.00  0.00     0.022 A 
BRANCH  84  88
ATOM     88  S   UNL A   1      46.060  36.836  27.374  1.00  0.00     0.124 S 
ATOM     89  O   UNL A   1      46.544  37.953  28.180  1.00  0.00    -0.237 OA
ATOM     90  O   UNL A   1      46.989  36.323  26.372  1.00  0.00    -0.237 OA
ATOM     91  O   UNL A   1      44.671  36.945  26.933  1.00  0.00    -0.744 OA
ENDBRANCH  84  88
ENDBRANCH  58  81
ENDBRANCH  32  33
ENDBRANCH  24  27
ENDBRANCH  22  23
ENDBRANCH   1  22
TORSDOF 16
ENDMDL
MODEL 3
REMARK VINA RESULT:     -11.2      5.795     11.919
REMARK SMILES CC[N@@H+]1CCO[C@@H](c2ncc(C(=O)NCCCCNC(=O)c3ccc(-c4c5nc(c(-c6cc(S(=O)(=O)[O-])ccc6F)c6ccc([nH]6)c(-c6cc(S(=O)(=O)[O-])ccc6F)c6nc(c(-c7cc(S(=O)(=O)[O-])ccc7F)c7ccc4[nH]7)C=C6)C=C5)cc3)s2)C1
REMARK SMILES IDX 17 1 16 2 15 3 14 4 12 5 13 6 11 8 8 9 9 10 85 11 10 12 7 13
REMARK SMILES IDX 3 14 4 15 86 16 5 18 6 19 2 20 1 21 18 22 19 23 20 24 21 26
REMARK SMILES IDX 22 27 23 28 84 29 24 30 83 31 25 32 26 33 27 34 77 35 28 36
REMARK SMILES IDX 82 37 76 38 78 39 29 40 81 41 75 42 74 43 30 45 62 46 42 47
REMARK SMILES IDX 61 48 43 49 46 50 60 51 79 52 44 53 45 54 59 56 80 57 47 58
REMARK SMILES IDX 31 59 32 60 40 61 33 62 39 63 41 64 38 65 34 66 35 67 36 68
REMARK SMILES IDX 37 69 63 70 64 71 72 72 65 73 71 74 73 75 70 76 66 77 67 78
REMARK SMILES IDX 68 79 69 80 48 81 49 82 57 83 50 84 56 85 58 86 55 87 51 88
REMARK SMILES IDX 52 89 53 90 54 91
REMARK H PARENT 14 7 3 17 19 25 78 44 46 55
REMARK Flexibility Score: inf
ROOT
ATOM      1  C   UNL A   1      38.080  20.167  25.050  1.00  0.00     0.023 C 
ENDROOT
BRANCH   1   2
ATOM      2  C   UNL A   1      37.129  21.340  24.792  1.00  0.00     0.023 C 
BRANCH   2   3
ATOM      3  C   UNL A   1      35.997  21.485  25.809  1.00  0.00     0.116 C 
BRANCH   3   4
ATOM      4  N   UNL A   1      34.806  20.762  25.401  1.00  0.00    -0.351 N 
ATOM      5  C   UNL A   1      33.791  21.115  24.542  1.00  0.00     0.263 C 
ATOM      6  O   UNL A   1      32.988  20.220  24.258  1.00  0.00    -0.268 OA
ATOM      7  H   UNL A   1      34.709  19.870  25.807  1.00  0.00     0.163 HD
BRANCH   5   8
ATOM      8  C   UNL A   1      33.694  22.460  24.015  1.00  0.00     0.112 A 
ATOM      9  C   UNL A   1      33.294  24.848  23.726  1.00  0.00     0.128 A 
ATOM     10  N   UNL A   1      33.888  24.356  22.656  1.00  0.00    -0.246 NA
ATOM     11  S   UNL A   1      32.980  23.709  24.969  1.00  0.00    -0.111 S 
ATOM     12  C   UNL A   1      34.135  23.014  22.831  1.00  0.00     0.137 A 
BRANCH   9  13
ATOM     13  C   UNL A   1      32.909  26.300  23.798  1.00  0.00     0.232 C 
ATOM     14  N   UNL A   1      33.222  28.398  25.149  1.00  0.00    -0.331 N 
ATOM     15  C   UNL A   1      33.277  29.107  23.848  1.00  0.00     0.291 C 
ATOM     16  C   UNL A   1      33.671  27.007  24.933  1.00  0.00     0.302 C 
ATOM     17  H   UNL A   1      33.866  28.810  25.824  1.00  0.00     0.348 HD
ATOM     18  C   UNL A   1      32.632  28.336  22.672  1.00  0.00     0.222 C 
ATOM     19  O   UNL A   1      33.135  26.992  22.555  1.00  0.00    -0.359 OA
BRANCH  14  20
ATOM     20  C   UNL A   1      31.924  28.572  25.824  1.00  0.00     0.258 C 
ATOM     21  C   UNL A   1      31.858  29.426  27.091  1.00  0.00     0.071 C 
ENDBRANCH  14  20
ENDBRANCH   9  13
ENDBRANCH   5   8
ENDBRANCH   3   4
ENDBRANCH   2   3
ENDBRANCH   1   2
BRANCH   1  22
ATOM     22  C   UNL A   1      39.345  20.505  25.833  1.00  0.00     0.116 C 
BRANCH  22  23
ATOM     23  N   UNL A   1      40.280  19.394  25.929  1.00  0.00    -0.352 N 
ATOM     24  C   UNL A   1      41.635  19.428  26.158  1.00  0.00     0.251 C 
ATOM     25  H   UNL A   1      39.889  18.499  25.815  1.00  0.00     0.163 HD
ATOM     26  O   UNL A   1      42.286  18.388  26.100  1.00  0.00    -0.269 OA
BRANCH  24  27
ATOM     27  C   UNL A   1      42.305  20.719  26.424  1.00  0.00     0.039 A 
ATOM     28  C   UNL A   1      42.691  21.509  25.338  1.00  0.00     0.014 A 
ATOM     29  C   UNL A   1      42.529  21.162  27.731  1.00  0.00     0.014 A 
ATOM     30  C   UNL A   1      43.232  22.776  25.563  1.00  0.00     0.010 A 
ATOM     31  C   UNL A   1      43.009  22.452  27.952  1.00  0.00     0.010 A 
ATOM     32  C   UNL A   1      43.356  23.275  26.871  1.00  0.00    -0.014 A 
BRANCH  32  33
ATOM     33  C   UNL A   1      43.818  24.666  27.113  1.00  0.00     0.031 A 
ATOM     34  C   UNL A   1      42.865  25.710  27.627  1.00  0.00     0.074 A 
ATOM     35  C   UNL A   1      45.090  24.999  26.814  1.00  0.00     0.049 A 
ATOM     36  N   UNL A   1      43.079  26.978  27.869  1.00  0.00    -0.248 NA
ATOM     37  C   UNL A   1      41.483  25.275  27.872  1.00  0.00     0.031 C 
ATOM     38  C   UNL A   1      46.091  24.086  26.255  1.00  0.00     0.029 A 
ATOM     39  N   UNL A   1      45.760  26.190  26.931  1.00  0.00    -0.354 N 
ATOM     40  C   UNL A   1      41.859  27.496  28.290  1.00  0.00     0.074 A 
ATOM     41  C   UNL A   1      40.897  26.416  28.208  1.00  0.00     0.031 C 
ATOM     42  C   UNL A   1      47.251  24.743  26.106  1.00  0.00     0.029 A 
ATOM     43  C   UNL A   1      47.071  26.130  26.520  1.00  0.00     0.049 A 
ATOM     44  H   UNL A   1      45.340  27.011  27.277  1.00  0.00     0.167 HD
ATOM     45  C   UNL A   1      41.573  28.748  28.726  1.00  0.00     0.034 A 
ATOM     46  C   UNL A   1      48.020  27.086  26.479  1.00  0.00     0.034 A 
ATOM     47  C   UNL A   1      42.546  29.812  28.807  1.00  0.00     0.049 A 
ATOM     48  C   UNL A   1      47.677  28.470  26.962  1.00  0.00     0.074 A 
ATOM     49  C   UNL A   1      42.381  31.099  29.288  1.00  0.00     0.029 A 
ATOM     50  N   UNL A   1      43.867  29.717  28.384  1.00  0.00    -0.354 N 
ATOM     51  N   UNL A   1      46.534  28.927  27.420  1.00  0.00    -0.248 NA
ATOM     52  C   UNL A   1      48.759  29.463  26.939  1.00  0.00     0.031 C 
ATOM     53  C   UNL A   1      43.579  31.798  29.098  1.00  0.00     0.029 A 
ATOM     54  C   UNL A   1      44.517  30.929  28.566  1.00  0.00     0.049 A 
ATOM     55  H   UNL A   1      44.282  28.905  28.012  1.00  0.00     0.167 HD
ATOM     56  C   UNL A   1      46.767  30.257  27.759  1.00  0.00     0.074 A 
ATOM     57  C   UNL A   1      48.165  30.517  27.478  1.00  0.00     0.031 C 
ATOM     58  C   UNL A   1      45.905  31.181  28.257  1.00  0.00     0.034 A 
BRANCH  45  59
ATOM     59  C   UNL A   1      40.144  29.034  29.126  1.00  0.00     0.023 A 
ATOM     60  C   UNL A   1      39.755  29.100  30.477  1.00  0.00     0.031 A 
ATOM     61  C   UNL A   1      39.151  29.216  28.148  1.00  0.00     0.131 A 
ATOM     62  C   UNL A   1      38.402  29.263  30.810  1.00  0.00     0.055 A 
ATOM     63  C   UNL A   1      37.818  29.460  28.487  1.00  0.00     0.041 A 
ATOM     64  F   UNL A   1      39.456  29.145  26.843  1.00  0.00    -0.206 F 
ATOM     65  C   UNL A   1      37.435  29.468  29.825  1.00  0.00     0.022 A 
BRANCH  62  66
ATOM     66  S   UNL A   1      37.907  29.058  32.543  1.00  0.00     0.124 S 
ATOM     67  O   UNL A   1      37.830  27.603  32.657  1.00  0.00    -0.237 OA
ATOM     68  O   UNL A   1      39.001  29.699  33.262  1.00  0.00    -0.237 OA
ATOM     69  O   UNL A   1      36.621  29.748  32.616  1.00  0.00    -0.744 OA
ENDBRANCH  62  66
ENDBRANCH  45  59
BRANCH  46  70
ATOM     70  C   UNL A   1      49.383  26.775  25.959  1.00  0.00     0.023 A 
ATOM     71  C   UNL A   1      49.789  27.214  24.689  1.00  0.00     0.031 A 
ATOM     72  C   UNL A   1      50.284  26.000  26.709  1.00  0.00     0.131 A 
ATOM     73  C   UNL A   1      51.042  26.835  24.185  1.00  0.00     0.055 A 
ATOM     74  C   UNL A   1      51.551  25.668  26.224  1.00  0.00     0.041 A 
ATOM     75  F   UNL A   1      49.949  25.562  27.932  1.00  0.00    -0.206 F 
ATOM     76  C   UNL A   1      51.931  26.075  24.949  1.00  0.00     0.022 A 
BRANCH  73  77
ATOM     77  S   UNL A   1      51.465  27.285  22.479  1.00  0.00     0.124 S 
ATOM     78  O   UNL A   1      52.780  26.670  22.327  1.00  0.00    -0.237 OA
ATOM     79  O   UNL A   1      50.378  26.669  21.726  1.00  0.00    -0.237 OA
ATOM     80  O   UNL A   1      51.456  28.746  22.501  1.00  0.00    -0.744 OA
ENDBRANCH  73  77
ENDBRANCH  46  70
BRANCH  58  81
ATOM     81  C   UNL A   1      46.474  32.549  28.547  1.00  0.00     0.023 A 
ATOM     82  C   UNL A   1      46.568  33.535  27.548  1.00  0.00     0.031 A 
ATOM     83  C   UNL A   1      46.964  32.858  29.827  1.00  0.00     0.131 A 
ATOM     84  C   UNL A   1      47.204  34.754  27.827  1.00  0.00     0.055 A 
ATOM     85  C   UNL A   1      47.536  34.097  30.117  1.00  0.00     0.041 A 
ATOM     86  F   UNL A   1      46.903  31.955  30.820  1.00  0.00    -0.206 F 
ATOM     87  C   UNL A   1      47.674  35.048  29.108  1.00  0.00     0.022 A 
BRANCH  84  88
ATOM     88  S   UNL A   1      47.512  35.906  26.459  1.00  0.00     0.124 S 
ATOM     89  O   UNL A   1      48.677  36.642  26.940  1.00  0.00    -0.237 OA
ATOM     90  O   UNL A   1      47.747  35.002  25.338  1.00  0.00    -0.237 OA
ATOM     91  O   UNL A   1      46.276  36.683  26.381  1.00  0.00    -0.744 OA
ENDBRANCH  84  88
ENDBRANCH  58  81
ENDBRANCH  32  33
ENDBRANCH  24  27
ENDBRANCH  22  23
ENDBRANCH   1  22
TORSDOF 16
ENDMDL
