MODEL 1
REMARK VINA RESULT:     -12.5      0.000      0.000
REMARK SMILES Cc1ncccc1C(=O)Nc1ccccc1C(=O)NCCCCNC(=O)c1ccc(-c2c3nc(c(-c4cc(S(=O)(=O)[O-])ccc4F)c4ccc([nH]4)c(-c4cc(S(=O)(=O)[O-])ccc4F)c4nc(c(-c5cc(S(=O)(=O)[O-])ccc5F)c5ccc2[nH]5)C=C4)C=C3)cc1
REMARK SMILES IDX 22 1 21 2 20 3 19 4 17 5 18 6 16 8 11 9 12 10 13 11 15 12
REMARK SMILES IDX 14 13 10 14 8 15 9 16 7 18 1 19 2 20 3 21 4 22 6 23 5 24
REMARK SMILES IDX 23 25 24 26 25 27 26 29 27 30 28 31 89 32 29 33 88 34 30 35
REMARK SMILES IDX 31 36 32 37 82 38 33 39 87 40 81 41 83 42 34 43 86 44 80 45
REMARK SMILES IDX 79 46 35 48 67 49 47 50 66 51 48 52 51 53 65 54 84 55 49 56
REMARK SMILES IDX 50 57 64 59 85 60 52 61 36 62 37 63 45 64 38 65 44 66 46 67
REMARK SMILES IDX 43 68 39 69 40 70 41 71 42 72 68 73 69 74 77 75 70 76 76 77
REMARK SMILES IDX 78 78 75 79 71 80 72 81 73 82 74 83 53 84 54 85 62 86 55 87
REMARK SMILES IDX 61 88 63 89 60 90 56 91 57 92 58 93 59 94
REMARK H PARENT 19 7 10 17 24 28 83 47 51 58
REMARK Flexibility Score: inf
ROOT
ATOM      1  C   UNL A   1      35.974  21.445  25.835  1.00  0.00     0.023 C 
ENDROOT
BRANCH   1   2
ATOM      2  C   UNL A   1      35.385  22.787  26.275  1.00  0.00     0.023 C 
BRANCH   2   3
ATOM      3  C   UNL A   1      34.019  22.741  26.952  1.00  0.00     0.116 C 
BRANCH   3   4
ATOM      4  N   UNL A   1      33.164  21.662  26.501  1.00  0.00    -0.352 N 
ATOM      5  C   UNL A   1      32.475  21.508  25.321  1.00  0.00     0.253 C 
ATOM      6  O   UNL A   1      31.793  20.494  25.172  1.00  0.00    -0.269 OA
ATOM      7  H   UNL A   1      33.059  20.921  27.140  1.00  0.00     0.163 HD
BRANCH   5   8
ATOM      8  C   UNL A   1      32.429  22.561  24.267  1.00  0.00     0.063 A 
ATOM      9  C   UNL A   1      31.469  23.571  24.109  1.00  0.00     0.054 A 
ATOM     10  C   UNL A   1      31.453  24.314  22.911  1.00  0.00     0.027 A 
ATOM     11  C   UNL A   1      32.465  24.186  21.962  1.00  0.00     0.002 A 
ATOM     12  C   UNL A   1      33.462  22.462  23.308  1.00  0.00     0.016 A 
ATOM     13  C   UNL A   1      33.494  23.282  22.179  1.00  0.00     0.001 A 
BRANCH   9  14
ATOM     14  N   UNL A   1      30.512  24.007  25.042  1.00  0.00    -0.321 N 
ATOM     15  C   UNL A   1      30.380  25.146  25.795  1.00  0.00     0.257 C 
ATOM     16  O   UNL A   1      29.499  25.157  26.657  1.00  0.00    -0.269 OA
ATOM     17  H   UNL A   1      29.784  23.359  25.185  1.00  0.00     0.170 HD
BRANCH  15  18
ATOM     18  C   UNL A   1      31.188  26.367  25.613  1.00  0.00     0.061 A 
ATOM     19  C   UNL A   1      29.703  27.446  23.826  1.00  0.00     0.067 C 
ATOM     20  C   UNL A   1      30.893  27.414  24.736  1.00  0.00     0.050 A 
ATOM     21  N   UNL A   1      31.664  28.536  24.667  1.00  0.00    -0.261 NA
ATOM     22  C   UNL A   1      32.714  28.639  25.513  1.00  0.00     0.111 A 
ATOM     23  C   UNL A   1      32.250  26.540  26.511  1.00  0.00     0.017 A 
ATOM     24  C   UNL A   1      33.033  27.685  26.459  1.00  0.00     0.021 A 
ENDBRANCH  15  18
ENDBRANCH   9  14
ENDBRANCH   5   8
ENDBRANCH   3   4
ENDBRANCH   2   3
ENDBRANCH   1   2
BRANCH   1  25
ATOM     25  C   UNL A   1      37.256  21.490  25.007  1.00  0.00     0.116 C 
BRANCH  25  26
ATOM     26  N   UNL A   1      38.228  20.467  25.359  1.00  0.00    -0.352 N 
ATOM     27  C   UNL A   1      39.428  20.578  26.029  1.00  0.00     0.251 C 
ATOM     28  H   UNL A   1      37.993  19.553  25.074  1.00  0.00     0.163 HD
ATOM     29  O   UNL A   1      40.160  19.603  26.138  1.00  0.00    -0.269 OA
BRANCH  27  30
ATOM     30  C   UNL A   1      39.848  21.889  26.573  1.00  0.00     0.039 A 
ATOM     31  C   UNL A   1      40.858  21.928  27.536  1.00  0.00     0.014 A 
ATOM     32  C   UNL A   1      39.280  23.076  26.104  1.00  0.00     0.014 A 
ATOM     33  C   UNL A   1      41.377  23.161  27.944  1.00  0.00     0.010 A 
ATOM     34  C   UNL A   1      39.851  24.298  26.451  1.00  0.00     0.010 A 
ATOM     35  C   UNL A   1      40.920  24.354  27.360  1.00  0.00    -0.014 A 
BRANCH  35  36
ATOM     36  C   UNL A   1      41.567  25.662  27.659  1.00  0.00     0.031 A 
ATOM     37  C   UNL A   1      40.819  26.722  28.420  1.00  0.00     0.074 A 
ATOM     38  C   UNL A   1      42.800  25.922  27.176  1.00  0.00     0.049 A 
ATOM     39  N   UNL A   1      41.173  27.953  28.691  1.00  0.00    -0.248 NA
ATOM     40  C   UNL A   1      39.481  26.360  28.910  1.00  0.00     0.031 C 
ATOM     41  C   UNL A   1      43.612  24.995  26.383  1.00  0.00     0.029 A 
ATOM     42  N   UNL A   1      43.585  27.046  27.270  1.00  0.00    -0.354 N 
ATOM     43  C   UNL A   1      40.099  28.516  29.371  1.00  0.00     0.074 A 
ATOM     44  C   UNL A   1      39.057  27.511  29.413  1.00  0.00     0.031 C 
ATOM     45  C   UNL A   1      44.785  25.577  26.087  1.00  0.00     0.029 A 
ATOM     46  C   UNL A   1      44.795  26.934  26.624  1.00  0.00     0.049 A 
ATOM     47  H   UNL A   1      43.307  27.857  27.754  1.00  0.00     0.167 HD
ATOM     48  C   UNL A   1      39.998  29.748  29.930  1.00  0.00     0.034 A 
ATOM     49  C   UNL A   1      45.795  27.826  26.469  1.00  0.00     0.034 A 
ATOM     50  C   UNL A   1      41.049  30.736  29.896  1.00  0.00     0.049 A 
ATOM     51  C   UNL A   1      45.652  29.195  27.086  1.00  0.00     0.074 A 
ATOM     52  C   UNL A   1      41.071  31.993  30.476  1.00  0.00     0.029 A 
ATOM     53  N   UNL A   1      42.266  30.581  29.243  1.00  0.00    -0.354 N 
ATOM     54  N   UNL A   1      44.647  29.693  27.769  1.00  0.00    -0.248 NA
ATOM     55  C   UNL A   1      46.783  30.118  26.920  1.00  0.00     0.031 C 
ATOM     56  C   UNL A   1      42.270  32.620  30.123  1.00  0.00     0.029 A 
ATOM     57  C   UNL A   1      43.031  31.729  29.384  1.00  0.00     0.049 A 
ATOM     58  H   UNL A   1      42.543  29.775  28.751  1.00  0.00     0.167 HD
ATOM     59  C   UNL A   1      45.043  30.975  28.143  1.00  0.00     0.074 A 
ATOM     60  C   UNL A   1      46.380  31.166  27.622  1.00  0.00     0.031 C 
ATOM     61  C   UNL A   1      44.363  31.908  28.856  1.00  0.00     0.034 A 
BRANCH  48  62
ATOM     62  C   UNL A   1      38.695  30.097  30.610  1.00  0.00     0.023 A 
ATOM     63  C   UNL A   1      37.660  30.757  29.925  1.00  0.00     0.031 A 
ATOM     64  C   UNL A   1      38.492  29.787  31.967  1.00  0.00     0.131 A 
ATOM     65  C   UNL A   1      36.505  31.154  30.614  1.00  0.00     0.055 A 
ATOM     66  C   UNL A   1      37.304  30.111  32.626  1.00  0.00     0.041 A 
ATOM     67  F   UNL A   1      39.450  29.174  32.680  1.00  0.00    -0.206 F 
ATOM     68  C   UNL A   1      36.307  30.812  31.953  1.00  0.00     0.022 A 
BRANCH  65  69
ATOM     69  S   UNL A   1      35.326  32.243  29.768  1.00  0.00     0.124 S 
ATOM     70  O   UNL A   1      34.789  31.352  28.741  1.00  0.00    -0.237 OA
ATOM     71  O   UNL A   1      34.408  32.608  30.840  1.00  0.00    -0.237 OA
ATOM     72  O   UNL A   1      36.163  33.330  29.265  1.00  0.00    -0.744 OA
ENDBRANCH  65  69
ENDBRANCH  48  62
BRANCH  49  73
ATOM     73  C   UNL A   1      47.019  27.471  25.693  1.00  0.00     0.023 A 
ATOM     74  C   UNL A   1      47.152  27.843  24.345  1.00  0.00     0.031 A 
ATOM     75  C   UNL A   1      48.049  26.706  26.269  1.00  0.00     0.131 A 
ATOM     76  C   UNL A   1      48.258  27.402  23.603  1.00  0.00     0.055 A 
ATOM     77  C   UNL A   1      49.175  26.316  25.541  1.00  0.00     0.041 A 
ATOM     78  F   UNL A   1      47.976  26.328  27.555  1.00  0.00    -0.206 F 
ATOM     79  C   UNL A   1      49.277  26.652  24.195  1.00  0.00     0.022 A 
BRANCH  76  80
ATOM     80  S   UNL A   1      48.298  27.741  21.821  1.00  0.00     0.124 S 
ATOM     81  O   UNL A   1      48.513  26.408  21.270  1.00  0.00    -0.237 OA
ATOM     82  O   UNL A   1      46.980  28.325  21.595  1.00  0.00    -0.237 OA
ATOM     83  O   UNL A   1      49.420  28.666  21.676  1.00  0.00    -0.744 OA
ENDBRANCH  76  80
ENDBRANCH  49  73
BRANCH  61  84
ATOM     84  C   UNL A   1      45.082  33.200  29.157  1.00  0.00     0.023 A 
ATOM     85  C   UNL A   1      45.003  34.312  28.300  1.00  0.00     0.031 A 
ATOM     86  C   UNL A   1      45.872  33.314  30.315  1.00  0.00     0.131 A 
ATOM     87  C   UNL A   1      45.742  35.469  28.586  1.00  0.00     0.055 A 
ATOM     88  C   UNL A   1      46.558  34.488  30.625  1.00  0.00     0.041 A 
ATOM     89  F   UNL A   1      45.985  32.283  31.169  1.00  0.00    -0.206 F 
ATOM     90  C   UNL A   1      46.506  35.570  29.752  1.00  0.00     0.022 A 
BRANCH  87  91
ATOM     91  S   UNL A   1      45.763  36.814  27.368  1.00  0.00     0.124 S 
ATOM     92  O   UNL A   1      46.661  37.778  27.997  1.00  0.00    -0.237 OA
ATOM     93  O   UNL A   1      46.276  36.148  26.176  1.00  0.00    -0.237 OA
ATOM     94  O   UNL A   1      44.363  37.230  27.293  1.00  0.00    -0.744 OA
ENDBRANCH  87  91
ENDBRANCH  61  84
ENDBRANCH  35  36
ENDBRANCH  27  30
ENDBRANCH  25  26
ENDBRANCH   1  25
TORSDOF 16
ENDMDL
MODEL 2
REMARK VINA RESULT:     -12.4      5.096     10.322
REMARK SMILES Cc1ncccc1C(=O)Nc1ccccc1C(=O)NCCCCNC(=O)c1ccc(-c2c3nc(c(-c4cc(S(=O)(=O)[O-])ccc4F)c4ccc([nH]4)c(-c4cc(S(=O)(=O)[O-])ccc4F)c4nc(c(-c5cc(S(=O)(=O)[O-])ccc5F)c5ccc2[nH]5)C=C4)C=C3)cc1
REMARK SMILES IDX 22 1 21 2 20 3 19 4 17 5 18 6 16 8 11 9 12 10 13 11 15 12
REMARK SMILES IDX 14 13 10 14 8 15 9 16 7 18 1 19 2 20 3 21 4 22 6 23 5 24
REMARK SMILES IDX 23 25 24 26 25 27 26 29 27 30 28 31 89 32 29 33 88 34 30 35
REMARK SMILES IDX 31 36 32 37 82 38 33 39 87 40 81 41 83 42 34 43 86 44 80 45
REMARK SMILES IDX 79 46 35 48 67 49 47 50 66 51 48 52 51 53 65 54 84 55 49 56
REMARK SMILES IDX 50 57 64 59 85 60 52 61 36 62 37 63 45 64 38 65 44 66 46 67
REMARK SMILES IDX 43 68 39 69 40 70 41 71 42 72 68 73 69 74 77 75 70 76 76 77
REMARK SMILES IDX 78 78 75 79 71 80 72 81 73 82 74 83 53 84 54 85 62 86 55 87
REMARK SMILES IDX 61 88 63 89 60 90 56 91 57 92 58 93 59 94
REMARK H PARENT 19 7 10 17 24 28 83 47 51 58
REMARK Flexibility Score: inf
ROOT
ATOM      1  C   UNL A   1      33.278  29.420  24.476  1.00  0.00     0.023 C 
ENDROOT
BRANCH   1   2
ATOM      2  C   UNL A   1      34.019  28.142  24.076  1.00  0.00     0.023 C 
BRANCH   2   3
ATOM      3  C   UNL A   1      33.720  27.590  22.686  1.00  0.00     0.116 C 
BRANCH   3   4
ATOM      4  N   UNL A   1      32.391  27.894  22.195  1.00  0.00    -0.352 N 
ATOM      5  C   UNL A   1      31.166  27.411  22.590  1.00  0.00     0.253 C 
ATOM      6  O   UNL A   1      30.162  27.816  22.002  1.00  0.00    -0.269 OA
ATOM      7  H   UNL A   1      32.359  28.551  21.463  1.00  0.00     0.163 HD
BRANCH   5   8
ATOM      8  C   UNL A   1      31.009  26.340  23.615  1.00  0.00     0.063 A 
ATOM      9  C   UNL A   1      31.254  24.968  23.461  1.00  0.00     0.054 A 
ATOM     10  C   UNL A   1      30.809  24.081  24.464  1.00  0.00     0.027 A 
ATOM     11  C   UNL A   1      30.290  24.547  25.670  1.00  0.00     0.002 A 
ATOM     12  C   UNL A   1      30.507  26.797  24.853  1.00  0.00     0.016 A 
ATOM     13  C   UNL A   1      30.174  25.913  25.881  1.00  0.00     0.001 A 
BRANCH   9  14
ATOM     14  N   UNL A   1      31.963  24.326  22.432  1.00  0.00    -0.321 N 
ATOM     15  C   UNL A   1      33.166  23.670  22.382  1.00  0.00     0.257 C 
ATOM     16  O   UNL A   1      33.594  23.353  21.270  1.00  0.00    -0.269 OA
ATOM     17  H   UNL A   1      31.498  24.353  21.564  1.00  0.00     0.170 HD
BRANCH  15  18
ATOM     18  C   UNL A   1      33.955  23.280  23.566  1.00  0.00     0.061 A 
ATOM     19  C   UNL A   1      32.913  20.961  23.873  1.00  0.00     0.067 C 
ATOM     20  C   UNL A   1      33.858  22.062  24.244  1.00  0.00     0.050 A 
ATOM     21  N   UNL A   1      34.665  21.759  25.300  1.00  0.00    -0.261 NA
ATOM     22  C   UNL A   1      35.611  22.656  25.657  1.00  0.00     0.111 A 
ATOM     23  C   UNL A   1      34.987  24.156  23.932  1.00  0.00     0.017 A 
ATOM     24  C   UNL A   1      35.823  23.850  24.997  1.00  0.00     0.021 A 
ENDBRANCH  15  18
ENDBRANCH   9  14
ENDBRANCH   5   8
ENDBRANCH   3   4
ENDBRANCH   2   3
ENDBRANCH   1   2
BRANCH   1  25
ATOM     25  C   UNL A   1      32.734  29.486  25.901  1.00  0.00     0.116 C 
BRANCH  25  26
ATOM     26  N   UNL A   1      32.414  30.831  26.354  1.00  0.00    -0.352 N 
ATOM     27  C   UNL A   1      33.107  31.669  27.203  1.00  0.00     0.251 C 
ATOM     28  H   UNL A   1      31.572  31.200  26.000  1.00  0.00     0.163 HD
ATOM     29  O   UNL A   1      32.615  32.736  27.546  1.00  0.00    -0.269 OA
BRANCH  27  30
ATOM     30  C   UNL A   1      34.424  31.250  27.735  1.00  0.00     0.039 A 
ATOM     31  C   UNL A   1      35.386  32.227  28.000  1.00  0.00     0.014 A 
ATOM     32  C   UNL A   1      34.694  29.908  28.010  1.00  0.00     0.014 A 
ATOM     33  C   UNL A   1      36.573  31.871  28.647  1.00  0.00     0.010 A 
ATOM     34  C   UNL A   1      35.839  29.567  28.726  1.00  0.00     0.010 A 
ATOM     35  C   UNL A   1      36.783  30.548  29.071  1.00  0.00    -0.014 A 
BRANCH  35  36
ATOM     36  C   UNL A   1      37.962  30.178  29.902  1.00  0.00     0.031 A 
ATOM     37  C   UNL A   1      39.003  29.234  29.365  1.00  0.00     0.074 A 
ATOM     38  C   UNL A   1      38.053  30.630  31.171  1.00  0.00     0.049 A 
ATOM     39  N   UNL A   1      40.044  28.717  29.969  1.00  0.00    -0.248 NA
ATOM     40  C   UNL A   1      38.830  28.786  27.976  1.00  0.00     0.031 C 
ATOM     41  C   UNL A   1      37.084  31.513  31.826  1.00  0.00     0.029 A 
ATOM     42  N   UNL A   1      38.998  30.403  32.142  1.00  0.00    -0.354 N 
ATOM     43  C   UNL A   1      40.642  27.874  29.039  1.00  0.00     0.074 A 
ATOM     44  C   UNL A   1      39.810  27.901  27.854  1.00  0.00     0.031 C 
ATOM     45  C   UNL A   1      37.497  31.771  33.077  1.00  0.00     0.029 A 
ATOM     46  C   UNL A   1      38.732  31.039  33.334  1.00  0.00     0.049 A 
ATOM     47  H   UNL A   1      39.791  29.838  31.999  1.00  0.00     0.167 HD
ATOM     48  C   UNL A   1      41.791  27.162  29.153  1.00  0.00     0.034 A 
ATOM     49  C   UNL A   1      39.400  31.023  34.506  1.00  0.00     0.034 A 
ATOM     50  C   UNL A   1      42.621  27.156  30.333  1.00  0.00     0.049 A 
ATOM     51  C   UNL A   1      40.666  30.210  34.613  1.00  0.00     0.074 A 
ATOM     52  C   UNL A   1      43.831  26.514  30.535  1.00  0.00     0.029 A 
ATOM     53  N   UNL A   1      42.326  27.822  31.517  1.00  0.00    -0.354 N 
ATOM     54  N   UNL A   1      41.244  29.457  33.705  1.00  0.00    -0.248 NA
ATOM     55  C   UNL A   1      41.375  30.254  35.898  1.00  0.00     0.031 C 
ATOM     56  C   UNL A   1      44.235  26.739  31.855  1.00  0.00     0.029 A 
ATOM     57  C   UNL A   1      43.316  27.583  32.457  1.00  0.00     0.049 A 
ATOM     58  H   UNL A   1      41.530  28.381  31.666  1.00  0.00     0.167 HD
ATOM     59  C   UNL A   1      42.403  28.968  34.302  1.00  0.00     0.074 A 
ATOM     60  C   UNL A   1      42.448  29.522  35.639  1.00  0.00     0.031 C 
ATOM     61  C   UNL A   1      43.347  28.139  33.790  1.00  0.00     0.034 A 
BRANCH  48  62
ATOM     62  C   UNL A   1      42.204  26.318  27.971  1.00  0.00     0.023 A 
ATOM     63  C   UNL A   1      41.731  25.004  27.802  1.00  0.00     0.031 A 
ATOM     64  C   UNL A   1      43.100  26.822  27.011  1.00  0.00     0.131 A 
ATOM     65  C   UNL A   1      42.213  24.216  26.748  1.00  0.00     0.055 A 
ATOM     66  C   UNL A   1      43.511  26.059  25.915  1.00  0.00     0.041 A 
ATOM     67  F   UNL A   1      43.601  28.062  27.127  1.00  0.00    -0.206 F 
ATOM     68  C   UNL A   1      43.080  24.741  25.788  1.00  0.00     0.022 A 
BRANCH  65  69
ATOM     69  S   UNL A   1      41.796  22.450  26.730  1.00  0.00     0.124 S 
ATOM     70  O   UNL A   1      42.246  22.057  25.396  1.00  0.00    -0.237 OA
ATOM     71  O   UNL A   1      42.576  21.929  27.845  1.00  0.00    -0.237 OA
ATOM     72  O   UNL A   1      40.347  22.438  26.920  1.00  0.00    -0.744 OA
ENDBRANCH  65  69
ENDBRANCH  48  62
BRANCH  49  73
ATOM     73  C   UNL A   1      38.892  31.788  35.683  1.00  0.00     0.023 A 
ATOM     74  C   UNL A   1      38.280  31.129  36.761  1.00  0.00     0.031 A 
ATOM     75  C   UNL A   1      38.958  33.192  35.720  1.00  0.00     0.131 A 
ATOM     76  C   UNL A   1      37.707  31.875  37.803  1.00  0.00     0.055 A 
ATOM     77  C   UNL A   1      38.437  33.927  36.787  1.00  0.00     0.041 A 
ATOM     78  F   UNL A   1      39.538  33.872  34.719  1.00  0.00    -0.206 F 
ATOM     79  C   UNL A   1      37.793  33.269  37.830  1.00  0.00     0.022 A 
BRANCH  76  80
ATOM     80  S   UNL A   1      36.760  30.999  39.079  1.00  0.00     0.124 S 
ATOM     81  O   UNL A   1      37.709  30.972  40.186  1.00  0.00    -0.237 OA
ATOM     82  O   UNL A   1      35.602  31.871  39.246  1.00  0.00    -0.237 OA
ATOM     83  O   UNL A   1      36.478  29.704  38.464  1.00  0.00    -0.744 OA
ENDBRANCH  76  80
ENDBRANCH  49  73
BRANCH  61  84
ATOM     84  C   UNL A   1      44.535  27.827  34.666  1.00  0.00     0.023 A 
ATOM     85  C   UNL A   1      44.556  26.710  35.520  1.00  0.00     0.031 A 
ATOM     86  C   UNL A   1      45.660  28.671  34.655  1.00  0.00     0.131 A 
ATOM     87  C   UNL A   1      45.655  26.497  36.366  1.00  0.00     0.055 A 
ATOM     88  C   UNL A   1      46.775  28.421  35.456  1.00  0.00     0.041 A 
ATOM     89  F   UNL A   1      45.695  29.753  33.861  1.00  0.00    -0.206 F 
ATOM     90  C   UNL A   1      46.771  27.336  36.327  1.00  0.00     0.022 A 
BRANCH  87  91
ATOM     91  S   UNL A   1      45.570  25.155  37.584  1.00  0.00     0.124 S 
ATOM     92  O   UNL A   1      46.639  25.517  38.509  1.00  0.00    -0.237 OA
ATOM     93  O   UNL A   1      44.210  25.285  38.098  1.00  0.00    -0.237 OA
ATOM     94  O   UNL A   1      45.820  23.953  36.789  1.00  0.00    -0.744 OA
ENDBRANCH  87  91
ENDBRANCH  61  84
ENDBRANCH  35  36
ENDBRANCH  27  30
ENDBRANCH  25  26
ENDBRANCH   1  25
TORSDOF 16
ENDMDL
MODEL 3
REMARK VINA RESULT:     -12.4      0.564      7.490
REMARK SMILES Cc1ncccc1C(=O)Nc1ccccc1C(=O)NCCCCNC(=O)c1ccc(-c2c3nc(c(-c4cc(S(=O)(=O)[O-])ccc4F)c4ccc([nH]4)c(-c4cc(S(=O)(=O)[O-])ccc4F)c4nc(c(-c5cc(S(=O)(=O)[O-])ccc5F)c5ccc2[nH]5)C=C4)C=C3)cc1
REMARK SMILES IDX 22 1 21 2 20 3 19 4 17 5 18 6 16 8 11 9 12 10 13 11 15 12
REMARK SMILES IDX 14 13 10 14 8 15 9 16 7 18 1 19 2 20 3 21 4 22 6 23 5 24
REMARK SMILES IDX 23 25 24 26 25 27 26 29 27 30 28 31 89 32 29 33 88 34 30 35
REMARK SMILES IDX 31 36 32 37 82 38 33 39 87 40 81 41 83 42 34 43 86 44 80 45
REMARK SMILES IDX 79 46 35 48 67 49 47 50 66 51 48 52 51 53 65 54 84 55 49 56
REMARK SMILES IDX 50 57 64 59 85 60 52 61 36 62 37 63 45 64 38 65 44 66 46 67
REMARK SMILES IDX 43 68 39 69 40 70 41 71 42 72 68 73 69 74 77 75 70 76 76 77
REMARK SMILES IDX 78 78 75 79 71 80 72 81 73 82 74 83 53 84 54 85 62 86 55 87
REMARK SMILES IDX 61 88 63 89 60 90 56 91 57 92 58 93 59 94
REMARK H PARENT 19 7 10 17 24 28 83 47 51 58
REMARK Flexibility Score: inf
ROOT
ATOM      1  C   UNL A   1      36.088  21.466  25.892  1.00  0.00     0.023 C 
ENDROOT
BRANCH   1   2
ATOM      2  C   UNL A   1      35.373  22.793  26.158  1.00  0.00     0.023 C 
BRANCH   2   3
ATOM      3  C   UNL A   1      34.073  22.717  26.953  1.00  0.00     0.116 C 
BRANCH   3   4
ATOM      4  N   UNL A   1      33.174  21.662  26.531  1.00  0.00    -0.352 N 
ATOM      5  C   UNL A   1      32.455  21.521  25.367  1.00  0.00     0.253 C 
ATOM      6  O   UNL A   1      31.737  20.528  25.243  1.00  0.00    -0.269 OA
ATOM      7  H   UNL A   1      33.060  20.931  27.179  1.00  0.00     0.163 HD
BRANCH   5   8
ATOM      8  C   UNL A   1      32.420  22.565  24.305  1.00  0.00     0.063 A 
ATOM      9  C   UNL A   1      31.471  23.584  24.139  1.00  0.00     0.054 A 
ATOM     10  C   UNL A   1      31.462  24.318  22.935  1.00  0.00     0.027 A 
ATOM     11  C   UNL A   1      32.472  24.170  21.986  1.00  0.00     0.002 A 
ATOM     12  C   UNL A   1      33.451  22.447  23.346  1.00  0.00     0.016 A 
ATOM     13  C   UNL A   1      33.492  23.257  22.210  1.00  0.00     0.001 A 
BRANCH   9  14
ATOM     14  N   UNL A   1      30.520  24.039  25.069  1.00  0.00    -0.321 N 
ATOM     15  C   UNL A   1      30.397  25.189  25.807  1.00  0.00     0.257 C 
ATOM     16  O   UNL A   1      29.518  25.217  26.671  1.00  0.00    -0.269 OA
ATOM     17  H   UNL A   1      29.789  23.397  25.223  1.00  0.00     0.170 HD
BRANCH  15  18
ATOM     18  C   UNL A   1      31.211  26.402  25.605  1.00  0.00     0.061 A 
ATOM     19  C   UNL A   1      29.725  27.466  23.810  1.00  0.00     0.067 C 
ATOM     20  C   UNL A   1      30.918  27.439  24.715  1.00  0.00     0.050 A 
ATOM     21  N   UNL A   1      31.696  28.556  24.629  1.00  0.00    -0.261 NA
ATOM     22  C   UNL A   1      32.750  28.664  25.468  1.00  0.00     0.111 A 
ATOM     23  C   UNL A   1      32.278  26.581  26.496  1.00  0.00     0.017 A 
ATOM     24  C   UNL A   1      33.067  27.721  26.425  1.00  0.00     0.021 A 
ENDBRANCH  15  18
ENDBRANCH   9  14
ENDBRANCH   5   8
ENDBRANCH   3   4
ENDBRANCH   2   3
ENDBRANCH   1   2
BRANCH   1  25
ATOM     25  C   UNL A   1      37.375  21.527  25.074  1.00  0.00     0.116 C 
BRANCH  25  26
ATOM     26  N   UNL A   1      38.398  20.585  25.503  1.00  0.00    -0.352 N 
ATOM     27  C   UNL A   1      39.562  20.803  26.209  1.00  0.00     0.251 C 
ATOM     28  H   UNL A   1      38.233  19.647  25.250  1.00  0.00     0.163 HD
ATOM     29  O   UNL A   1      40.352  19.884  26.385  1.00  0.00    -0.269 OA
BRANCH  27  30
ATOM     30  C   UNL A   1      39.877  22.160  26.708  1.00  0.00     0.039 A 
ATOM     31  C   UNL A   1      40.865  22.309  27.683  1.00  0.00     0.014 A 
ATOM     32  C   UNL A   1      39.230  23.284  26.188  1.00  0.00     0.014 A 
ATOM     33  C   UNL A   1      41.285  23.590  28.053  1.00  0.00     0.010 A 
ATOM     34  C   UNL A   1      39.705  24.557  26.497  1.00  0.00     0.010 A 
ATOM     35  C   UNL A   1      40.752  24.724  27.418  1.00  0.00    -0.014 A 
BRANCH  35  36
ATOM     36  C   UNL A   1      41.296  26.086  27.677  1.00  0.00     0.031 A 
ATOM     37  C   UNL A   1      42.687  26.446  27.231  1.00  0.00     0.074 A 
ATOM     38  C   UNL A   1      40.565  26.973  28.385  1.00  0.00     0.049 A 
ATOM     39  N   UNL A   1      43.370  27.541  27.450  1.00  0.00    -0.248 NA
ATOM     40  C   UNL A   1      43.417  25.425  26.466  1.00  0.00     0.031 C 
ATOM     41  C   UNL A   1      39.221  26.729  28.916  1.00  0.00     0.029 A 
ATOM     42  N   UNL A   1      40.850  28.254  28.792  1.00  0.00    -0.354 N 
ATOM     43  C   UNL A   1      44.614  27.337  26.863  1.00  0.00     0.074 A 
ATOM     44  C   UNL A   1      44.610  25.988  26.335  1.00  0.00     0.031 C 
ATOM     45  C   UNL A   1      38.792  27.830  29.554  1.00  0.00     0.029 A 
ATOM     46  C   UNL A   1      39.842  28.842  29.522  1.00  0.00     0.049 A 
ATOM     47  H   UNL A   1      41.697  28.708  28.582  1.00  0.00     0.167 HD
ATOM     48  C   UNL A   1      45.654  28.200  26.752  1.00  0.00     0.034 A 
ATOM     49  C   UNL A   1      39.775  30.055  30.109  1.00  0.00     0.034 A 
ATOM     50  C   UNL A   1      45.640  29.547  27.267  1.00  0.00     0.049 A 
ATOM     51  C   UNL A   1      40.951  30.991  29.986  1.00  0.00     0.074 A 
ATOM     52  C   UNL A   1      46.618  30.522  27.163  1.00  0.00     0.029 A 
ATOM     53  N   UNL A   1      44.596  30.113  27.989  1.00  0.00    -0.354 N 
ATOM     54  N   UNL A   1      42.102  30.797  29.384  1.00  0.00    -0.248 NA
ATOM     55  C   UNL A   1      40.815  32.312  30.613  1.00  0.00     0.031 C 
ATOM     56  C   UNL A   1      46.193  31.650  27.872  1.00  0.00     0.029 A 
ATOM     57  C   UNL A   1      44.919  31.410  28.358  1.00  0.00     0.049 A 
ATOM     58  H   UNL A   1      43.751  29.659  28.208  1.00  0.00     0.167 HD
ATOM     59  C   UNL A   1      42.810  31.987  29.531  1.00  0.00     0.074 A 
ATOM     60  C   UNL A   1      41.953  32.894  30.265  1.00  0.00     0.031 C 
ATOM     61  C   UNL A   1      44.056  32.303  29.094  1.00  0.00     0.034 A 
BRANCH  48  62
ATOM     62  C   UNL A   1      46.900  27.700  26.060  1.00  0.00     0.023 A 
ATOM     63  C   UNL A   1      47.152  27.979  24.704  1.00  0.00     0.031 A 
ATOM     64  C   UNL A   1      47.838  26.916  26.755  1.00  0.00     0.131 A 
ATOM     65  C   UNL A   1      48.267  27.415  24.069  1.00  0.00     0.055 A 
ATOM     66  C   UNL A   1      48.991  26.427  26.136  1.00  0.00     0.041 A 
ATOM     67  F   UNL A   1      47.644  26.601  28.045  1.00  0.00    -0.206 F 
ATOM     68  C   UNL A   1      49.203  26.663  24.781  1.00  0.00     0.022 A 
BRANCH  65  69
ATOM     69  S   UNL A   1      48.402  27.566  22.266  1.00  0.00     0.124 S 
ATOM     70  O   UNL A   1      49.552  28.458  22.132  1.00  0.00    -0.237 OA
ATOM     71  O   UNL A   1      48.613  26.186  21.847  1.00  0.00    -0.237 OA
ATOM     72  O   UNL A   1      47.120  28.149  21.874  1.00  0.00    -0.744 OA
ENDBRANCH  65  69
ENDBRANCH  48  62
BRANCH  49  73
ATOM     73  C   UNL A   1      38.562  30.462  30.878  1.00  0.00     0.023 A 
ATOM     74  C   UNL A   1      37.510  31.151  30.253  1.00  0.00     0.031 A 
ATOM     75  C   UNL A   1      38.461  30.220  32.259  1.00  0.00     0.131 A 
ATOM     76  C   UNL A   1      36.432  31.624  31.017  1.00  0.00     0.055 A 
ATOM     77  C   UNL A   1      37.359  30.644  33.005  1.00  0.00     0.041 A 
ATOM     78  F   UNL A   1      39.435  29.560  32.906  1.00  0.00    -0.206 F 
ATOM     79  C   UNL A   1      36.343  31.364  32.386  1.00  0.00     0.022 A 
BRANCH  76  80
ATOM     80  S   UNL A   1      35.191  32.673  30.209  1.00  0.00     0.124 S 
ATOM     81  O   UNL A   1      34.653  31.772  29.197  1.00  0.00    -0.237 OA
ATOM     82  O   UNL A   1      34.301  32.997  31.320  1.00  0.00    -0.237 OA
ATOM     83  O   UNL A   1      35.975  33.795  29.696  1.00  0.00    -0.744 OA
ENDBRANCH  76  80
ENDBRANCH  49  73
BRANCH  61  84
ATOM     84  C   UNL A   1      44.539  33.708  29.357  1.00  0.00     0.023 A 
ATOM     85  C   UNL A   1      44.244  34.771  28.485  1.00  0.00     0.031 A 
ATOM     86  C   UNL A   1      45.318  33.984  30.494  1.00  0.00     0.131 A 
ATOM     87  C   UNL A   1      44.770  36.047  28.735  1.00  0.00     0.055 A 
ATOM     88  C   UNL A   1      45.790  35.268  30.769  1.00  0.00     0.041 A 
ATOM     89  F   UNL A   1      45.633  33.007  31.361  1.00  0.00    -0.206 F 
ATOM     90  C   UNL A   1      45.527  36.306  29.881  1.00  0.00     0.022 A 
BRANCH  87  91
ATOM     91  S   UNL A   1      44.524  37.350  27.496  1.00  0.00     0.124 S 
ATOM     92  O   UNL A   1      45.720  37.212  26.670  1.00  0.00    -0.237 OA
ATOM     93  O   UNL A   1      43.267  36.952  26.870  1.00  0.00    -0.237 OA
ATOM     94  O   UNL A   1      44.460  38.574  28.293  1.00  0.00    -0.744 OA
ENDBRANCH  87  91
ENDBRANCH  61  84
ENDBRANCH  35  36
ENDBRANCH  27  30
ENDBRANCH  25  26
ENDBRANCH   1  25
TORSDOF 16
ENDMDL
