MODEL 1
REMARK VINA RESULT:     -11.5      0.000      0.000
REMARK SMILES O=C(NCCCCNC(=O)c1csc(S(=O)(=O)Nc2ccc(F)cc2)c1)c1ccc(-c2c3nc(c(-c4cc(S(=O)(=O)[O-])ccc4F)c4ccc([nH]4)c(-c4cc(S(=O)(=O)[O-])ccc4F)c4nc(c(-c5cc(S(=O)(=O)[O-])ccc5F)c5ccc2[nH]5)C=C4)C=C3)cc1
REMARK SMILES IDX 5 1 4 2 3 3 1 4 2 5 27 7 28 8 89 9 29 10 88 11 30 12 31 13
REMARK SMILES IDX 32 14 82 15 33 16 87 17 81 18 83 19 34 20 86 21 80 22 79 23
REMARK SMILES IDX 35 25 67 26 47 27 66 28 48 29 51 30 65 31 84 32 49 33 50 34
REMARK SMILES IDX 64 36 85 37 52 38 36 39 37 40 45 41 38 42 44 43 46 44 43 45
REMARK SMILES IDX 39 46 40 47 41 48 42 49 68 50 69 51 77 52 70 53 76 54 78 55
REMARK SMILES IDX 75 56 71 57 72 58 73 59 74 60 53 61 54 62 62 63 55 64 61 65
REMARK SMILES IDX 63 66 60 67 56 68 57 69 58 70 59 71 6 72 7 73 8 74 9 75
REMARK SMILES IDX 10 77 11 78 12 79 26 80 13 81 14 82 15 83 16 84 17 85 18 86
REMARK SMILES IDX 19 88 20 89 25 90 21 91 24 92 22 93 23 94
REMARK H PARENT 3 6 83 24 51 35 8 76 18 87
REMARK Flexibility Score: inf
ROOT
ATOM      1  C   UNL A   1      31.428  32.248  26.577  1.00  0.00     0.023 C 
ENDROOT
BRANCH   1   2
ATOM      2  C   UNL A   1      32.617  32.875  27.295  1.00  0.00     0.116 C 
BRANCH   2   3
ATOM      3  N   UNL A   1      32.392  34.253  27.700  1.00  0.00    -0.352 N 
ATOM      4  O   UNL A   1      32.632  36.127  28.925  1.00  0.00    -0.269 OA
ATOM      5  C   UNL A   1      33.030  34.994  28.666  1.00  0.00     0.251 C 
ATOM      6  H   UNL A   1      31.679  34.724  27.210  1.00  0.00     0.163 HD
BRANCH   5   7
ATOM      7  C   UNL A   1      34.170  34.418  29.417  1.00  0.00     0.039 A 
ATOM      8  C   UNL A   1      35.486  34.630  29.003  1.00  0.00     0.014 A 
ATOM      9  C   UNL A   1      33.910  33.649  30.556  1.00  0.00     0.014 A 
ATOM     10  C   UNL A   1      36.528  33.957  29.637  1.00  0.00     0.010 A 
ATOM     11  C   UNL A   1      34.966  33.033  31.238  1.00  0.00     0.010 A 
ATOM     12  C   UNL A   1      36.281  33.156  30.764  1.00  0.00    -0.014 A 
BRANCH  12  13
ATOM     13  C   UNL A   1      37.417  32.489  31.450  1.00  0.00     0.031 A 
ATOM     14  C   UNL A   1      38.168  31.363  30.793  1.00  0.00     0.074 A 
ATOM     15  C   UNL A   1      37.798  32.938  32.663  1.00  0.00     0.049 A 
ATOM     16  N   UNL A   1      39.176  30.667  31.254  1.00  0.00    -0.248 NA
ATOM     17  C   UNL A   1      37.731  30.964  29.446  1.00  0.00     0.031 C 
ATOM     18  C   UNL A   1      37.154  34.034  33.394  1.00  0.00     0.029 A 
ATOM     19  N   UNL A   1      38.827  32.552  33.483  1.00  0.00    -0.354 N 
ATOM     20  C   UNL A   1      39.488  29.741  30.265  1.00  0.00     0.074 A 
ATOM     21  C   UNL A   1      38.544  29.949  29.185  1.00  0.00     0.031 C 
ATOM     22  C   UNL A   1      37.835  34.265  34.526  1.00  0.00     0.029 A 
ATOM     23  C   UNL A   1      38.919  33.295  34.636  1.00  0.00     0.049 A 
ATOM     24  H   UNL A   1      39.441  31.813  33.267  1.00  0.00     0.167 HD
ATOM     25  C   UNL A   1      40.472  28.808  30.258  1.00  0.00     0.034 A 
ATOM     26  C   UNL A   1      39.767  33.199  35.678  1.00  0.00     0.034 A 
ATOM     27  C   UNL A   1      41.414  28.619  31.334  1.00  0.00     0.049 A 
ATOM     28  C   UNL A   1      40.818  32.126  35.666  1.00  0.00     0.074 A 
ATOM     29  C   UNL A   1      42.459  27.714  31.411  1.00  0.00     0.029 A 
ATOM     30  N   UNL A   1      41.428  29.344  32.517  1.00  0.00    -0.354 N 
ATOM     31  N   UNL A   1      41.070  31.234  34.738  1.00  0.00    -0.248 NA
ATOM     32  C   UNL A   1      41.686  32.036  36.846  1.00  0.00     0.031 C 
ATOM     33  C   UNL A   1      43.071  27.856  32.662  1.00  0.00     0.029 A 
ATOM     34  C   UNL A   1      42.446  28.889  33.340  1.00  0.00     0.049 A 
ATOM     35  H   UNL A   1      40.806  30.074  32.739  1.00  0.00     0.167 HD
ATOM     36  C   UNL A   1      42.130  30.478  35.221  1.00  0.00     0.074 A 
ATOM     37  C   UNL A   1      42.479  31.025  36.516  1.00  0.00     0.031 C 
ATOM     38  C   UNL A   1      42.761  29.425  34.642  1.00  0.00     0.034 A 
BRANCH  25  39
ATOM     39  C   UNL A   1      40.560  27.891  29.066  1.00  0.00     0.023 A 
ATOM     40  C   UNL A   1      41.492  28.106  28.037  1.00  0.00     0.031 A 
ATOM     41  C   UNL A   1      39.717  26.770  28.976  1.00  0.00     0.131 A 
ATOM     42  C   UNL A   1      41.534  27.229  26.941  1.00  0.00     0.055 A 
ATOM     43  C   UNL A   1      39.802  25.870  27.913  1.00  0.00     0.041 A 
ATOM     44  F   UNL A   1      38.799  26.529  29.925  1.00  0.00    -0.206 F 
ATOM     45  C   UNL A   1      40.712  26.100  26.884  1.00  0.00     0.022 A 
BRANCH  42  46
ATOM     46  S   UNL A   1      42.635  27.617  25.554  1.00  0.00     0.124 S 
ATOM     47  O   UNL A   1      43.848  28.036  26.251  1.00  0.00    -0.237 OA
ATOM     48  O   UNL A   1      42.715  26.346  24.844  1.00  0.00    -0.237 OA
ATOM     49  O   UNL A   1      41.931  28.682  24.844  1.00  0.00    -0.744 OA
ENDBRANCH  42  46
ENDBRANCH  25  39
BRANCH  26  50
ATOM     50  C   UNL A   1      39.624  34.124  36.833  1.00  0.00     0.023 A 
ATOM     51  C   UNL A   1      39.085  33.683  38.050  1.00  0.00     0.031 A 
ATOM     52  C   UNL A   1      40.047  35.462  36.736  1.00  0.00     0.131 A 
ATOM     53  C   UNL A   1      38.970  34.579  39.124  1.00  0.00     0.055 A 
ATOM     54  C   UNL A   1      39.964  36.338  37.818  1.00  0.00     0.041 A 
ATOM     55  F   UNL A   1      40.579  35.923  35.593  1.00  0.00    -0.206 F 
ATOM     56  C   UNL A   1      39.418  35.899  39.019  1.00  0.00     0.022 A 
BRANCH  53  57
ATOM     57  S   UNL A   1      38.209  34.001  40.665  1.00  0.00     0.124 S 
ATOM     58  O   UNL A   1      37.019  33.318  40.171  1.00  0.00    -0.237 OA
ATOM     59  O   UNL A   1      39.256  33.148  41.221  1.00  0.00    -0.237 OA
ATOM     60  O   UNL A   1      37.960  35.236  41.405  1.00  0.00    -0.744 OA
ENDBRANCH  53  57
ENDBRANCH  26  50
BRANCH  38  61
ATOM     61  C   UNL A   1      43.900  28.808  35.405  1.00  0.00     0.023 A 
ATOM     62  C   UNL A   1      43.697  27.709  36.255  1.00  0.00     0.031 A 
ATOM     63  C   UNL A   1      45.203  29.315  35.263  1.00  0.00     0.131 A 
ATOM     64  C   UNL A   1      44.783  27.168  36.960  1.00  0.00     0.055 A 
ATOM     65  C   UNL A   1      46.286  28.745  35.934  1.00  0.00     0.041 A 
ATOM     66  F   UNL A   1      45.444  30.363  34.461  1.00  0.00    -0.206 F 
ATOM     67  C   UNL A   1      46.078  27.669  36.793  1.00  0.00     0.022 A 
BRANCH  64  68
ATOM     68  S   UNL A   1      44.479  25.813  38.127  1.00  0.00     0.124 S 
ATOM     69  O   UNL A   1      44.418  26.521  39.401  1.00  0.00    -0.237 OA
ATOM     70  O   UNL A   1      43.218  25.257  37.646  1.00  0.00    -0.237 OA
ATOM     71  O   UNL A   1      45.641  24.944  37.954  1.00  0.00    -0.744 OA
ENDBRANCH  64  68
ENDBRANCH  38  61
ENDBRANCH  12  13
ENDBRANCH   5   7
ENDBRANCH   2   3
ENDBRANCH   1   2
BRANCH   1  72
ATOM     72  C   UNL A   1      31.417  30.723  26.501  1.00  0.00     0.023 C 
BRANCH  72  73
ATOM     73  C   UNL A   1      32.402  30.092  25.519  1.00  0.00     0.116 C 
BRANCH  73  74
ATOM     74  N   UNL A   1      33.674  29.729  26.122  1.00  0.00    -0.352 N 
ATOM     75  C   UNL A   1      34.247  28.499  26.334  1.00  0.00     0.252 C 
ATOM     76  H   UNL A   1      34.215  30.492  26.430  1.00  0.00     0.163 HD
ATOM     77  O   UNL A   1      35.301  28.430  26.961  1.00  0.00    -0.269 OA
BRANCH  75  78
ATOM     78  C   UNL A   1      33.549  27.298  25.897  1.00  0.00     0.051 A 
ATOM     79  C   UNL A   1      32.435  26.739  26.489  1.00  0.00     0.080 A 
ATOM     80  C   UNL A   1      33.899  26.563  24.717  1.00  0.00     0.048 A 
ATOM     81  S   UNL A   1      32.025  25.226  25.807  1.00  0.00    -0.130 S 
ATOM     82  C   UNL A   1      33.306  25.317  24.664  1.00  0.00     0.141 A 
BRANCH  82  83
ATOM     83  S   UNL A   1      33.544  23.850  23.685  1.00  0.00     0.271 S 
ATOM     84  O   UNL A   1      32.222  23.444  23.264  1.00  0.00    -0.200 OA
ATOM     85  O   UNL A   1      34.561  24.214  22.716  1.00  0.00    -0.200 OA
BRANCH  83  86
ATOM     86  N   UNL A   1      34.195  22.536  24.529  1.00  0.00    -0.279 N 
ATOM     87  H   UNL A   1      33.639  21.740  24.690  1.00  0.00     0.180 HD
BRANCH  86  88
ATOM     88  C   UNL A   1      35.530  22.562  25.009  1.00  0.00     0.049 A 
ATOM     89  C   UNL A   1      35.996  23.631  25.781  1.00  0.00     0.030 A 
ATOM     90  C   UNL A   1      36.389  21.514  24.664  1.00  0.00     0.030 A 
ATOM     91  C   UNL A   1      37.337  23.667  26.173  1.00  0.00     0.041 A 
ATOM     92  C   UNL A   1      37.723  21.547  25.068  1.00  0.00     0.041 A 
ATOM     93  C   UNL A   1      38.188  22.627  25.810  1.00  0.00     0.123 A 
ATOM     94  F   UNL A   1      39.474  22.665  26.177  1.00  0.00    -0.207 F 
ENDBRANCH  86  88
ENDBRANCH  83  86
ENDBRANCH  82  83
ENDBRANCH  75  78
ENDBRANCH  73  74
ENDBRANCH  72  73
ENDBRANCH   1  72
TORSDOF 17
ENDMDL
MODEL 2
REMARK VINA RESULT:     -11.4      3.843      8.990
REMARK SMILES O=C(NCCCCNC(=O)c1csc(S(=O)(=O)Nc2ccc(F)cc2)c1)c1ccc(-c2c3nc(c(-c4cc(S(=O)(=O)[O-])ccc4F)c4ccc([nH]4)c(-c4cc(S(=O)(=O)[O-])ccc4F)c4nc(c(-c5cc(S(=O)(=O)[O-])ccc5F)c5ccc2[nH]5)C=C4)C=C3)cc1
REMARK SMILES IDX 5 1 4 2 3 3 1 4 2 5 27 7 28 8 89 9 29 10 88 11 30 12 31 13
REMARK SMILES IDX 32 14 82 15 33 16 87 17 81 18 83 19 34 20 86 21 80 22 79 23
REMARK SMILES IDX 35 25 67 26 47 27 66 28 48 29 51 30 65 31 84 32 49 33 50 34
REMARK SMILES IDX 64 36 85 37 52 38 36 39 37 40 45 41 38 42 44 43 46 44 43 45
REMARK SMILES IDX 39 46 40 47 41 48 42 49 68 50 69 51 77 52 70 53 76 54 78 55
REMARK SMILES IDX 75 56 71 57 72 58 73 59 74 60 53 61 54 62 62 63 55 64 61 65
REMARK SMILES IDX 63 66 60 67 56 68 57 69 58 70 59 71 6 72 7 73 8 74 9 75
REMARK SMILES IDX 10 77 11 78 12 79 26 80 13 81 14 82 15 83 16 84 17 85 18 86
REMARK SMILES IDX 19 88 20 89 25 90 21 91 24 92 22 93 23 94
REMARK H PARENT 3 6 83 24 51 35 8 76 18 87
REMARK Flexibility Score: inf
ROOT
ATOM      1  C   UNL A   1      33.818  28.009  25.662  1.00  0.00     0.023 C 
ENDROOT
BRANCH   1   2
ATOM      2  C   UNL A   1      33.542  28.329  27.126  1.00  0.00     0.116 C 
BRANCH   2   3
ATOM      3  N   UNL A   1      33.464  29.755  27.404  1.00  0.00    -0.352 N 
ATOM      4  O   UNL A   1      34.107  31.752  28.220  1.00  0.00    -0.269 OA
ATOM      5  C   UNL A   1      34.396  30.582  27.985  1.00  0.00     0.251 C 
ATOM      6  H   UNL A   1      32.622  30.190  27.137  1.00  0.00     0.163 HD
BRANCH   5   7
ATOM      7  C   UNL A   1      35.730  30.057  28.360  1.00  0.00     0.039 A 
ATOM      8  C   UNL A   1      35.956  29.492  29.616  1.00  0.00     0.014 A 
ATOM      9  C   UNL A   1      36.773  30.138  27.432  1.00  0.00     0.014 A 
ATOM     10  C   UNL A   1      37.249  29.143  29.996  1.00  0.00     0.010 A 
ATOM     11  C   UNL A   1      38.059  29.717  27.789  1.00  0.00     0.010 A 
ATOM     12  C   UNL A   1      38.314  29.247  29.086  1.00  0.00    -0.014 A 
BRANCH  12  13
ATOM     13  C   UNL A   1      39.675  28.822  29.502  1.00  0.00     0.031 A 
ATOM     14  C   UNL A   1      40.410  29.539  30.603  1.00  0.00     0.074 A 
ATOM     15  C   UNL A   1      40.232  27.749  28.905  1.00  0.00     0.049 A 
ATOM     16  N   UNL A   1      41.604  29.304  31.084  1.00  0.00    -0.248 NA
ATOM     17  C   UNL A   1      39.717  30.666  31.246  1.00  0.00     0.031 C 
ATOM     18  C   UNL A   1      39.609  26.965  27.835  1.00  0.00     0.029 A 
ATOM     19  N   UNL A   1      41.429  27.117  29.125  1.00  0.00    -0.354 N 
ATOM     20  C   UNL A   1      41.814  30.257  32.074  1.00  0.00     0.074 A 
ATOM     21  C   UNL A   1      40.630  31.090  32.110  1.00  0.00     0.031 C 
ATOM     22  C   UNL A   1      40.404  25.928  27.530  1.00  0.00     0.029 A 
ATOM     23  C   UNL A   1      41.620  26.011  28.332  1.00  0.00     0.049 A 
ATOM     24  H   UNL A   1      42.089  27.426  29.789  1.00  0.00     0.167 HD
ATOM     25  C   UNL A   1      42.893  30.416  32.880  1.00  0.00     0.034 A 
ATOM     26  C   UNL A   1      42.664  25.164  28.242  1.00  0.00     0.034 A 
ATOM     27  C   UNL A   1      44.062  29.573  32.843  1.00  0.00     0.049 A 
ATOM     28  C   UNL A   1      43.866  25.393  29.113  1.00  0.00     0.074 A 
ATOM     29  C   UNL A   1      45.197  29.643  33.633  1.00  0.00     0.029 A 
ATOM     30  N   UNL A   1      44.248  28.506  31.975  1.00  0.00    -0.354 N 
ATOM     31  N   UNL A   1      44.060  26.324  30.016  1.00  0.00    -0.248 NA
ATOM     32  C   UNL A   1      44.994  24.468  28.943  1.00  0.00     0.031 C 
ATOM     33  C   UNL A   1      46.090  28.653  33.206  1.00  0.00     0.029 A 
ATOM     34  C   UNL A   1      45.488  27.928  32.191  1.00  0.00     0.049 A 
ATOM     35  H   UNL A   1      43.594  28.205  31.304  1.00  0.00     0.167 HD
ATOM     36  C   UNL A   1      45.332  26.095  30.525  1.00  0.00     0.074 A 
ATOM     37  C   UNL A   1      45.855  24.931  29.839  1.00  0.00     0.031 C 
ATOM     38  C   UNL A   1      46.007  26.787  31.478  1.00  0.00     0.034 A 
BRANCH  25  39
ATOM     39  C   UNL A   1      42.879  31.572  33.847  1.00  0.00     0.023 A 
ATOM     40  C   UNL A   1      42.362  31.441  35.146  1.00  0.00     0.031 A 
ATOM     41  C   UNL A   1      43.421  32.813  33.468  1.00  0.00     0.131 A 
ATOM     42  C   UNL A   1      42.365  32.547  36.012  1.00  0.00     0.055 A 
ATOM     43  C   UNL A   1      43.471  33.892  34.352  1.00  0.00     0.041 A 
ATOM     44  F   UNL A   1      43.912  32.995  32.233  1.00  0.00    -0.206 F 
ATOM     45  C   UNL A   1      42.936  33.764  35.631  1.00  0.00     0.022 A 
BRANCH  42  46
ATOM     46  S   UNL A   1      41.550  32.395  37.625  1.00  0.00     0.124 S 
ATOM     47  O   UNL A   1      42.404  31.415  38.293  1.00  0.00    -0.237 OA
ATOM     48  O   UNL A   1      41.614  33.756  38.144  1.00  0.00    -0.237 OA
ATOM     49  O   UNL A   1      40.210  31.919  37.289  1.00  0.00    -0.744 OA
ENDBRANCH  42  46
ENDBRANCH  25  39
BRANCH  26  50
ATOM     50  C   UNL A   1      42.626  24.049  27.260  1.00  0.00     0.023 A 
ATOM     51  C   UNL A   1      42.020  22.825  27.577  1.00  0.00     0.031 A 
ATOM     52  C   UNL A   1      43.182  24.205  25.977  1.00  0.00     0.131 A 
ATOM     53  C   UNL A   1      41.995  21.794  26.625  1.00  0.00     0.055 A 
ATOM     54  C   UNL A   1      43.122  23.191  25.022  1.00  0.00     0.041 A 
ATOM     55  F   UNL A   1      43.762  25.364  25.627  1.00  0.00    -0.206 F 
ATOM     56  C   UNL A   1      42.530  21.974  25.346  1.00  0.00     0.022 A 
BRANCH  53  57
ATOM     57  S   UNL A   1      41.263  20.200  27.084  1.00  0.00     0.124 S 
ATOM     58  O   UNL A   1      40.226  20.046  26.070  1.00  0.00    -0.237 OA
ATOM     59  O   UNL A   1      42.405  19.298  26.978  1.00  0.00    -0.237 OA
ATOM     60  O   UNL A   1      40.780  20.428  28.445  1.00  0.00    -0.744 OA
ENDBRANCH  53  57
ENDBRANCH  26  50
BRANCH  38  61
ATOM     61  C   UNL A   1      47.379  26.290  31.839  1.00  0.00     0.023 A 
ATOM     62  C   UNL A   1      48.513  26.687  31.112  1.00  0.00     0.031 A 
ATOM     63  C   UNL A   1      47.553  25.425  32.933  1.00  0.00     0.131 A 
ATOM     64  C   UNL A   1      49.776  26.192  31.472  1.00  0.00     0.055 A 
ATOM     65  C   UNL A   1      48.816  24.970  33.312  1.00  0.00     0.041 A 
ATOM     66  F   UNL A   1      46.498  25.020  33.657  1.00  0.00    -0.206 F 
ATOM     67  C   UNL A   1      49.936  25.349  32.576  1.00  0.00     0.022 A 
BRANCH  64  68
ATOM     68  S   UNL A   1      51.211  26.641  30.457  1.00  0.00     0.124 S 
ATOM     69  O   UNL A   1      52.319  26.146  31.268  1.00  0.00    -0.237 OA
ATOM     70  O   UNL A   1      50.959  25.920  29.214  1.00  0.00    -0.237 OA
ATOM     71  O   UNL A   1      51.117  28.096  30.356  1.00  0.00    -0.744 OA
ENDBRANCH  64  68
ENDBRANCH  38  61
ENDBRANCH  12  13
ENDBRANCH   5   7
ENDBRANCH   2   3
ENDBRANCH   1   2
BRANCH   1  72
ATOM     72  C   UNL A   1      33.545  29.134  24.666  1.00  0.00     0.023 C 
BRANCH  72  73
ATOM     73  C   UNL A   1      33.469  28.726  23.196  1.00  0.00     0.116 C 
BRANCH  73  74
ATOM     74  N   UNL A   1      32.144  28.875  22.617  1.00  0.00    -0.352 N 
ATOM     75  C   UNL A   1      31.076  28.012  22.591  1.00  0.00     0.252 C 
ATOM     76  H   UNL A   1      31.986  29.738  22.169  1.00  0.00     0.163 HD
ATOM     77  O   UNL A   1      30.075  28.319  21.947  1.00  0.00    -0.269 OA
BRANCH  75  78
ATOM     78  C   UNL A   1      31.185  26.715  23.243  1.00  0.00     0.051 A 
ATOM     79  C   UNL A   1      30.683  26.379  24.483  1.00  0.00     0.080 A 
ATOM     80  C   UNL A   1      31.784  25.566  22.628  1.00  0.00     0.048 A 
ATOM     81  S   UNL A   1      31.182  24.825  24.989  1.00  0.00    -0.130 S 
ATOM     82  C   UNL A   1      32.041  24.550  23.527  1.00  0.00     0.141 A 
BRANCH  82  83
ATOM     83  S   UNL A   1      33.003  23.053  23.491  1.00  0.00     0.271 S 
ATOM     84  O   UNL A   1      33.004  22.559  24.850  1.00  0.00    -0.200 OA
ATOM     85  O   UNL A   1      32.431  22.271  22.410  1.00  0.00    -0.200 OA
BRANCH  83  86
ATOM     86  N   UNL A   1      34.626  23.267  23.065  1.00  0.00    -0.279 N 
ATOM     87  H   UNL A   1      34.859  23.471  22.131  1.00  0.00     0.180 HD
BRANCH  86  88
ATOM     88  C   UNL A   1      35.659  23.156  24.033  1.00  0.00     0.049 A 
ATOM     89  C   UNL A   1      35.810  24.118  25.036  1.00  0.00     0.030 A 
ATOM     90  C   UNL A   1      36.551  22.083  23.943  1.00  0.00     0.030 A 
ATOM     91  C   UNL A   1      36.883  24.023  25.927  1.00  0.00     0.041 A 
ATOM     92  C   UNL A   1      37.613  21.985  24.841  1.00  0.00     0.041 A 
ATOM     93  C   UNL A   1      37.776  22.961  25.819  1.00  0.00     0.123 A 
ATOM     94  F   UNL A   1      38.809  22.875  26.665  1.00  0.00    -0.207 F 
ENDBRANCH  86  88
ENDBRANCH  83  86
ENDBRANCH  82  83
ENDBRANCH  75  78
ENDBRANCH  73  74
ENDBRANCH  72  73
ENDBRANCH   1  72
TORSDOF 17
ENDMDL
MODEL 3
REMARK VINA RESULT:     -11.4      1.694      2.082
REMARK SMILES O=C(NCCCCNC(=O)c1csc(S(=O)(=O)Nc2ccc(F)cc2)c1)c1ccc(-c2c3nc(c(-c4cc(S(=O)(=O)[O-])ccc4F)c4ccc([nH]4)c(-c4cc(S(=O)(=O)[O-])ccc4F)c4nc(c(-c5cc(S(=O)(=O)[O-])ccc5F)c5ccc2[nH]5)C=C4)C=C3)cc1
REMARK SMILES IDX 5 1 4 2 3 3 1 4 2 5 27 7 28 8 89 9 29 10 88 11 30 12 31 13
REMARK SMILES IDX 32 14 82 15 33 16 87 17 81 18 83 19 34 20 86 21 80 22 79 23
REMARK SMILES IDX 35 25 67 26 47 27 66 28 48 29 51 30 65 31 84 32 49 33 50 34
REMARK SMILES IDX 64 36 85 37 52 38 36 39 37 40 45 41 38 42 44 43 46 44 43 45
REMARK SMILES IDX 39 46 40 47 41 48 42 49 68 50 69 51 77 52 70 53 76 54 78 55
REMARK SMILES IDX 75 56 71 57 72 58 73 59 74 60 53 61 54 62 62 63 55 64 61 65
REMARK SMILES IDX 63 66 60 67 56 68 57 69 58 70 59 71 6 72 7 73 8 74 9 75
REMARK SMILES IDX 10 77 11 78 12 79 26 80 13 81 14 82 15 83 16 84 17 85 18 86
REMARK SMILES IDX 19 88 20 89 25 90 21 91 24 92 22 93 23 94
REMARK H PARENT 3 6 83 24 51 35 8 76 18 87
REMARK Flexibility Score: inf
ROOT
ATOM      1  C   UNL A   1      31.734  31.492  26.550  1.00  0.00     0.023 C 
ENDROOT
BRANCH   1   2
ATOM      2  C   UNL A   1      32.941  32.253  27.086  1.00  0.00     0.116 C 
BRANCH   2   3
ATOM      3  N   UNL A   1      32.635  33.615  27.495  1.00  0.00    -0.352 N 
ATOM      4  O   UNL A   1      32.744  35.484  28.745  1.00  0.00    -0.269 OA
ATOM      5  C   UNL A   1      33.205  34.375  28.489  1.00  0.00     0.251 C 
ATOM      6  H   UNL A   1      31.915  34.055  26.988  1.00  0.00     0.163 HD
BRANCH   5   7
ATOM      7  C   UNL A   1      34.349  33.848  29.270  1.00  0.00     0.039 A 
ATOM      8  C   UNL A   1      35.659  34.234  28.979  1.00  0.00     0.014 A 
ATOM      9  C   UNL A   1      34.099  32.948  30.310  1.00  0.00     0.014 A 
ATOM     10  C   UNL A   1      36.722  33.612  29.628  1.00  0.00     0.010 A 
ATOM     11  C   UNL A   1      35.168  32.381  31.013  1.00  0.00     0.010 A 
ATOM     12  C   UNL A   1      36.489  32.683  30.655  1.00  0.00    -0.014 A 
BRANCH  12  13
ATOM     13  C   UNL A   1      37.643  32.072  31.364  1.00  0.00     0.031 A 
ATOM     14  C   UNL A   1      38.482  31.008  30.708  1.00  0.00     0.074 A 
ATOM     15  C   UNL A   1      37.959  32.517  32.597  1.00  0.00     0.049 A 
ATOM     16  N   UNL A   1      39.517  30.365  31.187  1.00  0.00    -0.248 NA
ATOM     17  C   UNL A   1      38.112  30.612  29.341  1.00  0.00     0.031 C 
ATOM     18  C   UNL A   1      37.227  33.555  33.328  1.00  0.00     0.029 A 
ATOM     19  N   UNL A   1      38.984  32.177  33.441  1.00  0.00    -0.354 N 
ATOM     20  C   UNL A   1      39.914  29.481  30.191  1.00  0.00     0.074 A 
ATOM     21  C   UNL A   1      38.993  29.655  29.086  1.00  0.00     0.031 C 
ATOM     22  C   UNL A   1      37.857  33.804  34.486  1.00  0.00     0.029 A 
ATOM     23  C   UNL A   1      38.995  32.899  34.611  1.00  0.00     0.049 A 
ATOM     24  H   UNL A   1      39.649  31.482  33.230  1.00  0.00     0.167 HD
ATOM     25  C   UNL A   1      40.954  28.611  30.197  1.00  0.00     0.034 A 
ATOM     26  C   UNL A   1      39.815  32.832  35.677  1.00  0.00     0.034 A 
ATOM     27  C   UNL A   1      41.872  28.456  31.297  1.00  0.00     0.049 A 
ATOM     28  C   UNL A   1      40.930  31.825  35.677  1.00  0.00     0.074 A 
ATOM     29  C   UNL A   1      42.969  27.615  31.391  1.00  0.00     0.029 A 
ATOM     30  N   UNL A   1      41.806  29.155  32.495  1.00  0.00    -0.354 N 
ATOM     31  N   UNL A   1      41.265  30.971  34.740  1.00  0.00    -0.248 NA
ATOM     32  C   UNL A   1      41.767  31.763  36.883  1.00  0.00     0.031 C 
ATOM     33  C   UNL A   1      43.532  27.767  32.662  1.00  0.00     0.029 A 
ATOM     34  C   UNL A   1      42.824  28.745  33.341  1.00  0.00     0.049 A 
ATOM     35  H   UNL A   1      41.134  29.841  32.711  1.00  0.00     0.167 HD
ATOM     36  C   UNL A   1      42.355  30.271  35.242  1.00  0.00     0.074 A 
ATOM     37  C   UNL A   1      42.630  30.810  36.558  1.00  0.00     0.031 C 
ATOM     38  C   UNL A   1      43.066  29.271  34.662  1.00  0.00     0.034 A 
BRANCH  25  39
ATOM     39  C   UNL A   1      41.134  27.727  28.990  1.00  0.00     0.023 A 
ATOM     40  C   UNL A   1      42.106  28.001  28.013  1.00  0.00     0.031 A 
ATOM     41  C   UNL A   1      40.340  26.578  28.834  1.00  0.00     0.131 A 
ATOM     42  C   UNL A   1      42.235  27.152  26.901  1.00  0.00     0.055 A 
ATOM     43  C   UNL A   1      40.511  25.708  27.756  1.00  0.00     0.041 A 
ATOM     44  F   UNL A   1      39.386  26.281  29.730  1.00  0.00    -0.206 F 
ATOM     45  C   UNL A   1      41.459  25.996  26.778  1.00  0.00     0.022 A 
BRANCH  42  46
ATOM     46  S   UNL A   1      43.387  27.614  25.580  1.00  0.00     0.124 S 
ATOM     47  O   UNL A   1      44.165  26.388  25.427  1.00  0.00    -0.237 OA
ATOM     48  O   UNL A   1      42.492  27.943  24.476  1.00  0.00    -0.237 OA
ATOM     49  O   UNL A   1      44.120  28.745  26.144  1.00  0.00    -0.744 OA
ENDBRANCH  42  46
ENDBRANCH  25  39
BRANCH  26  50
ATOM     50  C   UNL A   1      39.581  33.721  36.845  1.00  0.00     0.023 A 
ATOM     51  C   UNL A   1      38.959  33.241  38.007  1.00  0.00     0.031 A 
ATOM     52  C   UNL A   1      39.998  35.065  36.818  1.00  0.00     0.131 A 
ATOM     53  C   UNL A   1      38.758  34.104  39.095  1.00  0.00     0.055 A 
ATOM     54  C   UNL A   1      39.829  35.908  37.916  1.00  0.00     0.041 A 
ATOM     55  F   UNL A   1      40.607  35.563  35.731  1.00  0.00    -0.206 F 
ATOM     56  C   UNL A   1      39.201  35.430  39.061  1.00  0.00     0.022 A 
BRANCH  53  57
ATOM     57  S   UNL A   1      37.893  33.475  40.559  1.00  0.00     0.124 S 
ATOM     58  O   UNL A   1      38.917  32.635  41.170  1.00  0.00    -0.237 OA
ATOM     59  O   UNL A   1      37.562  34.706  41.270  1.00  0.00    -0.237 OA
ATOM     60  O   UNL A   1      36.750  32.759  39.996  1.00  0.00    -0.744 OA
ENDBRANCH  53  57
ENDBRANCH  26  50
BRANCH  38  61
ATOM     61  C   UNL A   1      44.218  28.708  35.448  1.00  0.00     0.023 A 
ATOM     62  C   UNL A   1      44.029  27.670  36.375  1.00  0.00     0.031 A 
ATOM     63  C   UNL A   1      45.518  29.204  35.252  1.00  0.00     0.131 A 
ATOM     64  C   UNL A   1      45.126  27.179  37.099  1.00  0.00     0.055 A 
ATOM     65  C   UNL A   1      46.611  28.683  35.945  1.00  0.00     0.041 A 
ATOM     66  F   UNL A   1      45.745  30.196  34.376  1.00  0.00    -0.206 F 
ATOM     67  C   UNL A   1      46.417  27.668  36.878  1.00  0.00     0.022 A 
BRANCH  64  68
ATOM     68  S   UNL A   1      44.841  25.907  38.361  1.00  0.00     0.124 S 
ATOM     69  O   UNL A   1      46.178  25.350  38.533  1.00  0.00    -0.237 OA
ATOM     70  O   UNL A   1      44.324  26.684  39.483  1.00  0.00    -0.237 OA
ATOM     71  O   UNL A   1      43.871  25.012  37.732  1.00  0.00    -0.744 OA
ENDBRANCH  64  68
ENDBRANCH  38  61
ENDBRANCH  12  13
ENDBRANCH   5   7
ENDBRANCH   2   3
ENDBRANCH   1   2
BRANCH   1  72
ATOM     72  C   UNL A   1      31.839  29.968  26.567  1.00  0.00     0.023 C 
BRANCH  72  73
ATOM     73  C   UNL A   1      31.527  29.258  25.252  1.00  0.00     0.116 C 
BRANCH  73  74
ATOM     74  N   UNL A   1      32.544  29.450  24.230  1.00  0.00    -0.352 N 
ATOM     75  C   UNL A   1      33.467  28.576  23.710  1.00  0.00     0.252 C 
ATOM     76  H   UNL A   1      32.576  30.357  23.848  1.00  0.00     0.163 HD
ATOM     77  O   UNL A   1      34.304  28.994  22.914  1.00  0.00    -0.269 OA
BRANCH  75  78
ATOM     78  C   UNL A   1      33.496  27.198  24.182  1.00  0.00     0.051 A 
ATOM     79  C   UNL A   1      33.773  26.780  25.467  1.00  0.00     0.080 A 
ATOM     80  C   UNL A   1      33.158  26.072  23.360  1.00  0.00     0.048 A 
ATOM     81  S   UNL A   1      33.904  25.080  25.585  1.00  0.00    -0.130 S 
ATOM     82  C   UNL A   1      33.539  24.868  23.919  1.00  0.00     0.141 A 
BRANCH  82  83
ATOM     83  S   UNL A   1      33.694  23.198  23.323  1.00  0.00     0.271 S 
ATOM     84  O   UNL A   1      33.086  23.195  22.011  1.00  0.00    -0.200 OA
ATOM     85  O   UNL A   1      35.097  22.871  23.500  1.00  0.00    -0.200 OA
BRANCH  83  86
ATOM     86  N   UNL A   1      32.858  22.043  24.233  1.00  0.00    -0.279 N 
ATOM     87  H   UNL A   1      32.247  22.337  24.947  1.00  0.00     0.180 HD
BRANCH  86  88
ATOM     88  C   UNL A   1      33.024  20.655  23.986  1.00  0.00     0.049 A 
ATOM     89  C   UNL A   1      32.233  19.994  23.041  1.00  0.00     0.030 A 
ATOM     90  C   UNL A   1      33.970  19.948  24.734  1.00  0.00     0.030 A 
ATOM     91  C   UNL A   1      32.366  18.612  22.875  1.00  0.00     0.041 A 
ATOM     92  C   UNL A   1      34.107  18.571  24.557  1.00  0.00     0.041 A 
ATOM     93  C   UNL A   1      33.298  17.914  23.637  1.00  0.00     0.123 A 
ATOM     94  F   UNL A   1      33.418  16.590  23.485  1.00  0.00    -0.207 F 
ENDBRANCH  86  88
ENDBRANCH  83  86
ENDBRANCH  82  83
ENDBRANCH  75  78
ENDBRANCH  73  74
ENDBRANCH  72  73
ENDBRANCH   1  72
TORSDOF 17
ENDMDL
