MODEL 1
REMARK VINA RESULT:     -13.7      0.000      0.000
REMARK SMILES O=C(NCCCCNC(=O)[C@@]12C[C@H]3C[C@@H](C1)C[C@](n1cc([N+](=O)[O-])cn1)(C3)C2)c1ccc(-c2c3nc(c(-c4cc(S(=O)(=O)[O-])ccc4F)c4ccc([nH]4)c(-c4cc(S(=O)(=O)[O-])ccc4F)c4nc(c(-c5cc(S(=O)(=O)[O-])ccc5F)c5ccc2[nH]5)C=C4)C=C3)cc1
REMARK SMILES IDX 5 1 4 2 3 3 1 4 2 5 29 7 30 8 91 9 31 10 90 11 32 12 33 13
REMARK SMILES IDX 34 14 84 15 35 16 89 17 83 18 85 19 36 20 88 21 82 22 81 23
REMARK SMILES IDX 37 25 69 26 49 27 68 28 50 29 53 30 67 31 86 32 51 33 52 34
REMARK SMILES IDX 66 36 87 37 54 38 38 39 39 40 47 41 40 42 46 43 48 44 45 45
REMARK SMILES IDX 41 46 42 47 43 48 44 49 70 50 71 51 79 52 72 53 78 54 80 55
REMARK SMILES IDX 77 56 73 57 74 58 75 59 76 60 55 61 56 62 64 63 57 64 63 65
REMARK SMILES IDX 65 66 62 67 58 68 59 69 60 70 61 71 6 72 7 73 8 74 9 75
REMARK SMILES IDX 10 77 11 78 12 79 16 80 28 81 13 82 15 83 18 84 14 85 27 86
REMARK SMILES IDX 17 87 19 88 20 89 26 90 21 91 25 92 22 93 23 94 24 95
REMARK H PARENT 3 6 85 24 53 35 8 76
REMARK Flexibility Score: inf
ROOT
ATOM      1  C   UNL A   1      33.484  28.875  26.479  1.00  0.00     0.023 C 
ENDROOT
BRANCH   1   2
ATOM      2  C   UNL A   1      34.923  29.022  26.977  1.00  0.00     0.116 C 
BRANCH   2   3
ATOM      3  N   UNL A   1      35.066  29.595  28.301  1.00  0.00    -0.352 N 
ATOM      4  O   UNL A   1      35.892  30.561  30.110  1.00  0.00    -0.269 OA
ATOM      5  C   UNL A   1      36.138  29.892  29.102  1.00  0.00     0.251 C 
ATOM      6  H   UNL A   1      34.203  29.822  28.716  1.00  0.00     0.163 HD
BRANCH   5   7
ATOM      7  C   UNL A   1      37.530  29.414  28.879  1.00  0.00     0.039 A 
ATOM      8  C   UNL A   1      38.316  29.695  27.762  1.00  0.00     0.014 A 
ATOM      9  C   UNL A   1      38.075  28.601  29.892  1.00  0.00     0.014 A 
ATOM     10  C   UNL A   1      39.574  29.113  27.616  1.00  0.00     0.010 A 
ATOM     11  C   UNL A   1      39.339  28.031  29.762  1.00  0.00     0.010 A 
ATOM     12  C   UNL A   1      40.080  28.268  28.608  1.00  0.00    -0.014 A 
BRANCH  12  13
ATOM     13  C   UNL A   1      41.472  27.830  28.496  1.00  0.00     0.031 A 
ATOM     14  C   UNL A   1      41.649  26.541  27.770  1.00  0.00     0.074 A 
ATOM     15  C   UNL A   1      42.545  28.566  28.851  1.00  0.00     0.049 A 
ATOM     16  N   UNL A   1      42.132  25.430  28.217  1.00  0.00    -0.248 NA
ATOM     17  C   UNL A   1      41.105  26.445  26.406  1.00  0.00     0.031 C 
ATOM     18  C   UNL A   1      42.560  29.954  29.311  1.00  0.00     0.029 A 
ATOM     19  N   UNL A   1      43.874  28.253  28.769  1.00  0.00    -0.354 N 
ATOM     20  C   UNL A   1      42.164  24.557  27.131  1.00  0.00     0.074 A 
ATOM     21  C   UNL A   1      41.361  25.172  26.108  1.00  0.00     0.031 C 
ATOM     22  C   UNL A   1      43.825  30.428  29.254  1.00  0.00     0.029 A 
ATOM     23  C   UNL A   1      44.725  29.351  28.871  1.00  0.00     0.049 A 
ATOM     24  H   UNL A   1      44.201  27.331  28.647  1.00  0.00     0.167 HD
ATOM     25  C   UNL A   1      43.032  23.509  27.083  1.00  0.00     0.034 A 
ATOM     26  C   UNL A   1      46.058  29.396  28.598  1.00  0.00     0.034 A 
ATOM     27  C   UNL A   1      43.530  23.183  28.401  1.00  0.00     0.049 A 
ATOM     28  C   UNL A   1      46.576  28.010  28.690  1.00  0.00     0.074 A 
ATOM     29  C   UNL A   1      42.939  22.837  29.602  1.00  0.00     0.029 A 
ATOM     30  N   UNL A   1      44.825  23.526  28.720  1.00  0.00    -0.354 N 
ATOM     31  N   UNL A   1      46.632  27.335  29.804  1.00  0.00    -0.248 NA
ATOM     32  C   UNL A   1      46.619  27.206  27.478  1.00  0.00     0.031 C 
ATOM     33  C   UNL A   1      43.728  23.485  30.598  1.00  0.00     0.029 A 
ATOM     34  C   UNL A   1      44.789  24.121  29.955  1.00  0.00     0.049 A 
ATOM     35  H   UNL A   1      45.625  23.372  28.166  1.00  0.00     0.167 HD
ATOM     36  C   UNL A   1      46.273  26.044  29.457  1.00  0.00     0.074 A 
ATOM     37  C   UNL A   1      46.384  26.000  28.000  1.00  0.00     0.031 C 
ATOM     38  C   UNL A   1      45.654  25.216  30.350  1.00  0.00     0.034 A 
BRANCH  25  39
ATOM     39  C   UNL A   1      43.721  23.019  25.823  1.00  0.00     0.023 A 
ATOM     40  C   UNL A   1      43.794  21.625  25.635  1.00  0.00     0.031 A 
ATOM     41  C   UNL A   1      44.561  23.790  24.987  1.00  0.00     0.131 A 
ATOM     42  C   UNL A   1      44.755  21.058  24.781  1.00  0.00     0.055 A 
ATOM     43  C   UNL A   1      45.461  23.222  24.079  1.00  0.00     0.041 A 
ATOM     44  F   UNL A   1      44.632  25.124  25.056  1.00  0.00    -0.206 F 
ATOM     45  C   UNL A   1      45.593  21.847  24.002  1.00  0.00     0.022 A 
BRANCH  42  46
ATOM     46  S   UNL A   1      45.031  19.270  24.876  1.00  0.00     0.124 S 
ATOM     47  O   UNL A   1      46.338  19.215  25.524  1.00  0.00    -0.237 OA
ATOM     48  O   UNL A   1      43.894  18.835  25.681  1.00  0.00    -0.237 OA
ATOM     49  O   UNL A   1      45.006  18.848  23.479  1.00  0.00    -0.744 OA
ENDBRANCH  42  46
ENDBRANCH  25  39
BRANCH  26  50
ATOM     50  C   UNL A   1      46.826  30.518  27.984  1.00  0.00     0.023 A 
ATOM     51  C   UNL A   1      46.223  31.527  27.199  1.00  0.00     0.031 A 
ATOM     52  C   UNL A   1      48.164  30.743  28.377  1.00  0.00     0.131 A 
ATOM     53  C   UNL A   1      46.955  32.686  26.840  1.00  0.00     0.055 A 
ATOM     54  C   UNL A   1      48.884  31.883  28.014  1.00  0.00     0.041 A 
ATOM     55  F   UNL A   1      48.797  29.899  29.207  1.00  0.00    -0.206 F 
ATOM     56  C   UNL A   1      48.279  32.865  27.250  1.00  0.00     0.022 A 
BRANCH  53  57
ATOM     57  S   UNL A   1      46.160  34.040  25.912  1.00  0.00     0.124 S 
ATOM     58  O   UNL A   1      47.267  34.557  25.109  1.00  0.00    -0.237 OA
ATOM     59  O   UNL A   1      45.101  33.354  25.194  1.00  0.00    -0.237 OA
ATOM     60  O   UNL A   1      45.698  34.949  26.965  1.00  0.00    -0.744 OA
ENDBRANCH  53  57
ENDBRANCH  26  50
BRANCH  38  61
ATOM     61  C   UNL A   1      45.669  25.583  31.818  1.00  0.00     0.023 A 
ATOM     62  C   UNL A   1      46.713  25.279  32.721  1.00  0.00     0.031 A 
ATOM     63  C   UNL A   1      44.614  26.387  32.289  1.00  0.00     0.131 A 
ATOM     64  C   UNL A   1      46.665  25.765  34.042  1.00  0.00     0.055 A 
ATOM     65  C   UNL A   1      44.582  26.884  33.591  1.00  0.00     0.041 A 
ATOM     66  F   UNL A   1      43.605  26.737  31.474  1.00  0.00    -0.206 F 
ATOM     67  C   UNL A   1      45.605  26.567  34.476  1.00  0.00     0.022 A 
BRANCH  64  68
ATOM     68  S   UNL A   1      47.980  25.347  35.233  1.00  0.00     0.124 S 
ATOM     69  O   UNL A   1      47.333  24.416  36.148  1.00  0.00    -0.237 OA
ATOM     70  O   UNL A   1      49.017  24.782  34.372  1.00  0.00    -0.237 OA
ATOM     71  O   UNL A   1      48.325  26.642  35.825  1.00  0.00    -0.744 OA
ENDBRANCH  64  68
ENDBRANCH  38  61
ENDBRANCH  12  13
ENDBRANCH   5   7
ENDBRANCH   2   3
ENDBRANCH   1   2
BRANCH   1  72
ATOM     72  C   UNL A   1      32.695  27.721  27.097  1.00  0.00     0.023 C 
BRANCH  72  73
ATOM     73  C   UNL A   1      32.304  26.619  26.120  1.00  0.00     0.116 C 
BRANCH  73  74
ATOM     74  N   UNL A   1      31.548  25.532  26.747  1.00  0.00    -0.356 N 
ATOM     75  C   UNL A   1      31.504  24.181  26.517  1.00  0.00     0.226 C 
ATOM     76  H   UNL A   1      30.958  25.830  27.476  1.00  0.00     0.163 HD
ATOM     77  O   UNL A   1      30.833  23.490  27.287  1.00  0.00    -0.274 OA
BRANCH  75  78
ATOM     78  C   UNL A   1      32.311  23.543  25.376  1.00  0.00     0.052 C 
ATOM     79  C   UNL A   1      32.042  24.178  23.983  1.00  0.00     0.020 C 
ATOM     80  C   UNL A   1      33.828  23.663  25.637  1.00  0.00     0.020 C 
ATOM     81  C   UNL A   1      31.827  22.101  25.224  1.00  0.00     0.047 C 
ATOM     82  C   UNL A   1      32.838  23.420  22.884  1.00  0.00    -0.007 C 
ATOM     83  C   UNL A   1      34.626  22.908  24.568  1.00  0.00    -0.007 C 
ATOM     84  C   UNL A   1      32.697  21.279  24.245  1.00  0.00     0.065 C 
ATOM     85  C   UNL A   1      34.337  23.533  23.196  1.00  0.00     0.007 C 
ATOM     86  C   UNL A   1      32.458  21.917  22.849  1.00  0.00     0.034 C 
ATOM     87  C   UNL A   1      34.201  21.428  24.584  1.00  0.00     0.034 C 
BRANCH  84  88
ATOM     88  N   UNL A   1      32.252  19.873  24.386  1.00  0.00    -0.259 N 
ATOM     89  C   UNL A   1      32.581  18.912  23.438  1.00  0.00     0.195 A 
ATOM     90  N   UNL A   1      32.128  19.314  25.617  1.00  0.00    -0.173 NA
ATOM     91  C   UNL A   1      33.208  17.930  24.179  1.00  0.00     0.307 A 
ATOM     92  C   UNL A   1      32.783  18.150  25.497  1.00  0.00     0.220 A 
BRANCH  91  93
ATOM     93  N   UNL A   1      34.196  17.015  23.712  1.00  0.00     0.066 N 
ATOM     94  O   UNL A   1      35.117  16.737  24.488  1.00  0.00    -0.258 OA
ATOM     95  O   UNL A   1      34.085  16.633  22.538  1.00  0.00    -0.258 OA
ENDBRANCH  91  93
ENDBRANCH  84  88
ENDBRANCH  75  78
ENDBRANCH  73  74
ENDBRANCH  72  73
ENDBRANCH   1  72
TORSDOF 16
ENDMDL
MODEL 2
REMARK VINA RESULT:     -13.6      2.434      7.051
REMARK SMILES O=C(NCCCCNC(=O)[C@@]12C[C@H]3C[C@@H](C1)C[C@](n1cc([N+](=O)[O-])cn1)(C3)C2)c1ccc(-c2c3nc(c(-c4cc(S(=O)(=O)[O-])ccc4F)c4ccc([nH]4)c(-c4cc(S(=O)(=O)[O-])ccc4F)c4nc(c(-c5cc(S(=O)(=O)[O-])ccc5F)c5ccc2[nH]5)C=C4)C=C3)cc1
REMARK SMILES IDX 5 1 4 2 3 3 1 4 2 5 29 7 30 8 91 9 31 10 90 11 32 12 33 13
REMARK SMILES IDX 34 14 84 15 35 16 89 17 83 18 85 19 36 20 88 21 82 22 81 23
REMARK SMILES IDX 37 25 69 26 49 27 68 28 50 29 53 30 67 31 86 32 51 33 52 34
REMARK SMILES IDX 66 36 87 37 54 38 38 39 39 40 47 41 40 42 46 43 48 44 45 45
REMARK SMILES IDX 41 46 42 47 43 48 44 49 70 50 71 51 79 52 72 53 78 54 80 55
REMARK SMILES IDX 77 56 73 57 74 58 75 59 76 60 55 61 56 62 64 63 57 64 63 65
REMARK SMILES IDX 65 66 62 67 58 68 59 69 60 70 61 71 6 72 7 73 8 74 9 75
REMARK SMILES IDX 10 77 11 78 12 79 16 80 28 81 13 82 15 83 18 84 14 85 27 86
REMARK SMILES IDX 17 87 19 88 20 89 26 90 21 91 25 92 22 93 23 94 24 95
REMARK H PARENT 3 6 85 24 53 35 8 76
REMARK Flexibility Score: inf
ROOT
ATOM      1  C   UNL A   1      32.682  28.997  25.736  1.00  0.00     0.023 C 
ENDROOT
BRANCH   1   2
ATOM      2  C   UNL A   1      33.981  29.039  26.543  1.00  0.00     0.116 C 
BRANCH   2   3
ATOM      3  N   UNL A   1      34.332  30.336  27.087  1.00  0.00    -0.352 N 
ATOM      4  O   UNL A   1      35.468  32.087  27.817  1.00  0.00    -0.269 OA
ATOM      5  C   UNL A   1      35.473  30.867  27.629  1.00  0.00     0.251 C 
ATOM      6  H   UNL A   1      33.586  30.977  27.061  1.00  0.00     0.163 HD
BRANCH   5   7
ATOM      7  C   UNL A   1      36.662  30.080  28.059  1.00  0.00     0.039 A 
ATOM      8  C   UNL A   1      36.814  29.445  29.292  1.00  0.00     0.014 A 
ATOM      9  C   UNL A   1      37.714  29.989  27.126  1.00  0.00     0.014 A 
ATOM     10  C   UNL A   1      38.013  28.815  29.621  1.00  0.00     0.010 A 
ATOM     11  C   UNL A   1      38.907  29.345  27.442  1.00  0.00     0.010 A 
ATOM     12  C   UNL A   1      39.067  28.779  28.703  1.00  0.00    -0.014 A 
BRANCH  12  13
ATOM     13  C   UNL A   1      40.231  27.952  29.023  1.00  0.00     0.031 A 
ATOM     14  C   UNL A   1      40.622  27.982  30.461  1.00  0.00     0.074 A 
ATOM     15  C   UNL A   1      40.829  27.095  28.171  1.00  0.00     0.049 A 
ATOM     16  N   UNL A   1      41.728  28.399  30.981  1.00  0.00    -0.248 NA
ATOM     17  C   UNL A   1      39.602  27.611  31.454  1.00  0.00     0.031 C 
ATOM     18  C   UNL A   1      40.398  26.737  26.820  1.00  0.00     0.029 A 
ATOM     19  N   UNL A   1      41.902  26.274  28.381  1.00  0.00    -0.354 N 
ATOM     20  C   UNL A   1      41.636  28.136  32.347  1.00  0.00     0.074 A 
ATOM     21  C   UNL A   1      40.254  27.826  32.596  1.00  0.00     0.031 C 
ATOM     22  C   UNL A   1      41.058  25.626  26.422  1.00  0.00     0.029 A 
ATOM     23  C   UNL A   1      42.040  25.264  27.433  1.00  0.00     0.049 A 
ATOM     24  H   UNL A   1      42.523  26.386  29.138  1.00  0.00     0.167 HD
ATOM     25  C   UNL A   1      42.747  27.976  33.119  1.00  0.00     0.034 A 
ATOM     26  C   UNL A   1      42.850  24.170  27.497  1.00  0.00     0.034 A 
ATOM     27  C   UNL A   1      43.914  28.539  32.478  1.00  0.00     0.049 A 
ATOM     28  C   UNL A   1      43.939  24.480  28.454  1.00  0.00     0.074 A 
ATOM     29  C   UNL A   1      44.244  29.791  31.993  1.00  0.00     0.029 A 
ATOM     30  N   UNL A   1      44.844  27.682  31.933  1.00  0.00    -0.354 N 
ATOM     31  N   UNL A   1      44.853  25.383  28.236  1.00  0.00    -0.248 NA
ATOM     32  C   UNL A   1      43.759  24.106  29.849  1.00  0.00     0.031 C 
ATOM     33  C   UNL A   1      44.995  29.538  30.807  1.00  0.00     0.029 A 
ATOM     34  C   UNL A   1      45.141  28.156  30.680  1.00  0.00     0.049 A 
ATOM     35  H   UNL A   1      45.225  26.882  32.362  1.00  0.00     0.167 HD
ATOM     36  C   UNL A   1      45.044  26.000  29.461  1.00  0.00     0.074 A 
ATOM     37  C   UNL A   1      44.428  25.103  30.436  1.00  0.00     0.031 C 
ATOM     38  C   UNL A   1      45.434  27.307  29.543  1.00  0.00     0.034 A 
BRANCH  25  39
ATOM     39  C   UNL A   1      42.861  26.992  34.268  1.00  0.00     0.023 A 
ATOM     40  C   UNL A   1      43.638  25.838  34.048  1.00  0.00     0.031 A 
ATOM     41  C   UNL A   1      42.030  26.955  35.411  1.00  0.00     0.131 A 
ATOM     42  C   UNL A   1      43.464  24.686  34.833  1.00  0.00     0.055 A 
ATOM     43  C   UNL A   1      41.920  25.831  36.237  1.00  0.00     0.041 A 
ATOM     44  F   UNL A   1      41.210  27.957  35.749  1.00  0.00    -0.206 F 
ATOM     45  C   UNL A   1      42.607  24.672  35.926  1.00  0.00     0.022 A 
BRANCH  42  46
ATOM     46  S   UNL A   1      44.220  23.142  34.259  1.00  0.00     0.124 S 
ATOM     47  O   UNL A   1      43.147  22.583  33.443  1.00  0.00    -0.237 OA
ATOM     48  O   UNL A   1      45.390  23.632  33.538  1.00  0.00    -0.237 OA
ATOM     49  O   UNL A   1      44.504  22.423  35.497  1.00  0.00    -0.744 OA
ENDBRANCH  42  46
ENDBRANCH  25  39
BRANCH  26  50
ATOM     50  C   UNL A   1      42.563  22.793  27.001  1.00  0.00     0.023 A 
ATOM     51  C   UNL A   1      43.476  22.048  26.219  1.00  0.00     0.031 A 
ATOM     52  C   UNL A   1      41.450  22.087  27.511  1.00  0.00     0.131 A 
ATOM     53  C   UNL A   1      43.249  20.670  25.975  1.00  0.00     0.055 A 
ATOM     54  C   UNL A   1      41.228  20.732  27.261  1.00  0.00     0.041 A 
ATOM     55  F   UNL A   1      40.579  22.672  28.348  1.00  0.00    -0.206 F 
ATOM     56  C   UNL A   1      42.133  20.014  26.499  1.00  0.00     0.022 A 
BRANCH  53  57
ATOM     57  S   UNL A   1      44.468  19.675  25.052  1.00  0.00     0.124 S 
ATOM     58  O   UNL A   1      44.154  20.012  23.665  1.00  0.00    -0.237 OA
ATOM     59  O   UNL A   1      45.734  20.163  25.569  1.00  0.00    -0.237 OA
ATOM     60  O   UNL A   1      44.140  18.298  25.431  1.00  0.00    -0.744 OA
ENDBRANCH  53  57
ENDBRANCH  26  50
BRANCH  38  61
ATOM     61  C   UNL A   1      45.992  27.982  28.308  1.00  0.00     0.023 A 
ATOM     62  C   UNL A   1      47.344  27.939  27.900  1.00  0.00     0.031 A 
ATOM     63  C   UNL A   1      45.070  28.601  27.444  1.00  0.00     0.131 A 
ATOM     64  C   UNL A   1      47.729  28.517  26.674  1.00  0.00     0.055 A 
ATOM     65  C   UNL A   1      45.451  29.152  26.222  1.00  0.00     0.041 A 
ATOM     66  F   UNL A   1      43.765  28.650  27.759  1.00  0.00    -0.206 F 
ATOM     67  C   UNL A   1      46.785  29.119  25.836  1.00  0.00     0.022 A 
BRANCH  64  68
ATOM     68  S   UNL A   1      49.474  28.510  26.151  1.00  0.00     0.124 S 
ATOM     69  O   UNL A   1      50.092  27.523  27.027  1.00  0.00    -0.237 OA
ATOM     70  O   UNL A   1      49.379  28.144  24.740  1.00  0.00    -0.237 OA
ATOM     71  O   UNL A   1      49.905  29.890  26.390  1.00  0.00    -0.744 OA
ENDBRANCH  64  68
ENDBRANCH  38  61
ENDBRANCH  12  13
ENDBRANCH   5   7
ENDBRANCH   2   3
ENDBRANCH   1   2
BRANCH   1  72
ATOM     72  C   UNL A   1      31.713  27.879  26.118  1.00  0.00     0.023 C 
BRANCH  72  73
ATOM     73  C   UNL A   1      32.152  26.481  25.698  1.00  0.00     0.116 C 
BRANCH  73  74
ATOM     74  N   UNL A   1      31.666  25.429  26.593  1.00  0.00    -0.356 N 
ATOM     75  C   UNL A   1      31.790  24.064  26.572  1.00  0.00     0.226 C 
ATOM     76  H   UNL A   1      31.150  25.768  27.360  1.00  0.00     0.163 HD
ATOM     77  O   UNL A   1      31.350  23.433  27.535  1.00  0.00    -0.274 OA
BRANCH  75  78
ATOM     78  C   UNL A   1      32.509  23.349  25.417  1.00  0.00     0.052 C 
ATOM     79  C   UNL A   1      32.183  23.935  24.015  1.00  0.00     0.020 C 
ATOM     80  C   UNL A   1      34.042  23.425  25.588  1.00  0.00     0.020 C 
ATOM     81  C   UNL A   1      31.969  21.921  25.355  1.00  0.00     0.047 C 
ATOM     82  C   UNL A   1      32.889  23.104  22.908  1.00  0.00    -0.007 C 
ATOM     83  C   UNL A   1      34.752  22.598  24.510  1.00  0.00    -0.007 C 
ATOM     84  C   UNL A   1      32.753  21.028  24.366  1.00  0.00     0.065 C 
ATOM     85  C   UNL A   1      34.406  23.175  23.131  1.00  0.00     0.007 C 
ATOM     86  C   UNL A   1      32.457  21.616  22.959  1.00  0.00     0.034 C 
ATOM     87  C   UNL A   1      34.279  21.136  24.614  1.00  0.00     0.034 C 
BRANCH  84  88
ATOM     88  N   UNL A   1      32.270  19.647  24.593  1.00  0.00    -0.259 N 
ATOM     89  C   UNL A   1      32.375  18.673  23.607  1.00  0.00     0.195 A 
ATOM     90  N   UNL A   1      32.339  19.091  25.830  1.00  0.00    -0.173 NA
ATOM     91  C   UNL A   1      33.074  17.658  24.232  1.00  0.00     0.307 A 
ATOM     92  C   UNL A   1      32.901  17.895  25.603  1.00  0.00     0.220 A 
BRANCH  91  93
ATOM     93  N   UNL A   1      33.915  16.694  23.602  1.00  0.00     0.066 N 
ATOM     94  O   UNL A   1      34.047  16.779  22.376  1.00  0.00    -0.258 OA
ATOM     95  O   UNL A   1      34.383  15.808  24.331  1.00  0.00    -0.258 OA
ENDBRANCH  91  93
ENDBRANCH  84  88
ENDBRANCH  75  78
ENDBRANCH  73  74
ENDBRANCH  72  73
ENDBRANCH   1  72
TORSDOF 16
ENDMDL
MODEL 3
REMARK VINA RESULT:     -13.5      4.524      9.272
REMARK SMILES O=C(NCCCCNC(=O)[C@@]12C[C@H]3C[C@@H](C1)C[C@](n1cc([N+](=O)[O-])cn1)(C3)C2)c1ccc(-c2c3nc(c(-c4cc(S(=O)(=O)[O-])ccc4F)c4ccc([nH]4)c(-c4cc(S(=O)(=O)[O-])ccc4F)c4nc(c(-c5cc(S(=O)(=O)[O-])ccc5F)c5ccc2[nH]5)C=C4)C=C3)cc1
REMARK SMILES IDX 5 1 4 2 3 3 1 4 2 5 29 7 30 8 91 9 31 10 90 11 32 12 33 13
REMARK SMILES IDX 34 14 84 15 35 16 89 17 83 18 85 19 36 20 88 21 82 22 81 23
REMARK SMILES IDX 37 25 69 26 49 27 68 28 50 29 53 30 67 31 86 32 51 33 52 34
REMARK SMILES IDX 66 36 87 37 54 38 38 39 39 40 47 41 40 42 46 43 48 44 45 45
REMARK SMILES IDX 41 46 42 47 43 48 44 49 70 50 71 51 79 52 72 53 78 54 80 55
REMARK SMILES IDX 77 56 73 57 74 58 75 59 76 60 55 61 56 62 64 63 57 64 63 65
REMARK SMILES IDX 65 66 62 67 58 68 59 69 60 70 61 71 6 72 7 73 8 74 9 75
REMARK SMILES IDX 10 77 11 78 12 79 16 80 28 81 13 82 15 83 18 84 14 85 27 86
REMARK SMILES IDX 17 87 19 88 20 89 26 90 21 91 25 92 22 93 23 94 24 95
REMARK H PARENT 3 6 85 24 53 35 8 76
REMARK Flexibility Score: inf
ROOT
ATOM      1  C   UNL A   1      36.982  23.072  24.499  1.00  0.00     0.023 C 
ENDROOT
BRANCH   1   2
ATOM      2  C   UNL A   1      37.631  23.480  25.823  1.00  0.00     0.116 C 
BRANCH   2   3
ATOM      3  N   UNL A   1      38.910  22.858  26.105  1.00  0.00    -0.352 N 
ATOM      4  O   UNL A   1      40.836  22.313  27.044  1.00  0.00    -0.269 OA
ATOM      5  C   UNL A   1      39.978  23.189  26.897  1.00  0.00     0.251 C 
ATOM      6  H   UNL A   1      39.038  22.010  25.622  1.00  0.00     0.163 HD
BRANCH   5   7
ATOM      7  C   UNL A   1      40.201  24.524  27.517  1.00  0.00     0.039 A 
ATOM      8  C   UNL A   1      41.358  24.927  28.184  1.00  0.00     0.014 A 
ATOM      9  C   UNL A   1      39.134  25.438  27.418  1.00  0.00     0.014 A 
ATOM     10  C   UNL A   1      41.417  26.171  28.810  1.00  0.00     0.010 A 
ATOM     11  C   UNL A   1      39.194  26.690  28.025  1.00  0.00     0.010 A 
ATOM     12  C   UNL A   1      40.330  27.047  28.746  1.00  0.00    -0.014 A 
BRANCH  12  13
ATOM     13  C   UNL A   1      40.508  28.406  29.259  1.00  0.00     0.031 A 
ATOM     14  C   UNL A   1      41.615  29.162  28.608  1.00  0.00     0.074 A 
ATOM     15  C   UNL A   1      39.673  29.023  30.119  1.00  0.00     0.049 A 
ATOM     16  N   UNL A   1      42.689  29.633  29.149  1.00  0.00    -0.248 NA
ATOM     17  C   UNL A   1      41.576  29.306  27.144  1.00  0.00     0.031 C 
ATOM     18  C   UNL A   1      38.395  28.528  30.629  1.00  0.00     0.029 A 
ATOM     19  N   UNL A   1      39.745  30.287  30.638  1.00  0.00    -0.354 N 
ATOM     20  C   UNL A   1      43.355  30.329  28.143  1.00  0.00     0.074 A 
ATOM     21  C   UNL A   1      42.724  29.941  26.910  1.00  0.00     0.031 C 
ATOM     22  C   UNL A   1      37.716  29.551  31.196  1.00  0.00     0.029 A 
ATOM     23  C   UNL A   1      38.553  30.741  31.198  1.00  0.00     0.049 A 
ATOM     24  H   UNL A   1      40.568  30.829  30.617  1.00  0.00     0.167 HD
ATOM     25  C   UNL A   1      44.224  31.339  28.428  1.00  0.00     0.034 A 
ATOM     26  C   UNL A   1      38.245  32.013  31.574  1.00  0.00     0.034 A 
ATOM     27  C   UNL A   1      44.674  31.269  29.800  1.00  0.00     0.049 A 
ATOM     28  C   UNL A   1      39.523  32.730  31.799  1.00  0.00     0.074 A 
ATOM     29  C   UNL A   1      45.303  30.304  30.566  1.00  0.00     0.029 A 
ATOM     30  N   UNL A   1      44.178  32.182  30.704  1.00  0.00    -0.354 N 
ATOM     31  N   UNL A   1      40.352  32.441  32.763  1.00  0.00    -0.248 NA
ATOM     32  C   UNL A   1      40.100  33.476  30.690  1.00  0.00     0.031 C 
ATOM     33  C   UNL A   1      44.705  30.413  31.856  1.00  0.00     0.029 A 
ATOM     34  C   UNL A   1      43.806  31.479  31.821  1.00  0.00     0.049 A 
ATOM     35  H   UNL A   1      44.106  33.155  30.573  1.00  0.00     0.167 HD
ATOM     36  C   UNL A   1      41.610  32.565  32.200  1.00  0.00     0.074 A 
ATOM     37  C   UNL A   1      41.398  33.309  30.959  1.00  0.00     0.031 C 
ATOM     38  C   UNL A   1      42.663  31.818  32.646  1.00  0.00     0.034 A 
BRANCH  25  39
ATOM     39  C   UNL A   1      44.382  32.599  27.598  1.00  0.00     0.023 A 
ATOM     40  C   UNL A   1      43.741  33.761  28.070  1.00  0.00     0.031 A 
ATOM     41  C   UNL A   1      44.834  32.656  26.259  1.00  0.00     0.131 A 
ATOM     42  C   UNL A   1      43.444  34.828  27.206  1.00  0.00     0.055 A 
ATOM     43  C   UNL A   1      44.606  33.756  25.424  1.00  0.00     0.041 A 
ATOM     44  F   UNL A   1      45.438  31.630  25.649  1.00  0.00    -0.206 F 
ATOM     45  C   UNL A   1      43.871  34.833  25.883  1.00  0.00     0.022 A 
BRANCH  42  46
ATOM     46  S   UNL A   1      42.303  36.107  27.792  1.00  0.00     0.124 S 
ATOM     47  O   UNL A   1      42.943  36.513  29.039  1.00  0.00    -0.237 OA
ATOM     48  O   UNL A   1      42.350  37.073  26.699  1.00  0.00    -0.237 OA
ATOM     49  O   UNL A   1      41.039  35.392  27.940  1.00  0.00    -0.744 OA
ENDBRANCH  42  46
ENDBRANCH  25  39
BRANCH  26  50
ATOM     50  C   UNL A   1      36.927  32.702  31.464  1.00  0.00     0.023 A 
ATOM     51  C   UNL A   1      36.398  33.164  30.238  1.00  0.00     0.031 A 
ATOM     52  C   UNL A   1      36.044  32.697  32.568  1.00  0.00     0.131 A 
ATOM     53  C   UNL A   1      35.051  33.598  30.159  1.00  0.00     0.055 A 
ATOM     54  C   UNL A   1      34.721  33.134  32.487  1.00  0.00     0.041 A 
ATOM     55  F   UNL A   1      36.413  32.184  33.752  1.00  0.00    -0.206 F 
ATOM     56  C   UNL A   1      34.214  33.578  31.278  1.00  0.00     0.022 A 
BRANCH  53  57
ATOM     57  S   UNL A   1      34.326  34.103  28.563  1.00  0.00     0.124 S 
ATOM     58  O   UNL A   1      34.898  33.124  27.640  1.00  0.00    -0.237 OA
ATOM     59  O   UNL A   1      32.900  34.003  28.815  1.00  0.00    -0.237 OA
ATOM     60  O   UNL A   1      34.822  35.470  28.381  1.00  0.00    -0.744 OA
ENDBRANCH  53  57
ENDBRANCH  26  50
BRANCH  38  61
ATOM     61  C   UNL A   1      42.542  31.107  33.977  1.00  0.00     0.023 A 
ATOM     62  C   UNL A   1      42.225  29.740  34.142  1.00  0.00     0.031 A 
ATOM     63  C   UNL A   1      42.882  31.840  35.129  1.00  0.00     0.131 A 
ATOM     64  C   UNL A   1      42.244  29.162  35.426  1.00  0.00     0.055 A 
ATOM     65  C   UNL A   1      42.921  31.259  36.395  1.00  0.00     0.041 A 
ATOM     66  F   UNL A   1      43.221  33.137  35.038  1.00  0.00    -0.206 F 
ATOM     67  C   UNL A   1      42.594  29.918  36.549  1.00  0.00     0.022 A 
BRANCH  64  68
ATOM     68  S   UNL A   1      41.798  27.412  35.664  1.00  0.00     0.124 S 
ATOM     69  O   UNL A   1      41.060  27.412  36.921  1.00  0.00    -0.237 OA
ATOM     70  O   UNL A   1      41.017  27.119  34.463  1.00  0.00    -0.237 OA
ATOM     71  O   UNL A   1      43.095  26.734  35.720  1.00  0.00    -0.744 OA
ENDBRANCH  64  68
ENDBRANCH  38  61
ENDBRANCH  12  13
ENDBRANCH   5   7
ENDBRANCH   2   3
ENDBRANCH   1   2
BRANCH   1  72
ATOM     72  C   UNL A   1      35.472  22.845  24.556  1.00  0.00     0.023 C 
BRANCH  72  73
ATOM     73  C   UNL A   1      34.634  24.117  24.566  1.00  0.00     0.116 C 
BRANCH  73  74
ATOM     74  N   UNL A   1      34.408  24.671  23.229  1.00  0.00    -0.356 N 
ATOM     75  C   UNL A   1      33.494  25.569  22.740  1.00  0.00     0.226 C 
ATOM     76  H   UNL A   1      35.034  24.332  22.549  1.00  0.00     0.163 HD
ATOM     77  O   UNL A   1      33.613  25.927  21.567  1.00  0.00    -0.274 OA
BRANCH  75  78
ATOM     78  C   UNL A   1      32.398  26.157  23.642  1.00  0.00     0.052 C 
ATOM     79  C   UNL A   1      31.566  25.085  24.400  1.00  0.00     0.020 C 
ATOM     80  C   UNL A   1      33.003  27.093  24.711  1.00  0.00     0.020 C 
ATOM     81  C   UNL A   1      31.377  26.842  22.734  1.00  0.00     0.047 C 
ATOM     82  C   UNL A   1      30.435  25.766  25.221  1.00  0.00    -0.007 C 
ATOM     83  C   UNL A   1      31.898  27.782  25.520  1.00  0.00    -0.007 C 
ATOM     84  C   UNL A   1      30.324  27.653  23.524  1.00  0.00     0.065 C 
ATOM     85  C   UNL A   1      31.073  26.712  26.248  1.00  0.00     0.007 C 
ATOM     86  C   UNL A   1      29.497  26.596  24.308  1.00  0.00     0.034 C 
ATOM     87  C   UNL A   1      31.005  28.585  24.557  1.00  0.00     0.034 C 
BRANCH  84  88
ATOM     88  N   UNL A   1      29.568  28.431  22.516  1.00  0.00    -0.259 N 
ATOM     89  C   UNL A   1      28.309  28.948  22.796  1.00  0.00     0.195 A 
ATOM     90  N   UNL A   1      30.224  29.215  21.622  1.00  0.00    -0.173 NA
ATOM     91  C   UNL A   1      28.451  30.298  22.535  1.00  0.00     0.307 A 
ATOM     92  C   UNL A   1      29.571  30.385  21.696  1.00  0.00     0.220 A 
BRANCH  91  93
ATOM     93  N   UNL A   1      27.712  31.360  23.134  1.00  0.00     0.066 N 
ATOM     94  O   UNL A   1      26.943  31.061  24.053  1.00  0.00    -0.258 OA
ATOM     95  O   UNL A   1      27.852  32.483  22.628  1.00  0.00    -0.258 OA
ENDBRANCH  91  93
ENDBRANCH  84  88
ENDBRANCH  75  78
ENDBRANCH  73  74
ENDBRANCH  72  73
ENDBRANCH   1  72
TORSDOF 16
ENDMDL
