MODEL 1
REMARK VINA RESULT:     -13.9      0.000      0.000
REMARK SMILES COc1ccc(/C=C2/C(=O)N(c3ccccc3)C(=O)[NH+]=C2NCCCCNC(=O)c2ccc(-c3c4nc(c(-c5cc(S(=O)(=O)[O-])ccc5F)c5ccc([nH]5)c(-c5cc(S(=O)(=O)[O-])ccc5F)c5nc(c(-c6cc(S(=O)(=O)[O-])ccc6F)c6ccc3[nH]6)C=C5)C=C4)cc2)cc1C(=O)[O-]
REMARK SMILES IDX 25 1 24 2 23 3 22 4 7 5 8 6 9 7 21 8 10 9 11 10 20 11 18 12
REMARK SMILES IDX 19 15 6 16 3 17 4 18 94 19 5 20 93 21 2 22 1 23 95 24 96 25
REMARK SMILES IDX 97 26 12 27 13 28 17 29 14 30 16 31 15 32 26 33 27 34 28 35
REMARK SMILES IDX 29 37 30 38 31 39 92 40 32 41 91 42 33 43 34 44 35 45 85 46
REMARK SMILES IDX 36 47 90 48 84 49 86 50 37 51 89 52 83 53 82 54 38 56 70 57
REMARK SMILES IDX 50 58 69 59 51 60 54 61 68 62 87 63 52 64 53 65 67 67 88 68
REMARK SMILES IDX 55 69 39 70 40 71 48 72 41 73 47 74 49 75 46 76 42 77 43 78
REMARK SMILES IDX 44 79 45 80 71 81 72 82 80 83 73 84 79 85 81 86 78 87 74 88
REMARK SMILES IDX 75 89 76 90 77 91 56 92 57 93 65 94 58 95 64 96 66 97 63 98
REMARK SMILES IDX 59 99 60 100 61 101 62 102
REMARK H PARENT 20 13 22 14 27 36 86 55 54 66
REMARK Flexibility Score: inf
ROOT
ATOM      1  C   UNL A   1      34.741  22.499  27.457  1.00  0.00     0.024 C 
ENDROOT
BRANCH   1   2
ATOM      2  C   UNL A   1      33.061  23.124  27.588  1.00  0.00     0.039 C 
BRANCH   2   3
ATOM      3  C   UNL A   1      31.817  24.537  26.447  1.00  0.00     0.194 C 
BRANCH   3   4
ATOM      4  N   UNL A   1      32.097  26.116  26.084  1.00  0.00    -0.305 N 
ATOM      5  C   UNL A   1      30.351  25.187  23.792  1.00  0.00     0.030 C 
ATOM      6  C   UNL A   1      30.385  26.439  24.259  1.00  0.00     0.129 C 
ATOM      7  C   UNL A   1      29.405  27.458  23.859  1.00  0.00     0.328 C 
ATOM      8  C   UNL A   1      31.491  26.907  25.123  1.00  0.00     0.236 C 
ATOM      9  O   UNL A   1      28.229  27.161  23.660  1.00  0.00    -0.249 OA
ATOM     10  N   UNL A   1      29.982  28.707  23.734  1.00  0.00    -0.155 N 
ATOM     11  N   UNL A   1      31.941  28.114  24.917  1.00  0.00    -0.209 N 
ATOM     12  C   UNL A   1      31.357  28.859  23.903  1.00  0.00     0.448 C 
ATOM     13  H   UNL A   1      32.672  28.484  25.463  1.00  0.00     0.270 HD
ATOM     14  H   UNL A   1      32.791  26.559  26.622  1.00  0.00     0.256 HD
ATOM     15  O   UNL A   1      32.031  29.591  23.182  1.00  0.00    -0.212 OA
BRANCH   5  16
ATOM     16  C   UNL A   1      31.241  24.244  24.454  1.00  0.00    -0.024 A 
ATOM     17  C   UNL A   1      33.388  21.356  24.432  1.00  0.00     0.127 A 
ATOM     18  C   UNL A   1      31.717  21.225  25.152  1.00  0.00     0.048 A 
ATOM     19  C   UNL A   1      33.918  22.872  23.667  1.00  0.00     0.040 A 
ATOM     20  C   UNL A   1      30.665  22.716  25.259  1.00  0.00     0.012 A 
ATOM     21  C   UNL A   1      32.886  24.314  23.733  1.00  0.00     0.022 A 
BRANCH  17  22
ATOM     22  O   UNL A   1      34.294  20.352  24.673  1.00  0.00    -0.496 OA
ATOM     23  C   UNL A   1      33.783  19.049  24.286  1.00  0.00     0.278 C 
ENDBRANCH  17  22
BRANCH  19  24
ATOM     24  C   UNL A   1      35.194  22.977  22.955  1.00  0.00     0.075 C 
ATOM     25  O   UNL A   1      36.288  23.068  23.473  1.00  0.00    -0.545 OA
ATOM     26  O   UNL A   1      35.002  23.011  21.630  1.00  0.00    -0.545 OA
ENDBRANCH  19  24
ENDBRANCH   5  16
BRANCH  10  27
ATOM     27  C   UNL A   1      29.216  29.721  23.122  1.00  0.00     0.111 A 
ATOM     28  C   UNL A   1      28.827  30.860  23.835  1.00  0.00     0.044 A 
ATOM     29  C   UNL A   1      28.959  29.630  21.750  1.00  0.00     0.044 A 
ATOM     30  C   UNL A   1      28.191  31.909  23.169  1.00  0.00     0.004 A 
ATOM     31  C   UNL A   1      28.316  30.677  21.090  1.00  0.00     0.004 A 
ATOM     32  C   UNL A   1      27.938  31.817  21.798  1.00  0.00     0.000 A 
ENDBRANCH  10  27
ENDBRANCH   3   4
ENDBRANCH   2   3
ENDBRANCH   1   2
BRANCH   1  33
ATOM     33  C   UNL A   1      35.928  22.887  26.511  1.00  0.00     0.116 C 
BRANCH  33  34
ATOM     34  N   UNL A   1      36.831  21.809  26.154  1.00  0.00    -0.352 N 
ATOM     35  C   UNL A   1      38.178  21.714  26.010  1.00  0.00     0.251 C 
ATOM     36  H   UNL A   1      36.365  20.960  25.976  1.00  0.00     0.163 HD
ATOM     37  O   UNL A   1      38.725  20.684  25.634  1.00  0.00    -0.269 OA
BRANCH  35  38
ATOM     38  C   UNL A   1      38.995  22.831  26.406  1.00  0.00     0.039 A 
ATOM     39  C   UNL A   1      40.021  22.622  27.323  1.00  0.00     0.014 A 
ATOM     40  C   UNL A   1      38.632  24.088  25.922  1.00  0.00     0.014 A 
ATOM     41  C   UNL A   1      40.740  23.719  27.749  1.00  0.00     0.010 A 
ATOM     42  C   UNL A   1      39.374  25.173  26.317  1.00  0.00     0.010 A 
ATOM     43  C   UNL A   1      40.419  24.983  27.231  1.00  0.00    -0.014 A 
BRANCH  43  44
ATOM     44  C   UNL A   1      41.185  26.159  27.639  1.00  0.00     0.031 A 
ATOM     45  C   UNL A   1      40.507  27.198  28.465  1.00  0.00     0.074 A 
ATOM     46  C   UNL A   1      42.428  26.272  27.148  1.00  0.00     0.049 A 
ATOM     47  N   UNL A   1      40.949  28.362  28.842  1.00  0.00    -0.248 NA
ATOM     48  C   UNL A   1      39.124  26.906  28.885  1.00  0.00     0.031 C 
ATOM     49  C   UNL A   1      43.086  25.283  26.285  1.00  0.00     0.029 A 
ATOM     50  N   UNL A   1      43.352  27.262  27.286  1.00  0.00    -0.354 N 
ATOM     51  C   UNL A   1      39.896  28.954  29.529  1.00  0.00     0.074 A 
ATOM     52  C   UNL A   1      38.775  28.045  29.460  1.00  0.00     0.031 C 
ATOM     53  C   UNL A   1      44.320  25.713  25.987  1.00  0.00     0.029 A 
ATOM     54  C   UNL A   1      44.518  27.016  26.605  1.00  0.00     0.049 A 
ATOM     55  H   UNL A   1      43.199  28.074  27.822  1.00  0.00     0.167 HD
ATOM     56  C   UNL A   1      39.898  30.145  30.171  1.00  0.00     0.034 A 
ATOM     57  C   UNL A   1      45.616  27.784  26.500  1.00  0.00     0.034 A 
ATOM     58  C   UNL A   1      41.062  30.998  30.190  1.00  0.00     0.049 A 
ATOM     59  C   UNL A   1      45.604  29.088  27.249  1.00  0.00     0.074 A 
ATOM     60  C   UNL A   1      41.241  32.213  30.820  1.00  0.00     0.029 A 
ATOM     61  N   UNL A   1      42.258  30.708  29.533  1.00  0.00    -0.354 N 
ATOM     62  N   UNL A   1      44.626  29.626  27.947  1.00  0.00    -0.248 NA
ATOM     63  C   UNL A   1      46.836  29.875  27.218  1.00  0.00     0.031 C 
ATOM     64  C   UNL A   1      42.522  32.680  30.501  1.00  0.00     0.029 A 
ATOM     65  C   UNL A   1      43.172  31.727  29.729  1.00  0.00     0.049 A 
ATOM     66  H   UNL A   1      42.426  29.894  29.005  1.00  0.00     0.167 HD
ATOM     67  C   UNL A   1      45.134  30.810  28.463  1.00  0.00     0.074 A 
ATOM     68  C   UNL A   1      46.513  30.888  28.010  1.00  0.00     0.031 C 
ATOM     69  C   UNL A   1      44.531  31.753  29.234  1.00  0.00     0.034 A 
BRANCH  56  70
ATOM     70  C   UNL A   1      38.616  30.576  30.842  1.00  0.00     0.023 A 
ATOM     71  C   UNL A   1      37.581  31.205  30.124  1.00  0.00     0.031 A 
ATOM     72  C   UNL A   1      38.447  30.426  32.230  1.00  0.00     0.131 A 
ATOM     73  C   UNL A   1      36.474  31.739  30.802  1.00  0.00     0.055 A 
ATOM     74  C   UNL A   1      37.302  30.882  32.887  1.00  0.00     0.041 A 
ATOM     75  F   UNL A   1      39.407  29.860  32.978  1.00  0.00    -0.206 F 
ATOM     76  C   UNL A   1      36.315  31.559  32.177  1.00  0.00     0.022 A 
BRANCH  73  77
ATOM     77  S   UNL A   1      35.327  32.807  29.886  1.00  0.00     0.124 S 
ATOM     78  O   UNL A   1      34.463  33.296  30.957  1.00  0.00    -0.237 OA
ATOM     79  O   UNL A   1      36.221  33.790  29.287  1.00  0.00    -0.237 OA
ATOM     80  O   UNL A   1      34.684  31.893  28.944  1.00  0.00    -0.744 OA
ENDBRANCH  73  77
ENDBRANCH  56  70
BRANCH  57  81
ATOM     81  C   UNL A   1      46.785  27.320  25.706  1.00  0.00     0.023 A 
ATOM     82  C   UNL A   1      46.981  27.766  24.390  1.00  0.00     0.031 A 
ATOM     83  C   UNL A   1      47.739  26.443  26.253  1.00  0.00     0.131 A 
ATOM     84  C   UNL A   1      48.079  27.303  23.651  1.00  0.00     0.055 A 
ATOM     85  C   UNL A   1      48.856  26.022  25.530  1.00  0.00     0.041 A 
ATOM     86  F   UNL A   1      47.613  26.006  27.517  1.00  0.00    -0.206 F 
ATOM     87  C   UNL A   1      49.025  26.443  24.214  1.00  0.00     0.022 A 
BRANCH  84  88
ATOM     88  S   UNL A   1      48.218  27.790  21.910  1.00  0.00     0.124 S 
ATOM     89  O   UNL A   1      48.409  26.502  21.254  1.00  0.00    -0.237 OA
ATOM     90  O   UNL A   1      46.933  28.443  21.678  1.00  0.00    -0.237 OA
ATOM     91  O   UNL A   1      49.378  28.677  21.896  1.00  0.00    -0.744 OA
ENDBRANCH  84  88
ENDBRANCH  57  81
BRANCH  69  92
ATOM     92  C   UNL A   1      45.391  32.918  29.639  1.00  0.00     0.023 A 
ATOM     93  C   UNL A   1      45.451  34.084  28.859  1.00  0.00     0.031 A 
ATOM     94  C   UNL A   1      46.170  32.851  30.806  1.00  0.00     0.131 A 
ATOM     95  C   UNL A   1      46.329  35.113  29.220  1.00  0.00     0.055 A 
ATOM     96  C   UNL A   1      46.987  33.909  31.198  1.00  0.00     0.041 A 
ATOM     97  F   UNL A   1      46.144  31.755  31.583  1.00  0.00    -0.206 F 
ATOM     98  C   UNL A   1      47.082  35.042  30.396  1.00  0.00     0.022 A 
BRANCH  95  99
ATOM     99  S   UNL A   1      46.550  36.498  28.073  1.00  0.00     0.124 S 
ATOM    100  O   UNL A   1      47.651  37.229  28.693  1.00  0.00    -0.237 OA
ATOM    101  O   UNL A   1      46.863  35.819  26.820  1.00  0.00    -0.237 OA
ATOM    102  O   UNL A   1      45.257  37.179  28.106  1.00  0.00    -0.744 OA
ENDBRANCH  95  99
ENDBRANCH  69  92
ENDBRANCH  43  44
ENDBRANCH  35  38
ENDBRANCH  33  34
ENDBRANCH   1  33
TORSDOF 17
ENDMDL
MODEL 2
REMARK VINA RESULT:     -13.6      2.434      3.347
REMARK SMILES COc1ccc(/C=C2/C(=O)N(c3ccccc3)C(=O)[NH+]=C2NCCCCNC(=O)c2ccc(-c3c4nc(c(-c5cc(S(=O)(=O)[O-])ccc5F)c5ccc([nH]5)c(-c5cc(S(=O)(=O)[O-])ccc5F)c5nc(c(-c6cc(S(=O)(=O)[O-])ccc6F)c6ccc3[nH]6)C=C5)C=C4)cc2)cc1C(=O)[O-]
REMARK SMILES IDX 25 1 24 2 23 3 22 4 7 5 8 6 9 7 21 8 10 9 11 10 20 11 18 12
REMARK SMILES IDX 19 15 6 16 3 17 4 18 94 19 5 20 93 21 2 22 1 23 95 24 96 25
REMARK SMILES IDX 97 26 12 27 13 28 17 29 14 30 16 31 15 32 26 33 27 34 28 35
REMARK SMILES IDX 29 37 30 38 31 39 92 40 32 41 91 42 33 43 34 44 35 45 85 46
REMARK SMILES IDX 36 47 90 48 84 49 86 50 37 51 89 52 83 53 82 54 38 56 70 57
REMARK SMILES IDX 50 58 69 59 51 60 54 61 68 62 87 63 52 64 53 65 67 67 88 68
REMARK SMILES IDX 55 69 39 70 40 71 48 72 41 73 47 74 49 75 46 76 42 77 43 78
REMARK SMILES IDX 44 79 45 80 71 81 72 82 80 83 73 84 79 85 81 86 78 87 74 88
REMARK SMILES IDX 75 89 76 90 77 91 56 92 57 93 65 94 58 95 64 96 66 97 63 98
REMARK SMILES IDX 59 99 60 100 61 101 62 102
REMARK H PARENT 20 13 22 14 27 36 86 55 54 66
REMARK Flexibility Score: inf
ROOT
ATOM      1  C   UNL A   1      37.995  20.622  24.949  1.00  0.00     0.024 C 
ENDROOT
BRANCH   1   2
ATOM      2  C   UNL A   1      36.205  20.641  25.100  1.00  0.00     0.039 C 
BRANCH   2   3
ATOM      3  C   UNL A   1      34.632  22.177  24.965  1.00  0.00     0.194 C 
BRANCH   3   4
ATOM      4  N   UNL A   1      34.413  23.348  23.831  1.00  0.00    -0.305 N 
ATOM      5  C   UNL A   1      31.668  23.083  25.080  1.00  0.00     0.030 C 
ATOM      6  C   UNL A   1      32.153  24.209  24.547  1.00  0.00     0.129 C 
ATOM      7  C   UNL A   1      31.490  25.511  24.714  1.00  0.00     0.328 C 
ATOM      8  C   UNL A   1      33.330  24.192  23.652  1.00  0.00     0.236 C 
ATOM      9  O   UNL A   1      30.926  25.802  25.766  1.00  0.00    -0.249 OA
ATOM     10  N   UNL A   1      31.582  26.285  23.574  1.00  0.00    -0.155 N 
ATOM     11  N   UNL A   1      33.305  24.982  22.614  1.00  0.00    -0.209 N 
ATOM     12  C   UNL A   1      32.177  25.767  22.425  1.00  0.00     0.448 C 
ATOM     13  H   UNL A   1      34.060  25.019  21.985  1.00  0.00     0.270 HD
ATOM     14  H   UNL A   1      35.153  23.466  23.193  1.00  0.00     0.256 HD
ATOM     15  O   UNL A   1      31.721  25.966  21.302  1.00  0.00    -0.212 OA
BRANCH   5  16
ATOM     16  C   UNL A   1      32.553  21.928  25.021  1.00  0.00    -0.024 A 
ATOM     17  C   UNL A   1      33.133  18.381  24.838  1.00  0.00     0.127 A 
ATOM     18  C   UNL A   1      33.365  19.247  26.427  1.00  0.00     0.048 A 
ATOM     19  C   UNL A   1      32.540  19.266  23.414  1.00  0.00     0.040 A 
ATOM     20  C   UNL A   1      33.173  21.063  26.499  1.00  0.00     0.012 A 
ATOM     21  C   UNL A   1      32.314  21.026  23.486  1.00  0.00     0.022 A 
BRANCH  17  22
ATOM     22  O   UNL A   1      33.618  17.103  24.702  1.00  0.00    -0.496 OA
ATOM     23  C   UNL A   1      32.723  16.115  25.277  1.00  0.00     0.278 C 
ENDBRANCH  17  22
BRANCH  19  24
ATOM     24  C   UNL A   1      32.206  18.586  22.160  1.00  0.00     0.075 C 
ATOM     25  O   UNL A   1      32.073  17.388  22.019  1.00  0.00    -0.545 OA
ATOM     26  O   UNL A   1      32.111  19.462  21.151  1.00  0.00    -0.545 OA
ENDBRANCH  19  24
ENDBRANCH   5  16
BRANCH  10  27
ATOM     27  C   UNL A   1      30.785  27.448  23.510  1.00  0.00     0.111 A 
ATOM     28  C   UNL A   1      31.363  28.721  23.562  1.00  0.00     0.044 A 
ATOM     29  C   UNL A   1      29.415  27.307  23.264  1.00  0.00     0.044 A 
ATOM     30  C   UNL A   1      30.567  29.849  23.357  1.00  0.00     0.004 A 
ATOM     31  C   UNL A   1      28.623  28.438  23.068  1.00  0.00     0.004 A 
ATOM     32  C   UNL A   1      29.200  29.707  23.108  1.00  0.00     0.000 A 
ENDBRANCH  10  27
ENDBRANCH   3   4
ENDBRANCH   2   3
ENDBRANCH   1   2
BRANCH   1  33
ATOM     33  C   UNL A   1      39.133  20.769  26.016  1.00  0.00     0.116 C 
BRANCH  33  34
ATOM     34  N   UNL A   1      40.222  19.815  25.916  1.00  0.00    -0.352 N 
ATOM     35  C   UNL A   1      41.574  19.914  25.988  1.00  0.00     0.251 C 
ATOM     36  H   UNL A   1      39.912  18.893  25.762  1.00  0.00     0.163 HD
ATOM     37  O   UNL A   1      42.311  18.951  25.810  1.00  0.00    -0.269 OA
BRANCH  35  38
ATOM     38  C   UNL A   1      42.155  21.171  26.380  1.00  0.00     0.039 A 
ATOM     39  C   UNL A   1      42.319  21.443  27.736  1.00  0.00     0.014 A 
ATOM     40  C   UNL A   1      42.418  22.094  25.367  1.00  0.00     0.014 A 
ATOM     41  C   UNL A   1      42.802  22.684  28.091  1.00  0.00     0.010 A 
ATOM     42  C   UNL A   1      42.936  23.314  25.722  1.00  0.00     0.010 A 
ATOM     43  C   UNL A   1      43.120  23.604  27.081  1.00  0.00    -0.014 A 
BRANCH  43  44
ATOM     44  C   UNL A   1      43.665  24.914  27.427  1.00  0.00     0.031 A 
ATOM     45  C   UNL A   1      42.734  25.959  27.940  1.00  0.00     0.074 A 
ATOM     46  C   UNL A   1      44.962  25.121  27.157  1.00  0.00     0.049 A 
ATOM     47  N   UNL A   1      42.971  27.212  28.199  1.00  0.00    -0.248 NA
ATOM     48  C   UNL A   1      41.333  25.549  28.144  1.00  0.00     0.031 C 
ATOM     49  C   UNL A   1      45.876  24.117  26.596  1.00  0.00     0.029 A 
ATOM     50  N   UNL A   1      45.734  26.233  27.300  1.00  0.00    -0.354 N 
ATOM     51  C   UNL A   1      41.748  27.749  28.582  1.00  0.00     0.074 A 
ATOM     52  C   UNL A   1      40.761  26.700  28.457  1.00  0.00     0.031 C 
ATOM     53  C   UNL A   1      47.094  24.660  26.462  1.00  0.00     0.029 A 
ATOM     54  C   UNL A   1      47.032  26.051  26.889  1.00  0.00     0.049 A 
ATOM     55  H   UNL A   1      45.396  27.083  27.662  1.00  0.00     0.167 HD
ATOM     56  C   UNL A   1      41.501  29.008  29.014  1.00  0.00     0.034 A 
ATOM     57  C   UNL A   1      48.044  26.934  26.863  1.00  0.00     0.034 A 
ATOM     58  C   UNL A   1      42.544  30.000  29.107  1.00  0.00     0.049 A 
ATOM     59  C   UNL A   1      47.750  28.316  27.378  1.00  0.00     0.074 A 
ATOM     60  C   UNL A   1      42.469  31.303  29.556  1.00  0.00     0.029 A 
ATOM     61  N   UNL A   1      43.869  29.782  28.732  1.00  0.00    -0.354 N 
ATOM     62  N   UNL A   1      46.603  28.812  27.793  1.00  0.00    -0.248 NA
ATOM     63  C   UNL A   1      48.876  29.246  27.445  1.00  0.00     0.031 C 
ATOM     64  C   UNL A   1      43.733  31.886  29.403  1.00  0.00     0.029 A 
ATOM     65  C   UNL A   1      44.617  30.928  28.923  1.00  0.00     0.049 A 
ATOM     66  H   UNL A   1      44.222  28.932  28.379  1.00  0.00     0.167 HD
ATOM     67  C   UNL A   1      46.875  30.112  28.196  1.00  0.00     0.074 A 
ATOM     68  C   UNL A   1      48.302  30.307  27.993  1.00  0.00     0.031 C 
ATOM     69  C   UNL A   1      46.038  31.065  28.685  1.00  0.00     0.034 A 
BRANCH  56  70
ATOM     70  C   UNL A   1      40.073  29.354  29.365  1.00  0.00     0.023 A 
ATOM     71  C   UNL A   1      39.645  29.454  30.703  1.00  0.00     0.031 A 
ATOM     72  C   UNL A   1      39.107  29.516  28.358  1.00  0.00     0.131 A 
ATOM     73  C   UNL A   1      38.282  29.616  30.997  1.00  0.00     0.055 A 
ATOM     74  C   UNL A   1      37.765  29.765  28.657  1.00  0.00     0.041 A 
ATOM     75  F   UNL A   1      39.443  29.405  27.064  1.00  0.00    -0.206 F 
ATOM     76  C   UNL A   1      37.341  29.798  29.982  1.00  0.00     0.022 A 
BRANCH  73  77
ATOM     77  S   UNL A   1      37.737  29.428  32.718  1.00  0.00     0.124 S 
ATOM     78  O   UNL A   1      36.457  30.132  32.700  1.00  0.00    -0.237 OA
ATOM     79  O   UNL A   1      37.668  27.979  32.871  1.00  0.00    -0.237 OA
ATOM     80  O   UNL A   1      38.791  30.086  33.487  1.00  0.00    -0.744 OA
ENDBRANCH  73  77
ENDBRANCH  56  70
BRANCH  57  81
ATOM     81  C   UNL A   1      49.388  26.523  26.378  1.00  0.00     0.023 A 
ATOM     82  C   UNL A   1      49.895  27.015  25.165  1.00  0.00     0.031 A 
ATOM     83  C   UNL A   1      50.200  25.650  27.125  1.00  0.00     0.131 A 
ATOM     84  C   UNL A   1      51.158  26.602  24.715  1.00  0.00     0.055 A 
ATOM     85  C   UNL A   1      51.475  25.278  26.696  1.00  0.00     0.041 A 
ATOM     86  F   UNL A   1      49.774  25.169  28.305  1.00  0.00    -0.206 F 
ATOM     87  C   UNL A   1      51.956  25.745  25.477  1.00  0.00     0.022 A 
BRANCH  84  88
ATOM     88  S   UNL A   1      51.715  27.148  23.078  1.00  0.00     0.124 S 
ATOM     89  O   UNL A   1      52.035  28.549  23.324  1.00  0.00    -0.237 OA
ATOM     90  O   UNL A   1      52.850  26.263  22.837  1.00  0.00    -0.237 OA
ATOM     91  O   UNL A   1      50.551  26.912  22.227  1.00  0.00    -0.744 OA
ENDBRANCH  84  88
ENDBRANCH  57  81
BRANCH  69  92
ATOM     92  C   UNL A   1      46.677  32.377  29.047  1.00  0.00     0.023 A 
ATOM     93  C   UNL A   1      46.781  33.418  28.110  1.00  0.00     0.031 A 
ATOM     94  C   UNL A   1      47.200  32.577  30.335  1.00  0.00     0.131 A 
ATOM     95  C   UNL A   1      47.459  34.593  28.456  1.00  0.00     0.055 A 
ATOM     96  C   UNL A   1      47.811  33.777  30.694  1.00  0.00     0.041 A 
ATOM     97  F   UNL A   1      47.124  31.608  31.262  1.00  0.00    -0.206 F 
ATOM     98  C   UNL A   1      47.957  34.787  29.748  1.00  0.00     0.022 A 
BRANCH  95  99
ATOM     99  S   UNL A   1      47.775  35.818  27.159  1.00  0.00     0.124 S 
ATOM    100  O   UNL A   1      48.763  36.684  27.796  1.00  0.00    -0.237 OA
ATOM    101  O   UNL A   1      48.266  34.992  26.062  1.00  0.00    -0.237 OA
ATOM    102  O   UNL A   1      46.464  36.428  26.940  1.00  0.00    -0.744 OA
ENDBRANCH  95  99
ENDBRANCH  69  92
ENDBRANCH  43  44
ENDBRANCH  35  38
ENDBRANCH  33  34
ENDBRANCH   1  33
TORSDOF 17
ENDMDL
MODEL 3
REMARK VINA RESULT:     -13.3      5.148      9.531
REMARK SMILES COc1ccc(/C=C2/C(=O)N(c3ccccc3)C(=O)[NH+]=C2NCCCCNC(=O)c2ccc(-c3c4nc(c(-c5cc(S(=O)(=O)[O-])ccc5F)c5ccc([nH]5)c(-c5cc(S(=O)(=O)[O-])ccc5F)c5nc(c(-c6cc(S(=O)(=O)[O-])ccc6F)c6ccc3[nH]6)C=C5)C=C4)cc2)cc1C(=O)[O-]
REMARK SMILES IDX 25 1 24 2 23 3 22 4 7 5 8 6 9 7 21 8 10 9 11 10 20 11 18 12
REMARK SMILES IDX 19 15 6 16 3 17 4 18 94 19 5 20 93 21 2 22 1 23 95 24 96 25
REMARK SMILES IDX 97 26 12 27 13 28 17 29 14 30 16 31 15 32 26 33 27 34 28 35
REMARK SMILES IDX 29 37 30 38 31 39 92 40 32 41 91 42 33 43 34 44 35 45 85 46
REMARK SMILES IDX 36 47 90 48 84 49 86 50 37 51 89 52 83 53 82 54 38 56 70 57
REMARK SMILES IDX 50 58 69 59 51 60 54 61 68 62 87 63 52 64 53 65 67 67 88 68
REMARK SMILES IDX 55 69 39 70 40 71 48 72 41 73 47 74 49 75 46 76 42 77 43 78
REMARK SMILES IDX 44 79 45 80 71 81 72 82 80 83 73 84 79 85 81 86 78 87 74 88
REMARK SMILES IDX 75 89 76 90 77 91 56 92 57 93 65 94 58 95 64 96 66 97 63 98
REMARK SMILES IDX 59 99 60 100 61 101 62 102
REMARK H PARENT 20 13 22 14 27 36 86 55 54 66
REMARK Flexibility Score: inf
ROOT
ATOM      1  C   UNL A   1      44.746  23.972  25.187  1.00  0.00     0.024 C 
ENDROOT
BRANCH   1   2
ATOM      2  C   UNL A   1      43.034  24.511  25.101  1.00  0.00     0.039 C 
BRANCH   2   3
ATOM      3  C   UNL A   1      41.629  25.508  26.471  1.00  0.00     0.194 C 
BRANCH   3   4
ATOM      4  N   UNL A   1      40.889  26.969  26.325  1.00  0.00    -0.305 N 
ATOM      5  C   UNL A   1      39.941  25.990  29.028  1.00  0.00     0.030 C 
ATOM      6  C   UNL A   1      40.091  27.277  28.698  1.00  0.00     0.129 C 
ATOM      7  C   UNL A   1      40.031  28.359  29.691  1.00  0.00     0.328 C 
ATOM      8  C   UNL A   1      40.211  27.700  27.286  1.00  0.00     0.236 C 
ATOM      9  O   UNL A   1      40.483  28.205  30.823  1.00  0.00    -0.249 OA
ATOM     10  N   UNL A   1      39.413  29.487  29.186  1.00  0.00    -0.155 N 
ATOM     11  N   UNL A   1      39.593  28.793  26.934  1.00  0.00    -0.209 N 
ATOM     12  C   UNL A   1      38.867  29.469  27.904  1.00  0.00     0.448 C 
ATOM     13  H   UNL A   1      39.638  29.128  26.009  1.00  0.00     0.270 HD
ATOM     14  H   UNL A   1      40.933  27.380  25.432  1.00  0.00     0.256 HD
ATOM     15  O   UNL A   1      37.788  29.995  27.641  1.00  0.00    -0.212 OA
BRANCH   5  16
ATOM     16  C   UNL A   1      40.254  25.031  27.979  1.00  0.00    -0.024 A 
ATOM     17  C   UNL A   1      39.787  21.867  26.330  1.00  0.00     0.127 A 
ATOM     18  C   UNL A   1      41.256  22.122  27.381  1.00  0.00     0.048 A 
ATOM     19  C   UNL A   1      38.552  23.139  26.192  1.00  0.00     0.040 A 
ATOM     20  C   UNL A   1      41.549  23.761  28.135  1.00  0.00     0.012 A 
ATOM     21  C   UNL A   1      38.812  24.722  26.953  1.00  0.00     0.022 A 
BRANCH  17  22
ATOM     22  O   UNL A   1      39.753  20.780  25.490  1.00  0.00    -0.496 OA
ATOM     23  C   UNL A   1      40.271  19.582  26.126  1.00  0.00     0.278 C 
ENDBRANCH  17  22
BRANCH  19  24
ATOM     24  C   UNL A   1      37.293  22.925  25.473  1.00  0.00     0.075 C 
ATOM     25  O   UNL A   1      37.035  23.338  24.362  1.00  0.00    -0.545 OA
ATOM     26  O   UNL A   1      36.422  22.243  26.227  1.00  0.00    -0.545 OA
ENDBRANCH  19  24
ENDBRANCH   5  16
BRANCH  10  27
ATOM     27  C   UNL A   1      39.069  30.506  30.100  1.00  0.00     0.111 A 
ATOM     28  C   UNL A   1      39.724  31.742  30.081  1.00  0.00     0.044 A 
ATOM     29  C   UNL A   1      37.973  30.305  30.945  1.00  0.00     0.044 A 
ATOM     30  C   UNL A   1      39.271  32.777  30.900  1.00  0.00     0.004 A 
ATOM     31  C   UNL A   1      37.529  31.339  31.768  1.00  0.00     0.004 A 
ATOM     32  C   UNL A   1      38.173  32.576  31.741  1.00  0.00     0.000 A 
ENDBRANCH  10  27
ENDBRANCH   3   4
ENDBRANCH   2   3
ENDBRANCH   1   2
BRANCH   1  33
ATOM     33  C   UNL A   1      46.062  24.734  25.563  1.00  0.00     0.116 C 
BRANCH  33  34
ATOM     34  N   UNL A   1      46.453  25.804  24.665  1.00  0.00    -0.352 N 
ATOM     35  C   UNL A   1      46.298  27.154  24.679  1.00  0.00     0.251 C 
ATOM     36  H   UNL A   1      46.934  25.481  23.869  1.00  0.00     0.163 HD
ATOM     37  O   UNL A   1      46.672  27.865  23.754  1.00  0.00    -0.269 OA
BRANCH  35  38
ATOM     38  C   UNL A   1      45.766  27.775  25.863  1.00  0.00     0.039 A 
ATOM     39  C   UNL A   1      46.642  28.156  26.875  1.00  0.00     0.014 A 
ATOM     40  C   UNL A   1      44.377  27.856  25.968  1.00  0.00     0.014 A 
ATOM     41  C   UNL A   1      46.104  28.676  28.033  1.00  0.00     0.010 A 
ATOM     42  C   UNL A   1      43.845  28.411  27.106  1.00  0.00     0.010 A 
ATOM     43  C   UNL A   1      44.711  28.812  28.133  1.00  0.00    -0.014 A 
BRANCH  43  44
ATOM     44  C   UNL A   1      44.114  29.390  29.335  1.00  0.00     0.031 A 
ATOM     45  C   UNL A   1      43.805  30.848  29.345  1.00  0.00     0.074 A 
ATOM     46  C   UNL A   1      43.980  28.578  30.394  1.00  0.00     0.049 A 
ATOM     47  N   UNL A   1      43.384  31.589  30.328  1.00  0.00    -0.248 NA
ATOM     48  C   UNL A   1      44.048  31.580  28.089  1.00  0.00     0.031 C 
ATOM     49  C   UNL A   1      44.336  27.154  30.415  1.00  0.00     0.029 A 
ATOM     50  N   UNL A   1      43.528  28.828  31.654  1.00  0.00    -0.354 N 
ATOM     51  C   UNL A   1      43.326  32.881  29.819  1.00  0.00     0.074 A 
ATOM     52  C   UNL A   1      43.817  32.829  28.461  1.00  0.00     0.031 C 
ATOM     53  C   UNL A   1      44.067  26.653  31.629  1.00  0.00     0.029 A 
ATOM     54  C   UNL A   1      43.562  27.726  32.472  1.00  0.00     0.049 A 
ATOM     55  H   UNL A   1      43.208  29.712  31.948  1.00  0.00     0.167 HD
ATOM     56  C   UNL A   1      42.879  33.994  30.447  1.00  0.00     0.034 A 
ATOM     57  C   UNL A   1      43.221  27.622  33.767  1.00  0.00     0.034 A 
ATOM     58  C   UNL A   1      42.407  33.962  31.810  1.00  0.00     0.049 A 
ATOM     59  C   UNL A   1      42.698  28.866  34.432  1.00  0.00     0.074 A 
ATOM     60  C   UNL A   1      41.890  34.986  32.577  1.00  0.00     0.029 A 
ATOM     61  N   UNL A   1      42.401  32.820  32.611  1.00  0.00    -0.354 N 
ATOM     62  N   UNL A   1      42.590  30.080  33.935  1.00  0.00    -0.248 NA
ATOM     63  C   UNL A   1      42.231  28.728  35.811  1.00  0.00     0.031 C 
ATOM     64  C   UNL A   1      41.624  34.477  33.854  1.00  0.00     0.029 A 
ATOM     65  C   UNL A   1      41.907  33.118  33.867  1.00  0.00     0.049 A 
ATOM     66  H   UNL A   1      42.707  31.929  32.324  1.00  0.00     0.167 HD
ATOM     67  C   UNL A   1      42.018  30.852  34.937  1.00  0.00     0.074 A 
ATOM     68  C   UNL A   1      41.785  29.952  36.055  1.00  0.00     0.031 C 
ATOM     69  C   UNL A   1      41.713  32.176  34.948  1.00  0.00     0.034 A 
BRANCH  56  70
ATOM     70  C   UNL A   1      42.926  35.292  29.678  1.00  0.00     0.023 A 
ATOM     71  C   UNL A   1      44.015  36.178  29.790  1.00  0.00     0.031 A 
ATOM     72  C   UNL A   1      41.842  35.692  28.877  1.00  0.00     0.131 A 
ATOM     73  C   UNL A   1      43.957  37.447  29.193  1.00  0.00     0.055 A 
ATOM     74  C   UNL A   1      41.829  36.921  28.214  1.00  0.00     0.041 A 
ATOM     75  F   UNL A   1      40.761  34.907  28.750  1.00  0.00    -0.206 F 
ATOM     76  C   UNL A   1      42.882  37.816  28.384  1.00  0.00     0.022 A 
BRANCH  73  77
ATOM     77  S   UNL A   1      45.233  38.667  29.619  1.00  0.00     0.124 S 
ATOM     78  O   UNL A   1      44.426  39.851  29.898  1.00  0.00    -0.237 OA
ATOM     79  O   UNL A   1      45.886  38.053  30.769  1.00  0.00    -0.237 OA
ATOM     80  O   UNL A   1      46.048  38.748  28.408  1.00  0.00    -0.744 OA
ENDBRANCH  73  77
ENDBRANCH  56  70
BRANCH  57  81
ATOM     81  C   UNL A   1      43.331  26.317  34.472  1.00  0.00     0.023 A 
ATOM     82  C   UNL A   1      44.586  25.781  34.798  1.00  0.00     0.031 A 
ATOM     83  C   UNL A   1      42.187  25.592  34.851  1.00  0.00     0.131 A 
ATOM     84  C   UNL A   1      44.670  24.540  35.446  1.00  0.00     0.055 A 
ATOM     85  C   UNL A   1      42.274  24.380  35.538  1.00  0.00     0.041 A 
ATOM     86  F   UNL A   1      40.960  26.072  34.586  1.00  0.00    -0.206 F 
ATOM     87  C   UNL A   1      43.523  23.840  35.828  1.00  0.00     0.022 A 
BRANCH  84  88
ATOM     88  S   UNL A   1      46.310  23.816  35.721  1.00  0.00     0.124 S 
ATOM     89  O   UNL A   1      47.024  24.924  36.347  1.00  0.00    -0.237 OA
ATOM     90  O   UNL A   1      45.996  22.684  36.588  1.00  0.00    -0.237 OA
ATOM     91  O   UNL A   1      46.756  23.464  34.376  1.00  0.00    -0.744 OA
ENDBRANCH  84  88
ENDBRANCH  57  81
BRANCH  69  92
ATOM     92  C   UNL A   1      41.074  32.692  36.208  1.00  0.00     0.023 A 
ATOM     93  C   UNL A   1      39.759  32.341  36.553  1.00  0.00     0.031 A 
ATOM     94  C   UNL A   1      41.783  33.556  37.058  1.00  0.00     0.131 A 
ATOM     95  C   UNL A   1      39.167  32.908  37.687  1.00  0.00     0.055 A 
ATOM     96  C   UNL A   1      41.212  34.062  38.224  1.00  0.00     0.041 A 
ATOM     97  F   UNL A   1      43.043  33.920  36.767  1.00  0.00    -0.206 F 
ATOM     98  C   UNL A   1      39.891  33.751  38.536  1.00  0.00     0.022 A 
BRANCH  95  99
ATOM     99  S   UNL A   1      37.403  32.614  37.976  1.00  0.00     0.124 S 
ATOM    100  O   UNL A   1      37.300  31.172  37.774  1.00  0.00    -0.237 OA
ATOM    101  O   UNL A   1      37.230  33.078  39.349  1.00  0.00    -0.237 OA
ATOM    102  O   UNL A   1      36.749  33.433  36.957  1.00  0.00    -0.744 OA
ENDBRANCH  95  99
ENDBRANCH  69  92
ENDBRANCH  43  44
ENDBRANCH  35  38
ENDBRANCH  33  34
ENDBRANCH   1  33
TORSDOF 17
ENDMDL
