MODEL 1
REMARK VINA RESULT:     -11.1      0.000      0.000
REMARK SMILES O=C(NCCCCNC(=O)c1ccnc(Oc2cccc(C(F)(F)F)c2)c1)c1ccc(-c2c3nc(c(-c4cc(S(=O)(=O)[O-])ccc4F)c4ccc([nH]4)c(-c4cc(S(=O)(=O)[O-])ccc4F)c4nc(c(-c5cc(S(=O)(=O)[O-])ccc5F)c5ccc2[nH]5)C=C4)C=C3)cc1
REMARK SMILES IDX 5 1 4 2 3 3 1 4 2 5 28 7 29 8 90 9 30 10 89 11 31 12 32 13
REMARK SMILES IDX 33 14 83 15 34 16 88 17 82 18 84 19 35 20 87 21 81 22 80 23
REMARK SMILES IDX 36 25 68 26 48 27 67 28 49 29 52 30 66 31 85 32 50 33 51 34
REMARK SMILES IDX 65 36 86 37 53 38 37 39 38 40 46 41 39 42 45 43 47 44 44 45
REMARK SMILES IDX 40 46 41 47 42 48 43 49 69 50 70 51 78 52 71 53 77 54 79 55
REMARK SMILES IDX 76 56 72 57 73 58 74 59 75 60 54 61 55 62 63 63 56 64 62 65
REMARK SMILES IDX 64 66 61 67 57 68 58 69 59 70 60 71 6 72 7 73 8 74 9 75
REMARK SMILES IDX 10 77 11 78 12 79 27 80 13 81 15 82 14 83 16 84 17 85 18 86
REMARK SMILES IDX 26 87 19 88 21 89 20 90 22 91 23 92 24 93 25 94
REMARK H PARENT 3 6 84 24 52 35 8 76
REMARK Flexibility Score: inf
ROOT
ATOM      1  C   UNL A   1      33.337  27.643  26.155  1.00  0.00     0.023 C 
ENDROOT
BRANCH   1   2
ATOM      2  C   UNL A   1      34.034  28.869  25.578  1.00  0.00     0.116 C 
BRANCH   2   3
ATOM      3  N   UNL A   1      33.457  30.124  26.032  1.00  0.00    -0.352 N 
ATOM      4  O   UNL A   1      33.153  31.898  27.387  1.00  0.00    -0.269 OA
ATOM      5  C   UNL A   1      33.837  30.926  27.083  1.00  0.00     0.251 C 
ATOM      6  H   UNL A   1      32.684  30.446  25.513  1.00  0.00     0.163 HD
BRANCH   5   7
ATOM      7  C   UNL A   1      35.054  30.599  27.859  1.00  0.00     0.039 A 
ATOM      8  C   UNL A   1      35.085  29.487  28.704  1.00  0.00     0.014 A 
ATOM      9  C   UNL A   1      36.177  31.422  27.740  1.00  0.00     0.014 A 
ATOM     10  C   UNL A   1      36.184  29.278  29.531  1.00  0.00     0.010 A 
ATOM     11  C   UNL A   1      37.312  31.164  28.515  1.00  0.00     0.010 A 
ATOM     12  C   UNL A   1      37.313  30.107  29.440  1.00  0.00    -0.014 A 
BRANCH  12  13
ATOM     13  C   UNL A   1      38.502  29.822  30.283  1.00  0.00     0.031 A 
ATOM     14  C   UNL A   1      38.653  30.434  31.647  1.00  0.00     0.074 A 
ATOM     15  C   UNL A   1      39.450  28.994  29.803  1.00  0.00     0.049 A 
ATOM     16  N   UNL A   1      39.633  30.307  32.506  1.00  0.00    -0.248 NA
ATOM     17  C   UNL A   1      37.567  31.316  32.100  1.00  0.00     0.031 C 
ATOM     18  C   UNL A   1      39.416  28.354  28.485  1.00  0.00     0.029 A 
ATOM     19  N   UNL A   1      40.619  28.545  30.360  1.00  0.00    -0.354 N 
ATOM     20  C   UNL A   1      39.294  31.103  33.596  1.00  0.00     0.074 A 
ATOM     21  C   UNL A   1      38.032  31.736  33.268  1.00  0.00     0.031 C 
ATOM     22  C   UNL A   1      40.502  27.581  28.343  1.00  0.00     0.029 A 
ATOM     23  C   UNL A   1      41.338  27.717  29.531  1.00  0.00     0.049 A 
ATOM     24  H   UNL A   1      40.915  28.791  31.265  1.00  0.00     0.167 HD
ATOM     25  C   UNL A   1      39.970  31.280  34.759  1.00  0.00     0.034 A 
ATOM     26  C   UNL A   1      42.551  27.154  29.688  1.00  0.00     0.034 A 
ATOM     27  C   UNL A   1      41.227  30.636  35.063  1.00  0.00     0.049 A 
ATOM     28  C   UNL A   1      43.297  27.389  30.971  1.00  0.00     0.074 A 
ATOM     29  C   UNL A   1      41.971  30.701  36.229  1.00  0.00     0.029 A 
ATOM     30  N   UNL A   1      41.938  29.823  34.189  1.00  0.00    -0.354 N 
ATOM     31  N   UNL A   1      42.946  28.115  32.008  1.00  0.00    -0.248 NA
ATOM     32  C   UNL A   1      44.599  26.726  31.109  1.00  0.00     0.031 C 
ATOM     33  C   UNL A   1      43.160  29.986  36.035  1.00  0.00     0.029 A 
ATOM     34  C   UNL A   1      43.128  29.412  34.775  1.00  0.00     0.049 A 
ATOM     35  H   UNL A   1      41.642  29.573  33.284  1.00  0.00     0.167 HD
ATOM     36  C   UNL A   1      43.981  27.986  32.927  1.00  0.00     0.074 A 
ATOM     37  C   UNL A   1      44.957  27.097  32.330  1.00  0.00     0.031 C 
ATOM     38  C   UNL A   1      44.108  28.550  34.156  1.00  0.00     0.034 A 
BRANCH  25  39
ATOM     39  C   UNL A   1      39.383  32.245  35.764  1.00  0.00     0.023 A 
ATOM     40  C   UNL A   1      39.800  33.585  35.840  1.00  0.00     0.031 A 
ATOM     41  C   UNL A   1      38.412  31.809  36.684  1.00  0.00     0.131 A 
ATOM     42  C   UNL A   1      39.310  34.417  36.859  1.00  0.00     0.055 A 
ATOM     43  C   UNL A   1      37.869  32.663  37.646  1.00  0.00     0.041 A 
ATOM     44  F   UNL A   1      37.985  30.536  36.675  1.00  0.00    -0.206 F 
ATOM     45  C   UNL A   1      38.330  33.972  37.749  1.00  0.00     0.022 A 
BRANCH  42  46
ATOM     46  S   UNL A   1      40.087  36.039  37.104  1.00  0.00     0.124 S 
ATOM     47  O   UNL A   1      41.488  35.670  37.298  1.00  0.00    -0.237 OA
ATOM     48  O   UNL A   1      39.775  36.728  35.857  1.00  0.00    -0.237 OA
ATOM     49  O   UNL A   1      39.419  36.563  38.293  1.00  0.00    -0.744 OA
ENDBRANCH  42  46
ENDBRANCH  25  39
BRANCH  26  50
ATOM     50  C   UNL A   1      43.144  26.359  28.579  1.00  0.00     0.023 A 
ATOM     51  C   UNL A   1      44.094  26.913  27.709  1.00  0.00     0.031 A 
ATOM     52  C   UNL A   1      42.768  25.017  28.385  1.00  0.00     0.131 A 
ATOM     53  C   UNL A   1      44.622  26.133  26.667  1.00  0.00     0.055 A 
ATOM     54  C   UNL A   1      43.330  24.232  27.377  1.00  0.00     0.041 A 
ATOM     55  F   UNL A   1      41.870  24.439  29.198  1.00  0.00    -0.206 F 
ATOM     56  C   UNL A   1      44.257  24.794  26.505  1.00  0.00     0.022 A 
BRANCH  53  57
ATOM     57  S   UNL A   1      45.762  26.910  25.491  1.00  0.00     0.124 S 
ATOM     58  O   UNL A   1      44.892  27.869  24.821  1.00  0.00    -0.237 OA
ATOM     59  O   UNL A   1      46.774  27.474  26.379  1.00  0.00    -0.237 OA
ATOM     60  O   UNL A   1      46.214  25.792  24.667  1.00  0.00    -0.744 OA
ENDBRANCH  53  57
ENDBRANCH  26  50
BRANCH  38  61
ATOM     61  C   UNL A   1      45.346  28.193  34.939  1.00  0.00     0.023 A 
ATOM     62  C   UNL A   1      45.380  27.080  35.798  1.00  0.00     0.031 A 
ATOM     63  C   UNL A   1      46.500  28.989  34.839  1.00  0.00     0.131 A 
ATOM     64  C   UNL A   1      46.530  26.823  36.561  1.00  0.00     0.055 A 
ATOM     65  C   UNL A   1      47.659  28.697  35.559  1.00  0.00     0.041 A 
ATOM     66  F   UNL A   1      46.519  30.066  34.037  1.00  0.00    -0.206 F 
ATOM     67  C   UNL A   1      47.674  27.615  36.435  1.00  0.00     0.022 A 
BRANCH  64  68
ATOM     68  S   UNL A   1      46.483  25.484  37.785  1.00  0.00     0.124 S 
ATOM     69  O   UNL A   1      47.146  26.099  38.931  1.00  0.00    -0.237 OA
ATOM     70  O   UNL A   1      45.051  25.242  37.931  1.00  0.00    -0.237 OA
ATOM     71  O   UNL A   1      47.230  24.405  37.141  1.00  0.00    -0.744 OA
ENDBRANCH  64  68
ENDBRANCH  38  61
ENDBRANCH  12  13
ENDBRANCH   5   7
ENDBRANCH   2   3
ENDBRANCH   1   2
BRANCH   1  72
ATOM     72  C   UNL A   1      31.828  27.772  26.356  1.00  0.00     0.023 C 
BRANCH  72  73
ATOM     73  C   UNL A   1      31.001  26.561  25.935  1.00  0.00     0.116 C 
BRANCH  73  74
ATOM     74  N   UNL A   1      31.095  25.453  26.873  1.00  0.00    -0.352 N 
ATOM     75  C   UNL A   1      31.560  24.178  26.676  1.00  0.00     0.251 C 
ATOM     76  H   UNL A   1      30.776  25.646  27.784  1.00  0.00     0.163 HD
ATOM     77  O   UNL A   1      31.469  23.328  27.555  1.00  0.00    -0.269 OA
BRANCH  75  78
ATOM     78  C   UNL A   1      32.141  23.803  25.376  1.00  0.00     0.046 A 
ATOM     79  C   UNL A   1      31.380  23.169  24.402  1.00  0.00     0.034 A 
ATOM     80  C   UNL A   1      33.482  24.107  25.147  1.00  0.00     0.082 A 
ATOM     81  C   UNL A   1      32.028  22.786  23.250  1.00  0.00     0.116 A 
ATOM     82  C   UNL A   1      34.056  23.661  23.969  1.00  0.00     0.219 A 
ATOM     83  N   UNL A   1      33.343  23.001  23.024  1.00  0.00    -0.222 NA
BRANCH  82  84
ATOM     84  O   UNL A   1      35.380  23.824  23.620  1.00  0.00    -0.439 OA
BRANCH  84  85
ATOM     85  C   UNL A   1      36.357  23.196  24.350  1.00  0.00     0.130 A 
ATOM     86  C   UNL A   1      36.426  21.806  24.264  1.00  0.00     0.047 A 
ATOM     87  C   UNL A   1      37.199  23.895  25.219  1.00  0.00     0.060 A 
ATOM     88  C   UNL A   1      37.378  21.112  25.007  1.00  0.00     0.004 A 
ATOM     89  C   UNL A   1      38.183  23.208  25.946  1.00  0.00     0.059 A 
ATOM     90  C   UNL A   1      38.259  21.808  25.834  1.00  0.00     0.013 A 
BRANCH  89  91
ATOM     91  C   UNL A   1      39.154  23.945  26.836  1.00  0.00     0.416 C 
ATOM     92  F   UNL A   1      40.210  23.166  27.203  1.00  0.00    -0.166 F 
ATOM     93  F   UNL A   1      39.686  25.039  26.229  1.00  0.00    -0.166 F 
ATOM     94  F   UNL A   1      38.595  24.390  27.995  1.00  0.00    -0.166 F 
ENDBRANCH  89  91
ENDBRANCH  84  85
ENDBRANCH  82  84
ENDBRANCH  75  78
ENDBRANCH  73  74
ENDBRANCH  72  73
ENDBRANCH   1  72
TORSDOF 17
ENDMDL
MODEL 2
REMARK VINA RESULT:     -11.0      2.380      7.988
REMARK SMILES O=C(NCCCCNC(=O)c1ccnc(Oc2cccc(C(F)(F)F)c2)c1)c1ccc(-c2c3nc(c(-c4cc(S(=O)(=O)[O-])ccc4F)c4ccc([nH]4)c(-c4cc(S(=O)(=O)[O-])ccc4F)c4nc(c(-c5cc(S(=O)(=O)[O-])ccc5F)c5ccc2[nH]5)C=C4)C=C3)cc1
REMARK SMILES IDX 5 1 4 2 3 3 1 4 2 5 28 7 29 8 90 9 30 10 89 11 31 12 32 13
REMARK SMILES IDX 33 14 83 15 34 16 88 17 82 18 84 19 35 20 87 21 81 22 80 23
REMARK SMILES IDX 36 25 68 26 48 27 67 28 49 29 52 30 66 31 85 32 50 33 51 34
REMARK SMILES IDX 65 36 86 37 53 38 37 39 38 40 46 41 39 42 45 43 47 44 44 45
REMARK SMILES IDX 40 46 41 47 42 48 43 49 69 50 70 51 78 52 71 53 77 54 79 55
REMARK SMILES IDX 76 56 72 57 73 58 74 59 75 60 54 61 55 62 63 63 56 64 62 65
REMARK SMILES IDX 64 66 61 67 57 68 58 69 59 70 60 71 6 72 7 73 8 74 9 75
REMARK SMILES IDX 10 77 11 78 12 79 27 80 13 81 15 82 14 83 16 84 17 85 18 86
REMARK SMILES IDX 26 87 19 88 21 89 20 90 22 91 23 92 24 93 25 94
REMARK H PARENT 3 6 84 24 52 35 8 76
REMARK Flexibility Score: inf
ROOT
ATOM      1  C   UNL A   1      31.397  31.961  26.588  1.00  0.00     0.023 C 
ENDROOT
BRANCH   1   2
ATOM      2  C   UNL A   1      32.697  32.528  27.146  1.00  0.00     0.116 C 
BRANCH   2   3
ATOM      3  N   UNL A   1      32.563  33.890  27.638  1.00  0.00    -0.352 N 
ATOM      4  O   UNL A   1      32.943  35.657  28.984  1.00  0.00    -0.269 OA
ATOM      5  C   UNL A   1      33.278  34.532  28.623  1.00  0.00     0.251 C 
ATOM      6  H   UNL A   1      31.862  34.430  27.205  1.00  0.00     0.163 HD
BRANCH   5   7
ATOM      7  C   UNL A   1      34.428  33.856  29.261  1.00  0.00     0.039 A 
ATOM      8  C   UNL A   1      34.231  32.884  30.245  1.00  0.00     0.014 A 
ATOM      9  C   UNL A   1      35.724  34.205  28.868  1.00  0.00     0.014 A 
ATOM     10  C   UNL A   1      35.323  32.365  30.933  1.00  0.00     0.010 A 
ATOM     11  C   UNL A   1      36.823  33.622  29.507  1.00  0.00     0.010 A 
ATOM     12  C   UNL A   1      36.631  32.720  30.566  1.00  0.00    -0.014 A 
BRANCH  12  13
ATOM     13  C   UNL A   1      37.783  32.098  31.268  1.00  0.00     0.031 A 
ATOM     14  C   UNL A   1      38.584  31.000  30.626  1.00  0.00     0.074 A 
ATOM     15  C   UNL A   1      38.104  32.541  32.499  1.00  0.00     0.049 A 
ATOM     16  N   UNL A   1      39.606  30.336  31.104  1.00  0.00    -0.248 NA
ATOM     17  C   UNL A   1      38.174  30.584  29.277  1.00  0.00     0.031 C 
ATOM     18  C   UNL A   1      37.386  33.591  33.227  1.00  0.00     0.029 A 
ATOM     19  N   UNL A   1      39.110  32.172  33.354  1.00  0.00    -0.354 N 
ATOM     20  C   UNL A   1      39.955  29.412  30.123  1.00  0.00     0.074 A 
ATOM     21  C   UNL A   1      39.008  29.582  29.040  1.00  0.00     0.031 C 
ATOM     22  C   UNL A   1      37.986  33.796  34.407  1.00  0.00     0.029 A 
ATOM     23  C   UNL A   1      39.090  32.853  34.548  1.00  0.00     0.049 A 
ATOM     24  H   UNL A   1      39.781  31.487  33.135  1.00  0.00     0.167 HD
ATOM     25  C   UNL A   1      40.974  28.515  30.128  1.00  0.00     0.034 A 
ATOM     26  C   UNL A   1      39.850  32.715  35.651  1.00  0.00     0.034 A 
ATOM     27  C   UNL A   1      41.907  28.365  31.221  1.00  0.00     0.049 A 
ATOM     28  C   UNL A   1      40.952  31.693  35.647  1.00  0.00     0.074 A 
ATOM     29  C   UNL A   1      43.006  27.529  31.310  1.00  0.00     0.029 A 
ATOM     30  N   UNL A   1      41.840  29.056  32.426  1.00  0.00    -0.354 N 
ATOM     31  N   UNL A   1      41.293  30.852  34.698  1.00  0.00    -0.248 NA
ATOM     32  C   UNL A   1      41.775  31.605  36.859  1.00  0.00     0.031 C 
ATOM     33  C   UNL A   1      43.561  27.662  32.589  1.00  0.00     0.029 A 
ATOM     34  C   UNL A   1      42.854  28.636  33.276  1.00  0.00     0.049 A 
ATOM     35  H   UNL A   1      41.171  29.743  32.646  1.00  0.00     0.167 HD
ATOM     36  C   UNL A   1      42.380  30.142  35.195  1.00  0.00     0.074 A 
ATOM     37  C   UNL A   1      42.648  30.667  36.519  1.00  0.00     0.031 C 
ATOM     38  C   UNL A   1      43.092  29.147  34.606  1.00  0.00     0.034 A 
BRANCH  25  39
ATOM     39  C   UNL A   1      41.097  27.597  28.933  1.00  0.00     0.023 A 
ATOM     40  C   UNL A   1      42.088  27.781  27.954  1.00  0.00     0.031 A 
ATOM     41  C   UNL A   1      40.187  26.539  28.754  1.00  0.00     0.131 A 
ATOM     42  C   UNL A   1      42.098  26.974  26.804  1.00  0.00     0.055 A 
ATOM     43  C   UNL A   1      40.251  25.689  27.648  1.00  0.00     0.041 A 
ATOM     44  F   UNL A   1      39.207  26.323  29.645  1.00  0.00    -0.206 F 
ATOM     45  C   UNL A   1      41.201  25.915  26.655  1.00  0.00     0.022 A 
BRANCH  42  46
ATOM     46  S   UNL A   1      43.199  27.429  25.435  1.00  0.00     0.124 S 
ATOM     47  O   UNL A   1      44.180  28.275  26.112  1.00  0.00    -0.237 OA
ATOM     48  O   UNL A   1      43.682  26.132  24.977  1.00  0.00    -0.237 OA
ATOM     49  O   UNL A   1      42.318  28.132  24.506  1.00  0.00    -0.744 OA
ENDBRANCH  42  46
ENDBRANCH  25  39
BRANCH  26  50
ATOM     50  C   UNL A   1      39.554  33.534  36.857  1.00  0.00     0.023 A 
ATOM     51  C   UNL A   1      38.853  33.002  37.949  1.00  0.00     0.031 A 
ATOM     52  C   UNL A   1      39.987  34.871  36.934  1.00  0.00     0.131 A 
ATOM     53  C   UNL A   1      38.584  33.811  39.065  1.00  0.00     0.055 A 
ATOM     54  C   UNL A   1      39.757  35.657  38.064  1.00  0.00     0.041 A 
ATOM     55  F   UNL A   1      40.671  35.423  35.919  1.00  0.00    -0.206 F 
ATOM     56  C   UNL A   1      39.044  35.129  39.134  1.00  0.00     0.022 A 
BRANCH  53  57
ATOM     57  S   UNL A   1      37.578  33.129  40.411  1.00  0.00     0.124 S 
ATOM     58  O   UNL A   1      38.370  31.975  40.820  1.00  0.00    -0.237 OA
ATOM     59  O   UNL A   1      37.536  34.244  41.351  1.00  0.00    -0.237 OA
ATOM     60  O   UNL A   1      36.307  32.818  39.760  1.00  0.00    -0.744 OA
ENDBRANCH  53  57
ENDBRANCH  26  50
BRANCH  38  61
ATOM     61  C   UNL A   1      44.249  28.585  35.395  1.00  0.00     0.023 A 
ATOM     62  C   UNL A   1      44.073  27.537  36.316  1.00  0.00     0.031 A 
ATOM     63  C   UNL A   1      45.538  29.122  35.238  1.00  0.00     0.131 A 
ATOM     64  C   UNL A   1      45.162  27.091  37.080  1.00  0.00     0.055 A 
ATOM     65  C   UNL A   1      46.628  28.636  35.961  1.00  0.00     0.041 A 
ATOM     66  F   UNL A   1      45.759  30.127  34.376  1.00  0.00    -0.206 F 
ATOM     67  C   UNL A   1      46.441  27.624  36.897  1.00  0.00     0.022 A 
BRANCH  64  68
ATOM     68  S   UNL A   1      44.870  25.858  38.378  1.00  0.00     0.124 S 
ATOM     69  O   UNL A   1      46.218  25.634  38.891  1.00  0.00    -0.237 OA
ATOM     70  O   UNL A   1      43.954  26.556  39.274  1.00  0.00    -0.237 OA
ATOM     71  O   UNL A   1      44.286  24.729  37.655  1.00  0.00    -0.744 OA
ENDBRANCH  64  68
ENDBRANCH  38  61
ENDBRANCH  12  13
ENDBRANCH   5   7
ENDBRANCH   2   3
ENDBRANCH   1   2
BRANCH   1  72
ATOM     72  C   UNL A   1      31.537  30.706  25.729  1.00  0.00     0.023 C 
BRANCH  72  73
ATOM     73  C   UNL A   1      32.544  29.673  26.231  1.00  0.00     0.116 C 
BRANCH  73  74
ATOM     74  N   UNL A   1      31.914  28.512  26.840  1.00  0.00    -0.352 N 
ATOM     75  C   UNL A   1      31.434  27.370  26.253  1.00  0.00     0.251 C 
ATOM     76  H   UNL A   1      31.817  28.553  27.818  1.00  0.00     0.163 HD
ATOM     77  O   UNL A   1      30.831  26.527  26.908  1.00  0.00    -0.269 OA
BRANCH  75  78
ATOM     78  C   UNL A   1      31.605  27.163  24.805  1.00  0.00     0.046 A 
ATOM     79  C   UNL A   1      30.772  27.787  23.885  1.00  0.00     0.034 A 
ATOM     80  C   UNL A   1      32.633  26.324  24.381  1.00  0.00     0.082 A 
ATOM     81  C   UNL A   1      30.957  27.472  22.557  1.00  0.00     0.116 A 
ATOM     82  C   UNL A   1      32.727  26.045  23.028  1.00  0.00     0.219 A 
ATOM     83  N   UNL A   1      31.897  26.608  22.117  1.00  0.00    -0.222 NA
BRANCH  82  84
ATOM     84  O   UNL A   1      33.645  25.190  22.456  1.00  0.00    -0.439 OA
BRANCH  84  85
ATOM     85  C   UNL A   1      33.844  23.946  22.999  1.00  0.00     0.130 A 
ATOM     86  C   UNL A   1      32.775  23.052  22.961  1.00  0.00     0.047 A 
ATOM     87  C   UNL A   1      35.033  23.602  23.649  1.00  0.00     0.060 A 
ATOM     88  C   UNL A   1      32.910  21.786  23.525  1.00  0.00     0.004 A 
ATOM     89  C   UNL A   1      35.190  22.317  24.191  1.00  0.00     0.059 A 
ATOM     90  C   UNL A   1      34.113  21.415  24.126  1.00  0.00     0.013 A 
BRANCH  89  91
ATOM     91  C   UNL A   1      36.488  21.893  24.834  1.00  0.00     0.416 C 
ATOM     92  F   UNL A   1      37.431  21.550  23.913  1.00  0.00    -0.166 F 
ATOM     93  F   UNL A   1      37.041  22.881  25.588  1.00  0.00    -0.166 F 
ATOM     94  F   UNL A   1      36.358  20.817  25.658  1.00  0.00    -0.166 F 
ENDBRANCH  89  91
ENDBRANCH  84  85
ENDBRANCH  82  84
ENDBRANCH  75  78
ENDBRANCH  73  74
ENDBRANCH  72  73
ENDBRANCH   1  72
TORSDOF 17
ENDMDL
MODEL 3
REMARK VINA RESULT:     -11.0      2.701      8.049
REMARK SMILES O=C(NCCCCNC(=O)c1ccnc(Oc2cccc(C(F)(F)F)c2)c1)c1ccc(-c2c3nc(c(-c4cc(S(=O)(=O)[O-])ccc4F)c4ccc([nH]4)c(-c4cc(S(=O)(=O)[O-])ccc4F)c4nc(c(-c5cc(S(=O)(=O)[O-])ccc5F)c5ccc2[nH]5)C=C4)C=C3)cc1
REMARK SMILES IDX 5 1 4 2 3 3 1 4 2 5 28 7 29 8 90 9 30 10 89 11 31 12 32 13
REMARK SMILES IDX 33 14 83 15 34 16 88 17 82 18 84 19 35 20 87 21 81 22 80 23
REMARK SMILES IDX 36 25 68 26 48 27 67 28 49 29 52 30 66 31 85 32 50 33 51 34
REMARK SMILES IDX 65 36 86 37 53 38 37 39 38 40 46 41 39 42 45 43 47 44 44 45
REMARK SMILES IDX 40 46 41 47 42 48 43 49 69 50 70 51 78 52 71 53 77 54 79 55
REMARK SMILES IDX 76 56 72 57 73 58 74 59 75 60 54 61 55 62 63 63 56 64 62 65
REMARK SMILES IDX 64 66 61 67 57 68 58 69 59 70 60 71 6 72 7 73 8 74 9 75
REMARK SMILES IDX 10 77 11 78 12 79 27 80 13 81 15 82 14 83 16 84 17 85 18 86
REMARK SMILES IDX 26 87 19 88 21 89 20 90 22 91 23 92 24 93 25 94
REMARK H PARENT 3 6 84 24 52 35 8 76
REMARK Flexibility Score: inf
ROOT
ATOM      1  C   UNL A   1      31.211  32.005  26.413  1.00  0.00     0.023 C 
ENDROOT
BRANCH   1   2
ATOM      2  C   UNL A   1      32.523  32.446  27.052  1.00  0.00     0.116 C 
BRANCH   2   3
ATOM      3  N   UNL A   1      32.501  33.824  27.515  1.00  0.00    -0.352 N 
ATOM      4  O   UNL A   1      33.077  35.598  28.778  1.00  0.00    -0.269 OA
ATOM      5  C   UNL A   1      33.322  34.448  28.425  1.00  0.00     0.251 C 
ATOM      6  H   UNL A   1      31.799  34.392  27.120  1.00  0.00     0.163 HD
BRANCH   5   7
ATOM      7  C   UNL A   1      34.480  33.723  28.994  1.00  0.00     0.039 A 
ATOM      8  C   UNL A   1      34.294  32.581  29.776  1.00  0.00     0.014 A 
ATOM      9  C   UNL A   1      35.769  34.200  28.742  1.00  0.00     0.014 A 
ATOM     10  C   UNL A   1      35.382  31.999  30.419  1.00  0.00     0.010 A 
ATOM     11  C   UNL A   1      36.870  33.565  29.326  1.00  0.00     0.010 A 
ATOM     12  C   UNL A   1      36.682  32.478  30.194  1.00  0.00    -0.014 A 
BRANCH  12  13
ATOM     13  C   UNL A   1      37.835  31.795  30.836  1.00  0.00     0.031 A 
ATOM     14  C   UNL A   1      38.624  30.746  30.103  1.00  0.00     0.074 A 
ATOM     15  C   UNL A   1      38.170  32.139  32.095  1.00  0.00     0.049 A 
ATOM     16  N   UNL A   1      39.644  30.040  30.519  1.00  0.00    -0.248 NA
ATOM     17  C   UNL A   1      38.200  30.440  28.729  1.00  0.00     0.031 C 
ATOM     18  C   UNL A   1      37.465  33.133  32.909  1.00  0.00     0.029 A 
ATOM     19  N   UNL A   1      39.179  31.698  32.910  1.00  0.00    -0.354 N 
ATOM     20  C   UNL A   1      39.980  29.193  29.467  1.00  0.00     0.074 A 
ATOM     21  C   UNL A   1      39.025  29.453  28.408  1.00  0.00     0.031 C 
ATOM     22  C   UNL A   1      38.075  33.242  34.097  1.00  0.00     0.029 A 
ATOM     23  C   UNL A   1      39.173  32.283  34.154  1.00  0.00     0.049 A 
ATOM     24  H   UNL A   1      39.844  31.028  32.633  1.00  0.00     0.167 HD
ATOM     25  C   UNL A   1      40.992  28.292  29.393  1.00  0.00     0.034 A 
ATOM     26  C   UNL A   1      39.941  32.054  35.236  1.00  0.00     0.034 A 
ATOM     27  C   UNL A   1      41.932  28.051  30.463  1.00  0.00     0.049 A 
ATOM     28  C   UNL A   1      41.036  31.029  35.144  1.00  0.00     0.074 A 
ATOM     29  C   UNL A   1      43.026  27.203  30.477  1.00  0.00     0.029 A 
ATOM     30  N   UNL A   1      41.880  28.645  31.719  1.00  0.00    -0.354 N 
ATOM     31  N   UNL A   1      41.363  30.263  34.129  1.00  0.00    -0.248 NA
ATOM     32  C   UNL A   1      41.867  30.841  36.338  1.00  0.00     0.031 C 
ATOM     33  C   UNL A   1      43.592  27.232  31.758  1.00  0.00     0.029 A 
ATOM     34  C   UNL A   1      42.897  28.154  32.525  1.00  0.00     0.049 A 
ATOM     35  H   UNL A   1      41.217  29.318  31.997  1.00  0.00     0.167 HD
ATOM     36  C   UNL A   1      42.449  29.508  34.560  1.00  0.00     0.074 A 
ATOM     37  C   UNL A   1      42.731  29.927  35.918  1.00  0.00     0.031 C 
ATOM     38  C   UNL A   1      43.150  28.558  33.889  1.00  0.00     0.034 A 
BRANCH  25  39
ATOM     39  C   UNL A   1      41.099  27.469  28.129  1.00  0.00     0.023 A 
ATOM     40  C   UNL A   1      40.720  26.116  28.089  1.00  0.00     0.031 A 
ATOM     41  C   UNL A   1      41.620  28.039  26.953  1.00  0.00     0.131 A 
ATOM     42  C   UNL A   1      40.939  25.360  26.926  1.00  0.00     0.055 A 
ATOM     43  C   UNL A   1      41.762  27.302  25.775  1.00  0.00     0.041 A 
ATOM     44  F   UNL A   1      42.016  29.321  26.933  1.00  0.00    -0.206 F 
ATOM     45  C   UNL A   1      41.437  25.949  25.761  1.00  0.00     0.022 A 
BRANCH  42  46
ATOM     46  S   UNL A   1      40.714  23.561  27.006  1.00  0.00     0.124 S 
ATOM     47  O   UNL A   1      41.136  23.270  28.375  1.00  0.00    -0.237 OA
ATOM     48  O   UNL A   1      39.290  23.411  26.732  1.00  0.00    -0.237 OA
ATOM     49  O   UNL A   1      41.609  23.056  25.967  1.00  0.00    -0.744 OA
ENDBRANCH  42  46
ENDBRANCH  25  39
BRANCH  26  50
ATOM     50  C   UNL A   1      39.660  32.779  36.505  1.00  0.00     0.023 A 
ATOM     51  C   UNL A   1      38.722  32.298  37.430  1.00  0.00     0.031 A 
ATOM     52  C   UNL A   1      40.347  33.968  36.814  1.00  0.00     0.131 A 
ATOM     53  C   UNL A   1      38.477  33.016  38.611  1.00  0.00     0.055 A 
ATOM     54  C   UNL A   1      40.134  34.654  38.010  1.00  0.00     0.041 A 
ATOM     55  F   UNL A   1      41.262  34.463  35.965  1.00  0.00    -0.206 F 
ATOM     56  C   UNL A   1      39.187  34.182  38.913  1.00  0.00     0.022 A 
BRANCH  53  57
ATOM     57  S   UNL A   1      37.178  32.431  39.732  1.00  0.00     0.124 S 
ATOM     58  O   UNL A   1      37.187  33.461  40.764  1.00  0.00    -0.237 OA
ATOM     59  O   UNL A   1      36.011  32.409  38.857  1.00  0.00    -0.237 OA
ATOM     60  O   UNL A   1      37.661  31.118  40.155  1.00  0.00    -0.744 OA
ENDBRANCH  53  57
ENDBRANCH  26  50
BRANCH  38  61
ATOM     61  C   UNL A   1      44.308  27.929  34.622  1.00  0.00     0.023 A 
ATOM     62  C   UNL A   1      44.155  26.744  35.364  1.00  0.00     0.031 A 
ATOM     63  C   UNL A   1      45.575  28.536  34.594  1.00  0.00     0.131 A 
ATOM     64  C   UNL A   1      45.242  26.230  36.088  1.00  0.00     0.055 A 
ATOM     65  C   UNL A   1      46.666  27.989  35.272  1.00  0.00     0.041 A 
ATOM     66  F   UNL A   1      45.774  29.671  33.905  1.00  0.00    -0.206 F 
ATOM     67  C   UNL A   1      46.499  26.837  36.034  1.00  0.00     0.022 A 
BRANCH  64  68
ATOM     68  S   UNL A   1      44.970  24.799  37.170  1.00  0.00     0.124 S 
ATOM     69  O   UNL A   1      46.300  24.591  37.736  1.00  0.00    -0.237 OA
ATOM     70  O   UNL A   1      43.954  25.292  38.094  1.00  0.00    -0.237 OA
ATOM     71  O   UNL A   1      44.517  23.756  36.252  1.00  0.00    -0.744 OA
ENDBRANCH  64  68
ENDBRANCH  38  61
ENDBRANCH  12  13
ENDBRANCH   5   7
ENDBRANCH   2   3
ENDBRANCH   1   2
BRANCH   1  72
ATOM     72  C   UNL A   1      31.286  30.753  25.542  1.00  0.00     0.023 C 
BRANCH  72  73
ATOM     73  C   UNL A   1      32.353  29.736  25.941  1.00  0.00     0.116 C 
BRANCH  73  74
ATOM     74  N   UNL A   1      31.809  28.585  26.644  1.00  0.00    -0.352 N 
ATOM     75  C   UNL A   1      31.414  27.368  26.152  1.00  0.00     0.251 C 
ATOM     76  H   UNL A   1      31.709  28.696  27.617  1.00  0.00     0.163 HD
ATOM     77  O   UNL A   1      30.873  26.538  26.876  1.00  0.00    -0.269 OA
BRANCH  75  78
ATOM     78  C   UNL A   1      31.600  27.058  24.724  1.00  0.00     0.046 A 
ATOM     79  C   UNL A   1      30.801  27.645  23.751  1.00  0.00     0.034 A 
ATOM     80  C   UNL A   1      32.607  26.161  24.375  1.00  0.00     0.082 A 
ATOM     81  C   UNL A   1      30.995  27.236  22.450  1.00  0.00     0.116 A 
ATOM     82  C   UNL A   1      32.712  25.789  23.046  1.00  0.00     0.219 A 
ATOM     83  N   UNL A   1      31.914  26.315  22.085  1.00  0.00    -0.222 NA
BRANCH  82  84
ATOM     84  O   UNL A   1      33.610  24.869  22.548  1.00  0.00    -0.439 OA
BRANCH  84  85
ATOM     85  C   UNL A   1      33.667  23.612  23.093  1.00  0.00     0.130 A 
ATOM     86  C   UNL A   1      32.544  22.799  22.944  1.00  0.00     0.047 A 
ATOM     87  C   UNL A   1      34.760  23.179  23.849  1.00  0.00     0.060 A 
ATOM     88  C   UNL A   1      32.533  21.523  23.504  1.00  0.00     0.004 A 
ATOM     89  C   UNL A   1      34.772  21.883  24.388  1.00  0.00     0.059 A 
ATOM     90  C   UNL A   1      33.643  21.063  24.212  1.00  0.00     0.013 A 
BRANCH  89  91
ATOM     91  C   UNL A   1      35.969  21.363  25.146  1.00  0.00     0.416 C 
ATOM     92  F   UNL A   1      35.804  21.454  26.495  1.00  0.00    -0.166 F 
ATOM     93  F   UNL A   1      36.218  20.052  24.885  1.00  0.00    -0.166 F 
ATOM     94  F   UNL A   1      37.120  22.030  24.862  1.00  0.00    -0.166 F 
ENDBRANCH  89  91
ENDBRANCH  84  85
ENDBRANCH  82  84
ENDBRANCH  75  78
ENDBRANCH  73  74
ENDBRANCH  72  73
ENDBRANCH   1  72
TORSDOF 17
ENDMDL
