MODEL 1
REMARK VINA RESULT:     -12.5      0.000      0.000
REMARK SMILES Cc1ccc(-c2cc3cccnc3n2CCC(=O)NCCCCNC(=O)c2ccc(-c3c4nc(c(-c5cc(S(=O)(=O)[O-])ccc5F)c5ccc([nH]5)c(-c5cc(S(=O)(=O)[O-])ccc5F)c5nc(c(-c6cc(S(=O)(=O)[O-])ccc6F)c6ccc3[nH]6)C=C5)C=C4)cc2)cn1
REMARK SMILES IDX 21 1 20 2 19 3 17 4 18 5 16 7 15 8 14 9 6 10 7 11 8 12 13 13
REMARK SMILES IDX 9 14 12 15 10 16 11 17 5 18 1 19 2 20 3 21 91 22 4 23 90 24
REMARK SMILES IDX 22 25 23 26 24 27 25 28 26 30 27 31 28 32 89 33 29 34 88 35
REMARK SMILES IDX 30 36 31 37 32 38 82 39 33 40 87 41 81 42 83 43 34 44 86 45
REMARK SMILES IDX 80 46 79 47 35 49 67 50 47 51 66 52 48 53 51 54 65 55 84 56
REMARK SMILES IDX 49 57 50 58 64 60 85 61 52 62 36 63 37 64 45 65 38 66 44 67
REMARK SMILES IDX 46 68 43 69 39 70 40 71 41 72 42 73 68 74 69 75 77 76 70 77
REMARK SMILES IDX 76 78 78 79 75 80 71 81 72 82 73 83 74 84 53 85 54 86 62 87
REMARK SMILES IDX 55 88 61 89 63 90 60 91 56 92 57 93 58 94 59 95
REMARK H PARENT 19 6 24 29 83 48 51 59
REMARK Flexibility Score: inf
ROOT
ATOM      1  C   UNL A   1      37.670  20.894  25.065  1.00  0.00     0.023 C 
ENDROOT
BRANCH   1   2
ATOM      2  C   UNL A   1      36.159  20.917  25.248  1.00  0.00     0.116 C 
BRANCH   2   3
ATOM      3  N   UNL A   1      35.745  21.540  26.501  1.00  0.00    -0.356 N 
ATOM      4  C   UNL A   1      34.630  22.251  26.834  1.00  0.00     0.221 C 
ATOM      5  O   UNL A   1      34.516  22.648  27.999  1.00  0.00    -0.275 OA
ATOM      6  H   UNL A   1      36.386  21.426  27.239  1.00  0.00     0.163 HD
BRANCH   4   7
ATOM      7  C   UNL A   1      33.542  22.583  25.834  1.00  0.00     0.122 C 
BRANCH   7   8
ATOM      8  C   UNL A   1      32.362  21.589  25.783  1.00  0.00     0.134 C 
BRANCH   8   9
ATOM      9  N   UNL A   1      32.178  20.928  24.495  1.00  0.00    -0.325 N 
ATOM     10  C   UNL A   1      32.026  21.467  23.207  1.00  0.00     0.052 A 
ATOM     11  C   UNL A   1      32.043  20.348  22.353  1.00  0.00     0.039 A 
ATOM     12  C   UNL A   1      32.389  19.187  23.095  1.00  0.00     0.020 A 
ATOM     13  C   UNL A   1      32.346  19.552  24.427  1.00  0.00     0.140 A 
ATOM     14  C   UNL A   1      32.841  17.890  22.791  1.00  0.00     0.013 A 
ATOM     15  N   UNL A   1      32.599  18.755  25.490  1.00  0.00    -0.238 NA
ATOM     16  C   UNL A   1      33.187  17.055  23.855  1.00  0.00     0.021 A 
ATOM     17  C   UNL A   1      33.023  17.519  25.150  1.00  0.00     0.113 A 
BRANCH  10  18
ATOM     18  C   UNL A   1      32.220  22.888  22.761  1.00  0.00     0.017 A 
ATOM     19  C   UNL A   1      33.417  27.003  22.299  1.00  0.00     0.066 C 
ATOM     20  C   UNL A   1      32.975  25.574  22.415  1.00  0.00     0.037 A 
ATOM     21  C   UNL A   1      31.738  25.277  22.949  1.00  0.00     0.024 A 
ATOM     22  N   UNL A   1      33.807  24.603  21.977  1.00  0.00    -0.261 NA
ATOM     23  C   UNL A   1      31.369  23.938  23.095  1.00  0.00     0.014 A 
ATOM     24  C   UNL A   1      33.414  23.307  22.164  1.00  0.00     0.121 A 
ENDBRANCH  10  18
ENDBRANCH   8   9
ENDBRANCH   7   8
ENDBRANCH   4   7
ENDBRANCH   2   3
ENDBRANCH   1   2
BRANCH   1  25
ATOM     25  C   UNL A   1      38.562  21.978  25.677  1.00  0.00     0.023 C 
BRANCH  25  26
ATOM     26  C   UNL A   1      39.625  21.464  26.629  1.00  0.00     0.116 C 
BRANCH  26  27
ATOM     27  N   UNL A   1      40.994  21.627  26.113  1.00  0.00    -0.352 N 
ATOM     28  C   UNL A   1      41.785  22.772  26.096  1.00  0.00     0.251 C 
ATOM     29  H   UNL A   1      41.404  20.819  25.727  1.00  0.00     0.163 HD
ATOM     30  O   UNL A   1      42.770  22.866  25.405  1.00  0.00    -0.269 OA
BRANCH  28  31
ATOM     31  C   UNL A   1      41.361  23.866  26.990  1.00  0.00     0.039 A 
ATOM     32  C   UNL A   1      42.022  24.133  28.190  1.00  0.00     0.014 A 
ATOM     33  C   UNL A   1      40.432  24.748  26.454  1.00  0.00     0.014 A 
ATOM     34  C   UNL A   1      41.836  25.384  28.776  1.00  0.00     0.010 A 
ATOM     35  C   UNL A   1      40.442  26.039  26.903  1.00  0.00     0.010 A 
ATOM     36  C   UNL A   1      41.083  26.356  28.094  1.00  0.00    -0.014 A 
BRANCH  36  37
ATOM     37  C   UNL A   1      41.010  27.735  28.558  1.00  0.00     0.031 A 
ATOM     38  C   UNL A   1      41.981  28.672  27.936  1.00  0.00     0.074 A 
ATOM     39  C   UNL A   1      40.029  28.190  29.366  1.00  0.00     0.049 A 
ATOM     40  N   UNL A   1      43.155  28.983  28.379  1.00  0.00    -0.248 NA
ATOM     41  C   UNL A   1      41.698  29.197  26.591  1.00  0.00     0.031 C 
ATOM     42  C   UNL A   1      38.792  27.510  29.786  1.00  0.00     0.029 A 
ATOM     43  N   UNL A   1      39.909  29.411  29.952  1.00  0.00    -0.354 N 
ATOM     44  C   UNL A   1      43.632  29.963  27.514  1.00  0.00     0.074 A 
ATOM     45  C   UNL A   1      42.827  29.862  26.323  1.00  0.00     0.031 C 
ATOM     46  C   UNL A   1      37.956  28.395  30.370  1.00  0.00     0.029 A 
ATOM     47  C   UNL A   1      38.692  29.622  30.580  1.00  0.00     0.049 A 
ATOM     48  H   UNL A   1      40.625  30.086  29.933  1.00  0.00     0.167 HD
ATOM     49  C   UNL A   1      44.426  30.976  27.973  1.00  0.00     0.034 A 
ATOM     50  C   UNL A   1      38.324  30.699  31.306  1.00  0.00     0.034 A 
ATOM     51  C   UNL A   1      44.757  30.763  29.359  1.00  0.00     0.049 A 
ATOM     52  C   UNL A   1      39.557  31.359  31.779  1.00  0.00     0.074 A 
ATOM     53  C   UNL A   1      45.642  29.987  30.071  1.00  0.00     0.029 A 
ATOM     54  N   UNL A   1      43.779  31.182  30.227  1.00  0.00    -0.354 N 
ATOM     55  N   UNL A   1      40.381  30.812  32.630  1.00  0.00    -0.248 NA
ATOM     56  C   UNL A   1      40.084  32.498  31.035  1.00  0.00     0.031 C 
ATOM     57  C   UNL A   1      45.061  29.811  31.362  1.00  0.00     0.029 A 
ATOM     58  C   UNL A   1      43.860  30.515  31.420  1.00  0.00     0.049 A 
ATOM     59  H   UNL A   1      43.108  31.872  30.018  1.00  0.00     0.167 HD
ATOM     60  C   UNL A   1      41.625  31.242  32.215  1.00  0.00     0.074 A 
ATOM     61  C   UNL A   1      41.373  32.402  31.369  1.00  0.00     0.031 C 
ATOM     62  C   UNL A   1      42.724  30.444  32.320  1.00  0.00     0.034 A 
BRANCH  49  63
ATOM     63  C   UNL A   1      44.526  32.361  27.373  1.00  0.00     0.023 A 
ATOM     64  C   UNL A   1      43.708  33.430  27.774  1.00  0.00     0.031 A 
ATOM     65  C   UNL A   1      45.616  32.701  26.543  1.00  0.00     0.131 A 
ATOM     66  C   UNL A   1      43.952  34.745  27.355  1.00  0.00     0.055 A 
ATOM     67  C   UNL A   1      45.901  34.024  26.175  1.00  0.00     0.041 A 
ATOM     68  F   UNL A   1      46.469  31.762  26.103  1.00  0.00    -0.206 F 
ATOM     69  C   UNL A   1      45.065  35.057  26.582  1.00  0.00     0.022 A 
BRANCH  66  70
ATOM     70  S   UNL A   1      42.828  36.080  27.850  1.00  0.00     0.124 S 
ATOM     71  O   UNL A   1      43.654  36.843  28.777  1.00  0.00    -0.237 OA
ATOM     72  O   UNL A   1      42.553  36.722  26.566  1.00  0.00    -0.237 OA
ATOM     73  O   UNL A   1      41.697  35.368  28.440  1.00  0.00    -0.744 OA
ENDBRANCH  66  70
ENDBRANCH  49  63
BRANCH  50  74
ATOM     74  C   UNL A   1      37.011  31.367  31.320  1.00  0.00     0.023 A 
ATOM     75  C   UNL A   1      36.400  31.717  30.102  1.00  0.00     0.031 A 
ATOM     76  C   UNL A   1      36.524  31.961  32.495  1.00  0.00     0.131 A 
ATOM     77  C   UNL A   1      35.404  32.702  30.075  1.00  0.00     0.055 A 
ATOM     78  C   UNL A   1      35.518  32.930  32.466  1.00  0.00     0.041 A 
ATOM     79  F   UNL A   1      37.076  31.668  33.682  1.00  0.00    -0.206 F 
ATOM     80  C   UNL A   1      34.969  33.321  31.250  1.00  0.00     0.022 A 
BRANCH  77  81
ATOM     81  S   UNL A   1      34.713  33.265  28.495  1.00  0.00     0.124 S 
ATOM     82  O   UNL A   1      35.892  33.287  27.632  1.00  0.00    -0.237 OA
ATOM     83  O   UNL A   1      33.742  32.216  28.208  1.00  0.00    -0.237 OA
ATOM     84  O   UNL A   1      34.161  34.578  28.817  1.00  0.00    -0.744 OA
ENDBRANCH  77  81
ENDBRANCH  50  74
BRANCH  62  85
ATOM     85  C   UNL A   1      42.709  29.332  33.328  1.00  0.00     0.023 A 
ATOM     86  C   UNL A   1      43.205  29.647  34.603  1.00  0.00     0.031 A 
ATOM     87  C   UNL A   1      42.396  27.990  33.057  1.00  0.00     0.131 A 
ATOM     88  C   UNL A   1      43.430  28.640  35.543  1.00  0.00     0.055 A 
ATOM     89  C   UNL A   1      42.564  26.990  34.021  1.00  0.00     0.041 A 
ATOM     90  F   UNL A   1      41.983  27.600  31.843  1.00  0.00    -0.206 F 
ATOM     91  C   UNL A   1      43.100  27.310  35.267  1.00  0.00     0.022 A 
BRANCH  88  92
ATOM     92  S   UNL A   1      44.272  29.026  37.096  1.00  0.00     0.124 S 
ATOM     93  O   UNL A   1      43.496  30.158  37.597  1.00  0.00    -0.237 OA
ATOM     94  O   UNL A   1      44.120  27.781  37.846  1.00  0.00    -0.237 OA
ATOM     95  O   UNL A   1      45.639  29.341  36.690  1.00  0.00    -0.744 OA
ENDBRANCH  88  92
ENDBRANCH  62  85
ENDBRANCH  36  37
ENDBRANCH  28  31
ENDBRANCH  26  27
ENDBRANCH  25  26
ENDBRANCH   1  25
TORSDOF 17
ENDMDL
MODEL 2
REMARK VINA RESULT:     -12.3      3.672      9.319
REMARK SMILES Cc1ccc(-c2cc3cccnc3n2CCC(=O)NCCCCNC(=O)c2ccc(-c3c4nc(c(-c5cc(S(=O)(=O)[O-])ccc5F)c5ccc([nH]5)c(-c5cc(S(=O)(=O)[O-])ccc5F)c5nc(c(-c6cc(S(=O)(=O)[O-])ccc6F)c6ccc3[nH]6)C=C5)C=C4)cc2)cn1
REMARK SMILES IDX 21 1 20 2 19 3 17 4 18 5 16 7 15 8 14 9 6 10 7 11 8 12 13 13
REMARK SMILES IDX 9 14 12 15 10 16 11 17 5 18 1 19 2 20 3 21 91 22 4 23 90 24
REMARK SMILES IDX 22 25 23 26 24 27 25 28 26 30 27 31 28 32 89 33 29 34 88 35
REMARK SMILES IDX 30 36 31 37 32 38 82 39 33 40 87 41 81 42 83 43 34 44 86 45
REMARK SMILES IDX 80 46 79 47 35 49 67 50 47 51 66 52 48 53 51 54 65 55 84 56
REMARK SMILES IDX 49 57 50 58 64 60 85 61 52 62 36 63 37 64 45 65 38 66 44 67
REMARK SMILES IDX 46 68 43 69 39 70 40 71 41 72 42 73 68 74 69 75 77 76 70 77
REMARK SMILES IDX 76 78 78 79 75 80 71 81 72 82 73 83 74 84 53 85 54 86 62 87
REMARK SMILES IDX 55 88 61 89 63 90 60 91 56 92 57 93 58 94 59 95
REMARK H PARENT 19 6 24 29 83 48 51 59
REMARK Flexibility Score: inf
ROOT
ATOM      1  C   UNL A   1      31.733  30.332  26.753  1.00  0.00     0.023 C 
ENDROOT
BRANCH   1   2
ATOM      2  C   UNL A   1      31.584  29.480  25.501  1.00  0.00     0.116 C 
BRANCH   2   3
ATOM      3  N   UNL A   1      32.667  29.675  24.545  1.00  0.00    -0.356 N 
ATOM      4  C   UNL A   1      33.350  28.796  23.756  1.00  0.00     0.221 C 
ATOM      5  O   UNL A   1      34.220  29.243  23.001  1.00  0.00    -0.275 OA
ATOM      6  H   UNL A   1      32.958  30.611  24.450  1.00  0.00     0.163 HD
BRANCH   4   7
ATOM      7  C   UNL A   1      33.095  27.303  23.784  1.00  0.00     0.122 C 
BRANCH   7   8
ATOM      8  C   UNL A   1      32.159  26.769  22.678  1.00  0.00     0.134 C 
BRANCH   8   9
ATOM      9  N   UNL A   1      30.740  26.796  23.017  1.00  0.00    -0.325 N 
ATOM     10  C   UNL A   1      29.989  25.964  23.863  1.00  0.00     0.052 A 
ATOM     11  C   UNL A   1      28.717  26.566  23.911  1.00  0.00     0.039 A 
ATOM     12  C   UNL A   1      28.764  27.831  23.265  1.00  0.00     0.020 A 
ATOM     13  C   UNL A   1      29.985  27.891  22.619  1.00  0.00     0.140 A 
ATOM     14  C   UNL A   1      27.957  28.983  23.237  1.00  0.00     0.013 A 
ATOM     15  N   UNL A   1      30.451  28.915  21.870  1.00  0.00    -0.238 NA
ATOM     16  C   UNL A   1      28.433  30.094  22.538  1.00  0.00     0.021 A 
ATOM     17  C   UNL A   1      29.642  29.996  21.868  1.00  0.00     0.113 A 
BRANCH  10  18
ATOM     18  C   UNL A   1      30.482  24.927  24.831  1.00  0.00     0.017 A 
ATOM     19  C   UNL A   1      32.773  22.514  27.571  1.00  0.00     0.066 C 
ATOM     20  C   UNL A   1      31.934  23.325  26.628  1.00  0.00     0.037 A 
ATOM     21  C   UNL A   1      31.739  22.892  25.333  1.00  0.00     0.024 A 
ATOM     22  N   UNL A   1      31.374  24.468  27.082  1.00  0.00    -0.261 NA
ATOM     23  C   UNL A   1      30.998  23.688  24.457  1.00  0.00     0.014 A 
ATOM     24  C   UNL A   1      30.679  25.228  26.183  1.00  0.00     0.121 A 
ENDBRANCH  10  18
ENDBRANCH   8   9
ENDBRANCH   7   8
ENDBRANCH   4   7
ENDBRANCH   2   3
ENDBRANCH   1   2
BRANCH   1  25
ATOM     25  C   UNL A   1      32.797  31.430  26.846  1.00  0.00     0.023 C 
BRANCH  25  26
ATOM     26  C   UNL A   1      33.994  31.083  27.711  1.00  0.00     0.116 C 
BRANCH  26  27
ATOM     27  N   UNL A   1      34.150  31.976  28.871  1.00  0.00    -0.352 N 
ATOM     28  C   UNL A   1      35.216  32.064  29.761  1.00  0.00     0.251 C 
ATOM     29  H   UNL A   1      33.399  32.591  29.040  1.00  0.00     0.163 HD
ATOM     30  O   UNL A   1      35.123  32.623  30.826  1.00  0.00    -0.269 OA
BRANCH  28  31
ATOM     31  C   UNL A   1      36.482  31.450  29.319  1.00  0.00     0.039 A 
ATOM     32  C   UNL A   1      37.702  32.120  29.428  1.00  0.00     0.014 A 
ATOM     33  C   UNL A   1      36.415  30.096  29.020  1.00  0.00     0.014 A 
ATOM     34  C   UNL A   1      38.871  31.365  29.368  1.00  0.00     0.010 A 
ATOM     35  C   UNL A   1      37.543  29.344  29.200  1.00  0.00     0.010 A 
ATOM     36  C   UNL A   1      38.781  29.964  29.309  1.00  0.00    -0.014 A 
BRANCH  36  37
ATOM     37  C   UNL A   1      39.957  29.112  29.437  1.00  0.00     0.031 A 
ATOM     38  C   UNL A   1      40.345  28.762  30.828  1.00  0.00     0.074 A 
ATOM     39  C   UNL A   1      40.564  28.531  28.381  1.00  0.00     0.049 A 
ATOM     40  N   UNL A   1      41.186  29.392  31.582  1.00  0.00    -0.248 NA
ATOM     41  C   UNL A   1      39.604  27.702  31.527  1.00  0.00     0.031 C 
ATOM     42  C   UNL A   1      40.113  28.463  26.982  1.00  0.00     0.029 A 
ATOM     43  N   UNL A   1      41.718  27.812  28.355  1.00  0.00    -0.354 N 
ATOM     44  C   UNL A   1      41.287  28.632  32.743  1.00  0.00     0.074 A 
ATOM     45  C   UNL A   1      40.128  27.776  32.755  1.00  0.00     0.031 C 
ATOM     46  C   UNL A   1      40.861  27.570  26.299  1.00  0.00     0.029 A 
ATOM     47  C   UNL A   1      41.978  27.198  27.140  1.00  0.00     0.049 A 
ATOM     48  H   UNL A   1      42.318  27.736  29.131  1.00  0.00     0.167 HD
ATOM     49  C   UNL A   1      42.470  28.544  33.421  1.00  0.00     0.034 A 
ATOM     50  C   UNL A   1      43.078  26.494  26.800  1.00  0.00     0.034 A 
ATOM     51  C   UNL A   1      43.448  29.425  32.838  1.00  0.00     0.049 A 
ATOM     52  C   UNL A   1      44.173  26.919  27.695  1.00  0.00     0.074 A 
ATOM     53  C   UNL A   1      43.735  30.770  32.872  1.00  0.00     0.029 A 
ATOM     54  N   UNL A   1      44.078  28.893  31.739  1.00  0.00    -0.354 N 
ATOM     55  N   UNL A   1      44.686  28.119  27.679  1.00  0.00    -0.248 NA
ATOM     56  C   UNL A   1      44.475  26.121  28.877  1.00  0.00     0.031 C 
ATOM     57  C   UNL A   1      44.416  31.060  31.652  1.00  0.00     0.029 A 
ATOM     58  C   UNL A   1      44.566  29.881  30.924  1.00  0.00     0.049 A 
ATOM     59  H   UNL A   1      44.168  27.929  31.561  1.00  0.00     0.167 HD
ATOM     60  C   UNL A   1      44.988  28.371  29.001  1.00  0.00     0.074 A 
ATOM     61  C   UNL A   1      45.015  27.066  29.650  1.00  0.00     0.031 C 
ATOM     62  C   UNL A   1      44.872  29.621  29.530  1.00  0.00     0.034 A 
BRANCH  49  63
ATOM     63  C   UNL A   1      42.914  27.377  34.276  1.00  0.00     0.023 A 
ATOM     64  C   UNL A   1      43.473  26.206  33.740  1.00  0.00     0.031 A 
ATOM     65  C   UNL A   1      43.002  27.513  35.678  1.00  0.00     0.131 A 
ATOM     66  C   UNL A   1      44.062  25.228  34.555  1.00  0.00     0.055 A 
ATOM     67  C   UNL A   1      43.647  26.568  36.489  1.00  0.00     0.041 A 
ATOM     68  F   UNL A   1      42.506  28.595  36.300  1.00  0.00    -0.206 F 
ATOM     69  C   UNL A   1      44.182  25.415  35.927  1.00  0.00     0.022 A 
BRANCH  66  70
ATOM     70  S   UNL A   1      44.713  23.704  33.818  1.00  0.00     0.124 S 
ATOM     71  O   UNL A   1      43.806  22.696  34.355  1.00  0.00    -0.237 OA
ATOM     72  O   UNL A   1      44.576  23.986  32.391  1.00  0.00    -0.237 OA
ATOM     73  O   UNL A   1      46.088  23.651  34.309  1.00  0.00    -0.744 OA
ENDBRANCH  66  70
ENDBRANCH  49  63
BRANCH  50  74
ATOM     74  C   UNL A   1      43.141  25.259  25.999  1.00  0.00     0.023 A 
ATOM     75  C   UNL A   1      42.313  24.173  26.334  1.00  0.00     0.031 A 
ATOM     76  C   UNL A   1      44.228  25.018  25.145  1.00  0.00     0.131 A 
ATOM     77  C   UNL A   1      42.636  22.883  25.896  1.00  0.00     0.055 A 
ATOM     78  C   UNL A   1      44.539  23.732  24.695  1.00  0.00     0.041 A 
ATOM     79  F   UNL A   1      45.055  26.017  24.799  1.00  0.00    -0.206 F 
ATOM     80  C   UNL A   1      43.754  22.653  25.089  1.00  0.00     0.022 A 
BRANCH  77  81
ATOM     81  S   UNL A   1      41.658  21.457  26.443  1.00  0.00     0.124 S 
ATOM     82  O   UNL A   1      40.298  21.864  26.098  1.00  0.00    -0.237 OA
ATOM     83  O   UNL A   1      42.219  20.385  25.629  1.00  0.00    -0.237 OA
ATOM     84  O   UNL A   1      41.936  21.386  27.875  1.00  0.00    -0.744 OA
ENDBRANCH  77  81
ENDBRANCH  50  74
BRANCH  62  85
ATOM     85  C   UNL A   1      44.921  30.800  28.602  1.00  0.00     0.023 A 
ATOM     86  C   UNL A   1      46.190  31.149  28.112  1.00  0.00     0.031 A 
ATOM     87  C   UNL A   1      43.847  31.660  28.319  1.00  0.00     0.131 A 
ATOM     88  C   UNL A   1      46.375  32.345  27.417  1.00  0.00     0.055 A 
ATOM     89  C   UNL A   1      44.024  32.828  27.569  1.00  0.00     0.041 A 
ATOM     90  F   UNL A   1      42.621  31.432  28.809  1.00  0.00    -0.206 F 
ATOM     91  C   UNL A   1      45.296  33.185  27.129  1.00  0.00     0.022 A 
BRANCH  88  92
ATOM     92  S   UNL A   1      48.045  32.888  26.984  1.00  0.00     0.124 S 
ATOM     93  O   UNL A   1      48.679  31.641  26.565  1.00  0.00    -0.237 OA
ATOM     94  O   UNL A   1      47.787  33.851  25.916  1.00  0.00    -0.237 OA
ATOM     95  O   UNL A   1      48.562  33.463  28.223  1.00  0.00    -0.744 OA
ENDBRANCH  88  92
ENDBRANCH  62  85
ENDBRANCH  36  37
ENDBRANCH  28  31
ENDBRANCH  26  27
ENDBRANCH  25  26
ENDBRANCH   1  25
TORSDOF 17
ENDMDL
MODEL 3
REMARK VINA RESULT:     -12.1      3.131      4.788
REMARK SMILES Cc1ccc(-c2cc3cccnc3n2CCC(=O)NCCCCNC(=O)c2ccc(-c3c4nc(c(-c5cc(S(=O)(=O)[O-])ccc5F)c5ccc([nH]5)c(-c5cc(S(=O)(=O)[O-])ccc5F)c5nc(c(-c6cc(S(=O)(=O)[O-])ccc6F)c6ccc3[nH]6)C=C5)C=C4)cc2)cn1
REMARK SMILES IDX 21 1 20 2 19 3 17 4 18 5 16 7 15 8 14 9 6 10 7 11 8 12 13 13
REMARK SMILES IDX 9 14 12 15 10 16 11 17 5 18 1 19 2 20 3 21 91 22 4 23 90 24
REMARK SMILES IDX 22 25 23 26 24 27 25 28 26 30 27 31 28 32 89 33 29 34 88 35
REMARK SMILES IDX 30 36 31 37 32 38 82 39 33 40 87 41 81 42 83 43 34 44 86 45
REMARK SMILES IDX 80 46 79 47 35 49 67 50 47 51 66 52 48 53 51 54 65 55 84 56
REMARK SMILES IDX 49 57 50 58 64 60 85 61 52 62 36 63 37 64 45 65 38 66 44 67
REMARK SMILES IDX 46 68 43 69 39 70 40 71 41 72 42 73 68 74 69 75 77 76 70 77
REMARK SMILES IDX 76 78 78 79 75 80 71 81 72 82 73 83 74 84 53 85 54 86 62 87
REMARK SMILES IDX 55 88 61 89 63 90 60 91 56 92 57 93 58 94 59 95
REMARK H PARENT 19 6 24 29 83 48 51 59
REMARK Flexibility Score: inf
ROOT
ATOM      1  C   UNL A   1      39.544  21.725  26.151  1.00  0.00     0.023 C 
ENDROOT
BRANCH   1   2
ATOM      2  C   UNL A   1      38.077  21.856  25.769  1.00  0.00     0.116 C 
BRANCH   2   3
ATOM      3  N   UNL A   1      37.879  22.502  24.476  1.00  0.00    -0.356 N 
ATOM      4  C   UNL A   1      36.751  22.754  23.751  1.00  0.00     0.221 C 
ATOM      5  O   UNL A   1      36.868  23.355  22.678  1.00  0.00    -0.275 OA
ATOM      6  H   UNL A   1      38.710  22.814  24.049  1.00  0.00     0.163 HD
BRANCH   4   7
ATOM      7  C   UNL A   1      35.373  22.313  24.202  1.00  0.00     0.122 C 
BRANCH   7   8
ATOM      8  C   UNL A   1      34.197  22.850  23.360  1.00  0.00     0.134 C 
BRANCH   8   9
ATOM      9  N   UNL A   1      32.916  22.889  24.058  1.00  0.00    -0.325 N 
ATOM     10  C   UNL A   1      32.022  21.854  24.379  1.00  0.00     0.052 A 
ATOM     11  C   UNL A   1      31.044  22.471  25.182  1.00  0.00     0.039 A 
ATOM     12  C   UNL A   1      31.448  23.798  25.491  1.00  0.00     0.020 A 
ATOM     13  C   UNL A   1      32.540  24.067  24.688  1.00  0.00     0.140 A 
ATOM     14  C   UNL A   1      31.083  24.773  26.438  1.00  0.00     0.013 A 
ATOM     15  N   UNL A   1      33.243  25.221  24.643  1.00  0.00    -0.238 NA
ATOM     16  C   UNL A   1      31.830  25.951  26.481  1.00  0.00     0.021 A 
ATOM     17  C   UNL A   1      32.855  26.127  25.565  1.00  0.00     0.113 A 
BRANCH  10  18
ATOM     18  C   UNL A   1      32.234  20.371  24.276  1.00  0.00     0.017 A 
ATOM     19  C   UNL A   1      33.841  16.390  23.892  1.00  0.00     0.066 C 
ATOM     20  C   UNL A   1      33.236  17.755  24.035  1.00  0.00     0.037 A 
ATOM     21  C   UNL A   1      32.610  18.348  22.958  1.00  0.00     0.024 A 
ATOM     22  N   UNL A   1      33.309  18.372  25.236  1.00  0.00    -0.261 NA
ATOM     23  C   UNL A   1      32.099  19.640  23.099  1.00  0.00     0.014 A 
ATOM     24  C   UNL A   1      32.818  19.645  25.320  1.00  0.00     0.121 A 
ENDBRANCH  10  18
ENDBRANCH   8   9
ENDBRANCH   7   8
ENDBRANCH   4   7
ENDBRANCH   2   3
ENDBRANCH   1   2
BRANCH   1  25
ATOM     25  C   UNL A   1      40.248  20.365  26.150  1.00  0.00     0.023 C 
BRANCH  25  26
ATOM     26  C   UNL A   1      41.626  20.361  26.785  1.00  0.00     0.116 C 
BRANCH  26  27
ATOM     27  N   UNL A   1      42.621  19.606  26.007  1.00  0.00    -0.352 N 
ATOM     28  C   UNL A   1      43.614  20.093  25.163  1.00  0.00     0.251 C 
ATOM     29  H   UNL A   1      42.578  18.626  26.095  1.00  0.00     0.163 HD
ATOM     30  O   UNL A   1      44.186  19.389  24.366  1.00  0.00    -0.269 OA
BRANCH  28  31
ATOM     31  C   UNL A   1      43.946  21.523  25.308  1.00  0.00     0.039 A 
ATOM     32  C   UNL A   1      43.260  22.512  24.603  1.00  0.00     0.014 A 
ATOM     33  C   UNL A   1      44.805  21.831  26.355  1.00  0.00     0.014 A 
ATOM     34  C   UNL A   1      43.345  23.824  25.066  1.00  0.00     0.010 A 
ATOM     35  C   UNL A   1      44.692  23.065  26.933  1.00  0.00     0.010 A 
ATOM     36  C   UNL A   1      44.021  24.085  26.270  1.00  0.00    -0.014 A 
BRANCH  36  37
ATOM     37  C   UNL A   1      43.984  25.396  26.904  1.00  0.00     0.031 A 
ATOM     38  C   UNL A   1      45.149  26.275  26.627  1.00  0.00     0.074 A 
ATOM     39  C   UNL A   1      42.901  25.866  27.560  1.00  0.00     0.049 A 
ATOM     40  N   UNL A   1      46.226  26.383  27.333  1.00  0.00    -0.248 NA
ATOM     41  C   UNL A   1      45.209  26.991  25.344  1.00  0.00     0.031 C 
ATOM     42  C   UNL A   1      41.545  25.298  27.625  1.00  0.00     0.029 A 
ATOM     43  N   UNL A   1      42.777  27.012  28.281  1.00  0.00    -0.354 N 
ATOM     44  C   UNL A   1      46.968  27.394  26.730  1.00  0.00     0.074 A 
ATOM     45  C   UNL A   1      46.427  27.539  25.402  1.00  0.00     0.031 C 
ATOM     46  C   UNL A   1      40.692  26.201  28.154  1.00  0.00     0.029 A 
ATOM     47  C   UNL A   1      41.480  27.294  28.680  1.00  0.00     0.049 A 
ATOM     48  H   UNL A   1      43.542  27.591  28.500  1.00  0.00     0.167 HD
ATOM     49  C   UNL A   1      47.739  28.238  27.478  1.00  0.00     0.034 A 
ATOM     50  C   UNL A   1      41.072  28.312  29.467  1.00  0.00     0.034 A 
ATOM     51  C   UNL A   1      47.748  27.819  28.856  1.00  0.00     0.049 A 
ATOM     52  C   UNL A   1      42.234  28.753  30.264  1.00  0.00     0.074 A 
ATOM     53  C   UNL A   1      48.383  26.860  29.609  1.00  0.00     0.029 A 
ATOM     54  N   UNL A   1      46.652  28.247  29.565  1.00  0.00    -0.354 N 
ATOM     55  N   UNL A   1      42.803  28.009  31.173  1.00  0.00    -0.248 NA
ATOM     56  C   UNL A   1      43.013  29.899  29.811  1.00  0.00     0.031 C 
ATOM     57  C   UNL A   1      47.528  26.600  30.721  1.00  0.00     0.029 A 
ATOM     58  C   UNL A   1      46.414  27.435  30.643  1.00  0.00     0.049 A 
ATOM     59  H   UNL A   1      46.109  29.034  29.330  1.00  0.00     0.167 HD
ATOM     60  C   UNL A   1      44.142  28.330  31.078  1.00  0.00     0.074 A 
ATOM     61  C   UNL A   1      44.187  29.606  30.376  1.00  0.00     0.031 C 
ATOM     62  C   UNL A   1      45.112  27.395  31.281  1.00  0.00     0.034 A 
BRANCH  49  63
ATOM     63  C   UNL A   1      48.096  29.663  27.116  1.00  0.00     0.023 A 
ATOM     64  C   UNL A   1      47.132  30.649  26.850  1.00  0.00     0.031 A 
ATOM     65  C   UNL A   1      49.422  30.125  27.262  1.00  0.00     0.131 A 
ATOM     66  C   UNL A   1      47.476  32.002  26.718  1.00  0.00     0.055 A 
ATOM     67  C   UNL A   1      49.759  31.485  27.195  1.00  0.00     0.041 A 
ATOM     68  F   UNL A   1      50.426  29.273  27.525  1.00  0.00    -0.206 F 
ATOM     69  C   UNL A   1      48.782  32.434  26.921  1.00  0.00     0.022 A 
BRANCH  66  70
ATOM     70  S   UNL A   1      46.202  33.227  26.310  1.00  0.00     0.124 S 
ATOM     71  O   UNL A   1      45.235  32.425  25.571  1.00  0.00    -0.237 OA
ATOM     72  O   UNL A   1      45.781  33.665  27.639  1.00  0.00    -0.237 OA
ATOM     73  O   UNL A   1      46.930  34.226  25.532  1.00  0.00    -0.744 OA
ENDBRANCH  66  70
ENDBRANCH  49  63
BRANCH  50  74
ATOM     74  C   UNL A   1      39.855  29.129  29.318  1.00  0.00     0.023 A 
ATOM     75  C   UNL A   1      39.191  29.597  30.467  1.00  0.00     0.031 A 
ATOM     76  C   UNL A   1      39.162  29.162  28.098  1.00  0.00     0.131 A 
ATOM     77  C   UNL A   1      37.848  29.989  30.389  1.00  0.00     0.055 A 
ATOM     78  C   UNL A   1      37.828  29.570  28.021  1.00  0.00     0.041 A 
ATOM     79  F   UNL A   1      39.746  28.721  26.973  1.00  0.00    -0.206 F 
ATOM     80  C   UNL A   1      37.158  29.964  29.175  1.00  0.00     0.022 A 
BRANCH  77  81
ATOM     81  S   UNL A   1      36.941  30.454  31.889  1.00  0.00     0.124 S 
ATOM     82  O   UNL A   1      35.746  31.093  31.343  1.00  0.00    -0.237 OA
ATOM     83  O   UNL A   1      36.728  29.157  32.519  1.00  0.00    -0.237 OA
ATOM     84  O   UNL A   1      37.863  31.355  32.575  1.00  0.00    -0.744 OA
ENDBRANCH  77  81
ENDBRANCH  50  74
BRANCH  62  85
ATOM     85  C   UNL A   1      44.778  26.180  32.095  1.00  0.00     0.023 A 
ATOM     86  C   UNL A   1      44.881  26.320  33.488  1.00  0.00     0.031 A 
ATOM     87  C   UNL A   1      44.531  24.896  31.580  1.00  0.00     0.131 A 
ATOM     88  C   UNL A   1      44.799  25.203  34.320  1.00  0.00     0.055 A 
ATOM     89  C   UNL A   1      44.387  23.786  32.420  1.00  0.00     0.041 A 
ATOM     90  F   UNL A   1      44.487  24.669  30.260  1.00  0.00    -0.206 F 
ATOM     91  C   UNL A   1      44.538  23.933  33.797  1.00  0.00     0.022 A 
BRANCH  88  92
ATOM     92  S   UNL A   1      45.152  25.364  36.086  1.00  0.00     0.124 S 
ATOM     93  O   UNL A   1      43.976  24.750  36.696  1.00  0.00    -0.237 OA
ATOM     94  O   UNL A   1      46.395  24.607  36.221  1.00  0.00    -0.237 OA
ATOM     95  O   UNL A   1      45.280  26.804  36.292  1.00  0.00    -0.744 OA
ENDBRANCH  88  92
ENDBRANCH  62  85
ENDBRANCH  36  37
ENDBRANCH  28  31
ENDBRANCH  26  27
ENDBRANCH  25  26
ENDBRANCH   1  25
TORSDOF 17
ENDMDL
