MODEL 1
REMARK VINA RESULT:     -12.9      0.000      0.000
REMARK SMILES Cc1ccc(Nc2c(C)cccc2Cl)c(CC(=O)NCCCCNC(=O)c2ccc(-c3c4nc(c(-c5cc(S(=O)(=O)[O-])ccc5F)c5ccc([nH]5)c(-c5cc(S(=O)(=O)[O-])ccc5F)c5nc(c(-c6cc(S(=O)(=O)[O-])ccc6F)c6ccc3[nH]6)C=C5)C=C4)cc2)c1
REMARK SMILES IDX 21 1 20 2 19 3 17 4 18 5 16 7 15 8 1 9 2 10 3 11 90 12 4 13
REMARK SMILES IDX 5 14 6 15 7 17 8 18 13 19 9 20 10 21 12 22 14 23 11 24 22 25
REMARK SMILES IDX 23 26 24 27 25 28 26 30 27 31 28 32 89 33 29 34 88 35 30 36
REMARK SMILES IDX 31 37 32 38 82 39 33 40 87 41 81 42 83 43 34 44 86 45 80 46
REMARK SMILES IDX 79 47 35 49 67 50 47 51 66 52 48 53 51 54 65 55 84 56 49 57
REMARK SMILES IDX 50 58 64 60 85 61 52 62 36 63 37 64 45 65 38 66 44 67 46 68
REMARK SMILES IDX 43 69 39 70 40 71 41 72 42 73 68 74 69 75 77 76 70 77 76 78
REMARK SMILES IDX 78 79 75 80 71 81 72 82 73 83 74 84 53 85 54 86 62 87 55 88
REMARK SMILES IDX 61 89 63 90 60 91 56 92 57 93 58 94 59 95
REMARK H PARENT 19 6 6 16 24 29 83 48 51 59
REMARK Flexibility Score: inf
ROOT
ATOM      1  C   UNL A   1      32.130  29.780  27.238  1.00  0.00     0.023 C 
ENDROOT
BRANCH   1   2
ATOM      2  C   UNL A   1      32.547  28.547  26.419  1.00  0.00     0.116 C 
BRANCH   2   3
ATOM      3  N   UNL A   1      31.649  27.410  26.608  1.00  0.00    -0.356 N 
ATOM      4  C   UNL A   1      31.887  26.079  26.443  1.00  0.00     0.224 C 
ATOM      5  O   UNL A   1      30.943  25.288  26.541  1.00  0.00    -0.275 OA
ATOM      6  H   UNL A   1      30.737  27.640  26.897  1.00  0.00     0.163 HD
BRANCH   4   7
ATOM      7  C   UNL A   1      33.277  25.562  26.114  1.00  0.00     0.137 C 
BRANCH   7   8
ATOM      8  C   UNL A   1      33.391  24.994  24.718  1.00  0.00    -0.015 A 
ATOM      9  C   UNL A   1      31.959  25.978  21.317  1.00  0.00     0.044 C 
ATOM     10  C   UNL A   1      32.712  25.231  22.377  1.00  0.00    -0.051 A 
ATOM     11  C   UNL A   1      33.240  23.969  22.116  1.00  0.00     0.005 A 
ATOM     12  C   UNL A   1      32.821  25.748  23.669  1.00  0.00     0.009 A 
ATOM     13  C   UNL A   1      33.857  23.235  23.135  1.00  0.00     0.026 A 
ATOM     14  C   UNL A   1      33.940  23.720  24.452  1.00  0.00     0.042 A 
BRANCH  14  15
ATOM     15  N   UNL A   1      34.579  22.969  25.468  1.00  0.00    -0.354 N 
ATOM     16  H   UNL A   1      34.231  23.110  26.377  1.00  0.00     0.167 HD
BRANCH  15  17
ATOM     17  C   UNL A   1      35.647  22.043  25.363  1.00  0.00     0.060 A 
ATOM     18  C   UNL A   1      36.999  22.445  25.450  1.00  0.00    -0.026 A 
ATOM     19  C   UNL A   1      35.368  20.687  25.079  1.00  0.00     0.064 A 
ATOM     20  C   UNL A   1      37.406  23.849  25.809  1.00  0.00     0.046 C 
ATOM     21  C   UNL A   1      38.020  21.508  25.200  1.00  0.00     0.005 A 
ATOM     22  C   UNL A   1      36.395  19.765  24.857  1.00  0.00     0.023 A 
ATOM     23  Cl  UNL A   1      33.740  20.111  24.965  1.00  0.00    -0.082 Cl
ATOM     24  C   UNL A   1      37.721  20.179  24.904  1.00  0.00     0.002 A 
ENDBRANCH  15  17
ENDBRANCH  14  15
ENDBRANCH   7   8
ENDBRANCH   4   7
ENDBRANCH   2   3
ENDBRANCH   1   2
BRANCH   1  25
ATOM     25  C   UNL A   1      33.095  30.964  27.197  1.00  0.00     0.023 C 
BRANCH  25  26
ATOM     26  C   UNL A   1      34.537  30.583  27.494  1.00  0.00     0.116 C 
BRANCH  26  27
ATOM     27  N   UNL A   1      35.222  31.459  28.437  1.00  0.00    -0.352 N 
ATOM     28  C   UNL A   1      36.325  31.165  29.223  1.00  0.00     0.251 C 
ATOM     29  H   UNL A   1      34.858  32.369  28.525  1.00  0.00     0.163 HD
ATOM     30  O   UNL A   1      36.762  31.950  30.050  1.00  0.00    -0.269 OA
BRANCH  28  31
ATOM     31  C   UNL A   1      37.061  29.908  28.939  1.00  0.00     0.039 A 
ATOM     32  C   UNL A   1      37.259  29.038  30.015  1.00  0.00     0.014 A 
ATOM     33  C   UNL A   1      37.773  29.746  27.751  1.00  0.00     0.014 A 
ATOM     34  C   UNL A   1      38.346  28.169  29.994  1.00  0.00     0.010 A 
ATOM     35  C   UNL A   1      38.903  28.948  27.766  1.00  0.00     0.010 A 
ATOM     36  C   UNL A   1      39.232  28.223  28.918  1.00  0.00    -0.014 A 
BRANCH  36  37
ATOM     37  C   UNL A   1      40.590  27.693  28.991  1.00  0.00     0.031 A 
ATOM     38  C   UNL A   1      40.876  26.284  28.657  1.00  0.00     0.074 A 
ATOM     39  C   UNL A   1      41.611  28.501  29.361  1.00  0.00     0.049 A 
ATOM     40  N   UNL A   1      41.962  25.674  28.997  1.00  0.00    -0.248 NA
ATOM     41  C   UNL A   1      39.914  25.409  27.993  1.00  0.00     0.031 C 
ATOM     42  C   UNL A   1      43.043  28.232  29.259  1.00  0.00     0.029 A 
ATOM     43  N   UNL A   1      41.527  29.607  30.206  1.00  0.00    -0.354 N 
ATOM     44  C   UNL A   1      41.986  24.474  28.337  1.00  0.00     0.074 A 
ATOM     45  C   UNL A   1      40.637  24.291  27.868  1.00  0.00     0.031 C 
ATOM     46  C   UNL A   1      43.682  28.928  30.211  1.00  0.00     0.029 A 
ATOM     47  C   UNL A   1      42.672  29.568  31.031  1.00  0.00     0.049 A 
ATOM     48  H   UNL A   1      40.811  30.282  30.224  1.00  0.00     0.167 HD
ATOM     49  C   UNL A   1      43.185  23.858  28.147  1.00  0.00     0.034 A 
ATOM     50  C   UNL A   1      42.554  29.464  32.386  1.00  0.00     0.034 A 
ATOM     51  C   UNL A   1      44.210  24.376  29.066  1.00  0.00     0.049 A 
ATOM     52  C   UNL A   1      43.196  28.220  32.974  1.00  0.00     0.074 A 
ATOM     53  C   UNL A   1      45.398  25.075  28.942  1.00  0.00     0.029 A 
ATOM     54  N   UNL A   1      43.939  24.340  30.429  1.00  0.00    -0.354 N 
ATOM     55  N   UNL A   1      43.828  27.311  32.280  1.00  0.00    -0.248 NA
ATOM     56  C   UNL A   1      43.090  27.857  34.387  1.00  0.00     0.031 C 
ATOM     57  C   UNL A   1      45.806  25.495  30.251  1.00  0.00     0.029 A 
ATOM     58  C   UNL A   1      44.888  25.018  31.168  1.00  0.00     0.049 A 
ATOM     59  H   UNL A   1      43.159  23.886  30.820  1.00  0.00     0.167 HD
ATOM     60  C   UNL A   1      44.134  26.244  33.087  1.00  0.00     0.074 A 
ATOM     61  C   UNL A   1      43.654  26.638  34.402  1.00  0.00     0.031 C 
ATOM     62  C   UNL A   1      44.707  25.095  32.615  1.00  0.00     0.034 A 
BRANCH  49  63
ATOM     63  C   UNL A   1      43.479  22.875  27.024  1.00  0.00     0.023 A 
ATOM     64  C   UNL A   1      42.829  21.621  27.020  1.00  0.00     0.031 A 
ATOM     65  C   UNL A   1      44.467  23.033  26.022  1.00  0.00     0.131 A 
ATOM     66  C   UNL A   1      43.166  20.619  26.083  1.00  0.00     0.055 A 
ATOM     67  C   UNL A   1      44.750  22.064  25.052  1.00  0.00     0.041 A 
ATOM     68  F   UNL A   1      45.275  24.095  25.957  1.00  0.00    -0.206 F 
ATOM     69  C   UNL A   1      44.106  20.845  25.083  1.00  0.00     0.022 A 
BRANCH  66  70
ATOM     70  S   UNL A   1      42.433  18.967  26.238  1.00  0.00     0.124 S 
ATOM     71  O   UNL A   1      43.363  18.146  25.469  1.00  0.00    -0.237 OA
ATOM     72  O   UNL A   1      42.429  18.764  27.682  1.00  0.00    -0.237 OA
ATOM     73  O   UNL A   1      41.111  19.124  25.634  1.00  0.00    -0.744 OA
ENDBRANCH  66  70
ENDBRANCH  49  63
BRANCH  50  74
ATOM     74  C   UNL A   1      41.350  30.180  32.908  1.00  0.00     0.023 A 
ATOM     75  C   UNL A   1      41.419  31.593  32.926  1.00  0.00     0.031 A 
ATOM     76  C   UNL A   1      40.084  29.588  32.983  1.00  0.00     0.131 A 
ATOM     77  C   UNL A   1      40.254  32.359  32.801  1.00  0.00     0.055 A 
ATOM     78  C   UNL A   1      38.918  30.365  32.968  1.00  0.00     0.041 A 
ATOM     79  F   UNL A   1      39.944  28.256  32.936  1.00  0.00    -0.206 F 
ATOM     80  C   UNL A   1      38.998  31.752  32.821  1.00  0.00     0.022 A 
BRANCH  77  81
ATOM     81  S   UNL A   1      40.417  34.095  32.277  1.00  0.00     0.124 S 
ATOM     82  O   UNL A   1      39.992  34.820  33.469  1.00  0.00    -0.237 OA
ATOM     83  O   UNL A   1      41.837  34.203  31.941  1.00  0.00    -0.237 OA
ATOM     84  O   UNL A   1      39.524  34.188  31.126  1.00  0.00    -0.744 OA
ENDBRANCH  77  81
ENDBRANCH  50  74
BRANCH  62  85
ATOM     85  C   UNL A   1      45.074  23.916  33.492  1.00  0.00     0.023 A 
ATOM     86  C   UNL A   1      46.404  23.608  33.826  1.00  0.00     0.031 A 
ATOM     87  C   UNL A   1      44.096  23.014  33.973  1.00  0.00     0.131 A 
ATOM     88  C   UNL A   1      46.708  22.527  34.675  1.00  0.00     0.055 A 
ATOM     89  C   UNL A   1      44.408  21.894  34.750  1.00  0.00     0.041 A 
ATOM     90  F   UNL A   1      42.789  23.196  33.737  1.00  0.00    -0.206 F 
ATOM     91  C   UNL A   1      45.721  21.654  35.124  1.00  0.00     0.022 A 
BRANCH  88  92
ATOM     92  S   UNL A   1      48.418  22.323  35.243  1.00  0.00     0.124 S 
ATOM     93  O   UNL A   1      49.140  23.300  34.435  1.00  0.00    -0.237 OA
ATOM     94  O   UNL A   1      48.298  22.640  36.664  1.00  0.00    -0.237 OA
ATOM     95  O   UNL A   1      48.718  20.924  34.944  1.00  0.00    -0.744 OA
ENDBRANCH  88  92
ENDBRANCH  62  85
ENDBRANCH  36  37
ENDBRANCH  28  31
ENDBRANCH  26  27
ENDBRANCH  25  26
ENDBRANCH   1  25
TORSDOF 17
ENDMDL
MODEL 2
REMARK VINA RESULT:     -12.7      4.176     10.773
REMARK SMILES Cc1ccc(Nc2c(C)cccc2Cl)c(CC(=O)NCCCCNC(=O)c2ccc(-c3c4nc(c(-c5cc(S(=O)(=O)[O-])ccc5F)c5ccc([nH]5)c(-c5cc(S(=O)(=O)[O-])ccc5F)c5nc(c(-c6cc(S(=O)(=O)[O-])ccc6F)c6ccc3[nH]6)C=C5)C=C4)cc2)c1
REMARK SMILES IDX 21 1 20 2 19 3 17 4 18 5 16 7 15 8 1 9 2 10 3 11 90 12 4 13
REMARK SMILES IDX 5 14 6 15 7 17 8 18 13 19 9 20 10 21 12 22 14 23 11 24 22 25
REMARK SMILES IDX 23 26 24 27 25 28 26 30 27 31 28 32 89 33 29 34 88 35 30 36
REMARK SMILES IDX 31 37 32 38 82 39 33 40 87 41 81 42 83 43 34 44 86 45 80 46
REMARK SMILES IDX 79 47 35 49 67 50 47 51 66 52 48 53 51 54 65 55 84 56 49 57
REMARK SMILES IDX 50 58 64 60 85 61 52 62 36 63 37 64 45 65 38 66 44 67 46 68
REMARK SMILES IDX 43 69 39 70 40 71 41 72 42 73 68 74 69 75 77 76 70 77 76 78
REMARK SMILES IDX 78 79 75 80 71 81 72 82 73 83 74 84 53 85 54 86 62 87 55 88
REMARK SMILES IDX 61 89 63 90 60 91 56 92 57 93 58 94 59 95
REMARK H PARENT 19 6 6 16 24 29 83 48 51 59
REMARK Flexibility Score: inf
ROOT
ATOM      1  C   UNL A   1      36.961  21.827  24.554  1.00  0.00     0.023 C 
ENDROOT
BRANCH   1   2
ATOM      2  C   UNL A   1      35.991  22.969  24.902  1.00  0.00     0.116 C 
BRANCH   2   3
ATOM      3  N   UNL A   1      35.292  23.498  23.734  1.00  0.00    -0.356 N 
ATOM      4  C   UNL A   1      34.484  24.588  23.625  1.00  0.00     0.224 C 
ATOM      5  O   UNL A   1      33.893  24.788  22.558  1.00  0.00    -0.275 OA
ATOM      6  H   UNL A   1      35.426  22.990  22.900  1.00  0.00     0.163 HD
BRANCH   4   7
ATOM      7  C   UNL A   1      34.277  25.535  24.794  1.00  0.00     0.137 C 
BRANCH   7   8
ATOM      8  C   UNL A   1      32.865  25.522  25.334  1.00  0.00    -0.015 A 
ATOM      9  C   UNL A   1      30.508  22.779  26.562  1.00  0.00     0.044 C 
ATOM     10  C   UNL A   1      31.040  24.131  26.188  1.00  0.00    -0.051 A 
ATOM     11  C   UNL A   1      30.187  25.229  26.099  1.00  0.00     0.005 A 
ATOM     12  C   UNL A   1      32.381  24.295  25.836  1.00  0.00     0.009 A 
ATOM     13  C   UNL A   1      30.670  26.465  25.656  1.00  0.00     0.026 A 
ATOM     14  C   UNL A   1      32.005  26.640  25.258  1.00  0.00     0.042 A 
BRANCH  14  15
ATOM     15  N   UNL A   1      32.480  27.902  24.824  1.00  0.00    -0.354 N 
ATOM     16  H   UNL A   1      32.913  27.908  23.941  1.00  0.00     0.167 HD
BRANCH  15  17
ATOM     17  C   UNL A   1      32.418  29.158  25.480  1.00  0.00     0.060 A 
ATOM     18  C   UNL A   1      33.328  29.517  26.498  1.00  0.00    -0.026 A 
ATOM     19  C   UNL A   1      31.369  30.054  25.171  1.00  0.00     0.064 A 
ATOM     20  C   UNL A   1      34.516  28.666  26.863  1.00  0.00     0.046 C 
ATOM     21  C   UNL A   1      33.136  30.716  27.211  1.00  0.00     0.005 A 
ATOM     22  C   UNL A   1      31.208  31.252  25.873  1.00  0.00     0.023 A 
ATOM     23  Cl  UNL A   1      30.218  29.695  23.930  1.00  0.00    -0.082 Cl
ATOM     24  C   UNL A   1      32.084  31.577  26.902  1.00  0.00     0.002 A 
ENDBRANCH  15  17
ENDBRANCH  14  15
ENDBRANCH   7   8
ENDBRANCH   4   7
ENDBRANCH   2   3
ENDBRANCH   1   2
BRANCH   1  25
ATOM     25  C   UNL A   1      38.176  21.683  25.469  1.00  0.00     0.023 C 
BRANCH  25  26
ATOM     26  C   UNL A   1      38.694  23.008  26.005  1.00  0.00     0.116 C 
BRANCH  26  27
ATOM     27  N   UNL A   1      40.099  23.007  26.392  1.00  0.00    -0.352 N 
ATOM     28  C   UNL A   1      40.868  24.085  26.806  1.00  0.00     0.251 C 
ATOM     29  H   UNL A   1      40.557  22.138  26.357  1.00  0.00     0.163 HD
ATOM     30  O   UNL A   1      42.066  23.985  27.019  1.00  0.00    -0.269 OA
BRANCH  28  31
ATOM     31  C   UNL A   1      40.165  25.353  27.123  1.00  0.00     0.039 A 
ATOM     32  C   UNL A   1      40.558  26.486  26.404  1.00  0.00     0.014 A 
ATOM     33  C   UNL A   1      39.384  25.473  28.271  1.00  0.00     0.014 A 
ATOM     34  C   UNL A   1      40.385  27.744  26.972  1.00  0.00     0.010 A 
ATOM     35  C   UNL A   1      39.291  26.714  28.876  1.00  0.00     0.010 A 
ATOM     36  C   UNL A   1      39.865  27.835  28.263  1.00  0.00    -0.014 A 
BRANCH  36  37
ATOM     37  C   UNL A   1      40.039  29.019  29.098  1.00  0.00     0.031 A 
ATOM     38  C   UNL A   1      39.054  30.119  29.075  1.00  0.00     0.074 A 
ATOM     39  C   UNL A   1      41.111  29.116  29.918  1.00  0.00     0.049 A 
ATOM     40  N   UNL A   1      39.293  31.304  29.526  1.00  0.00    -0.248 NA
ATOM     41  C   UNL A   1      37.741  30.002  28.446  1.00  0.00     0.031 C 
ATOM     42  C   UNL A   1      41.331  30.084  30.989  1.00  0.00     0.029 A 
ATOM     43  N   UNL A   1      42.363  28.537  29.714  1.00  0.00    -0.354 N 
ATOM     44  C   UNL A   1      38.105  31.985  29.551  1.00  0.00     0.074 A 
ATOM     45  C   UNL A   1      37.221  31.201  28.728  1.00  0.00     0.031 C 
ATOM     46  C   UNL A   1      42.651  30.255  31.152  1.00  0.00     0.029 A 
ATOM     47  C   UNL A   1      43.318  29.499  30.111  1.00  0.00     0.049 A 
ATOM     48  H   UNL A   1      42.545  27.636  29.362  1.00  0.00     0.167 HD
ATOM     49  C   UNL A   1      37.982  33.052  30.387  1.00  0.00     0.034 A 
ATOM     50  C   UNL A   1      44.230  29.987  29.221  1.00  0.00     0.034 A 
ATOM     51  C   UNL A   1      39.295  33.562  30.810  1.00  0.00     0.049 A 
ATOM     52  C   UNL A   1      44.141  31.486  28.999  1.00  0.00     0.074 A 
ATOM     53  C   UNL A   1      39.989  33.660  32.003  1.00  0.00     0.029 A 
ATOM     54  N   UNL A   1      40.204  33.916  29.820  1.00  0.00    -0.354 N 
ATOM     55  N   UNL A   1      43.291  32.277  29.597  1.00  0.00    -0.248 NA
ATOM     56  C   UNL A   1      44.948  32.196  28.007  1.00  0.00     0.031 C 
ATOM     57  C   UNL A   1      41.340  34.034  31.703  1.00  0.00     0.029 A 
ATOM     58  C   UNL A   1      41.453  34.200  30.335  1.00  0.00     0.049 A 
ATOM     59  H   UNL A   1      39.983  33.957  28.862  1.00  0.00     0.167 HD
ATOM     60  C   UNL A   1      43.364  33.533  29.047  1.00  0.00     0.074 A 
ATOM     61  C   UNL A   1      44.423  33.432  28.056  1.00  0.00     0.031 C 
ATOM     62  C   UNL A   1      42.520  34.549  29.401  1.00  0.00     0.034 A 
BRANCH  49  63
ATOM     63  C   UNL A   1      36.661  33.559  30.947  1.00  0.00     0.023 A 
ATOM     64  C   UNL A   1      35.719  34.137  30.068  1.00  0.00     0.031 A 
ATOM     65  C   UNL A   1      36.318  33.638  32.319  1.00  0.00     0.131 A 
ATOM     66  C   UNL A   1      34.539  34.747  30.550  1.00  0.00     0.055 A 
ATOM     67  C   UNL A   1      35.117  34.182  32.788  1.00  0.00     0.041 A 
ATOM     68  F   UNL A   1      37.147  33.268  33.299  1.00  0.00    -0.206 F 
ATOM     69  C   UNL A   1      34.222  34.750  31.904  1.00  0.00     0.022 A 
BRANCH  66  70
ATOM     70  S   UNL A   1      33.456  35.635  29.397  1.00  0.00     0.124 S 
ATOM     71  O   UNL A   1      32.364  34.686  29.209  1.00  0.00    -0.237 OA
ATOM     72  O   UNL A   1      33.141  36.850  30.139  1.00  0.00    -0.237 OA
ATOM     73  O   UNL A   1      34.303  35.834  28.221  1.00  0.00    -0.744 OA
ENDBRANCH  66  70
ENDBRANCH  49  63
BRANCH  50  74
ATOM     74  C   UNL A   1      44.658  28.959  28.225  1.00  0.00     0.023 A 
ATOM     75  C   UNL A   1      45.508  27.935  28.703  1.00  0.00     0.031 A 
ATOM     76  C   UNL A   1      43.974  28.729  27.025  1.00  0.00     0.131 A 
ATOM     77  C   UNL A   1      45.490  26.667  28.112  1.00  0.00     0.055 A 
ATOM     78  C   UNL A   1      44.043  27.490  26.375  1.00  0.00     0.041 A 
ATOM     79  F   UNL A   1      43.124  29.642  26.532  1.00  0.00    -0.206 F 
ATOM     80  C   UNL A   1      44.760  26.435  26.947  1.00  0.00     0.022 A 
BRANCH  77  81
ATOM     81  S   UNL A   1      46.150  25.263  29.067  1.00  0.00     0.124 S 
ATOM     82  O   UNL A   1      45.980  25.716  30.442  1.00  0.00    -0.237 OA
ATOM     83  O   UNL A   1      45.291  24.153  28.652  1.00  0.00    -0.237 OA
ATOM     84  O   UNL A   1      47.530  25.154  28.601  1.00  0.00    -0.744 OA
ENDBRANCH  77  81
ENDBRANCH  50  74
BRANCH  62  85
ATOM     85  C   UNL A   1      42.598  35.948  28.824  1.00  0.00     0.023 A 
ATOM     86  C   UNL A   1      43.156  37.027  29.532  1.00  0.00     0.031 A 
ATOM     87  C   UNL A   1      42.051  36.262  27.558  1.00  0.00     0.131 A 
ATOM     88  C   UNL A   1      43.248  38.306  28.951  1.00  0.00     0.055 A 
ATOM     89  C   UNL A   1      42.071  37.551  27.016  1.00  0.00     0.041 A 
ATOM     90  F   UNL A   1      41.499  35.325  26.774  1.00  0.00    -0.206 F 
ATOM     91  C   UNL A   1      42.691  38.582  27.705  1.00  0.00     0.022 A 
BRANCH  88  92
ATOM     92  S   UNL A   1      44.177  39.593  29.828  1.00  0.00     0.124 S 
ATOM     93  O   UNL A   1      44.402  40.589  28.785  1.00  0.00    -0.237 OA
ATOM     94  O   UNL A   1      43.235  39.976  30.877  1.00  0.00    -0.237 OA
ATOM     95  O   UNL A   1      45.375  38.899  30.294  1.00  0.00    -0.744 OA
ENDBRANCH  88  92
ENDBRANCH  62  85
ENDBRANCH  36  37
ENDBRANCH  28  31
ENDBRANCH  26  27
ENDBRANCH  25  26
ENDBRANCH   1  25
TORSDOF 17
ENDMDL
MODEL 3
REMARK VINA RESULT:     -12.4      1.234      2.842
REMARK SMILES Cc1ccc(Nc2c(C)cccc2Cl)c(CC(=O)NCCCCNC(=O)c2ccc(-c3c4nc(c(-c5cc(S(=O)(=O)[O-])ccc5F)c5ccc([nH]5)c(-c5cc(S(=O)(=O)[O-])ccc5F)c5nc(c(-c6cc(S(=O)(=O)[O-])ccc6F)c6ccc3[nH]6)C=C5)C=C4)cc2)c1
REMARK SMILES IDX 21 1 20 2 19 3 17 4 18 5 16 7 15 8 1 9 2 10 3 11 90 12 4 13
REMARK SMILES IDX 5 14 6 15 7 17 8 18 13 19 9 20 10 21 12 22 14 23 11 24 22 25
REMARK SMILES IDX 23 26 24 27 25 28 26 30 27 31 28 32 89 33 29 34 88 35 30 36
REMARK SMILES IDX 31 37 32 38 82 39 33 40 87 41 81 42 83 43 34 44 86 45 80 46
REMARK SMILES IDX 79 47 35 49 67 50 47 51 66 52 48 53 51 54 65 55 84 56 49 57
REMARK SMILES IDX 50 58 64 60 85 61 52 62 36 63 37 64 45 65 38 66 44 67 46 68
REMARK SMILES IDX 43 69 39 70 40 71 41 72 42 73 68 74 69 75 77 76 70 77 76 78
REMARK SMILES IDX 78 79 75 80 71 81 72 82 73 83 74 84 53 85 54 86 62 87 55 88
REMARK SMILES IDX 61 89 63 90 60 91 56 92 57 93 58 94 59 95
REMARK H PARENT 19 6 6 16 24 29 83 48 51 59
REMARK Flexibility Score: inf
ROOT
ATOM      1  C   UNL A   1      32.282  29.953  26.947  1.00  0.00     0.023 C 
ENDROOT
BRANCH   1   2
ATOM      2  C   UNL A   1      33.053  28.622  26.946  1.00  0.00     0.116 C 
BRANCH   2   3
ATOM      3  N   UNL A   1      32.175  27.457  27.034  1.00  0.00    -0.356 N 
ATOM      4  C   UNL A   1      32.348  26.200  26.539  1.00  0.00     0.224 C 
ATOM      5  O   UNL A   1      31.417  25.393  26.625  1.00  0.00    -0.275 OA
ATOM      6  H   UNL A   1      31.333  27.603  27.523  1.00  0.00     0.163 HD
BRANCH   4   7
ATOM      7  C   UNL A   1      33.646  25.791  25.864  1.00  0.00     0.137 C 
BRANCH   7   8
ATOM      8  C   UNL A   1      33.535  24.504  25.080  1.00  0.00    -0.015 A 
ATOM      9  C   UNL A   1      34.081  20.818  25.923  1.00  0.00     0.044 C 
ATOM     10  C   UNL A   1      33.769  22.067  25.152  1.00  0.00    -0.051 A 
ATOM     11  C   UNL A   1      33.656  22.034  23.764  1.00  0.00     0.005 A 
ATOM     12  C   UNL A   1      33.674  23.299  25.803  1.00  0.00     0.009 A 
ATOM     13  C   UNL A   1      33.461  23.217  23.042  1.00  0.00     0.026 A 
ATOM     14  C   UNL A   1      33.405  24.470  23.674  1.00  0.00     0.042 A 
BRANCH  14  15
ATOM     15  N   UNL A   1      33.194  25.656  22.929  1.00  0.00    -0.354 N 
ATOM     16  H   UNL A   1      33.819  25.800  22.182  1.00  0.00     0.167 HD
BRANCH  15  17
ATOM     17  C   UNL A   1      32.213  26.663  23.103  1.00  0.00     0.060 A 
ATOM     18  C   UNL A   1      32.550  28.032  23.190  1.00  0.00    -0.026 A 
ATOM     19  C   UNL A   1      30.859  26.294  23.278  1.00  0.00     0.064 A 
ATOM     20  C   UNL A   1      33.949  28.539  22.958  1.00  0.00     0.046 C 
ATOM     21  C   UNL A   1      31.553  28.975  23.502  1.00  0.00     0.005 A 
ATOM     22  C   UNL A   1      29.878  27.247  23.563  1.00  0.00     0.023 A 
ATOM     23  Cl  UNL A   1      30.360  24.640  23.176  1.00  0.00    -0.082 Cl
ATOM     24  C   UNL A   1      30.227  28.587  23.689  1.00  0.00     0.002 A 
ENDBRANCH  15  17
ENDBRANCH  14  15
ENDBRANCH   7   8
ENDBRANCH   4   7
ENDBRANCH   2   3
ENDBRANCH   1   2
BRANCH   1  25
ATOM     25  C   UNL A   1      33.109  31.200  27.256  1.00  0.00     0.023 C 
BRANCH  25  26
ATOM     26  C   UNL A   1      34.584  30.911  27.486  1.00  0.00     0.116 C 
BRANCH  26  27
ATOM     27  N   UNL A   1      35.204  31.690  28.550  1.00  0.00    -0.352 N 
ATOM     28  C   UNL A   1      36.234  31.306  29.395  1.00  0.00     0.251 C 
ATOM     29  H   UNL A   1      34.850  32.598  28.684  1.00  0.00     0.163 HD
ATOM     30  O   UNL A   1      36.615  32.009  30.317  1.00  0.00    -0.269 OA
BRANCH  28  31
ATOM     31  C   UNL A   1      36.968  30.059  29.067  1.00  0.00     0.039 A 
ATOM     32  C   UNL A   1      37.160  29.148  30.110  1.00  0.00     0.014 A 
ATOM     33  C   UNL A   1      37.685  29.940  27.877  1.00  0.00     0.014 A 
ATOM     34  C   UNL A   1      38.245  28.278  30.062  1.00  0.00     0.010 A 
ATOM     35  C   UNL A   1      38.814  29.140  27.867  1.00  0.00     0.010 A 
ATOM     36  C   UNL A   1      39.136  28.371  28.992  1.00  0.00    -0.014 A 
BRANCH  36  37
ATOM     37  C   UNL A   1      40.493  27.836  29.051  1.00  0.00     0.031 A 
ATOM     38  C   UNL A   1      40.771  26.428  28.707  1.00  0.00     0.074 A 
ATOM     39  C   UNL A   1      41.519  28.638  29.417  1.00  0.00     0.049 A 
ATOM     40  N   UNL A   1      41.856  25.812  29.035  1.00  0.00    -0.248 NA
ATOM     41  C   UNL A   1      39.800  25.560  28.046  1.00  0.00     0.031 C 
ATOM     42  C   UNL A   1      42.950  28.364  29.302  1.00  0.00     0.029 A 
ATOM     43  N   UNL A   1      41.446  29.739  30.269  1.00  0.00    -0.354 N 
ATOM     44  C   UNL A   1      41.871  24.615  28.368  1.00  0.00     0.074 A 
ATOM     45  C   UNL A   1      40.517  24.440  27.910  1.00  0.00     0.031 C 
ATOM     46  C   UNL A   1      43.599  29.053  30.252  1.00  0.00     0.029 A 
ATOM     47  C   UNL A   1      42.598  29.692  31.084  1.00  0.00     0.049 A 
ATOM     48  H   UNL A   1      40.733  30.417  30.296  1.00  0.00     0.167 HD
ATOM     49  C   UNL A   1      43.066  23.996  28.165  1.00  0.00     0.034 A 
ATOM     50  C   UNL A   1      42.490  29.581  32.440  1.00  0.00     0.034 A 
ATOM     51  C   UNL A   1      44.101  24.505  29.078  1.00  0.00     0.049 A 
ATOM     52  C   UNL A   1      43.132  28.331  33.015  1.00  0.00     0.074 A 
ATOM     53  C   UNL A   1      45.290  25.200  28.949  1.00  0.00     0.029 A 
ATOM     54  N   UNL A   1      43.840  24.463  30.443  1.00  0.00    -0.354 N 
ATOM     55  N   UNL A   1      43.755  27.424  32.311  1.00  0.00    -0.248 NA
ATOM     56  C   UNL A   1      43.037  27.960  34.427  1.00  0.00     0.031 C 
ATOM     57  C   UNL A   1      45.710  25.611  30.256  1.00  0.00     0.029 A 
ATOM     58  C   UNL A   1      44.798  25.132  31.178  1.00  0.00     0.049 A 
ATOM     59  H   UNL A   1      43.062  24.009  30.838  1.00  0.00     0.167 HD
ATOM     60  C   UNL A   1      44.064  26.351  33.110  1.00  0.00     0.074 A 
ATOM     61  C   UNL A   1      43.597  26.739  34.431  1.00  0.00     0.031 C 
ATOM     62  C   UNL A   1      44.629  25.203  32.627  1.00  0.00     0.034 A 
BRANCH  49  63
ATOM     63  C   UNL A   1      43.347  23.018  27.034  1.00  0.00     0.023 A 
ATOM     64  C   UNL A   1      42.704  21.761  27.036  1.00  0.00     0.031 A 
ATOM     65  C   UNL A   1      44.319  23.184  26.017  1.00  0.00     0.131 A 
ATOM     66  C   UNL A   1      43.031  20.764  26.090  1.00  0.00     0.055 A 
ATOM     67  C   UNL A   1      44.591  22.220  25.039  1.00  0.00     0.041 A 
ATOM     68  F   UNL A   1      45.121  24.251  25.943  1.00  0.00    -0.206 F 
ATOM     69  C   UNL A   1      43.953  20.997  25.077  1.00  0.00     0.022 A 
BRANCH  66  70
ATOM     70  S   UNL A   1      42.309  19.107  26.252  1.00  0.00     0.124 S 
ATOM     71  O   UNL A   1      40.944  19.320  25.779  1.00  0.00    -0.237 OA
ATOM     72  O   UNL A   1      43.176  18.306  25.395  1.00  0.00    -0.237 OA
ATOM     73  O   UNL A   1      42.425  18.825  27.682  1.00  0.00    -0.744 OA
ENDBRANCH  66  70
ENDBRANCH  49  63
BRANCH  50  74
ATOM     74  C   UNL A   1      41.294  30.299  32.975  1.00  0.00     0.023 A 
ATOM     75  C   UNL A   1      41.373  31.710  33.011  1.00  0.00     0.031 A 
ATOM     76  C   UNL A   1      40.024  29.715  33.047  1.00  0.00     0.131 A 
ATOM     77  C   UNL A   1      40.213  32.486  32.901  1.00  0.00     0.055 A 
ATOM     78  C   UNL A   1      38.863  30.500  33.046  1.00  0.00     0.041 A 
ATOM     79  F   UNL A   1      39.874  28.384  32.983  1.00  0.00    -0.206 F 
ATOM     80  C   UNL A   1      38.953  31.888  32.917  1.00  0.00     0.022 A 
BRANCH  77  81
ATOM     81  S   UNL A   1      40.387  34.228  32.400  1.00  0.00     0.124 S 
ATOM     82  O   UNL A   1      41.459  34.161  31.415  1.00  0.00    -0.237 OA
ATOM     83  O   UNL A   1      39.060  34.551  31.874  1.00  0.00    -0.237 OA
ATOM     84  O   UNL A   1      40.715  34.910  33.649  1.00  0.00    -0.744 OA
ENDBRANCH  77  81
ENDBRANCH  50  74
BRANCH  62  85
ATOM     85  C   UNL A   1      44.999  24.017  33.494  1.00  0.00     0.023 A 
ATOM     86  C   UNL A   1      46.331  23.693  33.803  1.00  0.00     0.031 A 
ATOM     87  C   UNL A   1      44.020  23.126  33.993  1.00  0.00     0.131 A 
ATOM     88  C   UNL A   1      46.639  22.607  34.644  1.00  0.00     0.055 A 
ATOM     89  C   UNL A   1      44.333  22.000  34.761  1.00  0.00     0.041 A 
ATOM     90  F   UNL A   1      42.711  23.324  33.782  1.00  0.00    -0.206 F 
ATOM     91  C   UNL A   1      45.650  21.744  35.110  1.00  0.00     0.022 A 
BRANCH  88  92
ATOM     92  S   UNL A   1      48.356  22.381  35.179  1.00  0.00     0.124 S 
ATOM     93  O   UNL A   1      48.278  22.634  36.614  1.00  0.00    -0.237 OA
ATOM     94  O   UNL A   1      48.608  20.995  34.792  1.00  0.00    -0.237 OA
ATOM     95  O   UNL A   1      49.093  23.382  34.410  1.00  0.00    -0.744 OA
ENDBRANCH  88  92
ENDBRANCH  62  85
ENDBRANCH  36  37
ENDBRANCH  28  31
ENDBRANCH  26  27
ENDBRANCH  25  26
ENDBRANCH   1  25
TORSDOF 17
ENDMDL
