MODEL 1
REMARK VINA RESULT:     -11.7      0.000      0.000
REMARK SMILES O=C(NCCCCNC(=O)[C@H]1C[N@H+](Cc2ccc(Cl)c(Cl)c2)CC12CCCCC2)c1ccc(-c2c3nc(c(-c4cc(S(=O)(=O)[O-])ccc4F)c4ccc([nH]4)c(-c4cc(S(=O)(=O)[O-])ccc4F)c4nc(c(-c5cc(S(=O)(=O)[O-])ccc5F)c5ccc2[nH]5)C=C4)C=C3)cc1
REMARK SMILES IDX 5 1 4 2 3 3 1 4 2 5 30 7 31 8 92 9 32 10 91 11 33 12 34 13
REMARK SMILES IDX 35 14 85 15 36 16 90 17 84 18 86 19 37 20 89 21 83 22 82 23
REMARK SMILES IDX 38 25 70 26 50 27 69 28 51 29 54 30 68 31 87 32 52 33 53 34
REMARK SMILES IDX 67 36 88 37 55 38 39 39 40 40 48 41 41 42 47 43 49 44 46 45
REMARK SMILES IDX 42 46 43 47 44 48 45 49 71 50 72 51 80 52 73 53 79 54 81 55
REMARK SMILES IDX 78 56 74 57 75 58 76 59 77 60 56 61 57 62 65 63 58 64 64 65
REMARK SMILES IDX 66 66 63 67 59 68 60 69 61 70 62 71 6 72 7 73 8 74 9 75
REMARK SMILES IDX 10 77 11 78 12 79 24 80 13 81 23 82 25 83 29 84 26 86 28 87
REMARK SMILES IDX 27 88 14 89 15 90 16 91 22 92 17 93 20 94 18 95 21 96 19 97
REMARK H PARENT 3 6 86 24 54 35 8 76 13 85
REMARK Flexibility Score: inf
ROOT
ATOM      1  C   UNL A   1      33.381  28.789  25.222  1.00  0.00     0.023 C 
ENDROOT
BRANCH   1   2
ATOM      2  C   UNL A   1      34.400  29.126  26.304  1.00  0.00     0.116 C 
BRANCH   2   3
ATOM      3  N   UNL A   1      34.141  30.412  26.936  1.00  0.00    -0.352 N 
ATOM      4  O   UNL A   1      34.435  32.045  28.470  1.00  0.00    -0.269 OA
ATOM      5  C   UNL A   1      34.846  31.014  27.947  1.00  0.00     0.251 C 
ATOM      6  H   UNL A   1      33.365  30.913  26.594  1.00  0.00     0.163 HD
BRANCH   5   7
ATOM      7  C   UNL A   1      36.094  30.380  28.405  1.00  0.00     0.039 A 
ATOM      8  C   UNL A   1      36.094  29.592  29.561  1.00  0.00     0.014 A 
ATOM      9  C   UNL A   1      37.274  30.623  27.701  1.00  0.00     0.014 A 
ATOM     10  C   UNL A   1      37.299  29.129  30.075  1.00  0.00     0.010 A 
ATOM     11  C   UNL A   1      38.473  30.105  28.185  1.00  0.00     0.010 A 
ATOM     12  C   UNL A   1      38.497  29.373  29.386  1.00  0.00    -0.014 A 
BRANCH  12  13
ATOM     13  C   UNL A   1      39.775  28.821  29.893  1.00  0.00     0.031 A 
ATOM     14  C   UNL A   1      40.525  29.516  30.988  1.00  0.00     0.074 A 
ATOM     15  C   UNL A   1      40.271  27.710  29.318  1.00  0.00     0.049 A 
ATOM     16  N   UNL A   1      41.714  29.260  31.469  1.00  0.00    -0.248 NA
ATOM     17  C   UNL A   1      39.853  30.663  31.616  1.00  0.00     0.031 C 
ATOM     18  C   UNL A   1      39.617  26.954  28.249  1.00  0.00     0.029 A 
ATOM     19  N   UNL A   1      41.445  27.036  29.536  1.00  0.00    -0.354 N 
ATOM     20  C   UNL A   1      41.947  30.227  32.441  1.00  0.00     0.074 A 
ATOM     21  C   UNL A   1      40.785  31.092  32.455  1.00  0.00     0.031 C 
ATOM     22  C   UNL A   1      40.400  25.924  27.898  1.00  0.00     0.029 A 
ATOM     23  C   UNL A   1      41.637  25.990  28.666  1.00  0.00     0.049 A 
ATOM     24  H   UNL A   1      42.085  27.279  30.243  1.00  0.00     0.167 HD
ATOM     25  C   UNL A   1      43.033  30.370  33.245  1.00  0.00     0.034 A 
ATOM     26  C   UNL A   1      42.712  25.202  28.471  1.00  0.00     0.034 A 
ATOM     27  C   UNL A   1      44.180  29.495  33.197  1.00  0.00     0.049 A 
ATOM     28  C   UNL A   1      43.929  25.412  29.326  1.00  0.00     0.074 A 
ATOM     29  C   UNL A   1      45.318  29.516  33.985  1.00  0.00     0.029 A 
ATOM     30  N   UNL A   1      44.345  28.447  32.297  1.00  0.00    -0.354 N 
ATOM     31  N   UNL A   1      44.135  26.318  30.253  1.00  0.00    -0.248 NA
ATOM     32  C   UNL A   1      45.053  24.494  29.114  1.00  0.00     0.031 C 
ATOM     33  C   UNL A   1      46.197  28.534  33.516  1.00  0.00     0.029 A 
ATOM     34  C   UNL A   1      45.578  27.842  32.487  1.00  0.00     0.049 A 
ATOM     35  H   UNL A   1      43.682  28.174  31.623  1.00  0.00     0.167 HD
ATOM     36  C   UNL A   1      45.406  26.064  30.756  1.00  0.00     0.074 A 
ATOM     37  C   UNL A   1      45.917  24.918  30.026  1.00  0.00     0.031 C 
ATOM     38  C   UNL A   1      46.080  26.709  31.741  1.00  0.00     0.034 A 
BRANCH  25  39
ATOM     39  C   UNL A   1      43.044  31.551  34.190  1.00  0.00     0.023 A 
ATOM     40  C   UNL A   1      42.519  31.465  35.492  1.00  0.00     0.031 A 
ATOM     41  C   UNL A   1      43.534  32.798  33.764  1.00  0.00     0.131 A 
ATOM     42  C   UNL A   1      42.409  32.619  36.282  1.00  0.00     0.055 A 
ATOM     43  C   UNL A   1      43.504  33.925  34.589  1.00  0.00     0.041 A 
ATOM     44  F   UNL A   1      44.029  32.952  32.525  1.00  0.00    -0.206 F 
ATOM     45  C   UNL A   1      42.919  33.845  35.849  1.00  0.00     0.022 A 
BRANCH  42  46
ATOM     46  S   UNL A   1      41.421  32.535  37.802  1.00  0.00     0.124 S 
ATOM     47  O   UNL A   1      41.418  33.932  38.232  1.00  0.00    -0.237 OA
ATOM     48  O   UNL A   1      40.147  32.012  37.321  1.00  0.00    -0.237 OA
ATOM     49  O   UNL A   1      42.185  31.632  38.659  1.00  0.00    -0.744 OA
ENDBRANCH  42  46
ENDBRANCH  25  39
BRANCH  26  50
ATOM     50  C   UNL A   1      42.682  24.189  27.383  1.00  0.00     0.023 A 
ATOM     51  C   UNL A   1      41.896  23.033  27.485  1.00  0.00     0.031 A 
ATOM     52  C   UNL A   1      43.413  24.394  26.197  1.00  0.00     0.131 A 
ATOM     53  C   UNL A   1      41.870  22.115  26.423  1.00  0.00     0.055 A 
ATOM     54  C   UNL A   1      43.350  23.500  25.129  1.00  0.00     0.041 A 
ATOM     55  F   UNL A   1      44.167  25.495  26.047  1.00  0.00    -0.206 F 
ATOM     56  C   UNL A   1      42.579  22.349  25.241  1.00  0.00     0.022 A 
BRANCH  53  57
ATOM     57  S   UNL A   1      40.913  20.588  26.619  1.00  0.00     0.124 S 
ATOM     58  O   UNL A   1      41.737  19.626  25.896  1.00  0.00    -0.237 OA
ATOM     59  O   UNL A   1      40.875  20.438  28.071  1.00  0.00    -0.237 OA
ATOM     60  O   UNL A   1      39.631  20.907  25.996  1.00  0.00    -0.744 OA
ENDBRANCH  53  57
ENDBRANCH  26  50
BRANCH  38  61
ATOM     61  C   UNL A   1      47.428  26.154  32.125  1.00  0.00     0.023 A 
ATOM     62  C   UNL A   1      47.583  25.247  33.187  1.00  0.00     0.031 A 
ATOM     63  C   UNL A   1      48.571  26.530  31.397  1.00  0.00     0.131 A 
ATOM     64  C   UNL A   1      48.862  24.770  33.511  1.00  0.00     0.055 A 
ATOM     65  C   UNL A   1      49.832  26.014  31.693  1.00  0.00     0.041 A 
ATOM     66  F   UNL A   1      48.475  27.396  30.376  1.00  0.00    -0.206 F 
ATOM     67  C   UNL A   1      49.985  25.134  32.761  1.00  0.00     0.022 A 
BRANCH  64  68
ATOM     68  S   UNL A   1      49.056  23.701  34.964  1.00  0.00     0.124 S 
ATOM     69  O   UNL A   1      50.433  23.238  34.818  1.00  0.00    -0.237 OA
ATOM     70  O   UNL A   1      48.807  24.622  36.068  1.00  0.00    -0.237 OA
ATOM     71  O   UNL A   1      48.034  22.674  34.774  1.00  0.00    -0.744 OA
ENDBRANCH  64  68
ENDBRANCH  38  61
ENDBRANCH  12  13
ENDBRANCH   5   7
ENDBRANCH   2   3
ENDBRANCH   1   2
BRANCH   1  72
ATOM     72  C   UNL A   1      31.980  28.462  25.737  1.00  0.00     0.023 C 
BRANCH  72  73
ATOM     73  C   UNL A   1      31.943  27.334  26.762  1.00  0.00     0.116 C 
BRANCH  73  74
ATOM     74  N   UNL A   1      30.648  26.683  26.795  1.00  0.00    -0.356 N 
ATOM     75  C   UNL A   1      30.252  25.451  26.388  1.00  0.00     0.229 C 
ATOM     76  H   UNL A   1      29.928  27.231  27.184  1.00  0.00     0.163 HD
ATOM     77  O   UNL A   1      29.067  25.152  26.561  1.00  0.00    -0.275 OA
BRANCH  75  78
ATOM     78  C   UNL A   1      31.199  24.435  25.773  1.00  0.00     0.145 C 
ATOM     79  C   UNL A   1      30.755  22.983  25.930  1.00  0.00     0.276 C 
ATOM     80  C   UNL A   1      31.650  24.642  24.295  1.00  0.00     0.037 C 
ATOM     81  N   UNL A   1      31.285  22.266  24.780  1.00  0.00    -0.330 N 
ATOM     82  C   UNL A   1      31.470  23.224  23.689  1.00  0.00     0.270 C 
ATOM     83  C   UNL A   1      30.867  25.720  23.501  1.00  0.00     0.014 C 
ATOM     84  C   UNL A   1      33.132  25.109  24.289  1.00  0.00     0.014 C 
ATOM     85  H   UNL A   1      30.597  21.583  24.464  1.00  0.00     0.348 HD
ATOM     86  C   UNL A   1      31.427  26.005  22.105  1.00  0.00     0.001 C 
ATOM     87  C   UNL A   1      33.711  25.330  22.893  1.00  0.00     0.001 C 
ATOM     88  C   UNL A   1      32.904  26.372  22.138  1.00  0.00     0.000 C 
BRANCH  81  89
ATOM     89  C   UNL A   1      32.347  21.293  25.041  1.00  0.00     0.299 C 
BRANCH  89  90
ATOM     90  C   UNL A   1      33.740  21.839  25.270  1.00  0.00     0.008 A 
ATOM     91  C   UNL A   1      34.139  22.306  26.531  1.00  0.00     0.011 A 
ATOM     92  C   UNL A   1      34.645  21.939  24.201  1.00  0.00     0.031 A 
ATOM     93  C   UNL A   1      35.362  22.961  26.697  1.00  0.00     0.022 A 
ATOM     94  C   UNL A   1      35.881  22.577  24.368  1.00  0.00     0.060 A 
ATOM     95  C   UNL A   1      36.227  23.113  25.613  1.00  0.00     0.059 A 
ATOM     96  Cl  UNL A   1      36.904  22.719  22.983  1.00  0.00    -0.083 Cl
ATOM     97  Cl  UNL A   1      37.687  24.001  25.870  1.00  0.00    -0.083 Cl
ENDBRANCH  89  90
ENDBRANCH  81  89
ENDBRANCH  75  78
ENDBRANCH  73  74
ENDBRANCH  72  73
ENDBRANCH   1  72
TORSDOF 16
ENDMDL
MODEL 2
REMARK VINA RESULT:     -11.5      3.375      8.464
REMARK SMILES O=C(NCCCCNC(=O)[C@H]1C[N@H+](Cc2ccc(Cl)c(Cl)c2)CC12CCCCC2)c1ccc(-c2c3nc(c(-c4cc(S(=O)(=O)[O-])ccc4F)c4ccc([nH]4)c(-c4cc(S(=O)(=O)[O-])ccc4F)c4nc(c(-c5cc(S(=O)(=O)[O-])ccc5F)c5ccc2[nH]5)C=C4)C=C3)cc1
REMARK SMILES IDX 5 1 4 2 3 3 1 4 2 5 30 7 31 8 92 9 32 10 91 11 33 12 34 13
REMARK SMILES IDX 35 14 85 15 36 16 90 17 84 18 86 19 37 20 89 21 83 22 82 23
REMARK SMILES IDX 38 25 70 26 50 27 69 28 51 29 54 30 68 31 87 32 52 33 53 34
REMARK SMILES IDX 67 36 88 37 55 38 39 39 40 40 48 41 41 42 47 43 49 44 46 45
REMARK SMILES IDX 42 46 43 47 44 48 45 49 71 50 72 51 80 52 73 53 79 54 81 55
REMARK SMILES IDX 78 56 74 57 75 58 76 59 77 60 56 61 57 62 65 63 58 64 64 65
REMARK SMILES IDX 66 66 63 67 59 68 60 69 61 70 62 71 6 72 7 73 8 74 9 75
REMARK SMILES IDX 10 77 11 78 12 79 24 80 13 81 23 82 25 83 29 84 26 86 28 87
REMARK SMILES IDX 27 88 14 89 15 90 16 91 22 92 17 93 20 94 18 95 21 96 19 97
REMARK H PARENT 3 6 86 24 54 35 8 76 13 85
REMARK Flexibility Score: inf
ROOT
ATOM      1  C   UNL A   1      31.954  31.161  26.896  1.00  0.00     0.023 C 
ENDROOT
BRANCH   1   2
ATOM      2  C   UNL A   1      33.140  32.046  27.260  1.00  0.00     0.116 C 
BRANCH   2   3
ATOM      3  N   UNL A   1      32.744  33.410  27.581  1.00  0.00    -0.352 N 
ATOM      4  O   UNL A   1      32.752  35.325  28.780  1.00  0.00    -0.269 OA
ATOM      5  C   UNL A   1      33.274  34.243  28.534  1.00  0.00     0.251 C 
ATOM      6  H   UNL A   1      32.004  33.781  27.048  1.00  0.00     0.163 HD
BRANCH   5   7
ATOM      7  C   UNL A   1      34.468  33.795  29.270  1.00  0.00     0.039 A 
ATOM      8  C   UNL A   1      35.737  34.237  28.879  1.00  0.00     0.014 A 
ATOM      9  C   UNL A   1      34.315  32.888  30.318  1.00  0.00     0.014 A 
ATOM     10  C   UNL A   1      36.867  33.688  29.474  1.00  0.00     0.010 A 
ATOM     11  C   UNL A   1      35.448  32.386  30.955  1.00  0.00     0.010 A 
ATOM     12  C   UNL A   1      36.731  32.767  30.523  1.00  0.00    -0.014 A 
BRANCH  12  13
ATOM     13  C   UNL A   1      37.933  32.233  31.207  1.00  0.00     0.031 A 
ATOM     14  C   UNL A   1      38.730  31.123  30.592  1.00  0.00     0.074 A 
ATOM     15  C   UNL A   1      38.265  32.734  32.411  1.00  0.00     0.049 A 
ATOM     16  N   UNL A   1      39.726  30.442  31.097  1.00  0.00    -0.248 NA
ATOM     17  C   UNL A   1      38.345  30.714  29.234  1.00  0.00     0.031 C 
ATOM     18  C   UNL A   1      37.559  33.819  33.094  1.00  0.00     0.029 A 
ATOM     19  N   UNL A   1      39.264  32.384  33.281  1.00  0.00    -0.354 N 
ATOM     20  C   UNL A   1      40.075  29.505  30.130  1.00  0.00     0.074 A 
ATOM     21  C   UNL A   1      39.160  29.690  29.022  1.00  0.00     0.031 C 
ATOM     22  C   UNL A   1      38.141  34.043  34.280  1.00  0.00     0.029 A 
ATOM     23  C   UNL A   1      39.213  33.073  34.469  1.00  0.00     0.049 A 
ATOM     24  H   UNL A   1      39.949  31.707  33.076  1.00  0.00     0.167 HD
ATOM     25  C   UNL A   1      41.071  28.583  30.170  1.00  0.00     0.034 A 
ATOM     26  C   UNL A   1      39.916  32.909  35.606  1.00  0.00     0.034 A 
ATOM     27  C   UNL A   1      41.960  28.418  31.296  1.00  0.00     0.049 A 
ATOM     28  C   UNL A   1      40.972  31.843  35.657  1.00  0.00     0.074 A 
ATOM     29  C   UNL A   1      43.027  27.548  31.436  1.00  0.00     0.029 A 
ATOM     30  N   UNL A   1      41.875  29.131  32.488  1.00  0.00    -0.354 N 
ATOM     31  N   UNL A   1      41.307  30.973  34.732  1.00  0.00    -0.248 NA
ATOM     32  C   UNL A   1      41.749  31.739  36.897  1.00  0.00     0.031 C 
ATOM     33  C   UNL A   1      43.537  27.681  32.732  1.00  0.00     0.029 A 
ATOM     34  C   UNL A   1      42.844  28.693  33.378  1.00  0.00     0.049 A 
ATOM     35  H   UNL A   1      41.221  29.843  32.673  1.00  0.00     0.167 HD
ATOM     36  C   UNL A   1      42.354  30.232  35.270  1.00  0.00     0.074 A 
ATOM     37  C   UNL A   1      42.593  30.759  36.600  1.00  0.00     0.031 C 
ATOM     38  C   UNL A   1      43.060  29.219  34.708  1.00  0.00     0.034 A 
BRANCH  25  39
ATOM     39  C   UNL A   1      41.199  27.650  28.986  1.00  0.00     0.023 A 
ATOM     40  C   UNL A   1      42.206  27.812  28.018  1.00  0.00     0.031 A 
ATOM     41  C   UNL A   1      40.264  26.618  28.791  1.00  0.00     0.131 A 
ATOM     42  C   UNL A   1      42.198  27.023  26.858  1.00  0.00     0.055 A 
ATOM     43  C   UNL A   1      40.316  25.775  27.677  1.00  0.00     0.041 A 
ATOM     44  F   UNL A   1      39.266  26.422  29.667  1.00  0.00    -0.206 F 
ATOM     45  C   UNL A   1      41.274  25.989  26.692  1.00  0.00     0.022 A 
BRANCH  42  46
ATOM     46  S   UNL A   1      43.293  27.489  25.488  1.00  0.00     0.124 S 
ATOM     47  O   UNL A   1      44.174  28.462  26.129  1.00  0.00    -0.237 OA
ATOM     48  O   UNL A   1      43.904  26.215  25.126  1.00  0.00    -0.237 OA
ATOM     49  O   UNL A   1      42.380  28.051  24.494  1.00  0.00    -0.744 OA
ENDBRANCH  42  46
ENDBRANCH  25  39
BRANCH  26  50
ATOM     50  C   UNL A   1      39.588  33.747  36.790  1.00  0.00     0.023 A 
ATOM     51  C   UNL A   1      38.907  33.215  37.893  1.00  0.00     0.031 A 
ATOM     52  C   UNL A   1      40.001  35.092  36.848  1.00  0.00     0.131 A 
ATOM     53  C   UNL A   1      38.642  34.030  39.005  1.00  0.00     0.055 A 
ATOM     54  C   UNL A   1      39.773  35.884  37.972  1.00  0.00     0.041 A 
ATOM     55  F   UNL A   1      40.671  35.640  35.822  1.00  0.00    -0.206 F 
ATOM     56  C   UNL A   1      39.084  35.355  39.058  1.00  0.00     0.022 A 
BRANCH  53  57
ATOM     57  S   UNL A   1      37.682  33.339  40.379  1.00  0.00     0.124 S 
ATOM     58  O   UNL A   1      36.469  32.897  39.701  1.00  0.00    -0.237 OA
ATOM     59  O   UNL A   1      38.566  32.286  40.867  1.00  0.00    -0.237 OA
ATOM     60  O   UNL A   1      37.515  34.476  41.282  1.00  0.00    -0.744 OA
ENDBRANCH  53  57
ENDBRANCH  26  50
BRANCH  38  61
ATOM     61  C   UNL A   1      44.200  28.650  35.513  1.00  0.00     0.023 A 
ATOM     62  C   UNL A   1      44.012  27.604  36.432  1.00  0.00     0.031 A 
ATOM     63  C   UNL A   1      45.501  29.156  35.336  1.00  0.00     0.131 A 
ATOM     64  C   UNL A   1      45.106  27.119  37.165  1.00  0.00     0.055 A 
ATOM     65  C   UNL A   1      46.591  28.636  36.031  1.00  0.00     0.041 A 
ATOM     66  F   UNL A   1      45.731  30.157  34.472  1.00  0.00    -0.206 F 
ATOM     67  C   UNL A   1      46.396  27.616  36.958  1.00  0.00     0.022 A 
BRANCH  64  68
ATOM     68  S   UNL A   1      44.818  25.857  38.437  1.00  0.00     0.124 S 
ATOM     69  O   UNL A   1      44.238  26.645  39.519  1.00  0.00    -0.237 OA
ATOM     70  O   UNL A   1      43.910  24.934  37.764  1.00  0.00    -0.237 OA
ATOM     71  O   UNL A   1      46.153  25.326  38.702  1.00  0.00    -0.744 OA
ENDBRANCH  64  68
ENDBRANCH  38  61
ENDBRANCH  12  13
ENDBRANCH   5   7
ENDBRANCH   2   3
ENDBRANCH   1   2
BRANCH   1  72
ATOM     72  C   UNL A   1      32.325  29.764  26.397  1.00  0.00     0.023 C 
BRANCH  72  73
ATOM     73  C   UNL A   1      32.466  29.663  24.882  1.00  0.00     0.116 C 
BRANCH  73  74
ATOM     74  N   UNL A   1      31.183  29.465  24.237  1.00  0.00    -0.356 N 
ATOM     75  C   UNL A   1      30.419  28.355  24.081  1.00  0.00     0.229 C 
ATOM     76  H   UNL A   1      30.796  30.280  23.843  1.00  0.00     0.163 HD
ATOM     77  O   UNL A   1      29.341  28.488  23.494  1.00  0.00    -0.275 OA
BRANCH  75  78
ATOM     78  C   UNL A   1      30.815  26.992  24.622  1.00  0.00     0.145 C 
ATOM     79  C   UNL A   1      29.684  26.235  25.314  1.00  0.00     0.276 C 
ATOM     80  C   UNL A   1      31.541  25.997  23.665  1.00  0.00     0.037 C 
ATOM     81  N   UNL A   1      29.962  24.819  25.124  1.00  0.00    -0.330 N 
ATOM     82  C   UNL A   1      30.776  24.671  23.917  1.00  0.00     0.270 C 
ATOM     83  C   UNL A   1      31.545  26.394  22.165  1.00  0.00     0.014 C 
ATOM     84  C   UNL A   1      33.036  25.912  24.081  1.00  0.00     0.014 C 
ATOM     85  H   UNL A   1      29.086  24.325  24.956  1.00  0.00     0.348 HD
ATOM     86  C   UNL A   1      32.390  25.480  21.275  1.00  0.00     0.001 C 
ATOM     87  C   UNL A   1      33.865  24.949  23.233  1.00  0.00     0.001 C 
ATOM     88  C   UNL A   1      33.824  25.354  21.769  1.00  0.00     0.000 C 
BRANCH  81  89
ATOM     89  C   UNL A   1      30.334  24.055  26.315  1.00  0.00     0.299 C 
BRANCH  89  90
ATOM     90  C   UNL A   1      31.577  23.197  26.222  1.00  0.00     0.008 A 
ATOM     91  C   UNL A   1      32.802  23.631  26.750  1.00  0.00     0.011 A 
ATOM     92  C   UNL A   1      31.538  21.964  25.549  1.00  0.00     0.031 A 
ATOM     93  C   UNL A   1      33.978  22.915  26.515  1.00  0.00     0.022 A 
ATOM     94  C   UNL A   1      32.711  21.232  25.328  1.00  0.00     0.060 A 
ATOM     95  C   UNL A   1      33.938  21.724  25.789  1.00  0.00     0.059 A 
ATOM     96  Cl  UNL A   1      32.582  19.762  24.430  1.00  0.00    -0.083 Cl
ATOM     97  Cl  UNL A   1      35.437  20.929  25.467  1.00  0.00    -0.083 Cl
ENDBRANCH  89  90
ENDBRANCH  81  89
ENDBRANCH  75  78
ENDBRANCH  73  74
ENDBRANCH  72  73
ENDBRANCH   1  72
TORSDOF 16
ENDMDL
MODEL 3
REMARK VINA RESULT:     -11.5      2.531      8.122
REMARK SMILES O=C(NCCCCNC(=O)[C@H]1C[N@H+](Cc2ccc(Cl)c(Cl)c2)CC12CCCCC2)c1ccc(-c2c3nc(c(-c4cc(S(=O)(=O)[O-])ccc4F)c4ccc([nH]4)c(-c4cc(S(=O)(=O)[O-])ccc4F)c4nc(c(-c5cc(S(=O)(=O)[O-])ccc5F)c5ccc2[nH]5)C=C4)C=C3)cc1
REMARK SMILES IDX 5 1 4 2 3 3 1 4 2 5 30 7 31 8 92 9 32 10 91 11 33 12 34 13
REMARK SMILES IDX 35 14 85 15 36 16 90 17 84 18 86 19 37 20 89 21 83 22 82 23
REMARK SMILES IDX 38 25 70 26 50 27 69 28 51 29 54 30 68 31 87 32 52 33 53 34
REMARK SMILES IDX 67 36 88 37 55 38 39 39 40 40 48 41 41 42 47 43 49 44 46 45
REMARK SMILES IDX 42 46 43 47 44 48 45 49 71 50 72 51 80 52 73 53 79 54 81 55
REMARK SMILES IDX 78 56 74 57 75 58 76 59 77 60 56 61 57 62 65 63 58 64 64 65
REMARK SMILES IDX 66 66 63 67 59 68 60 69 61 70 62 71 6 72 7 73 8 74 9 75
REMARK SMILES IDX 10 77 11 78 12 79 24 80 13 81 23 82 25 83 29 84 26 86 28 87
REMARK SMILES IDX 27 88 14 89 15 90 16 91 22 92 17 93 20 94 18 95 21 96 19 97
REMARK H PARENT 3 6 86 24 54 35 8 76 13 85
REMARK Flexibility Score: inf
ROOT
ATOM      1  C   UNL A   1      31.686  29.447  26.327  1.00  0.00     0.023 C 
ENDROOT
BRANCH   1   2
ATOM      2  C   UNL A   1      32.831  30.433  26.124  1.00  0.00     0.116 C 
BRANCH   2   3
ATOM      3  N   UNL A   1      32.477  31.791  26.513  1.00  0.00    -0.352 N 
ATOM      4  O   UNL A   1      32.626  33.683  27.739  1.00  0.00    -0.269 OA
ATOM      5  C   UNL A   1      33.114  32.606  27.413  1.00  0.00     0.251 C 
ATOM      6  H   UNL A   1      31.681  32.171  26.075  1.00  0.00     0.163 HD
BRANCH   5   7
ATOM      7  C   UNL A   1      34.385  32.145  27.998  1.00  0.00     0.039 A 
ATOM      8  C   UNL A   1      34.464  30.880  28.591  1.00  0.00     0.014 A 
ATOM      9  C   UNL A   1      35.482  33.007  27.997  1.00  0.00     0.014 A 
ATOM     10  C   UNL A   1      35.615  30.516  29.279  1.00  0.00     0.010 A 
ATOM     11  C   UNL A   1      36.657  32.614  28.634  1.00  0.00     0.010 A 
ATOM     12  C   UNL A   1      36.724  31.376  29.297  1.00  0.00    -0.014 A 
BRANCH  12  13
ATOM     13  C   UNL A   1      37.978  30.961  29.969  1.00  0.00     0.031 A 
ATOM     14  C   UNL A   1      38.891  29.959  29.329  1.00  0.00     0.074 A 
ATOM     15  C   UNL A   1      38.256  31.466  31.185  1.00  0.00     0.049 A 
ATOM     16  N   UNL A   1      39.956  29.379  29.818  1.00  0.00    -0.248 NA
ATOM     17  C   UNL A   1      38.550  29.542  27.961  1.00  0.00     0.031 C 
ATOM     18  C   UNL A   1      37.436  32.451  31.892  1.00  0.00     0.029 A 
ATOM     19  N   UNL A   1      39.289  31.207  32.047  1.00  0.00    -0.354 N 
ATOM     20  C   UNL A   1      40.404  28.509  28.830  1.00  0.00     0.074 A 
ATOM     21  C   UNL A   1      39.471  28.619  27.726  1.00  0.00     0.031 C 
ATOM     22  C   UNL A   1      37.993  32.709  33.084  1.00  0.00     0.029 A 
ATOM     23  C   UNL A   1      39.165  31.859  33.251  1.00  0.00     0.049 A 
ATOM     24  H   UNL A   1      40.043  30.614  31.827  1.00  0.00     0.167 HD
ATOM     25  C   UNL A   1      41.494  27.700  28.849  1.00  0.00     0.034 A 
ATOM     26  C   UNL A   1      39.884  31.746  34.384  1.00  0.00     0.034 A 
ATOM     27  C   UNL A   1      42.398  27.608  29.971  1.00  0.00     0.049 A 
ATOM     28  C   UNL A   1      41.050  30.801  34.411  1.00  0.00     0.074 A 
ATOM     29  C   UNL A   1      43.554  26.856  30.092  1.00  0.00     0.029 A 
ATOM     30  N   UNL A   1      42.238  28.278  31.179  1.00  0.00    -0.354 N 
ATOM     31  N   UNL A   1      41.476  29.995  33.466  1.00  0.00    -0.248 NA
ATOM     32  C   UNL A   1      41.836  30.753  35.649  1.00  0.00     0.031 C 
ATOM     33  C   UNL A   1      44.049  27.014  31.391  1.00  0.00     0.029 A 
ATOM     34  C   UNL A   1      43.251  27.928  32.060  1.00  0.00     0.049 A 
ATOM     35  H   UNL A   1      41.510  28.910  31.381  1.00  0.00     0.167 HD
ATOM     36  C   UNL A   1      42.598  29.360  33.987  1.00  0.00     0.074 A 
ATOM     37  C   UNL A   1      42.781  29.878  35.330  1.00  0.00     0.031 C 
ATOM     38  C   UNL A   1      43.410  28.444  33.402  1.00  0.00     0.034 A 
BRANCH  25  39
ATOM     39  C   UNL A   1      41.721  26.815  27.644  1.00  0.00     0.023 A 
ATOM     40  C   UNL A   1      41.229  25.499  27.586  1.00  0.00     0.031 A 
ATOM     41  C   UNL A   1      42.490  27.273  26.560  1.00  0.00     0.131 A 
ATOM     42  C   UNL A   1      41.590  24.660  26.520  1.00  0.00     0.055 A 
ATOM     43  C   UNL A   1      42.771  26.462  25.457  1.00  0.00     0.041 A 
ATOM     44  F   UNL A   1      43.006  28.513  26.562  1.00  0.00    -0.206 F 
ATOM     45  C   UNL A   1      42.338  25.140  25.443  1.00  0.00     0.022 A 
BRANCH  42  46
ATOM     46  S   UNL A   1      41.228  22.887  26.654  1.00  0.00     0.124 S 
ATOM     47  O   UNL A   1      42.023  22.337  25.558  1.00  0.00    -0.237 OA
ATOM     48  O   UNL A   1      41.691  22.572  28.000  1.00  0.00    -0.237 OA
ATOM     49  O   UNL A   1      39.782  22.816  26.457  1.00  0.00    -0.744 OA
ENDBRANCH  42  46
ENDBRANCH  25  39
BRANCH  26  50
ATOM     50  C   UNL A   1      39.468  32.515  35.587  1.00  0.00     0.023 A 
ATOM     51  C   UNL A   1      39.906  33.830  35.798  1.00  0.00     0.031 A 
ATOM     52  C   UNL A   1      38.582  31.950  36.524  1.00  0.00     0.131 A 
ATOM     53  C   UNL A   1      39.467  34.534  36.931  1.00  0.00     0.055 A 
ATOM     54  C   UNL A   1      38.117  32.669  37.625  1.00  0.00     0.041 A 
ATOM     55  F   UNL A   1      38.124  30.699  36.356  1.00  0.00    -0.206 F 
ATOM     56  C   UNL A   1      38.565  33.969  37.836  1.00  0.00     0.022 A 
BRANCH  53  57
ATOM     57  S   UNL A   1      40.119  36.201  37.222  1.00  0.00     0.124 S 
ATOM     58  O   UNL A   1      41.492  35.918  37.622  1.00  0.00    -0.237 OA
ATOM     59  O   UNL A   1      39.947  36.827  35.915  1.00  0.00    -0.237 OA
ATOM     60  O   UNL A   1      39.254  36.724  38.278  1.00  0.00    -0.744 OA
ENDBRANCH  53  57
ENDBRANCH  26  50
BRANCH  38  61
ATOM     61  C   UNL A   1      44.607  27.984  34.194  1.00  0.00     0.023 A 
ATOM     62  C   UNL A   1      44.566  26.837  35.006  1.00  0.00     0.031 A 
ATOM     63  C   UNL A   1      45.815  28.701  34.115  1.00  0.00     0.131 A 
ATOM     64  C   UNL A   1      45.706  26.460  35.732  1.00  0.00     0.055 A 
ATOM     65  C   UNL A   1      46.958  28.292  34.801  1.00  0.00     0.041 A 
ATOM     66  F   UNL A   1      45.903  29.805  33.355  1.00  0.00    -0.206 F 
ATOM     67  C   UNL A   1      46.905  27.169  35.621  1.00  0.00     0.022 A 
BRANCH  64  68
ATOM     68  S   UNL A   1      45.592  25.051  36.871  1.00  0.00     0.124 S 
ATOM     69  O   UNL A   1      44.606  24.205  36.207  1.00  0.00    -0.237 OA
ATOM     70  O   UNL A   1      46.961  24.546  36.884  1.00  0.00    -0.237 OA
ATOM     71  O   UNL A   1      45.146  25.658  38.123  1.00  0.00    -0.744 OA
ENDBRANCH  64  68
ENDBRANCH  38  61
ENDBRANCH  12  13
ENDBRANCH   5   7
ENDBRANCH   2   3
ENDBRANCH   1   2
BRANCH   1  72
ATOM     72  C   UNL A   1      31.861  28.495  27.510  1.00  0.00     0.023 C 
BRANCH  72  73
ATOM     73  C   UNL A   1      31.938  27.024  27.117  1.00  0.00     0.116 C 
BRANCH  73  74
ATOM     74  N   UNL A   1      30.675  26.542  26.594  1.00  0.00    -0.356 N 
ATOM     75  C   UNL A   1      30.373  25.872  25.454  1.00  0.00     0.229 C 
ATOM     76  H   UNL A   1      29.898  26.735  27.168  1.00  0.00     0.163 HD
ATOM     77  O   UNL A   1      29.190  25.566  25.274  1.00  0.00    -0.275 OA
BRANCH  75  78
ATOM     78  C   UNL A   1      31.417  25.459  24.431  1.00  0.00     0.145 C 
ATOM     79  C   UNL A   1      31.089  24.173  23.679  1.00  0.00     0.276 C 
ATOM     80  C   UNL A   1      31.892  26.517  23.389  1.00  0.00     0.037 C 
ATOM     81  N   UNL A   1      31.709  24.296  22.367  1.00  0.00    -0.330 N 
ATOM     82  C   UNL A   1      31.846  25.720  22.058  1.00  0.00     0.270 C 
ATOM     83  C   UNL A   1      31.047  27.816  23.321  1.00  0.00     0.014 C 
ATOM     84  C   UNL A   1      33.330  26.971  23.763  1.00  0.00     0.014 C 
ATOM     85  H   UNL A   1      31.089  23.895  21.664  1.00  0.00     0.348 HD
ATOM     86  C   UNL A   1      31.621  28.894  22.399  1.00  0.00     0.001 C 
ATOM     87  C   UNL A   1      33.929  27.998  22.804  1.00  0.00     0.001 C 
ATOM     88  C   UNL A   1      33.062  29.244  22.744  1.00  0.00     0.000 C 
BRANCH  81  89
ATOM     89  C   UNL A   1      32.839  23.409  22.086  1.00  0.00     0.299 C 
BRANCH  89  90
ATOM     90  C   UNL A   1      32.968  22.166  22.941  1.00  0.00     0.008 A 
ATOM     91  C   UNL A   1      32.206  21.019  22.675  1.00  0.00     0.011 A 
ATOM     92  C   UNL A   1      33.819  22.161  24.058  1.00  0.00     0.031 A 
ATOM     93  C   UNL A   1      32.204  19.940  23.562  1.00  0.00     0.022 A 
ATOM     94  C   UNL A   1      33.835  21.072  24.939  1.00  0.00     0.060 A 
ATOM     95  C   UNL A   1      33.005  19.971  24.704  1.00  0.00     0.059 A 
ATOM     96  Cl  UNL A   1      34.859  21.179  26.327  1.00  0.00    -0.083 Cl
ATOM     97  Cl  UNL A   1      32.896  18.639  25.798  1.00  0.00    -0.083 Cl
ENDBRANCH  89  90
ENDBRANCH  81  89
ENDBRANCH  75  78
ENDBRANCH  73  74
ENDBRANCH  72  73
ENDBRANCH   1  72
TORSDOF 16
ENDMDL
