MODEL 1
REMARK VINA RESULT:     -11.0      0.000      0.000
REMARK SMILES C[C@H](NC(=O)c1cc(S(=O)(=O)N(C)C)cs1)C(=O)NCCCCNC(=O)c1ccc(-c2c3nc(c(-c4cc(S(=O)(=O)[O-])ccc4F)c4ccc([nH]4)c(-c4cc(S(=O)(=O)[O-])ccc4F)c4nc(c(-c5cc(S(=O)(=O)[O-])ccc5F)c5ccc2[nH]5)C=C4)C=C3)cc1
REMARK SMILES IDX 21 1 20 2 19 3 17 4 18 5 2 7 1 8 3 9 4 10 5 12 6 13 7 14
REMARK SMILES IDX 16 15 8 16 15 17 9 18 10 19 11 20 12 21 13 22 14 23 22 24
REMARK SMILES IDX 23 25 24 26 25 27 26 29 27 30 28 31 89 32 29 33 88 34 30 35
REMARK SMILES IDX 31 36 32 37 82 38 33 39 87 40 81 41 83 42 34 43 86 44 80 45
REMARK SMILES IDX 79 46 35 48 67 49 47 50 66 51 48 52 51 53 65 54 84 55 49 56
REMARK SMILES IDX 50 57 64 59 85 60 52 61 36 62 37 63 45 64 38 65 44 66 46 67
REMARK SMILES IDX 43 68 39 69 40 70 41 71 42 72 68 73 69 74 77 75 70 76 76 77
REMARK SMILES IDX 78 78 75 79 71 80 72 81 73 82 74 83 53 84 54 85 62 86 55 87
REMARK SMILES IDX 61 88 63 89 60 90 56 91 57 92 58 93 59 94
REMARK H PARENT 19 6 3 11 24 28 83 47 51 58
REMARK Flexibility Score: inf
ROOT
ATOM      1  C   UNL A   1      35.684  22.340  23.799  1.00  0.00     0.023 C 
ENDROOT
BRANCH   1   2
ATOM      2  C   UNL A   1      34.229  22.770  23.640  1.00  0.00     0.116 C 
BRANCH   2   3
ATOM      3  N   UNL A   1      33.311  21.663  23.844  1.00  0.00    -0.354 N 
ATOM      4  C   UNL A   1      32.642  21.288  24.975  1.00  0.00     0.242 C 
ATOM      5  O   UNL A   1      31.892  20.310  24.920  1.00  0.00    -0.273 OA
ATOM      6  H   UNL A   1      33.148  21.100  23.053  1.00  0.00     0.163 HD
BRANCH   4   7
ATOM      7  C   UNL A   1      32.765  22.112  26.276  1.00  0.00     0.168 C 
ATOM      8  C   UNL A   1      33.801  21.443  27.172  1.00  0.00     0.041 C 
BRANCH   7   9
ATOM      9  N   UNL A   1      31.408  22.456  26.735  1.00  0.00    -0.340 N 
ATOM     10  C   UNL A   1      30.571  23.536  26.762  1.00  0.00     0.262 C 
ATOM     11  H   UNL A   1      30.973  21.673  27.146  1.00  0.00     0.164 HD
ATOM     12  O   UNL A   1      29.564  23.424  27.462  1.00  0.00    -0.268 OA
BRANCH  10  13
ATOM     13  C   UNL A   1      30.858  24.724  25.999  1.00  0.00     0.093 A 
ATOM     14  C   UNL A   1      31.403  25.918  26.416  1.00  0.00     0.047 A 
ATOM     15  S   UNL A   1      30.628  24.701  24.300  1.00  0.00    -0.137 S 
ATOM     16  C   UNL A   1      31.426  26.888  25.371  1.00  0.00     0.094 A 
ATOM     17  C   UNL A   1      31.052  26.352  24.157  1.00  0.00     0.087 A 
BRANCH  16  18
ATOM     18  S   UNL A   1      31.789  28.565  25.595  1.00  0.00     0.243 S 
ATOM     19  O   UNL A   1      31.080  29.238  24.534  1.00  0.00    -0.207 OA
ATOM     20  O   UNL A   1      31.475  28.775  26.993  1.00  0.00    -0.207 OA
BRANCH  18  21
ATOM     21  N   UNL A   1      33.468  28.808  25.378  1.00  0.00    -0.204 NA
ATOM     22  C   UNL A   1      34.288  28.587  26.589  1.00  0.00     0.124 C 
ATOM     23  C   UNL A   1      34.020  28.096  24.205  1.00  0.00     0.124 C 
ENDBRANCH  18  21
ENDBRANCH  16  18
ENDBRANCH  10  13
ENDBRANCH   7   9
ENDBRANCH   4   7
ENDBRANCH   2   3
ENDBRANCH   1   2
BRANCH   1  24
ATOM     24  C   UNL A   1      36.580  23.393  24.453  1.00  0.00     0.023 C 
BRANCH  24  25
ATOM     25  C   UNL A   1      36.929  23.128  25.915  1.00  0.00     0.116 C 
BRANCH  25  26
ATOM     26  N   UNL A   1      38.101  22.285  26.084  1.00  0.00    -0.352 N 
ATOM     27  C   UNL A   1      39.364  22.659  26.485  1.00  0.00     0.251 C 
ATOM     28  H   UNL A   1      37.977  21.329  25.887  1.00  0.00     0.163 HD
ATOM     29  O   UNL A   1      40.281  21.845  26.471  1.00  0.00    -0.269 OA
BRANCH  27  30
ATOM     30  C   UNL A   1      39.608  24.061  26.884  1.00  0.00     0.039 A 
ATOM     31  C   UNL A   1      39.402  24.428  28.215  1.00  0.00     0.014 A 
ATOM     32  C   UNL A   1      40.078  24.995  25.956  1.00  0.00     0.014 A 
ATOM     33  C   UNL A   1      39.734  25.718  28.635  1.00  0.00     0.010 A 
ATOM     34  C   UNL A   1      40.462  26.262  26.389  1.00  0.00     0.010 A 
ATOM     35  C   UNL A   1      40.300  26.633  27.732  1.00  0.00    -0.014 A 
BRANCH  35  36
ATOM     36  C   UNL A   1      40.733  27.984  28.174  1.00  0.00     0.031 A 
ATOM     37  C   UNL A   1      42.191  28.344  28.168  1.00  0.00     0.074 A 
ATOM     38  C   UNL A   1      39.819  28.853  28.650  1.00  0.00     0.049 A 
ATOM     39  N   UNL A   1      42.778  29.432  28.599  1.00  0.00    -0.248 NA
ATOM     40  C   UNL A   1      43.115  27.333  27.634  1.00  0.00     0.031 C 
ATOM     41  C   UNL A   1      38.380  28.599  28.747  1.00  0.00     0.029 A 
ATOM     42  N   UNL A   1      39.966  30.119  29.154  1.00  0.00    -0.354 N 
ATOM     43  C   UNL A   1      44.140  29.228  28.406  1.00  0.00     0.074 A 
ATOM     44  C   UNL A   1      44.292  27.892  27.868  1.00  0.00     0.031 C 
ATOM     45  C   UNL A   1      37.777  29.681  29.264  1.00  0.00     0.029 A 
ATOM     46  C   UNL A   1      38.786  30.689  29.570  1.00  0.00     0.049 A 
ATOM     47  H   UNL A   1      40.836  30.578  29.215  1.00  0.00     0.167 HD
ATOM     48  C   UNL A   1      45.167  30.084  28.639  1.00  0.00     0.034 A 
ATOM     49  C   UNL A   1      38.546  31.885  30.143  1.00  0.00     0.034 A 
ATOM     50  C   UNL A   1      44.997  31.419  29.157  1.00  0.00     0.049 A 
ATOM     51  C   UNL A   1      39.701  32.820  30.392  1.00  0.00     0.074 A 
ATOM     52  C   UNL A   1      45.958  32.392  29.372  1.00  0.00     0.029 A 
ATOM     53  N   UNL A   1      43.783  31.970  29.548  1.00  0.00    -0.354 N 
ATOM     54  N   UNL A   1      40.980  32.632  30.159  1.00  0.00    -0.248 NA
ATOM     55  C   UNL A   1      39.379  34.131  30.971  1.00  0.00     0.031 C 
ATOM     56  C   UNL A   1      45.335  33.509  29.941  1.00  0.00     0.029 A 
ATOM     57  C   UNL A   1      43.976  33.259  30.026  1.00  0.00     0.049 A 
ATOM     58  H   UNL A   1      42.913  31.514  29.496  1.00  0.00     0.167 HD
ATOM     59  C   UNL A   1      41.610  33.813  30.537  1.00  0.00     0.074 A 
ATOM     60  C   UNL A   1      40.571  34.709  31.004  1.00  0.00     0.031 C 
ATOM     61  C   UNL A   1      42.929  34.133  30.498  1.00  0.00     0.034 A 
BRANCH  48  62
ATOM     62  C   UNL A   1      46.562  29.581  28.355  1.00  0.00     0.023 A 
ATOM     63  C   UNL A   1      47.328  28.935  29.342  1.00  0.00     0.031 A 
ATOM     64  C   UNL A   1      47.148  29.784  27.094  1.00  0.00     0.131 A 
ATOM     65  C   UNL A   1      48.662  28.590  29.078  1.00  0.00     0.055 A 
ATOM     66  C   UNL A   1      48.450  29.365  26.812  1.00  0.00     0.041 A 
ATOM     67  F   UNL A   1      46.473  30.411  26.118  1.00  0.00    -0.206 F 
ATOM     68  C   UNL A   1      49.222  28.780  27.812  1.00  0.00     0.022 A 
BRANCH  65  69
ATOM     69  S   UNL A   1      49.698  28.028  30.456  1.00  0.00     0.124 S 
ATOM     70  O   UNL A   1      49.452  26.588  30.440  1.00  0.00    -0.237 OA
ATOM     71  O   UNL A   1      51.030  28.453  30.043  1.00  0.00    -0.237 OA
ATOM     72  O   UNL A   1      49.147  28.735  31.610  1.00  0.00    -0.744 OA
ENDBRANCH  65  69
ENDBRANCH  48  62
BRANCH  49  73
ATOM     73  C   UNL A   1      37.161  32.272  30.529  1.00  0.00     0.023 A 
ATOM     74  C   UNL A   1      36.276  32.820  29.586  1.00  0.00     0.031 A 
ATOM     75  C   UNL A   1      36.713  32.133  31.854  1.00  0.00     0.131 A 
ATOM     76  C   UNL A   1      35.002  33.249  29.991  1.00  0.00     0.055 A 
ATOM     77  C   UNL A   1      35.429  32.520  32.242  1.00  0.00     0.041 A 
ATOM     78  F   UNL A   1      37.518  31.606  32.791  1.00  0.00    -0.206 F 
ATOM     79  C   UNL A   1      34.570  33.093  31.309  1.00  0.00     0.022 A 
BRANCH  76  80
ATOM     80  S   UNL A   1      33.941  34.079  28.777  1.00  0.00     0.124 S 
ATOM     81  O   UNL A   1      34.834  35.108  28.256  1.00  0.00    -0.237 OA
ATOM     82  O   UNL A   1      33.615  32.989  27.864  1.00  0.00    -0.237 OA
ATOM     83  O   UNL A   1      32.824  34.570  29.582  1.00  0.00    -0.744 OA
ENDBRANCH  76  80
ENDBRANCH  49  73
BRANCH  61  84
ATOM     84  C   UNL A   1      43.304  35.527  30.932  1.00  0.00     0.023 A 
ATOM     85  C   UNL A   1      43.478  36.567  30.002  1.00  0.00     0.031 A 
ATOM     86  C   UNL A   1      43.506  35.810  32.294  1.00  0.00     0.131 A 
ATOM     87  C   UNL A   1      43.893  37.833  30.444  1.00  0.00     0.055 A 
ATOM     88  C   UNL A   1      43.868  37.084  32.731  1.00  0.00     0.041 A 
ATOM     89  F   UNL A   1      43.353  34.851  33.220  1.00  0.00    -0.206 F 
ATOM     90  C   UNL A   1      44.076  38.101  31.803  1.00  0.00     0.022 A 
BRANCH  87  91
ATOM     91  S   UNL A   1      44.268  39.107  29.208  1.00  0.00     0.124 S 
ATOM     92  O   UNL A   1      42.937  39.467  28.729  1.00  0.00    -0.237 OA
ATOM     93  O   UNL A   1      44.955  40.120  30.002  1.00  0.00    -0.237 OA
ATOM     94  O   UNL A   1      45.108  38.407  28.236  1.00  0.00    -0.744 OA
ENDBRANCH  87  91
ENDBRANCH  61  84
ENDBRANCH  35  36
ENDBRANCH  27  30
ENDBRANCH  25  26
ENDBRANCH  24  25
ENDBRANCH   1  24
TORSDOF 18
ENDMDL
MODEL 2
REMARK VINA RESULT:     -10.8      2.939      7.963
REMARK SMILES C[C@H](NC(=O)c1cc(S(=O)(=O)N(C)C)cs1)C(=O)NCCCCNC(=O)c1ccc(-c2c3nc(c(-c4cc(S(=O)(=O)[O-])ccc4F)c4ccc([nH]4)c(-c4cc(S(=O)(=O)[O-])ccc4F)c4nc(c(-c5cc(S(=O)(=O)[O-])ccc5F)c5ccc2[nH]5)C=C4)C=C3)cc1
REMARK SMILES IDX 21 1 20 2 19 3 17 4 18 5 2 7 1 8 3 9 4 10 5 12 6 13 7 14
REMARK SMILES IDX 16 15 8 16 15 17 9 18 10 19 11 20 12 21 13 22 14 23 22 24
REMARK SMILES IDX 23 25 24 26 25 27 26 29 27 30 28 31 89 32 29 33 88 34 30 35
REMARK SMILES IDX 31 36 32 37 82 38 33 39 87 40 81 41 83 42 34 43 86 44 80 45
REMARK SMILES IDX 79 46 35 48 67 49 47 50 66 51 48 52 51 53 65 54 84 55 49 56
REMARK SMILES IDX 50 57 64 59 85 60 52 61 36 62 37 63 45 64 38 65 44 66 46 67
REMARK SMILES IDX 43 68 39 69 40 70 41 71 42 72 68 73 69 74 77 75 70 76 76 77
REMARK SMILES IDX 78 78 75 79 71 80 72 81 73 82 74 83 53 84 54 85 62 86 55 87
REMARK SMILES IDX 61 88 63 89 60 90 56 91 57 92 58 93 59 94
REMARK H PARENT 19 6 3 11 24 28 83 47 51 58
REMARK Flexibility Score: inf
ROOT
ATOM      1  C   UNL A   1      34.826  20.168  24.855  1.00  0.00     0.023 C 
ENDROOT
BRANCH   1   2
ATOM      2  C   UNL A   1      33.388  20.466  25.267  1.00  0.00     0.116 C 
BRANCH   2   3
ATOM      3  N   UNL A   1      33.302  20.915  26.646  1.00  0.00    -0.354 N 
ATOM      4  C   UNL A   1      32.959  22.142  27.138  1.00  0.00     0.242 C 
ATOM      5  O   UNL A   1      32.937  22.302  28.361  1.00  0.00    -0.273 OA
ATOM      6  H   UNL A   1      33.522  20.236  27.324  1.00  0.00     0.163 HD
BRANCH   4   7
ATOM      7  C   UNL A   1      32.539  23.287  26.189  1.00  0.00     0.168 C 
ATOM      8  C   UNL A   1      33.664  24.313  26.148  1.00  0.00     0.041 C 
BRANCH   7   9
ATOM      9  N   UNL A   1      31.138  23.639  26.482  1.00  0.00    -0.340 N 
ATOM     10  C   UNL A   1      30.323  24.735  26.453  1.00  0.00     0.262 C 
ATOM     11  H   UNL A   1      30.640  22.848  26.791  1.00  0.00     0.164 HD
ATOM     12  O   UNL A   1      29.230  24.613  27.008  1.00  0.00    -0.268 OA
BRANCH  10  13
ATOM     13  C   UNL A   1      30.728  25.952  25.796  1.00  0.00     0.093 A 
ATOM     14  C   UNL A   1      30.610  26.308  24.470  1.00  0.00     0.047 A 
ATOM     15  S   UNL A   1      31.352  27.242  26.737  1.00  0.00    -0.137 S 
ATOM     16  C   UNL A   1      31.235  27.560  24.197  1.00  0.00     0.094 A 
ATOM     17  C   UNL A   1      31.661  28.190  25.346  1.00  0.00     0.087 A 
BRANCH  16  18
ATOM     18  S   UNL A   1      31.515  28.192  22.610  1.00  0.00     0.243 S 
ATOM     19  O   UNL A   1      30.618  27.450  21.757  1.00  0.00    -0.207 OA
ATOM     20  O   UNL A   1      31.390  29.622  22.810  1.00  0.00    -0.207 OA
BRANCH  18  21
ATOM     21  N   UNL A   1      33.126  27.851  22.148  1.00  0.00    -0.204 NA
ATOM     22  C   UNL A   1      34.151  28.690  22.808  1.00  0.00     0.124 C 
ATOM     23  C   UNL A   1      33.468  26.414  22.216  1.00  0.00     0.124 C 
ENDBRANCH  18  21
ENDBRANCH  16  18
ENDBRANCH  10  13
ENDBRANCH   7   9
ENDBRANCH   4   7
ENDBRANCH   2   3
ENDBRANCH   1   2
BRANCH   1  24
ATOM     24  C   UNL A   1      35.688  21.414  24.640  1.00  0.00     0.023 C 
BRANCH  24  25
ATOM     25  C   UNL A   1      36.775  21.636  25.688  1.00  0.00     0.116 C 
BRANCH  25  26
ATOM     26  N   UNL A   1      37.776  20.582  25.713  1.00  0.00    -0.352 N 
ATOM     27  C   UNL A   1      39.109  20.686  26.040  1.00  0.00     0.251 C 
ATOM     28  H   UNL A   1      37.462  19.683  25.466  1.00  0.00     0.163 HD
ATOM     29  O   UNL A   1      39.853  19.722  25.904  1.00  0.00    -0.269 OA
BRANCH  27  30
ATOM     30  C   UNL A   1      39.637  21.984  26.508  1.00  0.00     0.039 A 
ATOM     31  C   UNL A   1      40.629  21.994  27.492  1.00  0.00     0.014 A 
ATOM     32  C   UNL A   1      39.184  23.183  25.949  1.00  0.00     0.014 A 
ATOM     33  C   UNL A   1      41.220  23.203  27.866  1.00  0.00     0.010 A 
ATOM     34  C   UNL A   1      39.814  24.379  26.281  1.00  0.00     0.010 A 
ATOM     35  C   UNL A   1      40.841  24.400  27.237  1.00  0.00    -0.014 A 
BRANCH  35  36
ATOM     36  C   UNL A   1      41.509  25.686  27.564  1.00  0.00     0.031 A 
ATOM     37  C   UNL A   1      40.777  26.733  28.354  1.00  0.00     0.074 A 
ATOM     38  C   UNL A   1      42.743  25.935  27.084  1.00  0.00     0.049 A 
ATOM     39  N   UNL A   1      41.149  27.949  28.663  1.00  0.00    -0.248 NA
ATOM     40  C   UNL A   1      39.435  26.373  28.835  1.00  0.00     0.031 C 
ATOM     41  C   UNL A   1      43.536  25.013  26.267  1.00  0.00     0.029 A 
ATOM     42  N   UNL A   1      43.543  27.043  27.201  1.00  0.00    -0.354 N 
ATOM     43  C   UNL A   1      40.080  28.507  29.357  1.00  0.00     0.074 A 
ATOM     44  C   UNL A   1      39.029  27.511  29.375  1.00  0.00     0.031 C 
ATOM     45  C   UNL A   1      44.712  25.589  25.970  1.00  0.00     0.029 A 
ATOM     46  C   UNL A   1      44.744  26.931  26.540  1.00  0.00     0.049 A 
ATOM     47  H   UNL A   1      43.281  27.846  27.708  1.00  0.00     0.167 HD
ATOM     48  C   UNL A   1      39.993  29.729  29.940  1.00  0.00     0.034 A 
ATOM     49  C   UNL A   1      45.752  27.814  26.402  1.00  0.00     0.034 A 
ATOM     50  C   UNL A   1      41.059  30.701  29.928  1.00  0.00     0.049 A 
ATOM     51  C   UNL A   1      45.634  29.165  27.058  1.00  0.00     0.074 A 
ATOM     52  C   UNL A   1      41.102  31.943  30.539  1.00  0.00     0.029 A 
ATOM     53  N   UNL A   1      42.269  30.545  29.266  1.00  0.00    -0.354 N 
ATOM     54  N   UNL A   1      44.635  29.661  27.753  1.00  0.00    -0.248 NA
ATOM     55  C   UNL A   1      46.782  30.071  26.920  1.00  0.00     0.031 C 
ATOM     56  C   UNL A   1      42.314  32.557  30.203  1.00  0.00     0.029 A 
ATOM     57  C   UNL A   1      43.055  31.677  29.433  1.00  0.00     0.049 A 
ATOM     58  H   UNL A   1      42.532  29.748  28.753  1.00  0.00     0.167 HD
ATOM     59  C   UNL A   1      45.049  30.926  28.158  1.00  0.00     0.074 A 
ATOM     60  C   UNL A   1      46.389  31.112  27.639  1.00  0.00     0.031 C 
ATOM     61  C   UNL A   1      44.384  31.850  28.898  1.00  0.00     0.034 A 
BRANCH  48  62
ATOM     62  C   UNL A   1      38.688  30.080  30.613  1.00  0.00     0.023 A 
ATOM     63  C   UNL A   1      37.669  30.768  29.931  1.00  0.00     0.031 A 
ATOM     64  C   UNL A   1      38.475  29.757  31.964  1.00  0.00     0.131 A 
ATOM     65  C   UNL A   1      36.521  31.183  30.623  1.00  0.00     0.055 A 
ATOM     66  C   UNL A   1      37.295  30.102  32.626  1.00  0.00     0.041 A 
ATOM     67  F   UNL A   1      39.420  29.117  32.672  1.00  0.00    -0.206 F 
ATOM     68  C   UNL A   1      36.316  30.834  31.961  1.00  0.00     0.022 A 
BRANCH  65  69
ATOM     69  S   UNL A   1      35.370  32.311  29.791  1.00  0.00     0.124 S 
ATOM     70  O   UNL A   1      34.893  31.482  28.686  1.00  0.00    -0.237 OA
ATOM     71  O   UNL A   1      34.399  32.600  30.839  1.00  0.00    -0.237 OA
ATOM     72  O   UNL A   1      36.217  33.435  29.396  1.00  0.00    -0.744 OA
ENDBRANCH  65  69
ENDBRANCH  48  62
BRANCH  49  73
ATOM     73  C   UNL A   1      46.961  27.460  25.607  1.00  0.00     0.023 A 
ATOM     74  C   UNL A   1      47.071  27.830  24.257  1.00  0.00     0.031 A 
ATOM     75  C   UNL A   1      48.008  26.716  26.177  1.00  0.00     0.131 A 
ATOM     76  C   UNL A   1      48.184  27.418  23.509  1.00  0.00     0.055 A 
ATOM     77  C   UNL A   1      49.135  26.346  25.439  1.00  0.00     0.041 A 
ATOM     78  F   UNL A   1      47.956  26.346  27.467  1.00  0.00    -0.206 F 
ATOM     79  C   UNL A   1      49.221  26.688  24.093  1.00  0.00     0.022 A 
BRANCH  76  80
ATOM     80  S   UNL A   1      48.222  27.794  21.735  1.00  0.00     0.124 S 
ATOM     81  O   UNL A   1      48.476  26.479  21.157  1.00  0.00    -0.237 OA
ATOM     82  O   UNL A   1      46.890  28.347  21.514  1.00  0.00    -0.237 OA
ATOM     83  O   UNL A   1      49.319  28.752  21.615  1.00  0.00    -0.744 OA
ENDBRANCH  76  80
ENDBRANCH  49  73
BRANCH  61  84
ATOM     84  C   UNL A   1      45.124  33.122  29.222  1.00  0.00     0.023 A 
ATOM     85  C   UNL A   1      45.019  34.264  28.408  1.00  0.00     0.031 A 
ATOM     86  C   UNL A   1      45.957  33.185  30.352  1.00  0.00     0.131 A 
ATOM     87  C   UNL A   1      45.778  35.405  28.709  1.00  0.00     0.055 A 
ATOM     88  C   UNL A   1      46.669  34.340  30.675  1.00  0.00     0.041 A 
ATOM     89  F   UNL A   1      46.092  32.121  31.160  1.00  0.00    -0.206 F 
ATOM     90  C   UNL A   1      46.591  35.455  29.845  1.00  0.00     0.022 A 
BRANCH  87  91
ATOM     91  S   UNL A   1      45.749  36.801  27.551  1.00  0.00     0.124 S 
ATOM     92  O   UNL A   1      46.100  37.922  28.418  1.00  0.00    -0.237 OA
ATOM     93  O   UNL A   1      46.757  36.415  26.570  1.00  0.00    -0.237 OA
ATOM     94  O   UNL A   1      44.373  36.808  27.056  1.00  0.00    -0.744 OA
ENDBRANCH  87  91
ENDBRANCH  61  84
ENDBRANCH  35  36
ENDBRANCH  27  30
ENDBRANCH  25  26
ENDBRANCH  24  25
ENDBRANCH   1  24
TORSDOF 18
ENDMDL
MODEL 3
REMARK VINA RESULT:     -10.8      5.257      8.718
REMARK SMILES C[C@H](NC(=O)c1cc(S(=O)(=O)N(C)C)cs1)C(=O)NCCCCNC(=O)c1ccc(-c2c3nc(c(-c4cc(S(=O)(=O)[O-])ccc4F)c4ccc([nH]4)c(-c4cc(S(=O)(=O)[O-])ccc4F)c4nc(c(-c5cc(S(=O)(=O)[O-])ccc5F)c5ccc2[nH]5)C=C4)C=C3)cc1
REMARK SMILES IDX 21 1 20 2 19 3 17 4 18 5 2 7 1 8 3 9 4 10 5 12 6 13 7 14
REMARK SMILES IDX 16 15 8 16 15 17 9 18 10 19 11 20 12 21 13 22 14 23 22 24
REMARK SMILES IDX 23 25 24 26 25 27 26 29 27 30 28 31 89 32 29 33 88 34 30 35
REMARK SMILES IDX 31 36 32 37 82 38 33 39 87 40 81 41 83 42 34 43 86 44 80 45
REMARK SMILES IDX 79 46 35 48 67 49 47 50 66 51 48 52 51 53 65 54 84 55 49 56
REMARK SMILES IDX 50 57 64 59 85 60 52 61 36 62 37 63 45 64 38 65 44 66 46 67
REMARK SMILES IDX 43 68 39 69 40 70 41 71 42 72 68 73 69 74 77 75 70 76 76 77
REMARK SMILES IDX 78 78 75 79 71 80 72 81 73 82 74 83 53 84 54 85 62 86 55 87
REMARK SMILES IDX 61 88 63 89 60 90 56 91 57 92 58 93 59 94
REMARK H PARENT 19 6 3 11 24 28 83 47 51 58
REMARK Flexibility Score: inf
ROOT
ATOM      1  C   UNL A   1      31.799  30.425  26.653  1.00  0.00     0.023 C 
ENDROOT
BRANCH   1   2
ATOM      2  C   UNL A   1      31.413  29.752  25.340  1.00  0.00     0.116 C 
BRANCH   2   3
ATOM      3  N   UNL A   1      32.524  29.710  24.406  1.00  0.00    -0.354 N 
ATOM      4  C   UNL A   1      32.920  28.700  23.576  1.00  0.00     0.242 C 
ATOM      5  O   UNL A   1      33.897  28.885  22.846  1.00  0.00    -0.273 OA
ATOM      6  H   UNL A   1      33.072  30.527  24.365  1.00  0.00     0.163 HD
BRANCH   4   7
ATOM      7  C   UNL A   1      32.122  27.379  23.498  1.00  0.00     0.168 C 
ATOM      8  C   UNL A   1      32.327  26.617  24.802  1.00  0.00     0.041 C 
BRANCH   7   9
ATOM      9  N   UNL A   1      32.348  26.779  22.172  1.00  0.00    -0.340 N 
ATOM     10  C   UNL A   1      32.891  25.648  21.631  1.00  0.00     0.262 C 
ATOM     11  H   UNL A   1      32.005  27.370  21.462  1.00  0.00     0.164 HD
ATOM     12  O   UNL A   1      33.065  25.660  20.411  1.00  0.00    -0.268 OA
BRANCH  10  13
ATOM     13  C   UNL A   1      33.224  24.511  22.451  1.00  0.00     0.093 A 
ATOM     14  C   UNL A   1      34.396  24.228  23.117  1.00  0.00     0.047 A 
ATOM     15  S   UNL A   1      32.012  23.348  22.797  1.00  0.00    -0.137 S 
ATOM     16  C   UNL A   1      34.362  22.944  23.734  1.00  0.00     0.094 A 
ATOM     17  C   UNL A   1      33.115  22.363  23.657  1.00  0.00     0.087 A 
BRANCH  16  18
ATOM     18  S   UNL A   1      35.736  22.150  24.424  1.00  0.00     0.243 S 
ATOM     19  O   UNL A   1      35.301  20.793  24.649  1.00  0.00    -0.207 OA
ATOM     20  O   UNL A   1      36.797  22.480  23.493  1.00  0.00    -0.207 OA
BRANCH  18  21
ATOM     21  N   UNL A   1      36.101  22.870  25.932  1.00  0.00    -0.204 NA
ATOM     22  C   UNL A   1      37.320  23.708  25.941  1.00  0.00     0.124 C 
ATOM     23  C   UNL A   1      34.951  23.571  26.544  1.00  0.00     0.124 C 
ENDBRANCH  18  21
ENDBRANCH  16  18
ENDBRANCH  10  13
ENDBRANCH   7   9
ENDBRANCH   4   7
ENDBRANCH   2   3
ENDBRANCH   1   2
BRANCH   1  24
ATOM     24  C   UNL A   1      31.583  31.939  26.669  1.00  0.00     0.023 C 
BRANCH  24  25
ATOM     25  C   UNL A   1      32.837  32.768  26.934  1.00  0.00     0.116 C 
BRANCH  25  26
ATOM     26  N   UNL A   1      32.564  34.025  27.612  1.00  0.00    -0.352 N 
ATOM     27  C   UNL A   1      33.204  34.552  28.711  1.00  0.00     0.251 C 
ATOM     28  H   UNL A   1      31.832  34.566  27.240  1.00  0.00     0.163 HD
ATOM     29  O   UNL A   1      32.783  35.575  29.237  1.00  0.00    -0.269 OA
BRANCH  27  30
ATOM     30  C   UNL A   1      34.373  33.843  29.274  1.00  0.00     0.039 A 
ATOM     31  C   UNL A   1      35.655  34.296  28.954  1.00  0.00     0.014 A 
ATOM     32  C   UNL A   1      34.201  32.763  30.145  1.00  0.00     0.014 A 
ATOM     33  C   UNL A   1      36.767  33.710  29.564  1.00  0.00     0.010 A 
ATOM     34  C   UNL A   1      35.306  32.219  30.794  1.00  0.00     0.010 A 
ATOM     35  C   UNL A   1      36.598  32.691  30.516  1.00  0.00    -0.014 A 
BRANCH  35  36
ATOM     36  C   UNL A   1      37.760  32.108  31.233  1.00  0.00     0.031 A 
ATOM     37  C   UNL A   1      38.543  30.989  30.608  1.00  0.00     0.074 A 
ATOM     38  C   UNL A   1      38.058  32.536  32.475  1.00  0.00     0.049 A 
ATOM     39  N   UNL A   1      39.528  30.286  31.108  1.00  0.00    -0.248 NA
ATOM     40  C   UNL A   1      38.144  30.586  29.252  1.00  0.00     0.031 C 
ATOM     41  C   UNL A   1      37.341  33.586  33.204  1.00  0.00     0.029 A 
ATOM     42  N   UNL A   1      39.033  32.133  33.352  1.00  0.00    -0.354 N 
ATOM     43  C   UNL A   1      39.854  29.347  30.136  1.00  0.00     0.074 A 
ATOM     44  C   UNL A   1      38.925  29.538  29.041  1.00  0.00     0.031 C 
ATOM     45  C   UNL A   1      37.910  33.752  34.408  1.00  0.00     0.029 A 
ATOM     46  C   UNL A   1      39.005  32.799  34.555  1.00  0.00     0.049 A 
ATOM     47  H   UNL A   1      39.691  31.431  33.141  1.00  0.00     0.167 HD
ATOM     48  C   UNL A   1      40.848  28.423  30.148  1.00  0.00     0.034 A 
ATOM     49  C   UNL A   1      39.770  32.651  35.654  1.00  0.00     0.034 A 
ATOM     50  C   UNL A   1      41.777  28.259  31.240  1.00  0.00     0.049 A 
ATOM     51  C   UNL A   1      40.868  31.620  35.646  1.00  0.00     0.074 A 
ATOM     52  C   UNL A   1      42.859  27.400  31.332  1.00  0.00     0.029 A 
ATOM     53  N   UNL A   1      41.731  28.966  32.435  1.00  0.00    -0.354 N 
ATOM     54  N   UNL A   1      41.196  30.770  34.699  1.00  0.00    -0.248 NA
ATOM     55  C   UNL A   1      41.705  31.534  36.850  1.00  0.00     0.031 C 
ATOM     56  C   UNL A   1      43.433  27.550  32.600  1.00  0.00     0.029 A 
ATOM     57  C   UNL A   1      42.749  28.545  33.278  1.00  0.00     0.049 A 
ATOM     58  H   UNL A   1      41.072  29.664  32.652  1.00  0.00     0.167 HD
ATOM     59  C   UNL A   1      42.296  30.070  35.184  1.00  0.00     0.074 A 
ATOM     60  C   UNL A   1      42.581  30.602  36.501  1.00  0.00     0.031 C 
ATOM     61  C   UNL A   1      43.011  29.079  34.593  1.00  0.00     0.034 A 
BRANCH  48  62
ATOM     62  C   UNL A   1      40.954  27.509  28.952  1.00  0.00     0.023 A 
ATOM     63  C   UNL A   1      41.964  27.671  27.987  1.00  0.00     0.031 A 
ATOM     64  C   UNL A   1      40.011  26.486  28.752  1.00  0.00     0.131 A 
ATOM     65  C   UNL A   1      41.959  26.881  26.829  1.00  0.00     0.055 A 
ATOM     66  C   UNL A   1      40.059  25.648  27.636  1.00  0.00     0.041 A 
ATOM     67  F   UNL A   1      39.013  26.294  29.629  1.00  0.00    -0.206 F 
ATOM     68  C   UNL A   1      41.027  25.854  26.657  1.00  0.00     0.022 A 
BRANCH  65  69
ATOM     69  S   UNL A   1      43.096  27.311  25.483  1.00  0.00     0.124 S 
ATOM     70  O   UNL A   1      44.162  27.999  26.207  1.00  0.00    -0.237 OA
ATOM     71  O   UNL A   1      43.438  26.006  24.929  1.00  0.00    -0.237 OA
ATOM     72  O   UNL A   1      42.290  28.167  24.614  1.00  0.00    -0.744 OA
ENDBRANCH  65  69
ENDBRANCH  48  62
BRANCH  49  73
ATOM     73  C   UNL A   1      39.528  33.491  36.860  1.00  0.00     0.023 A 
ATOM     74  C   UNL A   1      38.858  32.971  37.979  1.00  0.00     0.031 A 
ATOM     75  C   UNL A   1      39.931  34.836  36.897  1.00  0.00     0.131 A 
ATOM     76  C   UNL A   1      38.573  33.804  39.071  1.00  0.00     0.055 A 
ATOM     77  C   UNL A   1      39.684  35.650  38.005  1.00  0.00     0.041 A 
ATOM     78  F   UNL A   1      40.584  35.379  35.856  1.00  0.00    -0.206 F 
ATOM     79  C   UNL A   1      38.990  35.136  39.096  1.00  0.00     0.022 A 
BRANCH  76  80
ATOM     80  S   UNL A   1      37.583  33.135  40.436  1.00  0.00     0.124 S 
ATOM     81  O   UNL A   1      36.316  32.849  39.773  1.00  0.00    -0.237 OA
ATOM     82  O   UNL A   1      38.372  31.977  40.842  1.00  0.00    -0.237 OA
ATOM     83  O   UNL A   1      37.550  34.232  41.401  1.00  0.00    -0.744 OA
ENDBRANCH  76  80
ENDBRANCH  49  73
BRANCH  61  84
ATOM     84  C   UNL A   1      44.196  28.547  35.357  1.00  0.00     0.023 A 
ATOM     85  C   UNL A   1      44.049  27.581  36.367  1.00  0.00     0.031 A 
ATOM     86  C   UNL A   1      45.488  29.027  35.079  1.00  0.00     0.131 A 
ATOM     87  C   UNL A   1      45.170  27.162  37.100  1.00  0.00     0.055 A 
ATOM     88  C   UNL A   1      46.606  28.569  35.775  1.00  0.00     0.041 A 
ATOM     89  F   UNL A   1      45.681  29.950  34.124  1.00  0.00    -0.206 F 
ATOM     90  C   UNL A   1      46.449  27.640  36.800  1.00  0.00     0.022 A 
BRANCH  87  91
ATOM     91  S   UNL A   1      44.925  26.041  38.504  1.00  0.00     0.124 S 
ATOM     92  O   UNL A   1      43.536  26.307  38.866  1.00  0.00    -0.237 OA
ATOM     93  O   UNL A   1      45.191  24.734  37.911  1.00  0.00    -0.237 OA
ATOM     94  O   UNL A   1      45.917  26.491  39.480  1.00  0.00    -0.744 OA
ENDBRANCH  87  91
ENDBRANCH  61  84
ENDBRANCH  35  36
ENDBRANCH  27  30
ENDBRANCH  25  26
ENDBRANCH  24  25
ENDBRANCH   1  24
TORSDOF 18
ENDMDL
