MODEL 1
REMARK VINA RESULT:     -12.4      0.000      0.000
REMARK SMILES COc1ccc2c(CC(=O)NCCCCNC(=O)c3ccc(-c4c5nc(c(-c6cc(S(=O)(=O)[O-])ccc6F)c6ccc([nH]6)c(-c6cc(S(=O)(=O)[O-])ccc6F)c6nc(c(-c7cc(S(=O)(=O)[O-])ccc7F)c7ccc4[nH]7)C=C6)C=C5)cc3)c(C(=O)c3cc(C)ccn3)[nH]c2c1
REMARK SMILES IDX 13 1 12 2 11 3 9 4 10 5 8 7 7 8 3 9 4 10 94 11 5 12 93 13
REMARK SMILES IDX 6 14 92 15 82 16 2 18 1 19 83 20 84 21 85 22 86 23 91 24
REMARK SMILES IDX 87 25 90 26 88 27 89 28 14 29 15 30 16 31 17 32 18 34 19 35
REMARK SMILES IDX 20 36 81 37 21 38 80 39 22 40 23 41 24 42 74 43 25 44 79 45
REMARK SMILES IDX 73 46 75 47 26 48 78 49 72 50 71 51 27 53 59 54 39 55 58 56
REMARK SMILES IDX 40 57 43 58 57 59 76 60 41 61 42 62 56 64 77 65 44 66 28 67
REMARK SMILES IDX 29 68 37 69 30 70 36 71 38 72 35 73 31 74 32 75 33 76 34 77
REMARK SMILES IDX 60 78 61 79 69 80 62 81 68 82 70 83 67 84 63 85 64 86 65 87
REMARK SMILES IDX 66 88 45 89 46 90 54 91 47 92 53 93 55 94 52 95 48 96 49 97
REMARK SMILES IDX 50 98 51 99
REMARK H PARENT 11 6 92 17 16 33 75 52 43 63
REMARK Flexibility Score: inf
ROOT
ATOM      1  C   UNL A   1      31.964  28.293  27.469  1.00  0.00     0.023 C 
ENDROOT
BRANCH   1   2
ATOM      2  C   UNL A   1      31.901  26.917  26.811  1.00  0.00     0.116 C 
BRANCH   2   3
ATOM      3  N   UNL A   1      30.543  26.468  26.588  1.00  0.00    -0.356 N 
ATOM      4  C   UNL A   1      29.959  25.999  25.445  1.00  0.00     0.224 C 
ATOM      5  O   UNL A   1      28.850  25.469  25.559  1.00  0.00    -0.275 OA
ATOM      6  H   UNL A   1      29.955  26.506  27.375  1.00  0.00     0.163 HD
BRANCH   4   7
ATOM      7  C   UNL A   1      30.703  26.000  24.114  1.00  0.00     0.138 C 
BRANCH   7   8
ATOM      8  C   UNL A   1      30.833  27.347  23.452  1.00  0.00    -0.002 A 
ATOM      9  C   UNL A   1      28.082  30.215  22.037  1.00  0.00     0.120 A 
ATOM     10  C   UNL A   1      27.520  29.122  22.692  1.00  0.00     0.047 A 
ATOM     11  C   UNL A   1      29.468  30.304  21.862  1.00  0.00     0.073 A 
ATOM     12  C   UNL A   1      28.336  28.116  23.224  1.00  0.00     0.014 A 
ATOM     13  C   UNL A   1      30.269  29.293  22.408  1.00  0.00     0.050 A 
ATOM     14  C   UNL A   1      29.738  28.200  23.084  1.00  0.00     0.004 A 
ATOM     15  N   UNL A   1      31.633  29.132  22.395  1.00  0.00    -0.351 N 
ATOM     16  C   UNL A   1      32.010  28.016  23.113  1.00  0.00     0.093 A 
ATOM     17  H   UNL A   1      32.259  29.736  21.934  1.00  0.00     0.167 HD
BRANCH   9  18
ATOM     18  O   UNL A   1      27.355  31.235  21.479  1.00  0.00    -0.497 OA
ATOM     19  C   UNL A   1      28.137  32.248  20.853  1.00  0.00     0.278 C 
ENDBRANCH   9  18
BRANCH  16  20
ATOM     20  C   UNL A   1      33.384  27.620  23.411  1.00  0.00     0.227 C 
ATOM     21  O   UNL A   1      34.287  28.428  23.609  1.00  0.00    -0.285 OA
BRANCH  20  22
ATOM     22  C   UNL A   1      33.751  26.179  23.389  1.00  0.00     0.113 A 
ATOM     23  C   UNL A   1      34.250  25.578  24.542  1.00  0.00     0.036 A 
ATOM     24  N   UNL A   1      33.523  25.517  22.230  1.00  0.00    -0.253 NA
ATOM     25  C   UNL A   1      34.534  24.212  24.507  1.00  0.00    -0.047 A 
ATOM     26  C   UNL A   1      33.782  24.195  22.229  1.00  0.00     0.112 A 
ATOM     27  C   UNL A   1      35.073  23.500  25.709  1.00  0.00     0.044 C 
ATOM     28  C   UNL A   1      34.284  23.508  23.325  1.00  0.00     0.023 A 
ENDBRANCH  20  22
ENDBRANCH  16  20
ENDBRANCH   7   8
ENDBRANCH   4   7
ENDBRANCH   2   3
ENDBRANCH   1   2
BRANCH   1  29
ATOM     29  C   UNL A   1      31.470  29.442  26.589  1.00  0.00     0.023 C 
BRANCH  29  30
ATOM     30  C   UNL A   1      32.548  30.413  26.116  1.00  0.00     0.116 C 
BRANCH  30  31
ATOM     31  N   UNL A   1      32.301  31.785  26.533  1.00  0.00    -0.352 N 
ATOM     32  C   UNL A   1      33.063  32.588  27.350  1.00  0.00     0.251 C 
ATOM     33  H   UNL A   1      31.476  32.195  26.183  1.00  0.00     0.163 HD
ATOM     34  O   UNL A   1      32.639  33.684  27.703  1.00  0.00    -0.269 OA
BRANCH  32  35
ATOM     35  C   UNL A   1      34.373  32.099  27.831  1.00  0.00     0.039 A 
ATOM     36  C   UNL A   1      35.433  33.002  27.937  1.00  0.00     0.014 A 
ATOM     37  C   UNL A   1      34.536  30.769  28.227  1.00  0.00     0.014 A 
ATOM     38  C   UNL A   1      36.632  32.591  28.523  1.00  0.00     0.010 A 
ATOM     39  C   UNL A   1      35.706  30.382  28.876  1.00  0.00     0.010 A 
ATOM     40  C   UNL A   1      36.761  31.292  29.044  1.00  0.00    -0.014 A 
BRANCH  40  41
ATOM     41  C   UNL A   1      37.977  30.879  29.793  1.00  0.00     0.031 A 
ATOM     42  C   UNL A   1      38.950  29.909  29.182  1.00  0.00     0.074 A 
ATOM     43  C   UNL A   1      38.166  31.325  31.052  1.00  0.00     0.049 A 
ATOM     44  N   UNL A   1      40.017  29.365  29.709  1.00  0.00    -0.248 NA
ATOM     45  C   UNL A   1      38.670  29.477  27.805  1.00  0.00     0.031 C 
ATOM     46  C   UNL A   1      37.274  32.242  31.766  1.00  0.00     0.029 A 
ATOM     47  N   UNL A   1      39.161  31.062  31.960  1.00  0.00    -0.354 N 
ATOM     48  C   UNL A   1      40.533  28.520  28.732  1.00  0.00     0.074 A 
ATOM     49  C   UNL A   1      39.624  28.580  27.606  1.00  0.00     0.031 C 
ATOM     50  C   UNL A   1      37.774  32.480  32.988  1.00  0.00     0.029 A 
ATOM     51  C   UNL A   1      38.989  31.694  33.171  1.00  0.00     0.049 A 
ATOM     52  H   UNL A   1      39.927  30.474  31.764  1.00  0.00     0.167 HD
ATOM     53  C   UNL A   1      41.668  27.779  28.766  1.00  0.00     0.034 A 
ATOM     54  C   UNL A   1      39.715  31.632  34.306  1.00  0.00     0.034 A 
ATOM     55  C   UNL A   1      42.562  27.730  29.898  1.00  0.00     0.049 A 
ATOM     56  C   UNL A   1      40.942  30.756  34.338  1.00  0.00     0.074 A 
ATOM     57  C   UNL A   1      43.765  27.057  30.018  1.00  0.00     0.029 A 
ATOM     58  N   UNL A   1      42.344  28.368  31.114  1.00  0.00    -0.354 N 
ATOM     59  N   UNL A   1      41.447  30.005  33.385  1.00  0.00    -0.248 NA
ATOM     60  C   UNL A   1      41.700  30.724  35.595  1.00  0.00     0.031 C 
ATOM     61  C   UNL A   1      44.232  27.219  31.326  1.00  0.00     0.029 A 
ATOM     62  C   UNL A   1      43.368  28.066  32.001  1.00  0.00     0.049 A 
ATOM     63  H   UNL A   1      41.575  28.947  31.318  1.00  0.00     0.167 HD
ATOM     64  C   UNL A   1      42.597  29.433  33.923  1.00  0.00     0.074 A 
ATOM     65  C   UNL A   1      42.721  29.942  35.273  1.00  0.00     0.031 C 
ATOM     66  C   UNL A   1      43.472  28.566  33.353  1.00  0.00     0.034 A 
BRANCH  53  67
ATOM     67  C   UNL A   1      41.987  26.939  27.551  1.00  0.00     0.023 A 
ATOM     68  C   UNL A   1      41.683  25.567  27.500  1.00  0.00     0.031 A 
ATOM     69  C   UNL A   1      42.621  27.513  26.434  1.00  0.00     0.131 A 
ATOM     70  C   UNL A   1      42.080  24.802  26.393  1.00  0.00     0.055 A 
ATOM     71  C   UNL A   1      42.936  26.763  25.300  1.00  0.00     0.041 A 
ATOM     72  F   UNL A   1      42.956  28.813  26.431  1.00  0.00    -0.206 F 
ATOM     73  C   UNL A   1      42.680  25.394  25.281  1.00  0.00     0.022 A 
BRANCH  70  74
ATOM     74  S   UNL A   1      41.933  22.996  26.492  1.00  0.00     0.124 S 
ATOM     75  O   UNL A   1      42.864  22.684  27.574  1.00  0.00    -0.237 OA
ATOM     76  O   UNL A   1      40.519  22.811  26.793  1.00  0.00    -0.237 OA
ATOM     77  O   UNL A   1      42.355  22.545  25.168  1.00  0.00    -0.744 OA
ENDBRANCH  70  74
ENDBRANCH  53  67
BRANCH  54  78
ATOM     78  C   UNL A   1      39.292  32.393  35.518  1.00  0.00     0.023 A 
ATOM     79  C   UNL A   1      39.710  33.718  35.723  1.00  0.00     0.031 A 
ATOM     80  C   UNL A   1      38.506  31.790  36.516  1.00  0.00     0.131 A 
ATOM     81  C   UNL A   1      39.383  34.379  36.918  1.00  0.00     0.055 A 
ATOM     82  C   UNL A   1      38.133  32.471  37.676  1.00  0.00     0.041 A 
ATOM     83  F   UNL A   1      38.079  30.525  36.373  1.00  0.00    -0.206 F 
ATOM     84  C   UNL A   1      38.584  33.770  37.889  1.00  0.00     0.022 A 
BRANCH  81  85
ATOM     85  S   UNL A   1      40.097  36.017  37.228  1.00  0.00     0.124 S 
ATOM     86  O   UNL A   1      39.732  36.735  36.013  1.00  0.00    -0.237 OA
ATOM     87  O   UNL A   1      39.405  36.423  38.447  1.00  0.00    -0.237 OA
ATOM     88  O   UNL A   1      41.523  35.741  37.388  1.00  0.00    -0.744 OA
ENDBRANCH  81  85
ENDBRANCH  54  78
BRANCH  66  89
ATOM     89  C   UNL A   1      44.661  28.144  34.182  1.00  0.00     0.023 A 
ATOM     90  C   UNL A   1      44.643  26.971  34.958  1.00  0.00     0.031 A 
ATOM     91  C   UNL A   1      45.825  28.932  34.206  1.00  0.00     0.131 A 
ATOM     92  C   UNL A   1      45.745  26.650  35.767  1.00  0.00     0.055 A 
ATOM     93  C   UNL A   1      46.943  28.573  34.961  1.00  0.00     0.041 A 
ATOM     94  F   UNL A   1      45.898  30.066  33.490  1.00  0.00    -0.206 F 
ATOM     95  C   UNL A   1      46.902  27.433  35.757  1.00  0.00     0.022 A 
BRANCH  92  96
ATOM     96  S   UNL A   1      45.609  25.246  36.907  1.00  0.00     0.124 S 
ATOM     97  O   UNL A   1      45.699  24.108  35.999  1.00  0.00    -0.237 OA
ATOM     98  O   UNL A   1      46.751  25.449  37.791  1.00  0.00    -0.237 OA
ATOM     99  O   UNL A   1      44.301  25.439  37.532  1.00  0.00    -0.744 OA
ENDBRANCH  92  96
ENDBRANCH  66  89
ENDBRANCH  40  41
ENDBRANCH  32  35
ENDBRANCH  30  31
ENDBRANCH  29  30
ENDBRANCH   1  29
TORSDOF 18
ENDMDL
MODEL 2
REMARK VINA RESULT:     -12.3      2.418      3.225
REMARK SMILES COc1ccc2c(CC(=O)NCCCCNC(=O)c3ccc(-c4c5nc(c(-c6cc(S(=O)(=O)[O-])ccc6F)c6ccc([nH]6)c(-c6cc(S(=O)(=O)[O-])ccc6F)c6nc(c(-c7cc(S(=O)(=O)[O-])ccc7F)c7ccc4[nH]7)C=C6)C=C5)cc3)c(C(=O)c3cc(C)ccn3)[nH]c2c1
REMARK SMILES IDX 13 1 12 2 11 3 9 4 10 5 8 7 7 8 3 9 4 10 94 11 5 12 93 13
REMARK SMILES IDX 6 14 92 15 82 16 2 18 1 19 83 20 84 21 85 22 86 23 91 24
REMARK SMILES IDX 87 25 90 26 88 27 89 28 14 29 15 30 16 31 17 32 18 34 19 35
REMARK SMILES IDX 20 36 81 37 21 38 80 39 22 40 23 41 24 42 74 43 25 44 79 45
REMARK SMILES IDX 73 46 75 47 26 48 78 49 72 50 71 51 27 53 59 54 39 55 58 56
REMARK SMILES IDX 40 57 43 58 57 59 76 60 41 61 42 62 56 64 77 65 44 66 28 67
REMARK SMILES IDX 29 68 37 69 30 70 36 71 38 72 35 73 31 74 32 75 33 76 34 77
REMARK SMILES IDX 60 78 61 79 69 80 62 81 68 82 70 83 67 84 63 85 64 86 65 87
REMARK SMILES IDX 66 88 45 89 46 90 54 91 47 92 53 93 55 94 52 95 48 96 49 97
REMARK SMILES IDX 50 98 51 99
REMARK H PARENT 11 6 92 17 16 33 75 52 43 63
REMARK Flexibility Score: inf
ROOT
ATOM      1  C   UNL A   1      35.001  30.585  27.638  1.00  0.00     0.023 C 
ENDROOT
BRANCH   1   2
ATOM      2  C   UNL A   1      34.514  29.184  27.278  1.00  0.00     0.116 C 
BRANCH   2   3
ATOM      3  N   UNL A   1      33.197  28.900  27.807  1.00  0.00    -0.356 N 
ATOM      4  C   UNL A   1      32.278  27.975  27.401  1.00  0.00     0.224 C 
ATOM      5  O   UNL A   1      31.317  27.771  28.149  1.00  0.00    -0.275 OA
ATOM      6  H   UNL A   1      32.925  29.454  28.574  1.00  0.00     0.163 HD
BRANCH   4   7
ATOM      7  C   UNL A   1      32.500  27.129  26.151  1.00  0.00     0.138 C 
BRANCH   7   8
ATOM      8  C   UNL A   1      31.257  26.814  25.360  1.00  0.00    -0.002 A 
ATOM      9  C   UNL A   1      28.733  29.043  22.820  1.00  0.00     0.120 A 
ATOM     10  C   UNL A   1      29.864  29.716  23.276  1.00  0.00     0.047 A 
ATOM     11  C   UNL A   1      28.478  27.726  23.220  1.00  0.00     0.073 A 
ATOM     12  C   UNL A   1      30.786  29.070  24.108  1.00  0.00     0.014 A 
ATOM     13  C   UNL A   1      29.416  27.094  24.046  1.00  0.00     0.050 A 
ATOM     14  C   UNL A   1      30.564  27.733  24.502  1.00  0.00     0.004 A 
ATOM     15  N   UNL A   1      29.426  25.827  24.575  1.00  0.00    -0.351 N 
ATOM     16  C   UNL A   1      30.583  25.594  25.290  1.00  0.00     0.093 A 
ATOM     17  H   UNL A   1      28.701  25.170  24.459  1.00  0.00     0.167 HD
BRANCH   9  18
ATOM     18  O   UNL A   1      27.777  29.605  22.013  1.00  0.00    -0.497 OA
ATOM     19  C   UNL A   1      28.259  30.628  21.146  1.00  0.00     0.278 C 
ENDBRANCH   9  18
BRANCH  16  20
ATOM     20  C   UNL A   1      30.978  24.316  25.876  1.00  0.00     0.227 C 
ATOM     21  O   UNL A   1      30.954  24.095  27.083  1.00  0.00    -0.285 OA
BRANCH  20  22
ATOM     22  C   UNL A   1      31.526  23.247  24.998  1.00  0.00     0.113 A 
ATOM     23  C   UNL A   1      31.801  21.992  25.533  1.00  0.00     0.036 A 
ATOM     24  N   UNL A   1      31.679  23.562  23.690  1.00  0.00    -0.253 NA
ATOM     25  C   UNL A   1      32.264  20.993  24.673  1.00  0.00    -0.047 A 
ATOM     26  C   UNL A   1      32.103  22.575  22.877  1.00  0.00     0.112 A 
ATOM     27  C   UNL A   1      32.580  19.619  25.179  1.00  0.00     0.044 C 
ATOM     28  C   UNL A   1      32.407  21.294  23.315  1.00  0.00     0.023 A 
ENDBRANCH  20  22
ENDBRANCH  16  20
ENDBRANCH   7   8
ENDBRANCH   4   7
ENDBRANCH   2   3
ENDBRANCH   1   2
BRANCH   1  29
ATOM     29  C   UNL A   1      33.894  31.556  28.051  1.00  0.00     0.023 C 
BRANCH  29  30
ATOM     30  C   UNL A   1      33.970  32.942  27.419  1.00  0.00     0.116 C 
BRANCH  30  31
ATOM     31  N   UNL A   1      33.215  33.946  28.155  1.00  0.00    -0.352 N 
ATOM     32  C   UNL A   1      33.435  34.431  29.423  1.00  0.00     0.251 C 
ATOM     33  H   UNL A   1      32.442  34.330  27.680  1.00  0.00     0.163 HD
ATOM     34  O   UNL A   1      32.619  35.188  29.941  1.00  0.00    -0.269 OA
BRANCH  32  35
ATOM     35  C   UNL A   1      34.635  33.997  30.169  1.00  0.00     0.039 A 
ATOM     36  C   UNL A   1      34.490  33.063  31.197  1.00  0.00     0.014 A 
ATOM     37  C   UNL A   1      35.903  34.468  29.817  1.00  0.00     0.014 A 
ATOM     38  C   UNL A   1      35.626  32.536  31.815  1.00  0.00     0.010 A 
ATOM     39  C   UNL A   1      37.035  33.888  30.383  1.00  0.00     0.010 A 
ATOM     40  C   UNL A   1      36.910  32.906  31.378  1.00  0.00    -0.014 A 
BRANCH  40  41
ATOM     41  C   UNL A   1      38.129  32.254  31.926  1.00  0.00     0.031 A 
ATOM     42  C   UNL A   1      38.784  31.125  31.180  1.00  0.00     0.074 A 
ATOM     43  C   UNL A   1      38.602  32.635  33.131  1.00  0.00     0.049 A 
ATOM     44  N   UNL A   1      39.797  30.377  31.535  1.00  0.00    -0.248 NA
ATOM     45  C   UNL A   1      38.206  30.778  29.874  1.00  0.00     0.031 C 
ATOM     46  C   UNL A   1      38.031  33.695  33.966  1.00  0.00     0.029 A 
ATOM     47  N   UNL A   1      39.662  32.170  33.869  1.00  0.00    -0.354 N 
ATOM     48  C   UNL A   1      39.974  29.464  30.501  1.00  0.00     0.074 A 
ATOM     49  C   UNL A   1      38.924  29.716  29.536  1.00  0.00     0.031 C 
ATOM     50  C   UNL A   1      38.760  33.813  35.087  1.00  0.00     0.029 A 
ATOM     51  C   UNL A   1      39.814  32.803  35.081  1.00  0.00     0.049 A 
ATOM     52  H   UNL A   1      40.257  31.449  33.560  1.00  0.00     0.167 HD
ATOM     53  C   UNL A   1      40.935  28.517  30.361  1.00  0.00     0.034 A 
ATOM     54  C   UNL A   1      40.688  32.584  36.084  1.00  0.00     0.034 A 
ATOM     55  C   UNL A   1      41.974  28.279  31.334  1.00  0.00     0.049 A 
ATOM     56  C   UNL A   1      41.712  31.488  35.930  1.00  0.00     0.074 A 
ATOM     57  C   UNL A   1      43.028  27.383  31.267  1.00  0.00     0.029 A 
ATOM     58  N   UNL A   1      42.084  28.926  32.560  1.00  0.00    -0.354 N 
ATOM     59  N   UNL A   1      41.901  30.669  34.920  1.00  0.00    -0.248 NA
ATOM     60  C   UNL A   1      42.643  31.289  37.048  1.00  0.00     0.031 C 
ATOM     61  C   UNL A   1      43.724  27.431  32.479  1.00  0.00     0.029 A 
ATOM     62  C   UNL A   1      43.160  28.418  33.272  1.00  0.00     0.049 A 
ATOM     63  H   UNL A   1      41.485  29.640  32.876  1.00  0.00     0.167 HD
ATOM     64  C   UNL A   1      42.990  29.876  35.273  1.00  0.00     0.074 A 
ATOM     65  C   UNL A   1      43.428  30.330  36.577  1.00  0.00     0.031 C 
ATOM     66  C   UNL A   1      43.577  28.866  34.582  1.00  0.00     0.034 A 
BRANCH  53  67
ATOM     67  C   UNL A   1      40.884  27.652  29.124  1.00  0.00     0.023 A 
ATOM     68  C   UNL A   1      41.807  27.806  28.075  1.00  0.00     0.031 A 
ATOM     69  C   UNL A   1      39.887  26.669  28.982  1.00  0.00     0.131 A 
ATOM     70  C   UNL A   1      41.669  27.049  26.902  1.00  0.00     0.055 A 
ATOM     71  C   UNL A   1      39.807  25.859  27.848  1.00  0.00     0.041 A 
ATOM     72  F   UNL A   1      38.964  26.489  29.939  1.00  0.00    -0.206 F 
ATOM     73  C   UNL A   1      40.693  26.057  26.791  1.00  0.00     0.022 A 
BRANCH  70  74
ATOM     74  S   UNL A   1      42.693  27.480  25.468  1.00  0.00     0.124 S 
ATOM     75  O   UNL A   1      42.672  26.234  24.705  1.00  0.00    -0.237 OA
ATOM     76  O   UNL A   1      41.964  28.599  24.884  1.00  0.00    -0.237 OA
ATOM     77  O   UNL A   1      43.986  27.818  26.059  1.00  0.00    -0.744 OA
ENDBRANCH  70  74
ENDBRANCH  53  67
BRANCH  54  78
ATOM     78  C   UNL A   1      40.623  33.392  37.337  1.00  0.00     0.023 A 
ATOM     79  C   UNL A   1      39.866  32.960  38.439  1.00  0.00     0.031 A 
ATOM     80  C   UNL A   1      41.276  34.634  37.434  1.00  0.00     0.131 A 
ATOM     81  C   UNL A   1      39.740  33.785  39.568  1.00  0.00     0.055 A 
ATOM     82  C   UNL A   1      41.197  35.423  38.583  1.00  0.00     0.041 A 
ATOM     83  F   UNL A   1      42.013  35.096  36.412  1.00  0.00    -0.206 F 
ATOM     84  C   UNL A   1      40.412  35.007  39.654  1.00  0.00     0.022 A 
BRANCH  81  85
ATOM     85  S   UNL A   1      38.604  33.280  40.890  1.00  0.00     0.124 S 
ATOM     86  O   UNL A   1      37.762  32.309  40.202  1.00  0.00    -0.237 OA
ATOM     87  O   UNL A   1      39.522  32.742  41.888  1.00  0.00    -0.237 OA
ATOM     88  O   UNL A   1      37.943  34.529  41.264  1.00  0.00    -0.744 OA
ENDBRANCH  81  85
ENDBRANCH  54  78
BRANCH  66  89
ATOM     89  C   UNL A   1      44.781  28.209  35.214  1.00  0.00     0.023 A 
ATOM     90  C   UNL A   1      44.660  27.062  36.019  1.00  0.00     0.031 A 
ATOM     91  C   UNL A   1      46.066  28.745  35.016  1.00  0.00     0.131 A 
ATOM     92  C   UNL A   1      45.797  26.522  36.641  1.00  0.00     0.055 A 
ATOM     93  C   UNL A   1      47.201  28.164  35.585  1.00  0.00     0.041 A 
ATOM     94  F   UNL A   1      46.242  29.842  34.262  1.00  0.00    -0.206 F 
ATOM     95  C   UNL A   1      47.068  27.054  36.413  1.00  0.00     0.022 A 
BRANCH  92  96
ATOM     96  S   UNL A   1      45.578  25.173  37.833  1.00  0.00     0.124 S 
ATOM     97  O   UNL A   1      44.457  24.438  37.257  1.00  0.00    -0.237 OA
ATOM     98  O   UNL A   1      46.872  24.501  37.787  1.00  0.00    -0.237 OA
ATOM     99  O   UNL A   1      45.286  25.867  39.087  1.00  0.00    -0.744 OA
ENDBRANCH  92  96
ENDBRANCH  66  89
ENDBRANCH  40  41
ENDBRANCH  32  35
ENDBRANCH  30  31
ENDBRANCH  29  30
ENDBRANCH   1  29
TORSDOF 18
ENDMDL
MODEL 3
REMARK VINA RESULT:     -12.3      1.658      8.462
REMARK SMILES COc1ccc2c(CC(=O)NCCCCNC(=O)c3ccc(-c4c5nc(c(-c6cc(S(=O)(=O)[O-])ccc6F)c6ccc([nH]6)c(-c6cc(S(=O)(=O)[O-])ccc6F)c6nc(c(-c7cc(S(=O)(=O)[O-])ccc7F)c7ccc4[nH]7)C=C6)C=C5)cc3)c(C(=O)c3cc(C)ccn3)[nH]c2c1
REMARK SMILES IDX 13 1 12 2 11 3 9 4 10 5 8 7 7 8 3 9 4 10 94 11 5 12 93 13
REMARK SMILES IDX 6 14 92 15 82 16 2 18 1 19 83 20 84 21 85 22 86 23 91 24
REMARK SMILES IDX 87 25 90 26 88 27 89 28 14 29 15 30 16 31 17 32 18 34 19 35
REMARK SMILES IDX 20 36 81 37 21 38 80 39 22 40 23 41 24 42 74 43 25 44 79 45
REMARK SMILES IDX 73 46 75 47 26 48 78 49 72 50 71 51 27 53 59 54 39 55 58 56
REMARK SMILES IDX 40 57 43 58 57 59 76 60 41 61 42 62 56 64 77 65 44 66 28 67
REMARK SMILES IDX 29 68 37 69 30 70 36 71 38 72 35 73 31 74 32 75 33 76 34 77
REMARK SMILES IDX 60 78 61 79 69 80 62 81 68 82 70 83 67 84 63 85 64 86 65 87
REMARK SMILES IDX 66 88 45 89 46 90 54 91 47 92 53 93 55 94 52 95 48 96 49 97
REMARK SMILES IDX 50 98 51 99
REMARK H PARENT 11 6 92 17 16 33 75 52 43 63
REMARK Flexibility Score: inf
ROOT
ATOM      1  C   UNL A   1      33.327  28.873  24.971  1.00  0.00     0.023 C 
ENDROOT
BRANCH   1   2
ATOM      2  C   UNL A   1      33.755  27.810  25.980  1.00  0.00     0.116 C 
BRANCH   2   3
ATOM      3  N   UNL A   1      32.684  26.895  26.313  1.00  0.00    -0.356 N 
ATOM      4  C   UNL A   1      32.580  25.554  26.072  1.00  0.00     0.224 C 
ATOM      5  O   UNL A   1      31.670  24.950  26.649  1.00  0.00    -0.275 OA
ATOM      6  H   UNL A   1      31.919  27.298  26.783  1.00  0.00     0.163 HD
BRANCH   4   7
ATOM      7  C   UNL A   1      33.623  24.812  25.244  1.00  0.00     0.138 C 
BRANCH   7   8
ATOM      8  C   UNL A   1      33.068  23.830  24.244  1.00  0.00    -0.002 A 
ATOM      9  C   UNL A   1      32.558  19.643  24.193  1.00  0.00     0.120 A 
ATOM     10  C   UNL A   1      33.028  20.172  25.392  1.00  0.00     0.047 A 
ATOM     11  C   UNL A   1      32.305  20.478  23.098  1.00  0.00     0.073 A 
ATOM     12  C   UNL A   1      33.217  21.552  25.535  1.00  0.00     0.014 A 
ATOM     13  C   UNL A   1      32.491  21.856  23.262  1.00  0.00     0.050 A 
ATOM     14  C   UNL A   1      32.942  22.415  24.453  1.00  0.00     0.004 A 
ATOM     15  N   UNL A   1      32.316  22.890  22.375  1.00  0.00    -0.351 N 
ATOM     16  C   UNL A   1      32.557  24.109  22.976  1.00  0.00     0.093 A 
ATOM     17  H   UNL A   1      32.052  22.777  21.433  1.00  0.00     0.167 HD
BRANCH   9  18
ATOM     18  O   UNL A   1      32.356  18.306  23.968  1.00  0.00    -0.497 OA
ATOM     19  C   UNL A   1      33.534  17.508  24.040  1.00  0.00     0.278 C 
ENDBRANCH   9  18
BRANCH  16  20
ATOM     20  C   UNL A   1      32.341  25.417  22.364  1.00  0.00     0.227 C 
ATOM     21  O   UNL A   1      33.118  25.917  21.556  1.00  0.00    -0.285 OA
BRANCH  20  22
ATOM     22  C   UNL A   1      31.179  26.242  22.791  1.00  0.00     0.113 A 
ATOM     23  C   UNL A   1      31.083  27.565  22.371  1.00  0.00     0.036 A 
ATOM     24  N   UNL A   1      30.240  25.617  23.542  1.00  0.00    -0.253 NA
ATOM     25  C   UNL A   1      29.954  28.298  22.743  1.00  0.00    -0.047 A 
ATOM     26  C   UNL A   1      29.149  26.337  23.867  1.00  0.00     0.112 A 
ATOM     27  C   UNL A   1      29.784  29.727  22.326  1.00  0.00     0.044 C 
ATOM     28  C   UNL A   1      28.965  27.662  23.499  1.00  0.00     0.023 A 
ENDBRANCH  20  22
ENDBRANCH  16  20
ENDBRANCH   7   8
ENDBRANCH   4   7
ENDBRANCH   2   3
ENDBRANCH   1   2
BRANCH   1  29
ATOM     29  C   UNL A   1      32.105  29.692  25.391  1.00  0.00     0.023 C 
BRANCH  29  30
ATOM     30  C   UNL A   1      32.124  30.205  26.827  1.00  0.00     0.116 C 
BRANCH  30  31
ATOM     31  N   UNL A   1      32.158  31.658  26.912  1.00  0.00    -0.352 N 
ATOM     32  C   UNL A   1      33.135  32.467  27.443  1.00  0.00     0.251 C 
ATOM     33  H   UNL A   1      31.375  32.125  26.539  1.00  0.00     0.163 HD
ATOM     34  O   UNL A   1      32.943  33.675  27.548  1.00  0.00    -0.269 OA
BRANCH  32  35
ATOM     35  C   UNL A   1      34.396  31.864  27.924  1.00  0.00     0.039 A 
ATOM     36  C   UNL A   1      35.513  32.683  28.100  1.00  0.00     0.014 A 
ATOM     37  C   UNL A   1      34.458  30.506  28.251  1.00  0.00     0.014 A 
ATOM     38  C   UNL A   1      36.667  32.159  28.687  1.00  0.00     0.010 A 
ATOM     39  C   UNL A   1      35.582  30.005  28.902  1.00  0.00     0.010 A 
ATOM     40  C   UNL A   1      36.693  30.829  29.140  1.00  0.00    -0.014 A 
BRANCH  40  41
ATOM     41  C   UNL A   1      37.859  30.293  29.891  1.00  0.00     0.031 A 
ATOM     42  C   UNL A   1      38.123  30.744  31.301  1.00  0.00     0.074 A 
ATOM     43  C   UNL A   1      38.719  29.455  29.276  1.00  0.00     0.049 A 
ATOM     44  N   UNL A   1      39.131  30.459  32.086  1.00  0.00    -0.248 NA
ATOM     45  C   UNL A   1      37.134  31.655  31.896  1.00  0.00     0.031 C 
ATOM     46  C   UNL A   1      38.588  28.972  27.899  1.00  0.00     0.029 A 
ATOM     47  N   UNL A   1      39.877  28.866  29.722  1.00  0.00    -0.354 N 
ATOM     48  C   UNL A   1      38.903  31.161  33.264  1.00  0.00     0.074 A 
ATOM     49  C   UNL A   1      37.694  31.932  33.065  1.00  0.00     0.031 C 
ATOM     50  C   UNL A   1      39.610  28.147  27.622  1.00  0.00     0.029 A 
ATOM     51  C   UNL A   1      40.500  28.083  28.777  1.00  0.00     0.049 A 
ATOM     52  H   UNL A   1      40.229  28.995  30.632  1.00  0.00     0.167 HD
ATOM     53  C   UNL A   1      39.626  31.148  34.412  1.00  0.00     0.034 A 
ATOM     54  C   UNL A   1      41.665  27.407  28.827  1.00  0.00     0.034 A 
ATOM     55  C   UNL A   1      40.830  30.374  34.593  1.00  0.00     0.049 A 
ATOM     56  C   UNL A   1      42.480  27.453  30.095  1.00  0.00     0.074 A 
ATOM     57  C   UNL A   1      41.609  30.245  35.731  1.00  0.00     0.029 A 
ATOM     58  N   UNL A   1      41.443  29.608  33.607  1.00  0.00    -0.354 N 
ATOM     59  N   UNL A   1      42.222  28.078  31.221  1.00  0.00    -0.248 NA
ATOM     60  C   UNL A   1      43.739  26.698  30.100  1.00  0.00     0.031 C 
ATOM     61  C   UNL A   1      42.730  29.472  35.412  1.00  0.00     0.029 A 
ATOM     62  C   UNL A   1      42.610  29.043  34.100  1.00  0.00     0.049 A 
ATOM     63  H   UNL A   1      41.099  29.486  32.694  1.00  0.00     0.167 HD
ATOM     64  C   UNL A   1      43.276  27.769  32.077  1.00  0.00     0.074 A 
ATOM     65  C   UNL A   1      44.159  26.886  31.344  1.00  0.00     0.031 C 
ATOM     66  C   UNL A   1      43.494  28.177  33.353  1.00  0.00     0.034 A 
BRANCH  53  67
ATOM     67  C   UNL A   1      39.145  32.021  35.547  1.00  0.00     0.023 A 
ATOM     68  C   UNL A   1      39.565  33.356  35.681  1.00  0.00     0.031 A 
ATOM     69  C   UNL A   1      38.268  31.508  36.520  1.00  0.00     0.131 A 
ATOM     70  C   UNL A   1      39.171  34.106  36.801  1.00  0.00     0.055 A 
ATOM     71  C   UNL A   1      37.812  32.286  37.585  1.00  0.00     0.041 A 
ATOM     72  F   UNL A   1      37.849  30.234  36.458  1.00  0.00    -0.206 F 
ATOM     73  C   UNL A   1      38.276  33.590  37.739  1.00  0.00     0.022 A 
BRANCH  70  74
ATOM     74  S   UNL A   1      39.963  35.713  37.087  1.00  0.00     0.124 S 
ATOM     75  O   UNL A   1      39.272  36.171  38.290  1.00  0.00    -0.237 OA
ATOM     76  O   UNL A   1      41.365  35.350  37.253  1.00  0.00    -0.237 OA
ATOM     77  O   UNL A   1      39.652  36.468  35.875  1.00  0.00    -0.744 OA
ENDBRANCH  70  74
ENDBRANCH  53  67
BRANCH  54  78
ATOM     78  C   UNL A   1      42.154  26.650  27.636  1.00  0.00     0.023 A 
ATOM     79  C   UNL A   1      41.896  25.277  27.495  1.00  0.00     0.031 A 
ATOM     80  C   UNL A   1      42.931  27.279  26.647  1.00  0.00     0.131 A 
ATOM     81  C   UNL A   1      42.451  24.568  26.418  1.00  0.00     0.055 A 
ATOM     82  C   UNL A   1      43.431  26.581  25.546  1.00  0.00     0.041 A 
ATOM     83  F   UNL A   1      43.209  28.589  26.731  1.00  0.00    -0.206 F 
ATOM     84  C   UNL A   1      43.204  25.213  25.434  1.00  0.00     0.022 A 
BRANCH  81  85
ATOM     85  S   UNL A   1      42.254  22.765  26.372  1.00  0.00     0.124 S 
ATOM     86  O   UNL A   1      40.836  22.613  26.675  1.00  0.00    -0.237 OA
ATOM     87  O   UNL A   1      42.656  22.451  25.005  1.00  0.00    -0.237 OA
ATOM     88  O   UNL A   1      43.169  22.296  27.411  1.00  0.00    -0.744 OA
ENDBRANCH  81  85
ENDBRANCH  54  78
BRANCH  66  89
ATOM     89  C   UNL A   1      44.723  27.638  34.047  1.00  0.00     0.023 A 
ATOM     90  C   UNL A   1      44.678  26.468  34.827  1.00  0.00     0.031 A 
ATOM     91  C   UNL A   1      45.952  28.310  33.935  1.00  0.00     0.131 A 
ATOM     92  C   UNL A   1      45.828  26.039  35.509  1.00  0.00     0.055 A 
ATOM     93  C   UNL A   1      47.108  27.841  34.562  1.00  0.00     0.041 A 
ATOM     94  F   UNL A   1      46.054  29.435  33.208  1.00  0.00    -0.206 F 
ATOM     95  C   UNL A   1      47.046  26.706  35.365  1.00  0.00     0.022 A 
BRANCH  92  96
ATOM     96  S   UNL A   1      45.685  24.650  36.666  1.00  0.00     0.124 S 
ATOM     97  O   UNL A   1      44.305  24.775  37.122  1.00  0.00    -0.237 OA
ATOM     98  O   UNL A   1      45.973  23.501  35.814  1.00  0.00    -0.237 OA
ATOM     99  O   UNL A   1      46.701  24.940  37.677  1.00  0.00    -0.744 OA
ENDBRANCH  92  96
ENDBRANCH  66  89
ENDBRANCH  40  41
ENDBRANCH  32  35
ENDBRANCH  30  31
ENDBRANCH  29  30
ENDBRANCH   1  29
TORSDOF 18
ENDMDL
