MODEL 1
REMARK VINA RESULT:     -12.4      0.000      0.000
REMARK SMILES Cc1ccc(C(=O)NCCCCNC(=O)c2ccc(-c3c4nc(c(-c5cc(S(=O)(=O)[O-])ccc5F)c5ccc([nH]5)c(-c5cc(S(=O)(=O)[O-])ccc5F)c5nc(c(-c6cc(S(=O)(=O)[O-])ccc6F)c6ccc3[nH]6)C=C5)C=C4)cc2)cc1S(=O)(=O)N(C)[C@H]1CCSC1
REMARK SMILES IDX 10 1 9 2 8 3 6 4 7 5 5 7 1 8 2 9 3 10 80 11 4 12 79 13 81 14
REMARK SMILES IDX 82 15 83 16 84 17 85 18 86 19 87 20 90 21 88 22 89 23 11 24
REMARK SMILES IDX 12 25 13 26 14 27 15 29 16 30 17 31 78 32 18 33 77 34 19 35
REMARK SMILES IDX 20 36 21 37 71 38 22 39 76 40 70 41 72 42 23 43 75 44 69 45
REMARK SMILES IDX 68 46 24 48 56 49 36 50 55 51 37 52 40 53 54 54 73 55 38 56
REMARK SMILES IDX 39 57 53 59 74 60 41 61 25 62 26 63 34 64 27 65 33 66 35 67
REMARK SMILES IDX 32 68 28 69 29 70 30 71 31 72 57 73 58 74 66 75 59 76 65 77
REMARK SMILES IDX 67 78 64 79 60 80 61 81 62 82 63 83 42 84 43 85 51 86 44 87
REMARK SMILES IDX 50 88 52 89 49 90 45 91 46 92 47 93 48 94
REMARK H PARENT 8 6 13 28 72 47 40 58
REMARK Flexibility Score: inf
ROOT
ATOM      1  C   UNL A   1      37.082  21.868  24.555  1.00  0.00     0.023 C 
ENDROOT
BRANCH   1   2
ATOM      2  C   UNL A   1      35.802  21.015  24.656  1.00  0.00     0.116 C 
BRANCH   2   3
ATOM      3  N   UNL A   1      35.270  21.005  26.014  1.00  0.00    -0.352 N 
ATOM      4  C   UNL A   1      34.581  21.920  26.765  1.00  0.00     0.251 C 
ATOM      5  O   UNL A   1      34.253  21.579  27.905  1.00  0.00    -0.269 OA
ATOM      6  H   UNL A   1      35.443  20.162  26.493  1.00  0.00     0.163 HD
BRANCH   4   7
ATOM      7  C   UNL A   1      34.193  23.283  26.296  1.00  0.00     0.041 A 
ATOM      8  C   UNL A   1      33.509  27.306  24.797  1.00  0.00     0.046 C 
ATOM      9  C   UNL A   1      33.619  25.932  25.378  1.00  0.00    -0.031 A 
ATOM     10  C   UNL A   1      34.940  25.448  25.481  1.00  0.00     0.005 A 
ATOM     11  C   UNL A   1      32.585  25.060  25.745  1.00  0.00     0.086 A 
ATOM     12  C   UNL A   1      35.221  24.161  25.943  1.00  0.00     0.014 A 
ATOM     13  C   UNL A   1      32.889  23.743  26.155  1.00  0.00     0.035 A 
BRANCH  11  14
ATOM     14  S   UNL A   1      30.821  25.381  25.785  1.00  0.00     0.243 S 
ATOM     15  O   UNL A   1      30.207  24.133  26.161  1.00  0.00    -0.207 OA
ATOM     16  O   UNL A   1      30.662  26.588  26.578  1.00  0.00    -0.207 OA
BRANCH  14  17
ATOM     17  N   UNL A   1      30.342  25.779  24.222  1.00  0.00    -0.197 NA
ATOM     18  C   UNL A   1      30.314  24.685  23.251  1.00  0.00     0.125 C 
BRANCH  17  19
ATOM     19  C   UNL A   1      29.658  27.073  23.997  1.00  0.00     0.083 C 
ATOM     20  C   UNL A   1      30.182  27.832  22.779  1.00  0.00     0.032 C 
ATOM     21  C   UNL A   1      28.145  26.972  23.804  1.00  0.00     0.089 C 
ATOM     22  C   UNL A   1      29.383  29.122  22.750  1.00  0.00     0.071 C 
ATOM     23  S   UNL A   1      27.680  28.570  23.031  1.00  0.00    -0.160 SA
ENDBRANCH  17  19
ENDBRANCH  14  17
ENDBRANCH  11  14
ENDBRANCH   4   7
ENDBRANCH   2   3
ENDBRANCH   1   2
BRANCH   1  24
ATOM     24  C   UNL A   1      38.043  21.728  25.739  1.00  0.00     0.023 C 
BRANCH  24  25
ATOM     25  C   UNL A   1      38.585  23.052  26.243  1.00  0.00     0.116 C 
BRANCH  25  26
ATOM     26  N   UNL A   1      39.659  22.994  27.217  1.00  0.00    -0.352 N 
ATOM     27  C   UNL A   1      40.408  24.039  27.743  1.00  0.00     0.251 C 
ATOM     28  H   UNL A   1      39.889  22.096  27.548  1.00  0.00     0.163 HD
ATOM     29  O   UNL A   1      41.486  23.822  28.290  1.00  0.00    -0.269 OA
BRANCH  27  30
ATOM     30  C   UNL A   1      39.821  25.409  27.822  1.00  0.00     0.039 A 
ATOM     31  C   UNL A   1      40.259  26.342  26.867  1.00  0.00     0.014 A 
ATOM     32  C   UNL A   1      39.215  25.856  28.983  1.00  0.00     0.014 A 
ATOM     33  C   UNL A   1      40.387  27.675  27.229  1.00  0.00     0.010 A 
ATOM     34  C   UNL A   1      39.551  27.102  29.431  1.00  0.00     0.010 A 
ATOM     35  C   UNL A   1      40.182  27.989  28.562  1.00  0.00    -0.014 A 
BRANCH  35  36
ATOM     36  C   UNL A   1      40.421  29.274  29.171  1.00  0.00     0.031 A 
ATOM     37  C   UNL A   1      39.338  30.255  29.015  1.00  0.00     0.074 A 
ATOM     38  C   UNL A   1      41.433  29.355  30.061  1.00  0.00     0.049 A 
ATOM     39  N   UNL A   1      39.404  31.480  29.373  1.00  0.00    -0.248 NA
ATOM     40  C   UNL A   1      38.056  29.919  28.380  1.00  0.00     0.031 C 
ATOM     41  C   UNL A   1      41.657  30.334  31.116  1.00  0.00     0.029 A 
ATOM     42  N   UNL A   1      42.638  28.656  29.986  1.00  0.00    -0.354 N 
ATOM     43  C   UNL A   1      38.119  31.976  29.358  1.00  0.00     0.074 A 
ATOM     44  C   UNL A   1      37.355  31.033  28.593  1.00  0.00     0.031 C 
ATOM     45  C   UNL A   1      42.976  30.390  31.381  1.00  0.00     0.029 A 
ATOM     46  C   UNL A   1      43.640  29.563  30.386  1.00  0.00     0.049 A 
ATOM     47  H   UNL A   1      42.763  27.719  29.710  1.00  0.00     0.167 HD
ATOM     48  C   UNL A   1      37.851  33.038  30.160  1.00  0.00     0.034 A 
ATOM     49  C   UNL A   1      44.518  30.031  29.444  1.00  0.00     0.034 A 
ATOM     50  C   UNL A   1      39.109  33.596  30.658  1.00  0.00     0.049 A 
ATOM     51  C   UNL A   1      44.331  31.516  29.211  1.00  0.00     0.074 A 
ATOM     52  C   UNL A   1      39.782  33.471  31.861  1.00  0.00     0.029 A 
ATOM     53  N   UNL A   1      40.036  34.065  29.732  1.00  0.00    -0.354 N 
ATOM     54  N   UNL A   1      43.205  32.158  29.392  1.00  0.00    -0.248 NA
ATOM     55  C   UNL A   1      45.434  32.403  28.858  1.00  0.00     0.031 C 
ATOM     56  C   UNL A   1      41.161  33.725  31.603  1.00  0.00     0.029 A 
ATOM     57  C   UNL A   1      41.309  34.052  30.263  1.00  0.00     0.049 A 
ATOM     58  H   UNL A   1      39.812  34.366  28.821  1.00  0.00     0.167 HD
ATOM     59  C   UNL A   1      43.419  33.506  29.249  1.00  0.00     0.074 A 
ATOM     60  C   UNL A   1      44.831  33.603  28.909  1.00  0.00     0.031 C 
ATOM     61  C   UNL A   1      42.447  34.450  29.447  1.00  0.00     0.034 A 
BRANCH  48  62
ATOM     62  C   UNL A   1      36.497  33.442  30.697  1.00  0.00     0.023 A 
ATOM     63  C   UNL A   1      35.605  34.068  29.802  1.00  0.00     0.031 A 
ATOM     64  C   UNL A   1      36.055  33.379  32.037  1.00  0.00     0.131 A 
ATOM     65  C   UNL A   1      34.381  34.610  30.236  1.00  0.00     0.055 A 
ATOM     66  C   UNL A   1      34.818  33.883  32.462  1.00  0.00     0.041 A 
ATOM     67  F   UNL A   1      36.798  32.874  33.025  1.00  0.00    -0.206 F 
ATOM     68  C   UNL A   1      33.975  34.510  31.562  1.00  0.00     0.022 A 
BRANCH  65  69
ATOM     69  S   UNL A   1      33.349  35.497  29.042  1.00  0.00     0.124 S 
ATOM     70  O   UNL A   1      34.347  36.134  28.188  1.00  0.00    -0.237 OA
ATOM     71  O   UNL A   1      32.573  34.420  28.441  1.00  0.00    -0.237 OA
ATOM     72  O   UNL A   1      32.579  36.418  29.880  1.00  0.00    -0.744 OA
ENDBRANCH  65  69
ENDBRANCH  48  62
BRANCH  49  73
ATOM     73  C   UNL A   1      44.832  28.980  28.415  1.00  0.00     0.023 A 
ATOM     74  C   UNL A   1      45.566  27.868  28.889  1.00  0.00     0.031 A 
ATOM     75  C   UNL A   1      44.029  28.792  27.282  1.00  0.00     0.131 A 
ATOM     76  C   UNL A   1      45.253  26.577  28.431  1.00  0.00     0.055 A 
ATOM     77  C   UNL A   1      43.828  27.510  26.742  1.00  0.00     0.041 A 
ATOM     78  F   UNL A   1      43.307  29.803  26.777  1.00  0.00    -0.206 F 
ATOM     79  C   UNL A   1      44.379  26.387  27.364  1.00  0.00     0.022 A 
BRANCH  76  80
ATOM     80  S   UNL A   1      45.733  25.178  29.494  1.00  0.00     0.124 S 
ATOM     81  O   UNL A   1      44.537  24.996  30.311  1.00  0.00    -0.237 OA
ATOM     82  O   UNL A   1      46.005  24.135  28.505  1.00  0.00    -0.237 OA
ATOM     83  O   UNL A   1      46.913  25.659  30.208  1.00  0.00    -0.744 OA
ENDBRANCH  76  80
ENDBRANCH  49  73
BRANCH  61  84
ATOM     84  C   UNL A   1      42.526  35.881  28.956  1.00  0.00     0.023 A 
ATOM     85  C   UNL A   1      43.322  36.847  29.580  1.00  0.00     0.031 A 
ATOM     86  C   UNL A   1      41.871  36.306  27.773  1.00  0.00     0.131 A 
ATOM     87  C   UNL A   1      43.343  38.175  29.132  1.00  0.00     0.055 A 
ATOM     88  C   UNL A   1      41.991  37.599  27.256  1.00  0.00     0.041 A 
ATOM     89  F   UNL A   1      41.096  35.483  27.051  1.00  0.00    -0.206 F 
ATOM     90  C   UNL A   1      42.708  38.555  27.954  1.00  0.00     0.022 A 
BRANCH  87  91
ATOM     91  S   UNL A   1      44.127  39.406  30.200  1.00  0.00     0.124 S 
ATOM     92  O   UNL A   1      44.829  40.239  29.226  1.00  0.00    -0.237 OA
ATOM     93  O   UNL A   1      42.983  40.030  30.856  1.00  0.00    -0.237 OA
ATOM     94  O   UNL A   1      44.988  38.608  31.071  1.00  0.00    -0.744 OA
ENDBRANCH  87  91
ENDBRANCH  61  84
ENDBRANCH  35  36
ENDBRANCH  27  30
ENDBRANCH  25  26
ENDBRANCH  24  25
ENDBRANCH   1  24
TORSDOF 17
ENDMDL
MODEL 2
REMARK VINA RESULT:     -12.1      4.060      9.612
REMARK SMILES Cc1ccc(C(=O)NCCCCNC(=O)c2ccc(-c3c4nc(c(-c5cc(S(=O)(=O)[O-])ccc5F)c5ccc([nH]5)c(-c5cc(S(=O)(=O)[O-])ccc5F)c5nc(c(-c6cc(S(=O)(=O)[O-])ccc6F)c6ccc3[nH]6)C=C5)C=C4)cc2)cc1S(=O)(=O)N(C)[C@H]1CCSC1
REMARK SMILES IDX 10 1 9 2 8 3 6 4 7 5 5 7 1 8 2 9 3 10 80 11 4 12 79 13 81 14
REMARK SMILES IDX 82 15 83 16 84 17 85 18 86 19 87 20 90 21 88 22 89 23 11 24
REMARK SMILES IDX 12 25 13 26 14 27 15 29 16 30 17 31 78 32 18 33 77 34 19 35
REMARK SMILES IDX 20 36 21 37 71 38 22 39 76 40 70 41 72 42 23 43 75 44 69 45
REMARK SMILES IDX 68 46 24 48 56 49 36 50 55 51 37 52 40 53 54 54 73 55 38 56
REMARK SMILES IDX 39 57 53 59 74 60 41 61 25 62 26 63 34 64 27 65 33 66 35 67
REMARK SMILES IDX 32 68 28 69 29 70 30 71 31 72 57 73 58 74 66 75 59 76 65 77
REMARK SMILES IDX 67 78 64 79 60 80 61 81 62 82 63 83 42 84 43 85 51 86 44 87
REMARK SMILES IDX 50 88 52 89 49 90 45 91 46 92 47 93 48 94
REMARK H PARENT 8 6 13 28 72 47 40 58
REMARK Flexibility Score: inf
ROOT
ATOM      1  C   UNL A   1      35.319  29.347  27.301  1.00  0.00     0.023 C 
ENDROOT
BRANCH   1   2
ATOM      2  C   UNL A   1      34.056  28.928  26.525  1.00  0.00     0.116 C 
BRANCH   2   3
ATOM      3  N   UNL A   1      32.894  28.835  27.402  1.00  0.00    -0.352 N 
ATOM      4  C   UNL A   1      31.787  28.028  27.420  1.00  0.00     0.251 C 
ATOM      5  O   UNL A   1      30.979  28.203  28.338  1.00  0.00    -0.269 OA
ATOM      6  H   UNL A   1      32.908  29.492  28.136  1.00  0.00     0.163 HD
BRANCH   4   7
ATOM      7  C   UNL A   1      31.502  26.955  26.423  1.00  0.00     0.041 A 
ATOM      8  C   UNL A   1      30.653  24.168  23.197  1.00  0.00     0.046 C 
ATOM      9  C   UNL A   1      30.915  25.022  24.396  1.00  0.00    -0.031 A 
ATOM     10  C   UNL A   1      30.807  26.408  24.159  1.00  0.00     0.005 A 
ATOM     11  C   UNL A   1      31.325  24.619  25.675  1.00  0.00     0.086 A 
ATOM     12  C   UNL A   1      31.079  27.351  25.152  1.00  0.00     0.014 A 
ATOM     13  C   UNL A   1      31.650  25.591  26.647  1.00  0.00     0.035 A 
BRANCH  11  14
ATOM     14  S   UNL A   1      31.504  22.953  26.312  1.00  0.00     0.243 S 
ATOM     15  O   UNL A   1      32.104  23.096  27.613  1.00  0.00    -0.207 OA
ATOM     16  O   UNL A   1      30.208  22.323  26.126  1.00  0.00    -0.207 OA
BRANCH  14  17
ATOM     17  N   UNL A   1      32.573  22.136  25.301  1.00  0.00    -0.197 NA
ATOM     18  C   UNL A   1      33.890  22.746  25.117  1.00  0.00     0.125 C 
BRANCH  17  19
ATOM     19  C   UNL A   1      32.283  20.726  24.953  1.00  0.00     0.083 C 
ATOM     20  C   UNL A   1      32.538  20.401  23.481  1.00  0.00     0.032 C 
ATOM     21  C   UNL A   1      33.078  19.692  25.750  1.00  0.00     0.089 C 
ATOM     22  C   UNL A   1      32.153  18.941  23.332  1.00  0.00     0.071 C 
ATOM     23  S   UNL A   1      32.930  18.151  24.766  1.00  0.00    -0.160 SA
ENDBRANCH  17  19
ENDBRANCH  14  17
ENDBRANCH  11  14
ENDBRANCH   4   7
ENDBRANCH   2   3
ENDBRANCH   1   2
BRANCH   1  24
ATOM     24  C   UNL A   1      35.110  30.486  28.302  1.00  0.00     0.023 C 
BRANCH  24  25
ATOM     25  C   UNL A   1      35.220  31.867  27.685  1.00  0.00     0.116 C 
BRANCH  25  26
ATOM     26  N   UNL A   1      34.417  32.919  28.282  1.00  0.00    -0.352 N 
ATOM     27  C   UNL A   1      34.579  33.538  29.514  1.00  0.00     0.251 C 
ATOM     28  H   UNL A   1      33.657  33.236  27.741  1.00  0.00     0.163 HD
ATOM     29  O   UNL A   1      33.651  34.159  30.028  1.00  0.00    -0.269 OA
BRANCH  27  30
ATOM     30  C   UNL A   1      35.933  33.619  30.135  1.00  0.00     0.039 A 
ATOM     31  C   UNL A   1      36.996  33.983  29.290  1.00  0.00     0.014 A 
ATOM     32  C   UNL A   1      36.203  32.985  31.336  1.00  0.00     0.014 A 
ATOM     33  C   UNL A   1      38.249  33.423  29.496  1.00  0.00     0.010 A 
ATOM     34  C   UNL A   1      37.351  32.249  31.417  1.00  0.00     0.010 A 
ATOM     35  C   UNL A   1      38.349  32.438  30.464  1.00  0.00    -0.014 A 
BRANCH  35  36
ATOM     36  C   UNL A   1      39.511  31.625  30.721  1.00  0.00     0.031 A 
ATOM     37  C   UNL A   1      39.420  30.232  30.261  1.00  0.00     0.074 A 
ATOM     38  C   UNL A   1      40.650  32.268  31.059  1.00  0.00     0.049 A 
ATOM     39  N   UNL A   1      40.287  29.324  30.501  1.00  0.00    -0.248 NA
ATOM     40  C   UNL A   1      38.271  29.730  29.496  1.00  0.00     0.031 C 
ATOM     41  C   UNL A   1      42.029  31.810  30.970  1.00  0.00     0.029 A 
ATOM     42  N   UNL A   1      40.727  33.431  31.826  1.00  0.00    -0.354 N 
ATOM     43  C   UNL A   1      40.015  28.271  29.656  1.00  0.00     0.074 A 
ATOM     44  C   UNL A   1      38.682  28.501  29.178  1.00  0.00     0.031 C 
ATOM     45  C   UNL A   1      42.766  32.478  31.877  1.00  0.00     0.029 A 
ATOM     46  C   UNL A   1      41.839  33.263  32.677  1.00  0.00     0.049 A 
ATOM     47  H   UNL A   1      40.128  34.212  31.782  1.00  0.00     0.167 HD
ATOM     48  C   UNL A   1      41.042  27.440  29.344  1.00  0.00     0.034 A 
ATOM     49  C   UNL A   1      41.619  33.081  34.018  1.00  0.00     0.034 A 
ATOM     50  C   UNL A   1      42.171  27.713  30.234  1.00  0.00     0.049 A 
ATOM     51  C   UNL A   1      42.031  31.692  34.458  1.00  0.00     0.074 A 
ATOM     52  C   UNL A   1      43.341  28.434  30.075  1.00  0.00     0.029 A 
ATOM     53  N   UNL A   1      41.983  27.559  31.605  1.00  0.00    -0.354 N 
ATOM     54  N   UNL A   1      42.043  30.641  33.678  1.00  0.00    -0.248 NA
ATOM     55  C   UNL A   1      42.563  31.412  35.787  1.00  0.00     0.031 C 
ATOM     56  C   UNL A   1      43.767  28.843  31.373  1.00  0.00     0.029 A 
ATOM     57  C   UNL A   1      42.887  28.326  32.311  1.00  0.00     0.049 A 
ATOM     58  H   UNL A   1      41.298  26.982  32.014  1.00  0.00     0.167 HD
ATOM     59  C   UNL A   1      42.617  29.586  34.341  1.00  0.00     0.074 A 
ATOM     60  C   UNL A   1      42.918  30.122  35.660  1.00  0.00     0.031 C 
ATOM     61  C   UNL A   1      42.836  28.362  33.766  1.00  0.00     0.034 A 
BRANCH  48  62
ATOM     62  C   UNL A   1      41.147  26.560  28.120  1.00  0.00     0.023 A 
ATOM     63  C   UNL A   1      41.646  25.253  28.302  1.00  0.00     0.031 A 
ATOM     64  C   UNL A   1      40.920  26.932  26.777  1.00  0.00     0.131 A 
ATOM     65  C   UNL A   1      41.919  24.407  27.211  1.00  0.00     0.055 A 
ATOM     66  C   UNL A   1      41.154  26.075  25.693  1.00  0.00     0.041 A 
ATOM     67  F   UNL A   1      40.506  28.150  26.420  1.00  0.00    -0.206 F 
ATOM     68  C   UNL A   1      41.663  24.806  25.904  1.00  0.00     0.022 A 
BRANCH  65  69
ATOM     69  S   UNL A   1      42.665  22.788  27.529  1.00  0.00     0.124 S 
ATOM     70  O   UNL A   1      41.985  22.373  28.752  1.00  0.00    -0.237 OA
ATOM     71  O   UNL A   1      42.332  22.050  26.317  1.00  0.00    -0.237 OA
ATOM     72  O   UNL A   1      44.086  23.099  27.690  1.00  0.00    -0.744 OA
ENDBRANCH  65  69
ENDBRANCH  48  62
BRANCH  49  73
ATOM     73  C   UNL A   1      40.432  33.873  34.491  1.00  0.00     0.023 A 
ATOM     74  C   UNL A   1      39.384  33.112  35.063  1.00  0.00     0.031 A 
ATOM     75  C   UNL A   1      40.545  35.215  34.880  1.00  0.00     0.131 A 
ATOM     76  C   UNL A   1      38.702  33.598  36.191  1.00  0.00     0.055 A 
ATOM     77  C   UNL A   1      39.759  35.736  35.921  1.00  0.00     0.041 A 
ATOM     78  F   UNL A   1      41.512  35.995  34.377  1.00  0.00    -0.206 F 
ATOM     79  C   UNL A   1      38.889  34.906  36.633  1.00  0.00     0.022 A 
BRANCH  76  80
ATOM     80  S   UNL A   1      37.865  32.375  37.248  1.00  0.00     0.124 S 
ATOM     81  O   UNL A   1      36.607  33.051  37.552  1.00  0.00    -0.237 OA
ATOM     82  O   UNL A   1      37.777  31.221  36.353  1.00  0.00    -0.237 OA
ATOM     83  O   UNL A   1      38.771  32.197  38.379  1.00  0.00    -0.744 OA
ENDBRANCH  76  80
ENDBRANCH  49  73
BRANCH  61  84
ATOM     84  C   UNL A   1      43.116  27.088  34.537  1.00  0.00     0.023 A 
ATOM     85  C   UNL A   1      44.406  26.711  34.924  1.00  0.00     0.031 A 
ATOM     86  C   UNL A   1      42.072  26.247  34.998  1.00  0.00     0.131 A 
ATOM     87  C   UNL A   1      44.641  25.505  35.599  1.00  0.00     0.055 A 
ATOM     88  C   UNL A   1      42.299  25.109  35.777  1.00  0.00     0.041 A 
ATOM     89  F   UNL A   1      40.782  26.496  34.729  1.00  0.00    -0.206 F 
ATOM     90  C   UNL A   1      43.595  24.712  36.058  1.00  0.00     0.022 A 
BRANCH  87  91
ATOM     91  S   UNL A   1      46.356  24.953  35.749  1.00  0.00     0.124 S 
ATOM     92  O   UNL A   1      47.020  25.770  34.734  1.00  0.00    -0.237 OA
ATOM     93  O   UNL A   1      46.675  25.285  37.133  1.00  0.00    -0.237 OA
ATOM     94  O   UNL A   1      46.286  23.525  35.449  1.00  0.00    -0.744 OA
ENDBRANCH  87  91
ENDBRANCH  61  84
ENDBRANCH  35  36
ENDBRANCH  27  30
ENDBRANCH  25  26
ENDBRANCH  24  25
ENDBRANCH   1  24
TORSDOF 17
ENDMDL
MODEL 3
REMARK VINA RESULT:     -12.1      2.456      2.890
REMARK SMILES Cc1ccc(C(=O)NCCCCNC(=O)c2ccc(-c3c4nc(c(-c5cc(S(=O)(=O)[O-])ccc5F)c5ccc([nH]5)c(-c5cc(S(=O)(=O)[O-])ccc5F)c5nc(c(-c6cc(S(=O)(=O)[O-])ccc6F)c6ccc3[nH]6)C=C5)C=C4)cc2)cc1S(=O)(=O)N(C)[C@H]1CCSC1
REMARK SMILES IDX 10 1 9 2 8 3 6 4 7 5 5 7 1 8 2 9 3 10 80 11 4 12 79 13 81 14
REMARK SMILES IDX 82 15 83 16 84 17 85 18 86 19 87 20 90 21 88 22 89 23 11 24
REMARK SMILES IDX 12 25 13 26 14 27 15 29 16 30 17 31 78 32 18 33 77 34 19 35
REMARK SMILES IDX 20 36 21 37 71 38 22 39 76 40 70 41 72 42 23 43 75 44 69 45
REMARK SMILES IDX 68 46 24 48 56 49 36 50 55 51 37 52 40 53 54 54 73 55 38 56
REMARK SMILES IDX 39 57 53 59 74 60 41 61 25 62 26 63 34 64 27 65 33 66 35 67
REMARK SMILES IDX 32 68 28 69 29 70 30 71 31 72 57 73 58 74 66 75 59 76 65 77
REMARK SMILES IDX 67 78 64 79 60 80 61 81 62 82 63 83 42 84 43 85 51 86 44 87
REMARK SMILES IDX 50 88 52 89 49 90 45 91 46 92 47 93 48 94
REMARK H PARENT 8 6 13 28 72 47 40 58
REMARK Flexibility Score: inf
ROOT
ATOM      1  C   UNL A   1      35.900  21.349  26.016  1.00  0.00     0.023 C 
ENDROOT
BRANCH   1   2
ATOM      2  C   UNL A   1      34.667  21.501  26.928  1.00  0.00     0.116 C 
BRANCH   2   3
ATOM      3  N   UNL A   1      33.513  20.789  26.391  1.00  0.00    -0.352 N 
ATOM      4  C   UNL A   1      32.661  21.023  25.344  1.00  0.00     0.251 C 
ATOM      5  O   UNL A   1      31.774  20.188  25.144  1.00  0.00    -0.269 OA
ATOM      6  H   UNL A   1      33.300  19.965  26.888  1.00  0.00     0.163 HD
BRANCH   4   7
ATOM      7  C   UNL A   1      32.743  22.200  24.430  1.00  0.00     0.041 A 
ATOM      8  C   UNL A   1      32.853  25.339  21.425  1.00  0.00     0.046 C 
ATOM      9  C   UNL A   1      32.885  24.347  22.544  1.00  0.00    -0.031 A 
ATOM     10  C   UNL A   1      32.737  23.006  22.136  1.00  0.00     0.005 A 
ATOM     11  C   UNL A   1      32.963  24.596  23.921  1.00  0.00     0.086 A 
ATOM     12  C   UNL A   1      32.682  21.955  23.056  1.00  0.00     0.014 A 
ATOM     13  C   UNL A   1      32.848  23.525  24.836  1.00  0.00     0.035 A 
BRANCH  11  14
ATOM     14  S   UNL A   1      33.209  26.163  24.757  1.00  0.00     0.243 S 
ATOM     15  O   UNL A   1      33.847  25.842  26.008  1.00  0.00    -0.207 OA
ATOM     16  O   UNL A   1      33.832  27.034  23.775  1.00  0.00    -0.207 OA
BRANCH  14  17
ATOM     17  N   UNL A   1      31.690  26.816  25.068  1.00  0.00    -0.197 NA
ATOM     18  C   UNL A   1      31.249  26.804  26.463  1.00  0.00     0.125 C 
BRANCH  17  19
ATOM     19  C   UNL A   1      31.054  27.659  24.030  1.00  0.00     0.083 C 
ATOM     20  C   UNL A   1      29.566  27.368  23.841  1.00  0.00     0.032 C 
ATOM     21  C   UNL A   1      31.154  29.165  24.277  1.00  0.00     0.089 C 
ATOM     22  C   UNL A   1      29.125  28.301  22.728  1.00  0.00     0.071 C 
ATOM     23  S   UNL A   1      29.867  29.889  23.189  1.00  0.00    -0.160 SA
ENDBRANCH  17  19
ENDBRANCH  14  17
ENDBRANCH  11  14
ENDBRANCH   4   7
ENDBRANCH   2   3
ENDBRANCH   1   2
BRANCH   1  24
ATOM     24  C   UNL A   1      36.641  22.654  25.713  1.00  0.00     0.023 C 
BRANCH  24  25
ATOM     25  C   UNL A   1      38.006  22.447  25.083  1.00  0.00     0.116 C 
BRANCH  25  26
ATOM     26  N   UNL A   1      39.108  22.158  25.982  1.00  0.00    -0.352 N 
ATOM     27  C   UNL A   1      40.031  23.038  26.529  1.00  0.00     0.251 C 
ATOM     28  H   UNL A   1      39.215  21.213  26.237  1.00  0.00     0.163 HD
ATOM     29  O   UNL A   1      41.091  22.623  26.993  1.00  0.00    -0.269 OA
BRANCH  27  30
ATOM     30  C   UNL A   1      39.664  24.469  26.737  1.00  0.00     0.039 A 
ATOM     31  C   UNL A   1      40.452  25.427  26.077  1.00  0.00     0.014 A 
ATOM     32  C   UNL A   1      38.883  24.853  27.814  1.00  0.00     0.014 A 
ATOM     33  C   UNL A   1      40.700  26.644  26.695  1.00  0.00     0.010 A 
ATOM     34  C   UNL A   1      39.296  25.933  28.540  1.00  0.00     0.010 A 
ATOM     35  C   UNL A   1      40.243  26.798  27.994  1.00  0.00    -0.014 A 
BRANCH  35  36
ATOM     36  C   UNL A   1      40.532  27.912  28.863  1.00  0.00     0.031 A 
ATOM     37  C   UNL A   1      39.583  29.030  28.787  1.00  0.00     0.074 A 
ATOM     38  C   UNL A   1      41.426  27.704  29.853  1.00  0.00     0.049 A 
ATOM     39  N   UNL A   1      39.728  30.153  29.381  1.00  0.00    -0.248 NA
ATOM     40  C   UNL A   1      38.365  28.976  27.967  1.00  0.00     0.031 C 
ATOM     41  C   UNL A   1      41.613  28.440  31.095  1.00  0.00     0.029 A 
ATOM     42  N   UNL A   1      42.553  26.886  29.771  1.00  0.00    -0.354 N 
ATOM     43  C   UNL A   1      38.512  30.798  29.328  1.00  0.00     0.074 A 
ATOM     44  C   UNL A   1      37.759  30.113  28.317  1.00  0.00     0.031 C 
ATOM     45  C   UNL A   1      42.886  28.283  31.504  1.00  0.00     0.029 A 
ATOM     46  C   UNL A   1      43.584  27.574  30.443  1.00  0.00     0.049 A 
ATOM     47  H   UNL A   1      42.616  26.006  29.332  1.00  0.00     0.167 HD
ATOM     48  C   UNL A   1      38.254  31.723  30.288  1.00  0.00     0.034 A 
ATOM     49  C   UNL A   1      44.617  28.093  29.707  1.00  0.00     0.034 A 
ATOM     50  C   UNL A   1      39.489  32.021  31.015  1.00  0.00     0.049 A 
ATOM     51  C   UNL A   1      44.614  29.607  29.749  1.00  0.00     0.074 A 
ATOM     52  C   UNL A   1      39.988  31.598  32.234  1.00  0.00     0.029 A 
ATOM     53  N   UNL A   1      40.568  32.532  30.300  1.00  0.00    -0.354 N 
ATOM     54  N   UNL A   1      43.545  30.340  29.932  1.00  0.00    -0.248 NA
ATOM     55  C   UNL A   1      45.836  30.399  29.694  1.00  0.00     0.031 C 
ATOM     56  C   UNL A   1      41.407  31.722  32.177  1.00  0.00     0.029 A 
ATOM     57  C   UNL A   1      41.756  32.265  30.950  1.00  0.00     0.049 A 
ATOM     58  H   UNL A   1      40.494  33.018  29.447  1.00  0.00     0.167 HD
ATOM     59  C   UNL A   1      43.912  31.654  30.077  1.00  0.00     0.074 A 
ATOM     60  C   UNL A   1      45.358  31.636  29.913  1.00  0.00     0.031 C 
ATOM     61  C   UNL A   1      43.023  32.660  30.351  1.00  0.00     0.034 A 
BRANCH  48  62
ATOM     62  C   UNL A   1      36.891  32.188  30.748  1.00  0.00     0.023 A 
ATOM     63  C   UNL A   1      36.055  32.794  29.788  1.00  0.00     0.031 A 
ATOM     64  C   UNL A   1      36.393  32.200  32.069  1.00  0.00     0.131 A 
ATOM     65  C   UNL A   1      34.830  33.388  30.143  1.00  0.00     0.055 A 
ATOM     66  C   UNL A   1      35.154  32.757  32.417  1.00  0.00     0.041 A 
ATOM     67  F   UNL A   1      37.079  31.723  33.110  1.00  0.00    -0.206 F 
ATOM     68  C   UNL A   1      34.366  33.362  31.454  1.00  0.00     0.022 A 
BRANCH  65  69
ATOM     69  S   UNL A   1      33.873  34.245  28.867  1.00  0.00     0.124 S 
ATOM     70  O   UNL A   1      34.829  35.236  28.383  1.00  0.00    -0.237 OA
ATOM     71  O   UNL A   1      33.541  33.162  27.949  1.00  0.00    -0.237 OA
ATOM     72  O   UNL A   1      32.738  34.795  29.609  1.00  0.00    -0.744 OA
ENDBRANCH  65  69
ENDBRANCH  48  62
BRANCH  49  73
ATOM     73  C   UNL A   1      44.950  27.215  28.533  1.00  0.00     0.023 A 
ATOM     74  C   UNL A   1      45.139  27.890  27.304  1.00  0.00     0.031 A 
ATOM     75  C   UNL A   1      45.581  25.974  28.694  1.00  0.00     0.131 A 
ATOM     76  C   UNL A   1      46.157  27.478  26.429  1.00  0.00     0.055 A 
ATOM     77  C   UNL A   1      46.500  25.500  27.743  1.00  0.00     0.041 A 
ATOM     78  F   UNL A   1      45.445  25.277  29.831  1.00  0.00    -0.206 F 
ATOM     79  C   UNL A   1      46.850  26.289  26.644  1.00  0.00     0.022 A 
BRANCH  76  80
ATOM     80  S   UNL A   1      46.777  28.707  25.236  1.00  0.00     0.124 S 
ATOM     81  O   UNL A   1      48.212  28.687  25.501  1.00  0.00    -0.237 OA
ATOM     82  O   UNL A   1      46.347  28.127  23.964  1.00  0.00    -0.237 OA
ATOM     83  O   UNL A   1      46.088  29.941  25.603  1.00  0.00    -0.744 OA
ENDBRANCH  76  80
ENDBRANCH  49  73
BRANCH  61  84
ATOM     84  C   UNL A   1      43.309  34.135  30.159  1.00  0.00     0.023 A 
ATOM     85  C   UNL A   1      43.278  34.750  28.903  1.00  0.00     0.031 A 
ATOM     86  C   UNL A   1      43.532  35.005  31.256  1.00  0.00     0.131 A 
ATOM     87  C   UNL A   1      43.590  36.108  28.748  1.00  0.00     0.055 A 
ATOM     88  C   UNL A   1      43.720  36.382  31.111  1.00  0.00     0.041 A 
ATOM     89  F   UNL A   1      43.562  34.564  32.523  1.00  0.00    -0.206 F 
ATOM     90  C   UNL A   1      43.781  36.940  29.846  1.00  0.00     0.022 A 
BRANCH  87  91
ATOM     91  S   UNL A   1      43.852  36.719  27.067  1.00  0.00     0.124 S 
ATOM     92  O   UNL A   1      44.176  38.123  27.309  1.00  0.00    -0.237 OA
ATOM     93  O   UNL A   1      44.955  35.888  26.597  1.00  0.00    -0.237 OA
ATOM     94  O   UNL A   1      42.568  36.483  26.410  1.00  0.00    -0.744 OA
ENDBRANCH  87  91
ENDBRANCH  61  84
ENDBRANCH  35  36
ENDBRANCH  27  30
ENDBRANCH  25  26
ENDBRANCH  24  25
ENDBRANCH   1  24
TORSDOF 17
ENDMDL
