MODEL 1
REMARK VINA RESULT:     -13.3      0.000      0.000
REMARK SMILES C[N@@H+]1CC[C@H]2CN(C(=O)c3csc(-c4ccncc4)n3)C[C@@]2(C(=O)NCCCCNC(=O)c2ccc(-c3c4nc(c(-c5cc(S(=O)(=O)[O-])ccc5F)c5ccc([nH]5)c(-c5cc(S(=O)(=O)[O-])ccc5F)c5nc(c(-c6cc(S(=O)(=O)[O-])ccc6F)c6ccc3[nH]6)C=C5)C=C4)cc2)C1
REMARK SMILES IDX 27 1 26 2 25 3 23 4 24 5 22 7 1 8 2 9 3 10 96 11 4 13 5 14
REMARK SMILES IDX 21 15 6 16 7 17 8 18 9 19 10 20 11 21 20 22 12 23 13 24
REMARK SMILES IDX 14 25 15 26 19 27 16 28 18 29 17 30 28 31 29 32 30 33 31 34
REMARK SMILES IDX 32 36 33 37 34 38 95 39 35 40 94 41 36 42 37 43 38 44 88 45
REMARK SMILES IDX 39 46 93 47 87 48 89 49 40 50 92 51 86 52 85 53 41 55 73 56
REMARK SMILES IDX 53 57 72 58 54 59 57 60 71 61 90 62 55 63 56 64 70 66 91 67
REMARK SMILES IDX 58 68 42 69 43 70 51 71 44 72 50 73 52 74 49 75 45 76 46 77
REMARK SMILES IDX 47 78 48 79 74 80 75 81 83 82 76 83 82 84 84 85 81 86 77 87
REMARK SMILES IDX 78 88 79 89 80 90 59 91 60 92 68 93 61 94 67 95 69 96 66 97
REMARK SMILES IDX 62 98 63 99 64 100 65 101
REMARK H PARENT 25 6 2 12 30 35 89 54 57 65
REMARK Flexibility Score: inf
ROOT
ATOM      1  C   UNL A   1      35.177  22.599  23.474  1.00  0.00     0.023 C 
ENDROOT
BRANCH   1   2
ATOM      2  C   UNL A   1      34.466  23.902  23.848  1.00  0.00     0.116 C 
BRANCH   2   3
ATOM      3  N   UNL A   1      33.477  24.429  22.908  1.00  0.00    -0.355 N 
ATOM      4  C   UNL A   1      32.653  25.527  22.900  1.00  0.00     0.234 C 
ATOM      5  O   UNL A   1      32.330  25.938  21.779  1.00  0.00    -0.274 OA
ATOM      6  H   UNL A   1      33.380  23.873  22.102  1.00  0.00     0.163 HD
BRANCH   4   7
ATOM      7  C   UNL A   1      32.007  26.121  24.168  1.00  0.00     0.120 C 
ATOM      8  C   UNL A   1      32.972  28.949  22.377  1.00  0.00     0.332 C 
ATOM      9  N   UNL A   1      32.515  28.633  23.730  1.00  0.00    -0.336 N 
ATOM     10  C   UNL A   1      33.665  28.479  24.621  1.00  0.00     0.262 C 
ATOM     11  C   UNL A   1      31.518  27.544  23.783  1.00  0.00     0.281 C 
ATOM     12  H   UNL A   1      31.980  29.427  24.083  1.00  0.00     0.347 HD
ATOM     13  C   UNL A   1      33.319  27.644  25.836  1.00  0.00     0.068 C 
ATOM     14  C   UNL A   1      32.985  26.216  25.402  1.00  0.00     0.037 C 
ATOM     15  C   UNL A   1      30.907  25.179  24.693  1.00  0.00     0.143 C 
ATOM     16  C   UNL A   1      32.321  25.477  26.562  1.00  0.00     0.125 C 
ATOM     17  N   UNL A   1      31.418  24.581  25.913  1.00  0.00    -0.336 N 
BRANCH  17  18
ATOM     18  C   UNL A   1      31.042  23.384  26.495  1.00  0.00     0.273 C 
ATOM     19  O   UNL A   1      30.014  23.277  27.161  1.00  0.00    -0.267 OA
BRANCH  18  20
ATOM     20  C   UNL A   1      31.959  22.249  26.333  1.00  0.00     0.139 A 
ATOM     21  C   UNL A   1      33.167  22.132  26.993  1.00  0.00     0.101 A 
ATOM     22  N   UNL A   1      31.723  21.248  25.385  1.00  0.00    -0.231 NA
ATOM     23  S   UNL A   1      34.007  20.739  26.454  1.00  0.00    -0.122 S 
ATOM     24  C   UNL A   1      32.752  20.430  25.317  1.00  0.00     0.124 A 
BRANCH  24  25
ATOM     25  C   UNL A   1      32.920  19.381  24.311  1.00  0.00     0.013 A 
ATOM     26  C   UNL A   1      33.872  18.378  24.519  1.00  0.00     0.031 A 
ATOM     27  C   UNL A   1      32.155  19.351  23.143  1.00  0.00     0.031 A 
ATOM     28  C   UNL A   1      33.999  17.379  23.570  1.00  0.00     0.111 A 
ATOM     29  C   UNL A   1      32.363  18.314  22.248  1.00  0.00     0.111 A 
ATOM     30  N   UNL A   1      33.263  17.326  22.441  1.00  0.00    -0.265 NA
ENDBRANCH  24  25
ENDBRANCH  18  20
ENDBRANCH  17  18
ENDBRANCH   4   7
ENDBRANCH   2   3
ENDBRANCH   1   2
BRANCH   1  31
ATOM     31  C   UNL A   1      36.668  22.536  23.827  1.00  0.00     0.023 C 
BRANCH  31  32
ATOM     32  C   UNL A   1      36.982  22.283  25.303  1.00  0.00     0.116 C 
BRANCH  32  33
ATOM     33  N   UNL A   1      38.034  21.302  25.522  1.00  0.00    -0.352 N 
ATOM     34  C   UNL A   1      39.258  21.467  26.126  1.00  0.00     0.251 C 
ATOM     35  H   UNL A   1      37.843  20.394  25.193  1.00  0.00     0.163 HD
ATOM     36  O   UNL A   1      40.038  20.521  26.175  1.00  0.00    -0.269 OA
BRANCH  34  37
ATOM     37  C   UNL A   1      39.648  22.795  26.649  1.00  0.00     0.039 A 
ATOM     38  C   UNL A   1      40.609  22.853  27.662  1.00  0.00     0.014 A 
ATOM     39  C   UNL A   1      39.105  23.972  26.130  1.00  0.00     0.014 A 
ATOM     40  C   UNL A   1      41.082  24.093  28.095  1.00  0.00     0.010 A 
ATOM     41  C   UNL A   1      39.628  25.204  26.510  1.00  0.00     0.010 A 
ATOM     42  C   UNL A   1      40.627  25.277  27.492  1.00  0.00    -0.014 A 
BRANCH  42  43
ATOM     43  C   UNL A   1      41.207  26.591  27.866  1.00  0.00     0.031 A 
ATOM     44  C   UNL A   1      42.629  26.926  27.510  1.00  0.00     0.074 A 
ATOM     45  C   UNL A   1      40.464  27.459  28.580  1.00  0.00     0.049 A 
ATOM     46  N   UNL A   1      43.310  28.016  27.762  1.00  0.00    -0.248 NA
ATOM     47  C   UNL A   1      43.395  25.887  26.809  1.00  0.00     0.031 C 
ATOM     48  C   UNL A   1      39.096  27.213  29.048  1.00  0.00     0.029 A 
ATOM     49  N   UNL A   1      40.749  28.719  29.040  1.00  0.00    -0.354 N 
ATOM     50  C   UNL A   1      44.587  27.790  27.258  1.00  0.00     0.074 A 
ATOM     51  C   UNL A   1      44.599  26.435  26.748  1.00  0.00     0.031 C 
ATOM     52  C   UNL A   1      38.652  28.301  29.700  1.00  0.00     0.029 A 
ATOM     53  C   UNL A   1      39.708  29.307  29.720  1.00  0.00     0.049 A 
ATOM     54  H   UNL A   1      41.616  29.161  28.897  1.00  0.00     0.167 HD
ATOM     55  C   UNL A   1      45.641  28.642  27.204  1.00  0.00     0.034 A 
ATOM     56  C   UNL A   1      39.613  30.525  30.290  1.00  0.00     0.034 A 
ATOM     57  C   UNL A   1      45.606  29.994  27.709  1.00  0.00     0.049 A 
ATOM     58  C   UNL A   1      40.782  31.468  30.183  1.00  0.00     0.074 A 
ATOM     59  C   UNL A   1      46.596  30.959  27.665  1.00  0.00     0.029 A 
ATOM     60  N   UNL A   1      44.521  30.572  28.355  1.00  0.00    -0.354 N 
ATOM     61  N   UNL A   1      41.962  31.263  29.644  1.00  0.00    -0.248 NA
ATOM     62  C   UNL A   1      40.596  32.813  30.739  1.00  0.00     0.031 C 
ATOM     63  C   UNL A   1      46.130  32.101  28.327  1.00  0.00     0.029 A 
ATOM     64  C   UNL A   1      44.823  31.873  28.728  1.00  0.00     0.049 A 
ATOM     65  H   UNL A   1      43.660  30.123  28.524  1.00  0.00     0.167 HD
ATOM     66  C   UNL A   1      42.648  32.468  29.771  1.00  0.00     0.074 A 
ATOM     67  C   UNL A   1      41.742  33.395  30.419  1.00  0.00     0.031 C 
ATOM     68  C   UNL A   1      43.912  32.782  29.384  1.00  0.00     0.034 A 
BRANCH  55  69
ATOM     69  C   UNL A   1      46.919  28.119  26.590  1.00  0.00     0.023 A 
ATOM     70  C   UNL A   1      47.157  28.202  25.206  1.00  0.00     0.031 A 
ATOM     71  C   UNL A   1      47.893  27.493  27.387  1.00  0.00     0.131 A 
ATOM     72  C   UNL A   1      48.294  27.596  24.652  1.00  0.00     0.055 A 
ATOM     73  C   UNL A   1      49.064  26.965  26.840  1.00  0.00     0.041 A 
ATOM     74  F   UNL A   1      47.714  27.366  28.711  1.00  0.00    -0.206 F 
ATOM     75  C   UNL A   1      49.263  27.000  25.462  1.00  0.00     0.022 A 
BRANCH  72  76
ATOM     76  S   UNL A   1      48.413  27.469  22.847  1.00  0.00     0.124 S 
ATOM     77  O   UNL A   1      48.386  26.021  22.653  1.00  0.00    -0.237 OA
ATOM     78  O   UNL A   1      47.230  28.195  22.401  1.00  0.00    -0.237 OA
ATOM     79  O   UNL A   1      49.690  28.109  22.541  1.00  0.00    -0.744 OA
ENDBRANCH  72  76
ENDBRANCH  55  69
BRANCH  56  80
ATOM     80  C   UNL A   1      38.362  30.935  30.986  1.00  0.00     0.023 A 
ATOM     81  C   UNL A   1      37.326  31.577  30.290  1.00  0.00     0.031 A 
ATOM     82  C   UNL A   1      38.198  30.719  32.366  1.00  0.00     0.131 A 
ATOM     83  C   UNL A   1      36.190  32.023  30.983  1.00  0.00     0.055 A 
ATOM     84  C   UNL A   1      37.047  31.124  33.042  1.00  0.00     0.041 A 
ATOM     85  F   UNL A   1      39.155  30.096  33.073  1.00  0.00    -0.206 F 
ATOM     86  C   UNL A   1      36.039  31.793  32.352  1.00  0.00     0.022 A 
BRANCH  83  87
ATOM     87  S   UNL A   1      34.940  32.976  30.077  1.00  0.00     0.124 S 
ATOM     88  O   UNL A   1      34.437  31.985  29.132  1.00  0.00    -0.237 OA
ATOM     89  O   UNL A   1      34.027  33.366  31.145  1.00  0.00    -0.237 OA
ATOM     90  O   UNL A   1      35.709  34.069  29.486  1.00  0.00    -0.744 OA
ENDBRANCH  83  87
ENDBRANCH  56  80
BRANCH  68  91
ATOM     91  C   UNL A   1      44.358  34.203  29.619  1.00  0.00     0.023 A 
ATOM     92  C   UNL A   1      44.138  35.215  28.669  1.00  0.00     0.031 A 
ATOM     93  C   UNL A   1      45.049  34.539  30.797  1.00  0.00     0.131 A 
ATOM     94  C   UNL A   1      44.664  36.498  28.878  1.00  0.00     0.055 A 
ATOM     95  C   UNL A   1      45.519  35.833  31.027  1.00  0.00     0.041 A 
ATOM     96  F   UNL A   1      45.289  33.613  31.737  1.00  0.00    -0.206 F 
ATOM     97  C   UNL A   1      45.342  36.817  30.058  1.00  0.00     0.022 A 
BRANCH  94  98
ATOM     98  S   UNL A   1      44.551  37.714  27.537  1.00  0.00     0.124 S 
ATOM     99  O   UNL A   1      45.782  37.462  26.794  1.00  0.00    -0.237 OA
ATOM    100  O   UNL A   1      43.313  37.327  26.871  1.00  0.00    -0.237 OA
ATOM    101  O   UNL A   1      44.504  38.996  28.240  1.00  0.00    -0.744 OA
ENDBRANCH  94  98
ENDBRANCH  68  91
ENDBRANCH  42  43
ENDBRANCH  34  37
ENDBRANCH  32  33
ENDBRANCH  31  32
ENDBRANCH   1  31
TORSDOF 17
ENDMDL
MODEL 2
REMARK VINA RESULT:     -12.7      1.605      1.833
REMARK SMILES C[N@@H+]1CC[C@H]2CN(C(=O)c3csc(-c4ccncc4)n3)C[C@@]2(C(=O)NCCCCNC(=O)c2ccc(-c3c4nc(c(-c5cc(S(=O)(=O)[O-])ccc5F)c5ccc([nH]5)c(-c5cc(S(=O)(=O)[O-])ccc5F)c5nc(c(-c6cc(S(=O)(=O)[O-])ccc6F)c6ccc3[nH]6)C=C5)C=C4)cc2)C1
REMARK SMILES IDX 27 1 26 2 25 3 23 4 24 5 22 7 1 8 2 9 3 10 96 11 4 13 5 14
REMARK SMILES IDX 21 15 6 16 7 17 8 18 9 19 10 20 11 21 20 22 12 23 13 24
REMARK SMILES IDX 14 25 15 26 19 27 16 28 18 29 17 30 28 31 29 32 30 33 31 34
REMARK SMILES IDX 32 36 33 37 34 38 95 39 35 40 94 41 36 42 37 43 38 44 88 45
REMARK SMILES IDX 39 46 93 47 87 48 89 49 40 50 92 51 86 52 85 53 41 55 73 56
REMARK SMILES IDX 53 57 72 58 54 59 57 60 71 61 90 62 55 63 56 64 70 66 91 67
REMARK SMILES IDX 58 68 42 69 43 70 51 71 44 72 50 73 52 74 49 75 45 76 46 77
REMARK SMILES IDX 47 78 48 79 74 80 75 81 83 82 76 83 82 84 84 85 81 86 77 87
REMARK SMILES IDX 78 88 79 89 80 90 59 91 60 92 68 93 61 94 67 95 69 96 66 97
REMARK SMILES IDX 62 98 63 99 64 100 65 101
REMARK H PARENT 25 6 2 12 30 35 89 54 57 65
REMARK Flexibility Score: inf
ROOT
ATOM      1  C   UNL A   1      36.221  23.279  23.794  1.00  0.00     0.023 C 
ENDROOT
BRANCH   1   2
ATOM      2  C   UNL A   1      34.894  23.944  24.166  1.00  0.00     0.116 C 
BRANCH   2   3
ATOM      3  N   UNL A   1      34.181  24.669  23.114  1.00  0.00    -0.355 N 
ATOM      4  C   UNL A   1      33.316  25.734  23.104  1.00  0.00     0.234 C 
ATOM      5  O   UNL A   1      33.299  26.392  22.056  1.00  0.00    -0.274 OA
ATOM      6  H   UNL A   1      34.361  24.313  22.214  1.00  0.00     0.163 HD
BRANCH   4   7
ATOM      7  C   UNL A   1      32.290  26.014  24.220  1.00  0.00     0.120 C 
ATOM      8  C   UNL A   1      33.350  29.204  23.305  1.00  0.00     0.332 C 
ATOM      9  N   UNL A   1      32.592  28.591  24.395  1.00  0.00    -0.336 N 
ATOM     10  C   UNL A   1      33.474  28.336  25.534  1.00  0.00     0.262 C 
ATOM     11  C   UNL A   1      31.754  27.450  23.970  1.00  0.00     0.281 C 
ATOM     12  H   UNL A   1      31.891  29.259  24.717  1.00  0.00     0.347 HD
ATOM     13  C   UNL A   1      32.921  27.250  26.433  1.00  0.00     0.068 C 
ATOM     14  C   UNL A   1      32.888  25.921  25.678  1.00  0.00     0.037 C 
ATOM     15  C   UNL A   1      31.212  24.915  24.238  1.00  0.00     0.143 C 
ATOM     16  C   UNL A   1      32.033  24.920  26.453  1.00  0.00     0.125 C 
ATOM     17  N   UNL A   1      31.449  24.117  25.427  1.00  0.00    -0.336 N 
BRANCH  17  18
ATOM     18  C   UNL A   1      31.078  22.804  25.658  1.00  0.00     0.273 C 
ATOM     19  O   UNL A   1      30.287  22.497  26.547  1.00  0.00    -0.267 OA
BRANCH  18  20
ATOM     20  C   UNL A   1      31.717  21.778  24.827  1.00  0.00     0.139 A 
ATOM     21  C   UNL A   1      31.726  21.798  23.445  1.00  0.00     0.101 A 
ATOM     22  N   UNL A   1      32.266  20.620  25.387  1.00  0.00    -0.231 NA
ATOM     23  S   UNL A   1      32.458  20.375  22.834  1.00  0.00    -0.122 S 
ATOM     24  C   UNL A   1      32.637  19.784  24.440  1.00  0.00     0.124 A 
BRANCH  24  25
ATOM     25  C   UNL A   1      33.082  18.409  24.668  1.00  0.00     0.013 A 
ATOM     26  C   UNL A   1      32.295  17.554  25.446  1.00  0.00     0.031 A 
ATOM     27  C   UNL A   1      34.275  17.921  24.128  1.00  0.00     0.031 A 
ATOM     28  C   UNL A   1      32.717  16.249  25.628  1.00  0.00     0.111 A 
ATOM     29  C   UNL A   1      34.616  16.602  24.376  1.00  0.00     0.111 A 
ATOM     30  N   UNL A   1      33.860  15.756  25.108  1.00  0.00    -0.265 NA
ENDBRANCH  24  25
ENDBRANCH  18  20
ENDBRANCH  17  18
ENDBRANCH   4   7
ENDBRANCH   2   3
ENDBRANCH   1   2
BRANCH   1  31
ATOM     31  C   UNL A   1      36.362  21.809  24.208  1.00  0.00     0.023 C 
BRANCH  31  32
ATOM     32  C   UNL A   1      36.919  21.574  25.614  1.00  0.00     0.116 C 
BRANCH  32  33
ATOM     33  N   UNL A   1      38.012  20.615  25.663  1.00  0.00    -0.352 N 
ATOM     34  C   UNL A   1      39.301  20.797  26.104  1.00  0.00     0.251 C 
ATOM     35  H   UNL A   1      37.799  19.711  25.336  1.00  0.00     0.163 HD
ATOM     36  O   UNL A   1      40.102  19.870  26.021  1.00  0.00    -0.269 OA
BRANCH  34  37
ATOM     37  C   UNL A   1      39.727  22.120  26.609  1.00  0.00     0.039 A 
ATOM     38  C   UNL A   1      40.711  22.166  27.600  1.00  0.00     0.014 A 
ATOM     39  C   UNL A   1      39.195  23.304  26.094  1.00  0.00     0.014 A 
ATOM     40  C   UNL A   1      41.217  23.400  28.015  1.00  0.00     0.010 A 
ATOM     41  C   UNL A   1      39.750  24.528  26.454  1.00  0.00     0.010 A 
ATOM     42  C   UNL A   1      40.771  24.589  27.413  1.00  0.00    -0.014 A 
BRANCH  42  43
ATOM     43  C   UNL A   1      41.384  25.894  27.765  1.00  0.00     0.031 A 
ATOM     44  C   UNL A   1      42.798  26.207  27.360  1.00  0.00     0.074 A 
ATOM     45  C   UNL A   1      40.680  26.774  28.504  1.00  0.00     0.049 A 
ATOM     46  N   UNL A   1      43.504  27.286  27.587  1.00  0.00    -0.248 NA
ATOM     47  C   UNL A   1      43.523  25.156  26.634  1.00  0.00     0.031 C 
ATOM     48  C   UNL A   1      39.326  26.549  29.020  1.00  0.00     0.029 A 
ATOM     49  N   UNL A   1      41.000  28.029  28.953  1.00  0.00    -0.354 N 
ATOM     50  C   UNL A   1      44.759  27.040  27.038  1.00  0.00     0.074 A 
ATOM     51  C   UNL A   1      44.733  25.685  26.530  1.00  0.00     0.031 C 
ATOM     52  C   UNL A   1      38.922  27.644  29.685  1.00  0.00     0.029 A 
ATOM     53  C   UNL A   1      39.992  28.634  29.668  1.00  0.00     0.049 A 
ATOM     54  H   UNL A   1      41.869  28.458  28.779  1.00  0.00     0.167 HD
ATOM     55  C   UNL A   1      45.824  27.876  26.947  1.00  0.00     0.034 A 
ATOM     56  C   UNL A   1      39.936  29.853  30.239  1.00  0.00     0.034 A 
ATOM     57  C   UNL A   1      45.827  29.229  27.451  1.00  0.00     0.049 A 
ATOM     58  C   UNL A   1      41.115  30.778  30.090  1.00  0.00     0.074 A 
ATOM     59  C   UNL A   1      46.830  30.179  27.372  1.00  0.00     0.029 A 
ATOM     60  N   UNL A   1      44.774  29.824  28.135  1.00  0.00    -0.354 N 
ATOM     61  N   UNL A   1      42.272  30.555  29.511  1.00  0.00    -0.248 NA
ATOM     62  C   UNL A   1      40.969  32.126  30.651  1.00  0.00     0.031 C 
ATOM     63  C   UNL A   1      46.404  31.328  28.049  1.00  0.00     0.029 A 
ATOM     64  C   UNL A   1      45.108  31.120  28.495  1.00  0.00     0.049 A 
ATOM     65  H   UNL A   1      43.913  29.388  28.333  1.00  0.00     0.167 HD
ATOM     66  C   UNL A   1      42.981  31.749  29.612  1.00  0.00     0.074 A 
ATOM     67  C   UNL A   1      42.112  32.690  30.290  1.00  0.00     0.031 C 
ATOM     68  C   UNL A   1      44.235  32.043  29.181  1.00  0.00     0.034 A 
BRANCH  55  69
ATOM     69  C   UNL A   1      47.071  27.333  26.289  1.00  0.00     0.023 A 
ATOM     70  C   UNL A   1      48.056  26.655  27.028  1.00  0.00     0.031 A 
ATOM     71  C   UNL A   1      47.300  27.531  24.917  1.00  0.00     0.131 A 
ATOM     72  C   UNL A   1      49.258  26.275  26.413  1.00  0.00     0.055 A 
ATOM     73  C   UNL A   1      48.463  27.076  24.291  1.00  0.00     0.041 A 
ATOM     74  F   UNL A   1      46.406  28.189  24.161  1.00  0.00    -0.206 F 
ATOM     75  C   UNL A   1      49.458  26.458  25.043  1.00  0.00     0.022 A 
BRANCH  72  76
ATOM     76  S   UNL A   1      50.612  25.674  27.459  1.00  0.00     0.124 S 
ATOM     77  O   UNL A   1      51.379  24.868  26.512  1.00  0.00    -0.237 OA
ATOM     78  O   UNL A   1      51.243  26.913  27.901  1.00  0.00    -0.237 OA
ATOM     79  O   UNL A   1      49.929  24.915  28.503  1.00  0.00    -0.744 OA
ENDBRANCH  72  76
ENDBRANCH  55  69
BRANCH  56  80
ATOM     80  C   UNL A   1      38.717  30.283  30.978  1.00  0.00     0.023 A 
ATOM     81  C   UNL A   1      37.692  30.991  30.330  1.00  0.00     0.031 A 
ATOM     82  C   UNL A   1      38.572  30.019  32.351  1.00  0.00     0.131 A 
ATOM     83  C   UNL A   1      36.589  31.452  31.064  1.00  0.00     0.055 A 
ATOM     84  C   UNL A   1      37.452  30.440  33.068  1.00  0.00     0.041 A 
ATOM     85  F   UNL A   1      39.518  29.332  33.013  1.00  0.00    -0.206 F 
ATOM     86  C   UNL A   1      36.457  31.174  32.427  1.00  0.00     0.022 A 
BRANCH  83  87
ATOM     87  S   UNL A   1      35.359  32.487  30.224  1.00  0.00     0.124 S 
ATOM     88  O   UNL A   1      34.984  31.645  29.093  1.00  0.00    -0.237 OA
ATOM     89  O   UNL A   1      34.348  32.656  31.262  1.00  0.00    -0.237 OA
ATOM     90  O   UNL A   1      36.108  33.695  29.882  1.00  0.00    -0.744 OA
ENDBRANCH  83  87
ENDBRANCH  56  80
BRANCH  68  91
ATOM     91  C   UNL A   1      44.711  33.457  29.399  1.00  0.00     0.023 A 
ATOM     92  C   UNL A   1      44.529  34.457  28.428  1.00  0.00     0.031 A 
ATOM     93  C   UNL A   1      45.391  33.798  30.582  1.00  0.00     0.131 A 
ATOM     94  C   UNL A   1      45.082  35.732  28.624  1.00  0.00     0.055 A 
ATOM     95  C   UNL A   1      45.887  35.085  30.798  1.00  0.00     0.041 A 
ATOM     96  F   UNL A   1      45.594  32.883  31.542  1.00  0.00    -0.206 F 
ATOM     97  C   UNL A   1      45.749  36.055  29.809  1.00  0.00     0.022 A 
BRANCH  94  98
ATOM     98  S   UNL A   1      45.019  36.926  27.261  1.00  0.00     0.124 S 
ATOM     99  O   UNL A   1      45.964  36.352  26.309  1.00  0.00    -0.237 OA
ATOM    100  O   UNL A   1      43.614  36.879  26.872  1.00  0.00    -0.237 OA
ATOM    101  O   UNL A   1      45.450  38.178  27.882  1.00  0.00    -0.744 OA
ENDBRANCH  94  98
ENDBRANCH  68  91
ENDBRANCH  42  43
ENDBRANCH  34  37
ENDBRANCH  32  33
ENDBRANCH  31  32
ENDBRANCH   1  31
TORSDOF 17
ENDMDL
MODEL 3
REMARK VINA RESULT:     -12.4      1.614      7.420
REMARK SMILES C[N@@H+]1CC[C@H]2CN(C(=O)c3csc(-c4ccncc4)n3)C[C@@]2(C(=O)NCCCCNC(=O)c2ccc(-c3c4nc(c(-c5cc(S(=O)(=O)[O-])ccc5F)c5ccc([nH]5)c(-c5cc(S(=O)(=O)[O-])ccc5F)c5nc(c(-c6cc(S(=O)(=O)[O-])ccc6F)c6ccc3[nH]6)C=C5)C=C4)cc2)C1
REMARK SMILES IDX 27 1 26 2 25 3 23 4 24 5 22 7 1 8 2 9 3 10 96 11 4 13 5 14
REMARK SMILES IDX 21 15 6 16 7 17 8 18 9 19 10 20 11 21 20 22 12 23 13 24
REMARK SMILES IDX 14 25 15 26 19 27 16 28 18 29 17 30 28 31 29 32 30 33 31 34
REMARK SMILES IDX 32 36 33 37 34 38 95 39 35 40 94 41 36 42 37 43 38 44 88 45
REMARK SMILES IDX 39 46 93 47 87 48 89 49 40 50 92 51 86 52 85 53 41 55 73 56
REMARK SMILES IDX 53 57 72 58 54 59 57 60 71 61 90 62 55 63 56 64 70 66 91 67
REMARK SMILES IDX 58 68 42 69 43 70 51 71 44 72 50 73 52 74 49 75 45 76 46 77
REMARK SMILES IDX 47 78 48 79 74 80 75 81 83 82 76 83 82 84 84 85 81 86 77 87
REMARK SMILES IDX 78 88 79 89 80 90 59 91 60 92 68 93 61 94 67 95 69 96 66 97
REMARK SMILES IDX 62 98 63 99 64 100 65 101
REMARK H PARENT 25 6 2 12 30 35 89 54 57 65
REMARK Flexibility Score: inf
ROOT
ATOM      1  C   UNL A   1      36.057  23.287  23.794  1.00  0.00     0.023 C 
ENDROOT
BRANCH   1   2
ATOM      2  C   UNL A   1      34.655  23.795  24.140  1.00  0.00     0.116 C 
BRANCH   2   3
ATOM      3  N   UNL A   1      33.859  24.377  23.060  1.00  0.00    -0.355 N 
ATOM      4  C   UNL A   1      33.127  25.530  22.924  1.00  0.00     0.234 C 
ATOM      5  O   UNL A   1      33.007  25.947  21.766  1.00  0.00    -0.274 OA
ATOM      6  H   UNL A   1      33.845  23.818  22.250  1.00  0.00     0.163 HD
BRANCH   4   7
ATOM      7  C   UNL A   1      32.341  26.185  24.078  1.00  0.00     0.120 C 
ATOM      8  C   UNL A   1      33.670  28.919  22.376  1.00  0.00     0.332 C 
ATOM      9  N   UNL A   1      33.019  28.661  23.660  1.00  0.00    -0.336 N 
ATOM     10  C   UNL A   1      34.028  28.483  24.704  1.00  0.00     0.262 C 
ATOM     11  C   UNL A   1      31.975  27.616  23.599  1.00  0.00     0.281 C 
ATOM     12  H   UNL A   1      32.477  29.486  23.919  1.00  0.00     0.347 HD
ATOM     13  C   UNL A   1      33.482  27.697  25.877  1.00  0.00     0.068 C 
ATOM     14  C   UNL A   1      33.146  26.273  25.432  1.00  0.00     0.037 C 
ATOM     15  C   UNL A   1      31.139  25.305  24.467  1.00  0.00     0.143 C 
ATOM     16  C   UNL A   1      32.297  25.595  26.506  1.00  0.00     0.125 C 
ATOM     17  N   UNL A   1      31.451  24.720  25.758  1.00  0.00    -0.336 N 
BRANCH  17  18
ATOM     18  C   UNL A   1      30.945  23.556  26.309  1.00  0.00     0.273 C 
ATOM     19  O   UNL A   1      29.850  23.521  26.865  1.00  0.00    -0.267 OA
BRANCH  18  20
ATOM     20  C   UNL A   1      31.803  22.367  26.253  1.00  0.00     0.139 A 
ATOM     21  C   UNL A   1      32.945  22.202  27.014  1.00  0.00     0.101 A 
ATOM     22  N   UNL A   1      31.586  21.352  25.315  1.00  0.00    -0.231 NA
ATOM     23  S   UNL A   1      33.742  20.748  26.583  1.00  0.00    -0.122 S 
ATOM     24  C   UNL A   1      32.567  20.475  25.355  1.00  0.00     0.124 A 
BRANCH  24  25
ATOM     25  C   UNL A   1      32.755  19.388  24.393  1.00  0.00     0.013 A 
ATOM     26  C   UNL A   1      32.153  19.477  23.133  1.00  0.00     0.031 A 
ATOM     27  C   UNL A   1      33.520  18.259  24.696  1.00  0.00     0.031 A 
ATOM     28  C   UNL A   1      32.363  18.453  22.226  1.00  0.00     0.111 A 
ATOM     29  C   UNL A   1      33.662  17.283  23.724  1.00  0.00     0.111 A 
ATOM     30  N   UNL A   1      33.106  17.360  22.496  1.00  0.00    -0.265 NA
ENDBRANCH  24  25
ENDBRANCH  18  20
ENDBRANCH  17  18
ENDBRANCH   4   7
ENDBRANCH   2   3
ENDBRANCH   1   2
BRANCH   1  31
ATOM     31  C   UNL A   1      36.354  21.839  24.202  1.00  0.00     0.023 C 
BRANCH  31  32
ATOM     32  C   UNL A   1      36.924  21.658  25.610  1.00  0.00     0.116 C 
BRANCH  32  33
ATOM     33  N   UNL A   1      37.968  20.648  25.700  1.00  0.00    -0.352 N 
ATOM     34  C   UNL A   1      39.268  20.785  26.126  1.00  0.00     0.251 C 
ATOM     35  H   UNL A   1      37.708  19.743  25.416  1.00  0.00     0.163 HD
ATOM     36  O   UNL A   1      40.020  19.816  26.083  1.00  0.00    -0.269 OA
BRANCH  34  37
ATOM     37  C   UNL A   1      39.763  22.107  26.567  1.00  0.00     0.039 A 
ATOM     38  C   UNL A   1      40.777  22.148  27.528  1.00  0.00     0.014 A 
ATOM     39  C   UNL A   1      39.267  23.292  26.020  1.00  0.00     0.014 A 
ATOM     40  C   UNL A   1      41.345  23.374  27.880  1.00  0.00     0.010 A 
ATOM     41  C   UNL A   1      39.883  24.504  26.317  1.00  0.00     0.010 A 
ATOM     42  C   UNL A   1      40.933  24.557  27.245  1.00  0.00    -0.014 A 
BRANCH  42  43
ATOM     43  C   UNL A   1      41.610  25.848  27.529  1.00  0.00     0.031 A 
ATOM     44  C   UNL A   1      40.867  26.965  28.208  1.00  0.00     0.074 A 
ATOM     45  C   UNL A   1      42.880  26.028  27.119  1.00  0.00     0.049 A 
ATOM     46  N   UNL A   1      41.288  28.163  28.527  1.00  0.00    -0.248 NA
ATOM     47  C   UNL A   1      39.458  26.714  28.540  1.00  0.00     0.031 C 
ATOM     48  C   UNL A   1      43.678  25.042  26.383  1.00  0.00     0.029 A 
ATOM     49  N   UNL A   1      43.725  27.099  27.257  1.00  0.00    -0.354 N 
ATOM     50  C   UNL A   1      40.193  28.811  29.091  1.00  0.00     0.074 A 
ATOM     51  C   UNL A   1      39.077  27.893  29.005  1.00  0.00     0.031 C 
ATOM     52  C   UNL A   1      44.905  25.543  26.166  1.00  0.00     0.029 A 
ATOM     53  C   UNL A   1      44.974  26.891  26.719  1.00  0.00     0.049 A 
ATOM     54  H   UNL A   1      43.463  27.938  27.701  1.00  0.00     0.167 HD
ATOM     55  C   UNL A   1      40.132  30.046  29.649  1.00  0.00     0.034 A 
ATOM     56  C   UNL A   1      46.055  27.694  26.682  1.00  0.00     0.034 A 
ATOM     57  C   UNL A   1      41.260  30.944  29.734  1.00  0.00     0.049 A 
ATOM     58  C   UNL A   1      45.976  29.046  27.343  1.00  0.00     0.074 A 
ATOM     59  C   UNL A   1      41.326  32.196  30.318  1.00  0.00     0.029 A 
ATOM     60  N   UNL A   1      42.522  30.684  29.214  1.00  0.00    -0.354 N 
ATOM     61  N   UNL A   1      44.952  29.620  27.931  1.00  0.00    -0.248 NA
ATOM     62  C   UNL A   1      47.207  29.845  27.355  1.00  0.00     0.031 C 
ATOM     63  C   UNL A   1      42.610  32.714  30.109  1.00  0.00     0.029 A 
ATOM     64  C   UNL A   1      43.367  31.757  29.451  1.00  0.00     0.049 A 
ATOM     65  H   UNL A   1      42.780  29.857  28.746  1.00  0.00     0.167 HD
ATOM     66  C   UNL A   1      45.426  30.837  28.410  1.00  0.00     0.074 A 
ATOM     67  C   UNL A   1      46.830  30.903  28.058  1.00  0.00     0.031 C 
ATOM     68  C   UNL A   1      44.763  31.813  29.084  1.00  0.00     0.034 A 
BRANCH  55  69
ATOM     69  C   UNL A   1      38.795  30.492  30.192  1.00  0.00     0.023 A 
ATOM     70  C   UNL A   1      37.869  31.184  29.390  1.00  0.00     0.031 A 
ATOM     71  C   UNL A   1      38.455  30.262  31.536  1.00  0.00     0.131 A 
ATOM     72  C   UNL A   1      36.692  31.693  29.957  1.00  0.00     0.055 A 
ATOM     73  C   UNL A   1      37.243  30.698  32.075  1.00  0.00     0.041 A 
ATOM     74  F   UNL A   1      39.304  29.623  32.357  1.00  0.00    -0.206 F 
ATOM     75  C   UNL A   1      36.360  31.434  31.288  1.00  0.00     0.022 A 
BRANCH  72  76
ATOM     76  S   UNL A   1      35.676  32.825  28.969  1.00  0.00     0.124 S 
ATOM     77  O   UNL A   1      34.382  32.718  29.639  1.00  0.00    -0.237 OA
ATOM     78  O   UNL A   1      36.374  34.096  29.127  1.00  0.00    -0.237 OA
ATOM     79  O   UNL A   1      35.726  32.249  27.628  1.00  0.00    -0.744 OA
ENDBRANCH  72  76
ENDBRANCH  55  69
BRANCH  56  80
ATOM     80  C   UNL A   1      47.311  27.238  26.024  1.00  0.00     0.023 A 
ATOM     81  C   UNL A   1      48.291  26.539  26.745  1.00  0.00     0.031 A 
ATOM     82  C   UNL A   1      47.562  27.522  24.670  1.00  0.00     0.131 A 
ATOM     83  C   UNL A   1      49.498  26.187  26.124  1.00  0.00     0.055 A 
ATOM     84  C   UNL A   1      48.746  27.131  24.044  1.00  0.00     0.041 A 
ATOM     85  F   UNL A   1      46.650  28.177  23.934  1.00  0.00    -0.206 F 
ATOM     86  C   UNL A   1      49.729  26.470  24.775  1.00  0.00     0.022 A 
BRANCH  83  87
ATOM     87  S   UNL A   1      50.797  25.414  27.127  1.00  0.00     0.124 S 
ATOM     88  O   UNL A   1      51.335  26.560  27.851  1.00  0.00    -0.237 OA
ATOM     89  O   UNL A   1      50.036  24.454  27.918  1.00  0.00    -0.237 OA
ATOM     90  O   UNL A   1      51.692  24.829  26.130  1.00  0.00    -0.744 OA
ENDBRANCH  83  87
ENDBRANCH  56  80
BRANCH  68  91
ATOM     91  C   UNL A   1      45.573  33.008  29.515  1.00  0.00     0.023 A 
ATOM     92  C   UNL A   1      45.706  34.146  28.700  1.00  0.00     0.031 A 
ATOM     93  C   UNL A   1      46.255  32.993  30.745  1.00  0.00     0.131 A 
ATOM     94  C   UNL A   1      46.556  35.191  29.089  1.00  0.00     0.055 A 
ATOM     95  C   UNL A   1      47.053  34.061  31.155  1.00  0.00     0.041 A 
ATOM     96  F   UNL A   1      46.165  31.932  31.562  1.00  0.00    -0.206 F 
ATOM     97  C   UNL A   1      47.220  35.162  30.319  1.00  0.00     0.022 A 
BRANCH  94  98
ATOM     98  S   UNL A   1      46.874  36.538  27.916  1.00  0.00     0.124 S 
ATOM     99  O   UNL A   1      48.322  36.693  28.017  1.00  0.00    -0.237 OA
ATOM    100  O   UNL A   1      46.378  35.981  26.663  1.00  0.00    -0.237 OA
ATOM    101  O   UNL A   1      46.094  37.652  28.453  1.00  0.00    -0.744 OA
ENDBRANCH  94  98
ENDBRANCH  68  91
ENDBRANCH  42  43
ENDBRANCH  34  37
ENDBRANCH  32  33
ENDBRANCH  31  32
ENDBRANCH   1  31
TORSDOF 17
ENDMDL
