MODEL 1
REMARK VINA RESULT:     -13.7      0.000      0.000
REMARK SMILES CC(=O)Nc1ccc(/C=C2/CCc3oc(C(=O)NCCCCNC(=O)c4ccc(-c5c6nc(c(-c7cc(S(=O)(=O)[O-])ccc7F)c7ccc([nH]7)c(-c7cc(S(=O)(=O)[O-])ccc7F)c7nc(c(-c8cc(S(=O)(=O)[O-])ccc8F)c8ccc5[nH]8)C=C7)C=C6)cc4)c(C)c3C2=O)cc1
REMARK SMILES IDX 21 1 20 2 19 3 18 4 16 5 17 6 15 8 9 9 10 10 11 11 92 12
REMARK SMILES IDX 12 13 91 14 93 15 13 16 89 17 14 18 90 19 8 20 5 21 6 22
REMARK SMILES IDX 95 23 7 24 94 25 4 26 1 27 2 28 3 29 22 31 23 32 24 33 25 35
REMARK SMILES IDX 26 36 27 37 88 38 28 39 87 40 29 41 30 42 31 43 81 44 32 45
REMARK SMILES IDX 86 46 80 47 82 48 33 49 85 50 79 51 78 52 34 54 66 55 46 56
REMARK SMILES IDX 65 57 47 58 50 59 64 60 83 61 48 62 49 63 63 65 84 66 51 67
REMARK SMILES IDX 35 68 36 69 44 70 37 71 43 72 45 73 42 74 38 75 39 76 40 77
REMARK SMILES IDX 41 78 67 79 68 80 76 81 69 82 75 83 77 84 74 85 70 86 71 87
REMARK SMILES IDX 72 88 73 89 52 90 53 91 61 92 54 93 60 94 62 95 59 96 55 97
REMARK SMILES IDX 56 98 57 99 58 100
REMARK H PARENT 18 7 4 30 23 34 82 53 50 64
REMARK Flexibility Score: inf
ROOT
ATOM      1  C   UNL A   1      34.010  31.211  27.543  1.00  0.00     0.023 C 
ENDROOT
BRANCH   1   2
ATOM      2  C   UNL A   1      34.850  30.102  26.890  1.00  0.00     0.023 C 
BRANCH   2   3
ATOM      3  C   UNL A   1      34.454  28.676  27.281  1.00  0.00     0.116 C 
BRANCH   3   4
ATOM      4  N   UNL A   1      33.084  28.598  27.756  1.00  0.00    -0.349 N 
ATOM      5  C   UNL A   1      31.951  28.014  27.231  1.00  0.00     0.287 C 
ATOM      6  O   UNL A   1      30.928  28.149  27.907  1.00  0.00    -0.266 OA
ATOM      7  H   UNL A   1      32.936  29.049  28.619  1.00  0.00     0.163 HD
BRANCH   5   8
ATOM      8  C   UNL A   1      31.960  27.292  25.964  1.00  0.00     0.195 A 
ATOM      9  C   UNL A   1      33.138  23.511  22.027  1.00  0.00     0.016 C 
ATOM     10  C   UNL A   1      32.497  24.672  22.269  1.00  0.00     0.001 C 
ATOM     11  C   UNL A   1      32.885  25.995  21.627  1.00  0.00     0.048 C 
ATOM     12  C   UNL A   1      31.405  24.795  23.300  1.00  0.00     0.192 C 
ATOM     13  C   UNL A   1      33.404  27.002  22.679  1.00  0.00     0.081 C 
ATOM     14  C   UNL A   1      31.709  25.863  24.232  1.00  0.00     0.067 A 
ATOM     15  O   UNL A   1      30.418  24.085  23.344  1.00  0.00    -0.289 OA
ATOM     16  C   UNL A   1      32.591  26.861  23.909  1.00  0.00     0.116 A 
ATOM     17  C   UNL A   1      31.318  26.108  25.583  1.00  0.00     0.012 A 
ATOM     18  O   UNL A   1      32.725  27.743  24.915  1.00  0.00    -0.455 OA
ATOM     19  C   UNL A   1      30.463  25.205  26.402  1.00  0.00     0.049 C 
BRANCH   9  20
ATOM     20  C   UNL A   1      32.984  22.208  22.708  1.00  0.00    -0.025 A 
ATOM     21  C   UNL A   1      32.648  19.792  24.138  1.00  0.00     0.041 A 
ATOM     22  C   UNL A   1      32.021  19.977  22.913  1.00  0.00     0.027 A 
ATOM     23  C   UNL A   1      33.459  20.807  24.648  1.00  0.00     0.027 A 
ATOM     24  C   UNL A   1      32.141  21.194  22.239  1.00  0.00     0.010 A 
ATOM     25  C   UNL A   1      33.634  22.002  23.932  1.00  0.00     0.010 A 
BRANCH  21  26
ATOM     26  N   UNL A   1      32.462  18.558  24.773  1.00  0.00    -0.326 N 
ATOM     27  C   UNL A   1      34.579  17.471  24.091  1.00  0.00     0.114 C 
ATOM     28  C   UNL A   1      33.195  17.410  24.680  1.00  0.00     0.221 C 
ATOM     29  O   UNL A   1      32.749  16.363  25.152  1.00  0.00    -0.275 OA
ATOM     30  H   UNL A   1      31.686  18.512  25.376  1.00  0.00     0.169 HD
ENDBRANCH  21  26
ENDBRANCH   9  20
ENDBRANCH   5   8
ENDBRANCH   3   4
ENDBRANCH   2   3
ENDBRANCH   1   2
BRANCH   1  31
ATOM     31  C   UNL A   1      34.798  32.446  27.983  1.00  0.00     0.116 C 
BRANCH  31  32
ATOM     32  N   UNL A   1      34.675  32.712  29.412  1.00  0.00    -0.352 N 
ATOM     33  C   UNL A   1      35.332  32.093  30.455  1.00  0.00     0.251 C 
ATOM     34  H   UNL A   1      34.044  33.423  29.663  1.00  0.00     0.163 HD
ATOM     35  O   UNL A   1      34.868  32.147  31.590  1.00  0.00    -0.269 OA
BRANCH  33  36
ATOM     36  C   UNL A   1      36.581  31.352  30.192  1.00  0.00     0.039 A 
ATOM     37  C   UNL A   1      37.788  32.039  30.043  1.00  0.00     0.014 A 
ATOM     38  C   UNL A   1      36.546  29.960  30.115  1.00  0.00     0.014 A 
ATOM     39  C   UNL A   1      38.974  31.315  29.929  1.00  0.00     0.010 A 
ATOM     40  C   UNL A   1      37.728  29.243  30.079  1.00  0.00     0.010 A 
ATOM     41  C   UNL A   1      38.949  29.912  29.985  1.00  0.00    -0.014 A 
BRANCH  41  42
ATOM     42  C   UNL A   1      40.205  29.164  30.137  1.00  0.00     0.031 A 
ATOM     43  C   UNL A   1      40.561  28.781  31.532  1.00  0.00     0.074 A 
ATOM     44  C   UNL A   1      40.899  28.618  29.115  1.00  0.00     0.049 A 
ATOM     45  N   UNL A   1      41.609  29.127  32.203  1.00  0.00    -0.248 NA
ATOM     46  C   UNL A   1      39.592  28.001  32.319  1.00  0.00     0.031 C 
ATOM     47  C   UNL A   1      40.563  28.654  27.692  1.00  0.00     0.029 A 
ATOM     48  N   UNL A   1      41.983  27.785  29.154  1.00  0.00    -0.354 N 
ATOM     49  C   UNL A   1      41.555  28.433  33.409  1.00  0.00     0.074 A 
ATOM     50  C   UNL A   1      40.217  27.910  33.494  1.00  0.00     0.031 C 
ATOM     51  C   UNL A   1      41.258  27.696  27.044  1.00  0.00     0.029 A 
ATOM     52  C   UNL A   1      42.184  27.072  27.974  1.00  0.00     0.049 A 
ATOM     53  H   UNL A   1      42.566  27.697  29.942  1.00  0.00     0.167 HD
ATOM     54  C   UNL A   1      42.684  28.175  34.131  1.00  0.00     0.034 A 
ATOM     55  C   UNL A   1      43.017  26.018  27.768  1.00  0.00     0.034 A 
ATOM     56  C   UNL A   1      43.789  28.993  33.676  1.00  0.00     0.049 A 
ATOM     57  C   UNL A   1      44.094  26.112  28.785  1.00  0.00     0.074 A 
ATOM     58  C   UNL A   1      43.982  30.353  33.510  1.00  0.00     0.029 A 
ATOM     59  N   UNL A   1      44.802  28.393  32.958  1.00  0.00    -0.354 N 
ATOM     60  N   UNL A   1      44.970  27.078  28.807  1.00  0.00    -0.248 NA
ATOM     61  C   UNL A   1      43.943  25.394  30.041  1.00  0.00     0.031 C 
ATOM     62  C   UNL A   1      44.732  30.470  32.303  1.00  0.00     0.029 A 
ATOM     63  C   UNL A   1      45.029  29.181  31.856  1.00  0.00     0.049 A 
ATOM     64  H   UNL A   1      45.272  27.560  33.190  1.00  0.00     0.167 HD
ATOM     65  C   UNL A   1      45.123  27.389  30.148  1.00  0.00     0.074 A 
ATOM     66  C   UNL A   1      44.577  26.237  30.862  1.00  0.00     0.031 C 
ATOM     67  C   UNL A   1      45.402  28.664  30.554  1.00  0.00     0.034 A 
BRANCH  54  68
ATOM     68  C   UNL A   1      42.916  26.952  35.000  1.00  0.00     0.023 A 
ATOM     69  C   UNL A   1      43.735  25.936  34.463  1.00  0.00     0.031 A 
ATOM     70  C   UNL A   1      42.167  26.588  36.140  1.00  0.00     0.131 A 
ATOM     71  C   UNL A   1      43.664  24.617  34.941  1.00  0.00     0.055 A 
ATOM     72  C   UNL A   1      42.167  25.291  36.666  1.00  0.00     0.041 A 
ATOM     73  F   UNL A   1      41.328  27.427  36.755  1.00  0.00    -0.206 F 
ATOM     74  C   UNL A   1      42.883  24.285  36.042  1.00  0.00     0.022 A 
BRANCH  71  75
ATOM     75  S   UNL A   1      44.434  23.312  33.947  1.00  0.00     0.124 S 
ATOM     76  O   UNL A   1      45.731  23.909  33.646  1.00  0.00    -0.237 OA
ATOM     77  O   UNL A   1      44.440  22.190  34.879  1.00  0.00    -0.237 OA
ATOM     78  O   UNL A   1      43.527  23.175  32.810  1.00  0.00    -0.744 OA
ENDBRANCH  71  75
ENDBRANCH  54  68
BRANCH  55  79
ATOM     79  C   UNL A   1      42.826  24.865  26.845  1.00  0.00     0.023 A 
ATOM     80  C   UNL A   1      43.826  24.441  25.944  1.00  0.00     0.031 A 
ATOM     81  C   UNL A   1      41.710  24.010  26.993  1.00  0.00     0.131 A 
ATOM     82  C   UNL A   1      43.679  23.223  25.237  1.00  0.00     0.055 A 
ATOM     83  C   UNL A   1      41.561  22.820  26.277  1.00  0.00     0.041 A 
ATOM     84  F   UNL A   1      40.757  24.253  27.906  1.00  0.00    -0.206 F 
ATOM     85  C   UNL A   1      42.552  22.415  25.401  1.00  0.00     0.022 A 
BRANCH  82  86
ATOM     86  S   UNL A   1      45.028  22.598  24.182  1.00  0.00     0.124 S 
ATOM     87  O   UNL A   1      44.299  22.008  23.065  1.00  0.00    -0.237 OA
ATOM     88  O   UNL A   1      45.794  23.805  23.895  1.00  0.00    -0.237 OA
ATOM     89  O   UNL A   1      45.713  21.635  25.047  1.00  0.00    -0.744 OA
ENDBRANCH  82  86
ENDBRANCH  55  79
BRANCH  67  90
ATOM     90  C   UNL A   1      45.882  29.675  29.531  1.00  0.00     0.023 A 
ATOM     91  C   UNL A   1      45.051  30.331  28.596  1.00  0.00     0.031 A 
ATOM     92  C   UNL A   1      47.226  30.085  29.605  1.00  0.00     0.131 A 
ATOM     93  C   UNL A   1      45.578  31.340  27.767  1.00  0.00     0.055 A 
ATOM     94  C   UNL A   1      47.738  31.104  28.802  1.00  0.00     0.041 A 
ATOM     95  F   UNL A   1      48.064  29.525  30.493  1.00  0.00    -0.206 F 
ATOM     96  C   UNL A   1      46.916  31.730  27.873  1.00  0.00     0.022 A 
BRANCH  93  97
ATOM     97  S   UNL A   1      44.529  32.155  26.522  1.00  0.00     0.124 S 
ATOM     98  O   UNL A   1      44.019  33.330  27.218  1.00  0.00    -0.237 OA
ATOM     99  O   UNL A   1      45.471  32.413  25.435  1.00  0.00    -0.237 OA
ATOM    100  O   UNL A   1      43.517  31.142  26.216  1.00  0.00    -0.744 OA
ENDBRANCH  93  97
ENDBRANCH  67  90
ENDBRANCH  41  42
ENDBRANCH  33  36
ENDBRANCH  31  32
ENDBRANCH   1  31
TORSDOF 16
ENDMDL
MODEL 2
REMARK VINA RESULT:     -13.6      3.706      9.147
REMARK SMILES CC(=O)Nc1ccc(/C=C2/CCc3oc(C(=O)NCCCCNC(=O)c4ccc(-c5c6nc(c(-c7cc(S(=O)(=O)[O-])ccc7F)c7ccc([nH]7)c(-c7cc(S(=O)(=O)[O-])ccc7F)c7nc(c(-c8cc(S(=O)(=O)[O-])ccc8F)c8ccc5[nH]8)C=C7)C=C6)cc4)c(C)c3C2=O)cc1
REMARK SMILES IDX 21 1 20 2 19 3 18 4 16 5 17 6 15 8 9 9 10 10 11 11 92 12
REMARK SMILES IDX 12 13 91 14 93 15 13 16 89 17 14 18 90 19 8 20 5 21 6 22
REMARK SMILES IDX 95 23 7 24 94 25 4 26 1 27 2 28 3 29 22 31 23 32 24 33 25 35
REMARK SMILES IDX 26 36 27 37 88 38 28 39 87 40 29 41 30 42 31 43 81 44 32 45
REMARK SMILES IDX 86 46 80 47 82 48 33 49 85 50 79 51 78 52 34 54 66 55 46 56
REMARK SMILES IDX 65 57 47 58 50 59 64 60 83 61 48 62 49 63 63 65 84 66 51 67
REMARK SMILES IDX 35 68 36 69 44 70 37 71 43 72 45 73 42 74 38 75 39 76 40 77
REMARK SMILES IDX 41 78 67 79 68 80 76 81 69 82 75 83 77 84 74 85 70 86 71 87
REMARK SMILES IDX 72 88 73 89 52 90 53 91 61 92 54 93 60 94 62 95 59 96 55 97
REMARK SMILES IDX 56 98 57 99 58 100
REMARK H PARENT 18 7 4 30 23 34 82 53 50 64
REMARK Flexibility Score: inf
ROOT
ATOM      1  C   UNL A   1      38.177  22.429  26.146  1.00  0.00     0.023 C 
ENDROOT
BRANCH   1   2
ATOM      2  C   UNL A   1      37.444  22.277  24.803  1.00  0.00     0.023 C 
BRANCH   2   3
ATOM      3  C   UNL A   1      36.386  21.171  24.765  1.00  0.00     0.116 C 
BRANCH   3   4
ATOM      4  N   UNL A   1      35.661  21.063  26.019  1.00  0.00    -0.349 N 
ATOM      5  C   UNL A   1      34.511  21.666  26.481  1.00  0.00     0.287 C 
ATOM      6  O   UNL A   1      34.172  21.346  27.623  1.00  0.00    -0.266 OA
ATOM      7  H   UNL A   1      36.069  20.439  26.662  1.00  0.00     0.163 HD
BRANCH   5   8
ATOM      8  C   UNL A   1      33.752  22.617  25.679  1.00  0.00     0.195 A 
ATOM      9  C   UNL A   1      30.444  26.877  24.232  1.00  0.00     0.016 C 
ATOM     10  C   UNL A   1      31.117  25.810  23.761  1.00  0.00     0.001 C 
ATOM     11  C   UNL A   1      30.442  24.599  23.136  1.00  0.00     0.048 C 
ATOM     12  C   UNL A   1      32.609  25.658  23.920  1.00  0.00     0.192 C 
ATOM     13  C   UNL A   1      30.651  23.330  23.993  1.00  0.00     0.081 C 
ATOM     14  C   UNL A   1      32.922  24.389  24.548  1.00  0.00     0.067 A 
ATOM     15  O   UNL A   1      33.425  26.493  23.581  1.00  0.00    -0.289 OA
ATOM     16  C   UNL A   1      32.030  23.348  24.535  1.00  0.00     0.116 A 
ATOM     17  C   UNL A   1      34.034  23.942  25.323  1.00  0.00     0.012 A 
ATOM     18  O   UNL A   1      32.523  22.271  25.172  1.00  0.00    -0.455 OA
ATOM     19  C   UNL A   1      35.196  24.786  25.715  1.00  0.00     0.049 C 
BRANCH   9  20
ATOM     20  C   UNL A   1      30.952  28.022  25.016  1.00  0.00    -0.025 A 
ATOM     21  C   UNL A   1      32.053  30.133  26.543  1.00  0.00     0.041 A 
ATOM     22  C   UNL A   1      31.585  30.366  25.255  1.00  0.00     0.027 A 
ATOM     23  C   UNL A   1      31.958  28.848  27.079  1.00  0.00     0.027 A 
ATOM     24  C   UNL A   1      31.098  29.309  24.484  1.00  0.00     0.010 A 
ATOM     25  C   UNL A   1      31.402  27.804  26.324  1.00  0.00     0.010 A 
BRANCH  21  26
ATOM     26  N   UNL A   1      32.554  31.232  27.250  1.00  0.00    -0.326 N 
ATOM     27  C   UNL A   1      34.948  30.601  27.260  1.00  0.00     0.114 C 
ATOM     28  C   UNL A   1      33.806  31.450  27.751  1.00  0.00     0.221 C 
ATOM     29  O   UNL A   1      33.995  32.386  28.529  1.00  0.00    -0.275 OA
ATOM     30  H   UNL A   1      31.907  31.956  27.411  1.00  0.00     0.169 HD
ENDBRANCH  21  26
ENDBRANCH   9  20
ENDBRANCH   5   8
ENDBRANCH   3   4
ENDBRANCH   2   3
ENDBRANCH   1   2
BRANCH   1  31
ATOM     31  C   UNL A   1      38.716  23.832  26.434  1.00  0.00     0.116 C 
BRANCH  31  32
ATOM     32  N   UNL A   1      40.118  23.983  26.058  1.00  0.00    -0.352 N 
ATOM     33  C   UNL A   1      40.906  25.113  26.135  1.00  0.00     0.251 C 
ATOM     34  H   UNL A   1      40.557  23.176  25.706  1.00  0.00     0.163 HD
ATOM     35  O   UNL A   1      41.921  25.199  25.451  1.00  0.00    -0.269 OA
BRANCH  33  36
ATOM     36  C   UNL A   1      40.507  26.219  27.027  1.00  0.00     0.039 A 
ATOM     37  C   UNL A   1      40.069  25.951  28.326  1.00  0.00     0.014 A 
ATOM     38  C   UNL A   1      40.592  27.532  26.566  1.00  0.00     0.014 A 
ATOM     39  C   UNL A   1      39.826  27.015  29.195  1.00  0.00     0.010 A 
ATOM     40  C   UNL A   1      40.426  28.584  27.448  1.00  0.00     0.010 A 
ATOM     41  C   UNL A   1      40.041  28.335  28.767  1.00  0.00    -0.014 A 
BRANCH  41  42
ATOM     42  C   UNL A   1      40.047  29.429  29.749  1.00  0.00     0.031 A 
ATOM     43  C   UNL A   1      38.745  30.130  29.937  1.00  0.00     0.074 A 
ATOM     44  C   UNL A   1      41.047  29.666  30.625  1.00  0.00     0.049 A 
ATOM     45  N   UNL A   1      38.485  31.378  29.729  1.00  0.00    -0.248 NA
ATOM     46  C   UNL A   1      37.563  29.336  30.305  1.00  0.00     0.031 C 
ATOM     47  C   UNL A   1      42.293  28.915  30.777  1.00  0.00     0.029 A 
ATOM     48  N   UNL A   1      41.092  30.549  31.667  1.00  0.00    -0.354 N 
ATOM     49  C   UNL A   1      37.174  31.585  30.153  1.00  0.00     0.074 A 
ATOM     50  C   UNL A   1      36.610  30.271  30.319  1.00  0.00     0.031 C 
ATOM     51  C   UNL A   1      42.843  29.200  31.975  1.00  0.00     0.029 A 
ATOM     52  C   UNL A   1      42.067  30.250  32.615  1.00  0.00     0.049 A 
ATOM     53  H   UNL A   1      40.490  31.325  31.741  1.00  0.00     0.167 HD
ATOM     54  C   UNL A   1      36.737  32.820  30.531  1.00  0.00     0.034 A 
ATOM     55  C   UNL A   1      42.217  30.784  33.856  1.00  0.00     0.034 A 
ATOM     56  C   UNL A   1      37.656  33.852  30.096  1.00  0.00     0.049 A 
ATOM     57  C   UNL A   1      41.579  32.123  33.830  1.00  0.00     0.074 A 
ATOM     58  C   UNL A   1      38.200  34.212  28.876  1.00  0.00     0.029 A 
ATOM     59  N   UNL A   1      38.445  34.473  31.042  1.00  0.00    -0.354 N 
ATOM     60  N   UNL A   1      42.030  33.114  33.111  1.00  0.00    -0.248 NA
ATOM     61  C   UNL A   1      40.190  32.251  34.245  1.00  0.00     0.031 C 
ATOM     62  C   UNL A   1      39.552  34.557  29.168  1.00  0.00     0.029 A 
ATOM     63  C   UNL A   1      39.727  34.477  30.551  1.00  0.00     0.049 A 
ATOM     64  H   UNL A   1      38.146  34.843  31.903  1.00  0.00     0.167 HD
ATOM     65  C   UNL A   1      40.898  33.727  32.600  1.00  0.00     0.074 A 
ATOM     66  C   UNL A   1      39.802  33.243  33.436  1.00  0.00     0.031 C 
ATOM     67  C   UNL A   1      40.911  34.332  31.374  1.00  0.00     0.034 A 
BRANCH  54  68
ATOM     68  C   UNL A   1      35.684  33.100  31.589  1.00  0.00     0.023 A 
ATOM     69  C   UNL A   1      34.660  34.005  31.243  1.00  0.00     0.031 A 
ATOM     70  C   UNL A   1      35.788  32.798  32.964  1.00  0.00     0.131 A 
ATOM     71  C   UNL A   1      33.918  34.676  32.231  1.00  0.00     0.055 A 
ATOM     72  C   UNL A   1      34.987  33.404  33.938  1.00  0.00     0.041 A 
ATOM     73  F   UNL A   1      36.719  31.975  33.458  1.00  0.00    -0.206 F 
ATOM     74  C   UNL A   1      34.075  34.382  33.580  1.00  0.00     0.022 A 
BRANCH  71  75
ATOM     75  S   UNL A   1      32.918  36.098  31.721  1.00  0.00     0.124 S 
ATOM     76  O   UNL A   1      31.704  35.889  32.502  1.00  0.00    -0.237 OA
ATOM     77  O   UNL A   1      33.761  37.217  32.125  1.00  0.00    -0.237 OA
ATOM     78  O   UNL A   1      32.776  35.911  30.279  1.00  0.00    -0.744 OA
ENDBRANCH  71  75
ENDBRANCH  54  68
BRANCH  55  79
ATOM     79  C   UNL A   1      42.741  30.122  35.083  1.00  0.00     0.023 A 
ATOM     80  C   UNL A   1      42.231  28.897  35.561  1.00  0.00     0.031 A 
ATOM     81  C   UNL A   1      43.927  30.591  35.694  1.00  0.00     0.131 A 
ATOM     82  C   UNL A   1      42.893  28.207  36.606  1.00  0.00     0.055 A 
ATOM     83  C   UNL A   1      44.564  29.917  36.739  1.00  0.00     0.041 A 
ATOM     84  F   UNL A   1      44.565  31.681  35.242  1.00  0.00    -0.206 F 
ATOM     85  C   UNL A   1      44.054  28.714  37.194  1.00  0.00     0.022 A 
BRANCH  82  86
ATOM     86  S   UNL A   1      42.323  26.558  37.132  1.00  0.00     0.124 S 
ATOM     87  O   UNL A   1      42.644  25.736  35.970  1.00  0.00    -0.237 OA
ATOM     88  O   UNL A   1      43.110  26.318  38.336  1.00  0.00    -0.237 OA
ATOM     89  O   UNL A   1      40.892  26.756  37.371  1.00  0.00    -0.744 OA
ENDBRANCH  82  86
ENDBRANCH  55  79
BRANCH  67  90
ATOM     90  C   UNL A   1      42.242  34.634  30.715  1.00  0.00     0.023 A 
ATOM     91  C   UNL A   1      43.022  35.785  30.966  1.00  0.00     0.031 A 
ATOM     92  C   UNL A   1      42.800  33.639  29.892  1.00  0.00     0.131 A 
ATOM     93  C   UNL A   1      44.299  35.913  30.388  1.00  0.00     0.055 A 
ATOM     94  C   UNL A   1      44.076  33.757  29.343  1.00  0.00     0.041 A 
ATOM     95  F   UNL A   1      42.125  32.506  29.636  1.00  0.00    -0.206 F 
ATOM     96  C   UNL A   1      44.828  34.900  29.583  1.00  0.00     0.022 A 
BRANCH  93  97
ATOM     97  S   UNL A   1      45.291  37.415  30.663  1.00  0.00     0.124 S 
ATOM     98  O   UNL A   1      46.358  37.307  29.675  1.00  0.00    -0.237 OA
ATOM     99  O   UNL A   1      44.318  38.482  30.441  1.00  0.00    -0.237 OA
ATOM    100  O   UNL A   1      45.734  37.279  32.052  1.00  0.00    -0.744 OA
ENDBRANCH  93  97
ENDBRANCH  67  90
ENDBRANCH  41  42
ENDBRANCH  33  36
ENDBRANCH  31  32
ENDBRANCH   1  31
TORSDOF 16
ENDMDL
MODEL 3
REMARK VINA RESULT:     -13.4      3.510      9.602
REMARK SMILES CC(=O)Nc1ccc(/C=C2/CCc3oc(C(=O)NCCCCNC(=O)c4ccc(-c5c6nc(c(-c7cc(S(=O)(=O)[O-])ccc7F)c7ccc([nH]7)c(-c7cc(S(=O)(=O)[O-])ccc7F)c7nc(c(-c8cc(S(=O)(=O)[O-])ccc8F)c8ccc5[nH]8)C=C7)C=C6)cc4)c(C)c3C2=O)cc1
REMARK SMILES IDX 21 1 20 2 19 3 18 4 16 5 17 6 15 8 9 9 10 10 11 11 92 12
REMARK SMILES IDX 12 13 91 14 93 15 13 16 89 17 14 18 90 19 8 20 5 21 6 22
REMARK SMILES IDX 95 23 7 24 94 25 4 26 1 27 2 28 3 29 22 31 23 32 24 33 25 35
REMARK SMILES IDX 26 36 27 37 88 38 28 39 87 40 29 41 30 42 31 43 81 44 32 45
REMARK SMILES IDX 86 46 80 47 82 48 33 49 85 50 79 51 78 52 34 54 66 55 46 56
REMARK SMILES IDX 65 57 47 58 50 59 64 60 83 61 48 62 49 63 63 65 84 66 51 67
REMARK SMILES IDX 35 68 36 69 44 70 37 71 43 72 45 73 42 74 38 75 39 76 40 77
REMARK SMILES IDX 41 78 67 79 68 80 76 81 69 82 75 83 77 84 74 85 70 86 71 87
REMARK SMILES IDX 72 88 73 89 52 90 53 91 61 92 54 93 60 94 62 95 59 96 55 97
REMARK SMILES IDX 56 98 57 99 58 100
REMARK H PARENT 18 7 4 30 23 34 82 53 50 64
REMARK Flexibility Score: inf
ROOT
ATOM      1  C   UNL A   1      39.380  22.323  26.240  1.00  0.00     0.023 C 
ENDROOT
BRANCH   1   2
ATOM      2  C   UNL A   1      38.683  23.615  26.696  1.00  0.00     0.023 C 
BRANCH   2   3
ATOM      3  C   UNL A   1      37.337  23.896  26.024  1.00  0.00     0.116 C 
BRANCH   3   4
ATOM      4  N   UNL A   1      37.299  23.423  24.651  1.00  0.00    -0.349 N 
ATOM      5  C   UNL A   1      36.257  23.125  23.800  1.00  0.00     0.287 C 
ATOM      6  O   UNL A   1      36.589  22.729  22.680  1.00  0.00    -0.266 OA
ATOM      7  H   UNL A   1      38.189  23.288  24.252  1.00  0.00     0.163 HD
BRANCH   5   8
ATOM      8  C   UNL A   1      34.861  23.263  24.197  1.00  0.00     0.195 A 
ATOM      9  C   UNL A   1      29.980  25.510  25.717  1.00  0.00     0.016 C 
ATOM     10  C   UNL A   1      30.641  24.348  25.547  1.00  0.00     0.001 C 
ATOM     11  C   UNL A   1      30.969  23.394  26.685  1.00  0.00     0.048 C 
ATOM     12  C   UNL A   1      31.229  23.937  24.222  1.00  0.00     0.192 C 
ATOM     13  C   UNL A   1      32.494  23.290  26.911  1.00  0.00     0.081 C 
ATOM     14  C   UNL A   1      32.637  23.622  24.371  1.00  0.00     0.067 A 
ATOM     15  O   UNL A   1      30.607  23.892  23.177  1.00  0.00    -0.289 OA
ATOM     16  C   UNL A   1      33.170  23.303  25.593  1.00  0.00     0.116 A 
ATOM     17  C   UNL A   1      33.733  23.638  23.457  1.00  0.00     0.012 A 
ATOM     18  O   UNL A   1      34.487  23.048  25.502  1.00  0.00    -0.455 OA
ATOM     19  C   UNL A   1      33.651  24.061  22.032  1.00  0.00     0.049 C 
BRANCH   9  20
ATOM     20  C   UNL A   1      29.757  26.601  24.744  1.00  0.00    -0.025 A 
ATOM     21  C   UNL A   1      29.198  28.720  22.958  1.00  0.00     0.041 A 
ATOM     22  C   UNL A   1      30.424  28.653  23.609  1.00  0.00     0.027 A 
ATOM     23  C   UNL A   1      28.252  27.720  23.185  1.00  0.00     0.027 A 
ATOM     24  C   UNL A   1      30.672  27.639  24.534  1.00  0.00     0.010 A 
ATOM     25  C   UNL A   1      28.534  26.663  24.063  1.00  0.00     0.010 A 
BRANCH  21  26
ATOM     26  N   UNL A   1      29.005  29.780  22.064  1.00  0.00    -0.326 N 
ATOM     27  C   UNL A   1      27.629  31.240  23.515  1.00  0.00     0.114 C 
ATOM     28  C   UNL A   1      28.193  30.873  22.168  1.00  0.00     0.221 C 
ATOM     29  O   UNL A   1      28.002  31.586  21.182  1.00  0.00    -0.275 OA
ATOM     30  H   UNL A   1      29.534  29.729  21.236  1.00  0.00     0.169 HD
ENDBRANCH  21  26
ENDBRANCH   9  20
ENDBRANCH   5   8
ENDBRANCH   3   4
ENDBRANCH   2   3
ENDBRANCH   1   2
BRANCH   1  31
ATOM     31  C   UNL A   1      40.682  21.996  26.974  1.00  0.00     0.116 C 
BRANCH  31  32
ATOM     32  N   UNL A   1      41.866  22.295  26.177  1.00  0.00    -0.352 N 
ATOM     33  C   UNL A   1      42.411  23.529  25.887  1.00  0.00     0.251 C 
ATOM     34  H   UNL A   1      42.337  21.518  25.799  1.00  0.00     0.163 HD
ATOM     35  O   UNL A   1      43.160  23.657  24.923  1.00  0.00    -0.269 OA
BRANCH  33  36
ATOM     36  C   UNL A   1      42.072  24.691  26.731  1.00  0.00     0.039 A 
ATOM     37  C   UNL A   1      42.617  24.813  28.012  1.00  0.00     0.014 A 
ATOM     38  C   UNL A   1      41.220  25.674  26.229  1.00  0.00     0.014 A 
ATOM     39  C   UNL A   1      42.392  25.981  28.739  1.00  0.00     0.010 A 
ATOM     40  C   UNL A   1      41.060  26.863  26.917  1.00  0.00     0.010 A 
ATOM     41  C   UNL A   1      41.642  27.026  28.176  1.00  0.00    -0.014 A 
BRANCH  41  42
ATOM     42  C   UNL A   1      41.630  28.347  28.820  1.00  0.00     0.031 A 
ATOM     43  C   UNL A   1      42.657  29.310  28.331  1.00  0.00     0.074 A 
ATOM     44  C   UNL A   1      40.638  28.801  29.616  1.00  0.00     0.049 A 
ATOM     45  N   UNL A   1      43.605  29.864  29.011  1.00  0.00    -0.248 NA
ATOM     46  C   UNL A   1      42.705  29.621  26.894  1.00  0.00     0.031 C 
ATOM     47  C   UNL A   1      39.411  28.102  29.995  1.00  0.00     0.029 A 
ATOM     48  N   UNL A   1      40.454  30.051  30.139  1.00  0.00    -0.354 N 
ATOM     49  C   UNL A   1      44.231  30.768  28.155  1.00  0.00     0.074 A 
ATOM     50  C   UNL A   1      43.757  30.440  26.835  1.00  0.00     0.031 C 
ATOM     51  C   UNL A   1      38.514  28.995  30.462  1.00  0.00     0.029 A 
ATOM     52  C   UNL A   1      39.145  30.302  30.544  1.00  0.00     0.049 A 
ATOM     53  H   UNL A   1      41.179  30.713  30.220  1.00  0.00     0.167 HD
ATOM     54  C   UNL A   1      44.921  31.841  28.636  1.00  0.00     0.034 A 
ATOM     55  C   UNL A   1      38.591  31.495  30.886  1.00  0.00     0.034 A 
ATOM     56  C   UNL A   1      45.196  31.689  30.050  1.00  0.00     0.049 A 
ATOM     57  C   UNL A   1      39.700  32.373  31.335  1.00  0.00     0.074 A 
ATOM     58  C   UNL A   1      45.808  30.714  30.818  1.00  0.00     0.029 A 
ATOM     59  N   UNL A   1      44.492  32.466  30.946  1.00  0.00    -0.354 N 
ATOM     60  N   UNL A   1      40.400  32.143  32.411  1.00  0.00    -0.248 NA
ATOM     61  C   UNL A   1      40.335  33.258  30.369  1.00  0.00     0.031 C 
ATOM     62  C   UNL A   1      45.021  30.637  32.004  1.00  0.00     0.029 A 
ATOM     63  C   UNL A   1      44.037  31.626  31.932  1.00  0.00     0.049 A 
ATOM     64  H   UNL A   1      44.344  33.438  30.890  1.00  0.00     0.167 HD
ATOM     65  C   UNL A   1      41.704  32.450  32.058  1.00  0.00     0.074 A 
ATOM     66  C   UNL A   1      41.584  33.256  30.845  1.00  0.00     0.031 C 
ATOM     67  C   UNL A   1      42.764  31.782  32.607  1.00  0.00     0.034 A 
BRANCH  54  68
ATOM     68  C   UNL A   1      45.049  33.190  27.951  1.00  0.00     0.023 A 
ATOM     69  C   UNL A   1      44.123  34.185  28.328  1.00  0.00     0.031 A 
ATOM     70  C   UNL A   1      45.782  33.459  26.775  1.00  0.00     0.131 A 
ATOM     71  C   UNL A   1      43.845  35.277  27.488  1.00  0.00     0.055 A 
ATOM     72  C   UNL A   1      45.563  34.593  25.985  1.00  0.00     0.041 A 
ATOM     73  F   UNL A   1      46.682  32.608  26.271  1.00  0.00    -0.206 F 
ATOM     74  C   UNL A   1      44.560  35.488  26.314  1.00  0.00     0.022 A 
BRANCH  71  75
ATOM     75  S   UNL A   1      42.377  36.274  27.849  1.00  0.00     0.124 S 
ATOM     76  O   UNL A   1      42.684  36.760  29.190  1.00  0.00    -0.237 OA
ATOM     77  O   UNL A   1      42.416  37.264  26.779  1.00  0.00    -0.237 OA
ATOM     78  O   UNL A   1      41.284  35.307  27.767  1.00  0.00    -0.744 OA
ENDBRANCH  71  75
ENDBRANCH  54  68
BRANCH  55  79
ATOM     79  C   UNL A   1      37.186  31.944  30.688  1.00  0.00     0.023 A 
ATOM     80  C   UNL A   1      36.423  32.530  31.721  1.00  0.00     0.031 A 
ATOM     81  C   UNL A   1      36.632  32.003  29.388  1.00  0.00     0.131 A 
ATOM     82  C   UNL A   1      35.171  33.126  31.435  1.00  0.00     0.055 A 
ATOM     83  C   UNL A   1      35.387  32.573  29.115  1.00  0.00     0.041 A 
ATOM     84  F   UNL A   1      37.319  31.585  28.314  1.00  0.00    -0.206 F 
ATOM     85  C   UNL A   1      34.653  33.148  30.138  1.00  0.00     0.022 A 
BRANCH  82  86
ATOM     86  S   UNL A   1      34.248  34.009  32.734  1.00  0.00     0.124 S 
ATOM     87  O   UNL A   1      33.730  35.166  32.013  1.00  0.00    -0.237 OA
ATOM     88  O   UNL A   1      33.269  33.016  33.161  1.00  0.00    -0.237 OA
ATOM     89  O   UNL A   1      35.277  34.314  33.730  1.00  0.00    -0.744 OA
ENDBRANCH  82  86
ENDBRANCH  55  79
BRANCH  67  90
ATOM     90  C   UNL A   1      42.542  30.941  33.848  1.00  0.00     0.023 A 
ATOM     91  C   UNL A   1      42.184  29.575  33.843  1.00  0.00     0.031 A 
ATOM     92  C   UNL A   1      42.841  31.528  35.093  1.00  0.00     0.131 A 
ATOM     93  C   UNL A   1      42.117  28.856  35.051  1.00  0.00     0.055 A 
ATOM     94  C   UNL A   1      42.800  30.807  36.285  1.00  0.00     0.041 A 
ATOM     95  F   UNL A   1      43.218  32.816  35.167  1.00  0.00    -0.206 F 
ATOM     96  C   UNL A   1      42.429  29.468  36.269  1.00  0.00     0.022 A 
BRANCH  93  97
ATOM     97  S   UNL A   1      41.605  27.109  35.060  1.00  0.00     0.124 S 
ATOM     98  O   UNL A   1      41.207  26.875  36.443  1.00  0.00    -0.237 OA
ATOM     99  O   UNL A   1      40.529  27.089  34.072  1.00  0.00    -0.237 OA
ATOM    100  O   UNL A   1      42.818  26.398  34.648  1.00  0.00    -0.744 OA
ENDBRANCH  93  97
ENDBRANCH  67  90
ENDBRANCH  41  42
ENDBRANCH  33  36
ENDBRANCH  31  32
ENDBRANCH   1  31
TORSDOF 16
ENDMDL
