MODEL 1
REMARK VINA RESULT:     -11.7      0.000      0.000
REMARK SMILES Cc1sc(-c2ccco2)nc1C(=O)N[C@@H](C(=O)NCCCCNC(=O)c1ccc(-c2c3nc(c(-c4cc(S(=O)(=O)[O-])ccc4F)c4ccc([nH]4)c(-c4cc(S(=O)(=O)[O-])ccc4F)c4nc(c(-c5cc(S(=O)(=O)[O-])ccc5F)c5ccc2[nH]5)C=C4)C=C3)cc1)C(C)C
REMARK SMILES IDX 20 1 19 2 18 3 16 4 17 5 15 7 14 8 12 9 13 10 11 12 1 13
REMARK SMILES IDX 2 14 3 15 4 16 10 17 5 18 6 19 9 20 7 21 8 22 89 23 90 24
REMARK SMILES IDX 91 25 21 26 22 27 23 28 24 29 25 31 26 32 27 33 88 34 28 35
REMARK SMILES IDX 87 36 29 37 30 38 31 39 81 40 32 41 86 42 80 43 82 44 33 45
REMARK SMILES IDX 85 46 79 47 78 48 34 50 66 51 46 52 65 53 47 54 50 55 64 56
REMARK SMILES IDX 83 57 48 58 49 59 63 61 84 62 51 63 35 64 36 65 44 66 37 67
REMARK SMILES IDX 43 68 45 69 42 70 38 71 39 72 40 73 41 74 67 75 68 76 76 77
REMARK SMILES IDX 69 78 75 79 77 80 74 81 70 82 71 83 72 84 73 85 52 86 53 87
REMARK SMILES IDX 61 88 54 89 60 90 62 91 59 92 55 93 56 94 57 95 58 96
REMARK H PARENT 18 6 14 11 23 30 82 49 50 60
REMARK Flexibility Score: inf
ROOT
ATOM      1  C   UNL A   1      35.124  22.720  23.599  1.00  0.00     0.023 C 
ENDROOT
BRANCH   1   2
ATOM      2  C   UNL A   1      34.776  24.166  23.934  1.00  0.00     0.116 C 
BRANCH   2   3
ATOM      3  N   UNL A   1      33.605  24.613  23.205  1.00  0.00    -0.354 N 
ATOM      4  C   UNL A   1      32.447  25.191  23.647  1.00  0.00     0.242 C 
ATOM      5  O   UNL A   1      31.579  25.422  22.802  1.00  0.00    -0.273 OA
ATOM      6  H   UNL A   1      33.651  24.478  22.231  1.00  0.00     0.163 HD
BRANCH   4   7
ATOM      7  C   UNL A   1      32.319  25.680  25.116  1.00  0.00     0.174 C 
BRANCH   7   8
ATOM      8  N   UNL A   1      31.258  24.986  25.816  1.00  0.00    -0.339 N 
ATOM      9  C   UNL A   1      31.106  23.717  26.313  1.00  0.00     0.271 C 
ATOM     10  O   UNL A   1      30.008  23.550  26.861  1.00  0.00    -0.267 OA
ATOM     11  H   UNL A   1      30.468  25.553  25.972  1.00  0.00     0.164 HD
BRANCH   9  12
ATOM     12  C   UNL A   1      32.081  22.581  26.241  1.00  0.00     0.142 A 
ATOM     13  C   UNL A   1      34.310  22.949  27.722  1.00  0.00     0.059 C 
ATOM     14  C   UNL A   1      33.313  22.274  26.841  1.00  0.00     0.035 A 
ATOM     15  S   UNL A   1      33.780  20.654  26.422  1.00  0.00    -0.115 S 
ATOM     16  C   UNL A   1      32.561  20.598  25.252  1.00  0.00     0.160 A 
ATOM     17  N   UNL A   1      31.736  21.612  25.262  1.00  0.00    -0.227 NA
BRANCH  16  18
ATOM     18  C   UNL A   1      32.529  19.536  24.296  1.00  0.00     0.162 A 
ATOM     19  C   UNL A   1      32.152  19.593  22.965  1.00  0.00     0.053 A 
ATOM     20  O   UNL A   1      32.989  18.272  24.570  1.00  0.00    -0.462 OA
ATOM     21  C   UNL A   1      32.421  18.322  22.403  1.00  0.00     0.043 A 
ATOM     22  C   UNL A   1      32.909  17.549  23.426  1.00  0.00     0.196 A 
ENDBRANCH  16  18
ENDBRANCH   9  12
ENDBRANCH   7   8
BRANCH   7  23
ATOM     23  C   UNL A   1      32.213  27.220  25.244  1.00  0.00     0.015 C 
ATOM     24  C   UNL A   1      31.816  27.663  26.658  1.00  0.00     0.010 C 
ATOM     25  C   UNL A   1      33.564  27.872  24.901  1.00  0.00     0.010 C 
ENDBRANCH   7  23
ENDBRANCH   4   7
ENDBRANCH   2   3
ENDBRANCH   1   2
BRANCH   1  26
ATOM     26  C   UNL A   1      36.595  22.382  23.845  1.00  0.00     0.023 C 
BRANCH  26  27
ATOM     27  C   UNL A   1      36.992  22.305  25.317  1.00  0.00     0.116 C 
BRANCH  27  28
ATOM     28  N   UNL A   1      37.993  21.284  25.583  1.00  0.00    -0.352 N 
ATOM     29  C   UNL A   1      39.244  21.439  26.131  1.00  0.00     0.251 C 
ATOM     30  H   UNL A   1      37.742  20.364  25.340  1.00  0.00     0.163 HD
ATOM     31  O   UNL A   1      40.027  20.494  26.157  1.00  0.00    -0.269 OA
BRANCH  29  32
ATOM     32  C   UNL A   1      39.646  22.763  26.651  1.00  0.00     0.039 A 
ATOM     33  C   UNL A   1      40.648  22.834  27.621  1.00  0.00     0.014 A 
ATOM     34  C   UNL A   1      39.069  23.933  26.145  1.00  0.00     0.014 A 
ATOM     35  C   UNL A   1      41.120  24.082  28.033  1.00  0.00     0.010 A 
ATOM     36  C   UNL A   1      39.597  25.171  26.498  1.00  0.00     0.010 A 
ATOM     37  C   UNL A   1      40.629  25.261  27.445  1.00  0.00    -0.014 A 
BRANCH  37  38
ATOM     38  C   UNL A   1      41.182  26.592  27.809  1.00  0.00     0.031 A 
ATOM     39  C   UNL A   1      42.609  26.933  27.474  1.00  0.00     0.074 A 
ATOM     40  C   UNL A   1      40.418  27.471  28.488  1.00  0.00     0.049 A 
ATOM     41  N   UNL A   1      43.293  28.010  27.764  1.00  0.00    -0.248 NA
ATOM     42  C   UNL A   1      43.376  25.913  26.742  1.00  0.00     0.031 C 
ATOM     43  C   UNL A   1      39.033  27.241  28.906  1.00  0.00     0.029 A 
ATOM     44  N   UNL A   1      40.697  28.733  28.955  1.00  0.00    -0.354 N 
ATOM     45  C   UNL A   1      44.571  27.795  27.259  1.00  0.00     0.074 A 
ATOM     46  C   UNL A   1      44.582  26.457  26.708  1.00  0.00     0.031 C 
ATOM     47  C   UNL A   1      38.576  28.333  29.538  1.00  0.00     0.029 A 
ATOM     48  C   UNL A   1      39.645  29.322  29.619  1.00  0.00     0.049 A 
ATOM     49  H   UNL A   1      41.567  29.173  28.825  1.00  0.00     0.167 HD
ATOM     50  C   UNL A   1      45.628  28.644  27.233  1.00  0.00     0.034 A 
ATOM     51  C   UNL A   1      39.557  30.518  30.236  1.00  0.00     0.034 A 
ATOM     52  C   UNL A   1      45.598  29.979  27.782  1.00  0.00     0.049 A 
ATOM     53  C   UNL A   1      40.758  31.432  30.227  1.00  0.00     0.074 A 
ATOM     54  C   UNL A   1      46.593  30.940  27.766  1.00  0.00     0.029 A 
ATOM     55  N   UNL A   1      44.518  30.540  28.454  1.00  0.00    -0.354 N 
ATOM     56  N   UNL A   1      41.944  31.233  29.699  1.00  0.00    -0.248 NA
ATOM     57  C   UNL A   1      40.603  32.735  30.887  1.00  0.00     0.031 C 
ATOM     58  C   UNL A   1      46.146  32.048  28.495  1.00  0.00     0.029 A 
ATOM     59  C   UNL A   1      44.838  31.818  28.888  1.00  0.00     0.049 A 
ATOM     60  H   UNL A   1      43.652  30.094  28.602  1.00  0.00     0.167 HD
ATOM     61  C   UNL A   1      42.665  32.402  29.935  1.00  0.00     0.074 A 
ATOM     62  C   UNL A   1      41.773  33.303  30.636  1.00  0.00     0.031 C 
ATOM     63  C   UNL A   1      43.944  32.704  29.598  1.00  0.00     0.034 A 
BRANCH  50  64
ATOM     64  C   UNL A   1      46.911  28.140  26.613  1.00  0.00     0.023 A 
ATOM     65  C   UNL A   1      47.135  28.203  25.226  1.00  0.00     0.031 A 
ATOM     66  C   UNL A   1      47.914  27.565  27.414  1.00  0.00     0.131 A 
ATOM     67  C   UNL A   1      48.291  27.630  24.675  1.00  0.00     0.055 A 
ATOM     68  C   UNL A   1      49.103  27.076  26.869  1.00  0.00     0.041 A 
ATOM     69  F   UNL A   1      47.750  27.455  28.742  1.00  0.00    -0.206 F 
ATOM     70  C   UNL A   1      49.290  27.092  25.490  1.00  0.00     0.022 A 
BRANCH  67  71
ATOM     71  S   UNL A   1      48.397  27.456  22.873  1.00  0.00     0.124 S 
ATOM     72  O   UNL A   1      48.335  26.004  22.713  1.00  0.00    -0.237 OA
ATOM     73  O   UNL A   1      47.229  28.199  22.416  1.00  0.00    -0.237 OA
ATOM     74  O   UNL A   1      49.688  28.056  22.545  1.00  0.00    -0.744 OA
ENDBRANCH  67  71
ENDBRANCH  50  64
BRANCH  51  75
ATOM     75  C   UNL A   1      38.298  30.922  30.928  1.00  0.00     0.023 A 
ATOM     76  C   UNL A   1      37.278  31.599  30.240  1.00  0.00     0.031 A 
ATOM     77  C   UNL A   1      38.115  30.680  32.301  1.00  0.00     0.131 A 
ATOM     78  C   UNL A   1      36.147  32.056  30.935  1.00  0.00     0.055 A 
ATOM     79  C   UNL A   1      36.961  31.082  32.976  1.00  0.00     0.041 A 
ATOM     80  F   UNL A   1      39.057  30.034  33.007  1.00  0.00    -0.206 F 
ATOM     81  C   UNL A   1      35.975  31.788  32.294  1.00  0.00     0.022 A 
BRANCH  78  82
ATOM     82  S   UNL A   1      34.946  33.092  30.056  1.00  0.00     0.124 S 
ATOM     83  O   UNL A   1      34.023  33.450  31.127  1.00  0.00    -0.237 OA
ATOM     84  O   UNL A   1      35.790  34.170  29.549  1.00  0.00    -0.237 OA
ATOM     85  O   UNL A   1      34.404  32.197  29.037  1.00  0.00    -0.744 OA
ENDBRANCH  78  82
ENDBRANCH  51  75
BRANCH  63  86
ATOM     86  C   UNL A   1      44.438  34.090  29.944  1.00  0.00     0.023 A 
ATOM     87  C   UNL A   1      44.301  35.170  29.056  1.00  0.00     0.031 A 
ATOM     88  C   UNL A   1      45.067  34.326  31.180  1.00  0.00     0.131 A 
ATOM     89  C   UNL A   1      44.839  36.424  29.390  1.00  0.00     0.055 A 
ATOM     90  C   UNL A   1      45.539  35.591  31.535  1.00  0.00     0.041 A 
ATOM     91  F   UNL A   1      45.230  33.332  32.066  1.00  0.00    -0.206 F 
ATOM     92  C   UNL A   1      45.440  36.644  30.632  1.00  0.00     0.022 A 
BRANCH  89  93
ATOM     93  S   UNL A   1      44.835  37.735  28.137  1.00  0.00     0.124 S 
ATOM     94  O   UNL A   1      43.477  38.256  28.249  1.00  0.00    -0.237 OA
ATOM     95  O   UNL A   1      45.898  38.618  28.605  1.00  0.00    -0.237 OA
ATOM     96  O   UNL A   1      45.124  37.021  26.894  1.00  0.00    -0.744 OA
ENDBRANCH  89  93
ENDBRANCH  63  86
ENDBRANCH  37  38
ENDBRANCH  29  32
ENDBRANCH  27  28
ENDBRANCH  26  27
ENDBRANCH   1  26
TORSDOF 18
ENDMDL
MODEL 2
REMARK VINA RESULT:     -11.6      5.564      8.208
REMARK SMILES Cc1sc(-c2ccco2)nc1C(=O)N[C@@H](C(=O)NCCCCNC(=O)c1ccc(-c2c3nc(c(-c4cc(S(=O)(=O)[O-])ccc4F)c4ccc([nH]4)c(-c4cc(S(=O)(=O)[O-])ccc4F)c4nc(c(-c5cc(S(=O)(=O)[O-])ccc5F)c5ccc2[nH]5)C=C4)C=C3)cc1)C(C)C
REMARK SMILES IDX 20 1 19 2 18 3 16 4 17 5 15 7 14 8 12 9 13 10 11 12 1 13
REMARK SMILES IDX 2 14 3 15 4 16 10 17 5 18 6 19 9 20 7 21 8 22 89 23 90 24
REMARK SMILES IDX 91 25 21 26 22 27 23 28 24 29 25 31 26 32 27 33 88 34 28 35
REMARK SMILES IDX 87 36 29 37 30 38 31 39 81 40 32 41 86 42 80 43 82 44 33 45
REMARK SMILES IDX 85 46 79 47 78 48 34 50 66 51 46 52 65 53 47 54 50 55 64 56
REMARK SMILES IDX 83 57 48 58 49 59 63 61 84 62 51 63 35 64 36 65 44 66 37 67
REMARK SMILES IDX 43 68 45 69 42 70 38 71 39 72 40 73 41 74 67 75 68 76 76 77
REMARK SMILES IDX 69 78 75 79 77 80 74 81 70 82 71 83 72 84 73 85 52 86 53 87
REMARK SMILES IDX 61 88 54 89 60 90 62 91 59 92 55 93 56 94 57 95 58 96
REMARK H PARENT 18 6 14 11 23 30 82 49 50 60
REMARK Flexibility Score: inf
ROOT
ATOM      1  C   UNL A   1      32.142  29.473  27.159  1.00  0.00     0.023 C 
ENDROOT
BRANCH   1   2
ATOM      2  C   UNL A   1      32.170  28.511  25.976  1.00  0.00     0.116 C 
BRANCH   2   3
ATOM      3  N   UNL A   1      32.851  29.094  24.835  1.00  0.00    -0.354 N 
ATOM      4  C   UNL A   1      32.891  28.701  23.526  1.00  0.00     0.242 C 
ATOM      5  O   UNL A   1      33.606  29.358  22.766  1.00  0.00    -0.273 OA
ATOM      6  H   UNL A   1      33.370  29.905  25.037  1.00  0.00     0.163 HD
BRANCH   4   7
ATOM      7  C   UNL A   1      31.944  27.584  23.007  1.00  0.00     0.174 C 
BRANCH   7   8
ATOM      8  N   UNL A   1      32.483  26.937  21.828  1.00  0.00    -0.339 N 
ATOM      9  C   UNL A   1      32.875  25.657  21.531  1.00  0.00     0.271 C 
ATOM     10  O   UNL A   1      33.276  25.543  20.365  1.00  0.00    -0.267 OA
ATOM     11  H   UNL A   1      32.591  27.554  21.069  1.00  0.00     0.164 HD
BRANCH   9  12
ATOM     12  C   UNL A   1      32.875  24.464  22.437  1.00  0.00     0.142 A 
ATOM     13  C   UNL A   1      30.475  23.927  23.553  1.00  0.00     0.059 C 
ATOM     14  C   UNL A   1      31.912  23.768  23.185  1.00  0.00     0.035 A 
ATOM     15  S   UNL A   1      32.618  22.330  23.856  1.00  0.00    -0.115 S 
ATOM     16  C   UNL A   1      34.159  22.880  23.429  1.00  0.00     0.160 A 
ATOM     17  N   UNL A   1      34.178  23.955  22.686  1.00  0.00    -0.227 NA
BRANCH  16  18
ATOM     18  C   UNL A   1      35.323  22.223  23.936  1.00  0.00     0.162 A 
ATOM     19  C   UNL A   1      36.641  22.644  23.870  1.00  0.00     0.053 A 
ATOM     20  O   UNL A   1      35.266  21.072  24.681  1.00  0.00    -0.462 OA
ATOM     21  C   UNL A   1      37.408  21.729  24.629  1.00  0.00     0.043 A 
ATOM     22  C   UNL A   1      36.527  20.780  25.083  1.00  0.00     0.196 A 
ENDBRANCH  16  18
ENDBRANCH   9  12
ENDBRANCH   7   8
BRANCH   7  23
ATOM     23  C   UNL A   1      30.482  28.058  22.814  1.00  0.00     0.015 C 
ATOM     24  C   UNL A   1      29.521  27.412  23.821  1.00  0.00     0.010 C 
ATOM     25  C   UNL A   1      30.396  29.585  22.984  1.00  0.00     0.010 C 
ENDBRANCH   7  23
ENDBRANCH   4   7
ENDBRANCH   2   3
ENDBRANCH   1   2
BRANCH   1  26
ATOM     26  C   UNL A   1      32.069  30.941  26.740  1.00  0.00     0.023 C 
BRANCH  26  27
ATOM     27  C   UNL A   1      33.217  31.807  27.252  1.00  0.00     0.116 C 
BRANCH  27  28
ATOM     28  N   UNL A   1      32.817  33.177  27.529  1.00  0.00    -0.352 N 
ATOM     29  C   UNL A   1      33.293  34.024  28.502  1.00  0.00     0.251 C 
ATOM     30  H   UNL A   1      32.115  33.546  26.946  1.00  0.00     0.163 HD
ATOM     31  O   UNL A   1      32.746  35.106  28.698  1.00  0.00    -0.269 OA
BRANCH  29  32
ATOM     32  C   UNL A   1      34.441  33.600  29.331  1.00  0.00     0.039 A 
ATOM     33  C   UNL A   1      34.216  32.752  30.416  1.00  0.00     0.014 A 
ATOM     34  C   UNL A   1      35.742  34.000  29.005  1.00  0.00     0.014 A 
ATOM     35  C   UNL A   1      35.303  32.248  31.134  1.00  0.00     0.010 A 
ATOM     36  C   UNL A   1      36.824  33.433  29.671  1.00  0.00     0.010 A 
ATOM     37  C   UNL A   1      36.618  32.550  30.743  1.00  0.00    -0.014 A 
BRANCH  37  38
ATOM     38  C   UNL A   1      37.787  31.953  31.442  1.00  0.00     0.031 A 
ATOM     39  C   UNL A   1      38.581  30.858  30.783  1.00  0.00     0.074 A 
ATOM     40  C   UNL A   1      38.099  32.358  32.689  1.00  0.00     0.049 A 
ATOM     41  N   UNL A   1      39.587  30.167  31.252  1.00  0.00    -0.248 NA
ATOM     42  C   UNL A   1      38.167  30.468  29.426  1.00  0.00     0.031 C 
ATOM     43  C   UNL A   1      37.381  33.383  33.450  1.00  0.00     0.029 A 
ATOM     44  N   UNL A   1      39.096  31.954  33.543  1.00  0.00    -0.354 N 
ATOM     45  C   UNL A   1      39.921  29.257  30.256  1.00  0.00     0.074 A 
ATOM     46  C   UNL A   1      38.964  29.439  29.186  1.00  0.00     0.031 C 
ATOM     47  C   UNL A   1      37.977  33.547  34.641  1.00  0.00     0.029 A 
ATOM     48  C   UNL A   1      39.087  32.607  34.755  1.00  0.00     0.049 A 
ATOM     49  H   UNL A   1      39.756  31.262  33.309  1.00  0.00     0.167 HD
ATOM     50  C   UNL A   1      40.947  28.370  30.224  1.00  0.00     0.034 A 
ATOM     51  C   UNL A   1      39.873  32.456  35.839  1.00  0.00     0.034 A 
ATOM     52  C   UNL A   1      41.898  28.206  31.297  1.00  0.00     0.049 A 
ATOM     53  C   UNL A   1      40.986  31.438  35.795  1.00  0.00     0.074 A 
ATOM     54  C   UNL A   1      43.003  27.374  31.349  1.00  0.00     0.029 A 
ATOM     55  N   UNL A   1      41.853  28.879  32.512  1.00  0.00    -0.354 N 
ATOM     56  N   UNL A   1      41.319  30.620  34.823  1.00  0.00    -0.248 NA
ATOM     57  C   UNL A   1      41.833  31.330  36.990  1.00  0.00     0.031 C 
ATOM     58  C   UNL A   1      43.577  27.486  32.620  1.00  0.00     0.029 A 
ATOM     59  C   UNL A   1      42.888  28.454  33.331  1.00  0.00     0.049 A 
ATOM     60  H   UNL A   1      41.183  29.559  32.756  1.00  0.00     0.167 HD
ATOM     61  C   UNL A   1      42.438  29.925  35.279  1.00  0.00     0.074 A 
ATOM     62  C   UNL A   1      42.728  30.434  36.604  1.00  0.00     0.031 C 
ATOM     63  C   UNL A   1      43.161  28.960  34.658  1.00  0.00     0.034 A 
BRANCH  50  64
ATOM     64  C   UNL A   1      41.074  27.495  28.997  1.00  0.00     0.023 A 
ATOM     65  C   UNL A   1      42.069  27.719  28.029  1.00  0.00     0.031 A 
ATOM     66  C   UNL A   1      40.171  26.439  28.777  1.00  0.00     0.131 A 
ATOM     67  C   UNL A   1      42.089  26.954  26.853  1.00  0.00     0.055 A 
ATOM     68  C   UNL A   1      40.251  25.624  27.647  1.00  0.00     0.041 A 
ATOM     69  F   UNL A   1      39.184  26.189  29.653  1.00  0.00    -0.206 F 
ATOM     70  C   UNL A   1      41.205  25.889  26.668  1.00  0.00     0.022 A 
BRANCH  67  71
ATOM     71  S   UNL A   1      43.184  27.471  25.503  1.00  0.00     0.124 S 
ATOM     72  O   UNL A   1      43.661  26.184  25.001  1.00  0.00    -0.237 OA
ATOM     73  O   UNL A   1      42.278  28.202  24.625  1.00  0.00    -0.237 OA
ATOM     74  O   UNL A   1      44.196  28.284  26.174  1.00  0.00    -0.744 OA
ENDBRANCH  67  71
ENDBRANCH  50  64
BRANCH  51  75
ATOM     75  C   UNL A   1      39.637  33.273  37.066  1.00  0.00     0.023 A 
ATOM     76  C   UNL A   1      38.956  32.739  38.171  1.00  0.00     0.031 A 
ATOM     77  C   UNL A   1      40.047  34.616  37.133  1.00  0.00     0.131 A 
ATOM     78  C   UNL A   1      38.658  33.556  39.274  1.00  0.00     0.055 A 
ATOM     79  C   UNL A   1      39.802  35.409  38.256  1.00  0.00     0.041 A 
ATOM     80  F   UNL A   1      40.704  35.178  36.105  1.00  0.00    -0.206 F 
ATOM     81  C   UNL A   1      39.090  34.883  39.329  1.00  0.00     0.022 A 
BRANCH  78  82
ATOM     82  S   UNL A   1      37.611  32.888  40.595  1.00  0.00     0.124 S 
ATOM     83  O   UNL A   1      36.994  34.098  41.125  1.00  0.00    -0.237 OA
ATOM     84  O   UNL A   1      36.729  31.989  39.856  1.00  0.00    -0.237 OA
ATOM     85  O   UNL A   1      38.564  32.230  41.485  1.00  0.00    -0.744 OA
ENDBRANCH  78  82
ENDBRANCH  51  75
BRANCH  63  86
ATOM     86  C   UNL A   1      44.371  28.426  35.390  1.00  0.00     0.023 A 
ATOM     87  C   UNL A   1      44.257  27.470  36.413  1.00  0.00     0.031 A 
ATOM     88  C   UNL A   1      45.656  28.895  35.063  1.00  0.00     0.131 A 
ATOM     89  C   UNL A   1      45.401  27.056  37.115  1.00  0.00     0.055 A 
ATOM     90  C   UNL A   1      46.798  28.429  35.719  1.00  0.00     0.041 A 
ATOM     91  F   UNL A   1      45.826  29.812  34.098  1.00  0.00    -0.206 F 
ATOM     92  C   UNL A   1      46.672  27.516  36.761  1.00  0.00     0.022 A 
BRANCH  89  93
ATOM     93  S   UNL A   1      45.194  25.988  38.566  1.00  0.00     0.124 S 
ATOM     94  O   UNL A   1      46.527  26.016  39.156  1.00  0.00    -0.237 OA
ATOM     95  O   UNL A   1      44.149  26.677  39.315  1.00  0.00    -0.237 OA
ATOM     96  O   UNL A   1      44.798  24.703  37.990  1.00  0.00    -0.744 OA
ENDBRANCH  89  93
ENDBRANCH  63  86
ENDBRANCH  37  38
ENDBRANCH  29  32
ENDBRANCH  27  28
ENDBRANCH  26  27
ENDBRANCH   1  26
TORSDOF 18
ENDMDL
MODEL 3
REMARK VINA RESULT:     -11.4      1.695      3.528
REMARK SMILES Cc1sc(-c2ccco2)nc1C(=O)N[C@@H](C(=O)NCCCCNC(=O)c1ccc(-c2c3nc(c(-c4cc(S(=O)(=O)[O-])ccc4F)c4ccc([nH]4)c(-c4cc(S(=O)(=O)[O-])ccc4F)c4nc(c(-c5cc(S(=O)(=O)[O-])ccc5F)c5ccc2[nH]5)C=C4)C=C3)cc1)C(C)C
REMARK SMILES IDX 20 1 19 2 18 3 16 4 17 5 15 7 14 8 12 9 13 10 11 12 1 13
REMARK SMILES IDX 2 14 3 15 4 16 10 17 5 18 6 19 9 20 7 21 8 22 89 23 90 24
REMARK SMILES IDX 91 25 21 26 22 27 23 28 24 29 25 31 26 32 27 33 88 34 28 35
REMARK SMILES IDX 87 36 29 37 30 38 31 39 81 40 32 41 86 42 80 43 82 44 33 45
REMARK SMILES IDX 85 46 79 47 78 48 34 50 66 51 46 52 65 53 47 54 50 55 64 56
REMARK SMILES IDX 83 57 48 58 49 59 63 61 84 62 51 63 35 64 36 65 44 66 37 67
REMARK SMILES IDX 43 68 45 69 42 70 38 71 39 72 40 73 41 74 67 75 68 76 76 77
REMARK SMILES IDX 69 78 75 79 77 80 74 81 70 82 71 83 72 84 73 85 52 86 53 87
REMARK SMILES IDX 61 88 54 89 60 90 62 91 59 92 55 93 56 94 57 95 58 96
REMARK H PARENT 18 6 14 11 23 30 82 49 50 60
REMARK Flexibility Score: inf
ROOT
ATOM      1  C   UNL A   1      36.677  22.922  23.151  1.00  0.00     0.023 C 
ENDROOT
BRANCH   1   2
ATOM      2  C   UNL A   1      35.407  23.733  23.384  1.00  0.00     0.116 C 
BRANCH   2   3
ATOM      3  N   UNL A   1      35.123  23.879  24.799  1.00  0.00    -0.354 N 
ATOM      4  C   UNL A   1      33.933  23.877  25.473  1.00  0.00     0.242 C 
ATOM      5  O   UNL A   1      33.978  24.081  26.688  1.00  0.00    -0.273 OA
ATOM      6  H   UNL A   1      35.917  24.000  25.367  1.00  0.00     0.163 HD
BRANCH   4   7
ATOM      7  C   UNL A   1      32.619  23.466  24.754  1.00  0.00     0.174 C 
BRANCH   7   8
ATOM      8  N   UNL A   1      31.452  23.834  25.530  1.00  0.00    -0.339 N 
ATOM      9  C   UNL A   1      30.787  25.010  25.764  1.00  0.00     0.271 C 
ATOM     10  O   UNL A   1      29.805  24.861  26.504  1.00  0.00    -0.267 OA
ATOM     11  H   UNL A   1      31.043  23.067  25.993  1.00  0.00     0.164 HD
BRANCH   9  12
ATOM     12  C   UNL A   1      31.129  26.375  25.250  1.00  0.00     0.142 A 
ATOM     13  C   UNL A   1      33.231  27.526  26.498  1.00  0.00     0.059 C 
ATOM     14  C   UNL A   1      32.125  27.329  25.516  1.00  0.00     0.035 A 
ATOM     15  S   UNL A   1      32.010  28.630  24.370  1.00  0.00    -0.115 S 
ATOM     16  C   UNL A   1      30.511  28.048  23.850  1.00  0.00     0.160 A 
ATOM     17  N   UNL A   1      30.169  26.883  24.335  1.00  0.00    -0.227 NA
BRANCH  16  18
ATOM     18  C   UNL A   1      29.683  28.847  23.002  1.00  0.00     0.162 A 
ATOM     19  C   UNL A   1      28.300  28.861  22.921  1.00  0.00     0.053 A 
ATOM     20  O   UNL A   1      30.182  29.830  22.183  1.00  0.00    -0.462 OA
ATOM     21  C   UNL A   1      27.947  29.912  22.041  1.00  0.00     0.043 A 
ATOM     22  C   UNL A   1      29.129  30.455  21.604  1.00  0.00     0.196 A 
ENDBRANCH  16  18
ENDBRANCH   9  12
ENDBRANCH   7   8
BRANCH   7  23
ATOM     23  C   UNL A   1      32.598  21.982  24.310  1.00  0.00     0.015 C 
ATOM     24  C   UNL A   1      31.801  21.095  25.275  1.00  0.00     0.010 C 
ATOM     25  C   UNL A   1      31.965  21.859  22.914  1.00  0.00     0.010 C 
ENDBRANCH   7  23
ENDBRANCH   4   7
ENDBRANCH   2   3
ENDBRANCH   1   2
BRANCH   1  26
ATOM     26  C   UNL A   1      36.809  21.726  24.094  1.00  0.00     0.023 C 
BRANCH  26  27
ATOM     27  C   UNL A   1      37.466  22.041  25.435  1.00  0.00     0.116 C 
BRANCH  27  28
ATOM     28  N   UNL A   1      38.478  21.068  25.815  1.00  0.00    -0.352 N 
ATOM     29  C   UNL A   1      39.694  21.293  26.416  1.00  0.00     0.251 C 
ATOM     30  H   UNL A   1      38.265  20.128  25.617  1.00  0.00     0.163 HD
ATOM     31  O   UNL A   1      40.499  20.374  26.541  1.00  0.00    -0.269 OA
BRANCH  29  32
ATOM     32  C   UNL A   1      40.033  22.658  26.872  1.00  0.00     0.039 A 
ATOM     33  C   UNL A   1      40.991  22.817  27.875  1.00  0.00     0.014 A 
ATOM     34  C   UNL A   1      39.442  23.776  26.275  1.00  0.00     0.014 A 
ATOM     35  C   UNL A   1      41.407  24.102  28.231  1.00  0.00     0.010 A 
ATOM     36  C   UNL A   1      39.917  25.049  26.575  1.00  0.00     0.010 A 
ATOM     37  C   UNL A   1      40.905  25.228  27.556  1.00  0.00    -0.014 A 
BRANCH  37  38
ATOM     38  C   UNL A   1      41.402  26.596  27.862  1.00  0.00     0.031 A 
ATOM     39  C   UNL A   1      42.805  26.990  27.488  1.00  0.00     0.074 A 
ATOM     40  C   UNL A   1      40.609  27.463  28.524  1.00  0.00     0.049 A 
ATOM     41  N   UNL A   1      43.443  28.107  27.727  1.00  0.00    -0.248 NA
ATOM     42  C   UNL A   1      43.606  25.981  26.778  1.00  0.00     0.031 C 
ATOM     43  C   UNL A   1      39.244  27.184  28.976  1.00  0.00     0.029 A 
ATOM     44  N   UNL A   1      40.836  28.752  28.941  1.00  0.00    -0.354 N 
ATOM     45  C   UNL A   1      44.720  27.933  27.206  1.00  0.00     0.074 A 
ATOM     46  C   UNL A   1      44.785  26.578  26.702  1.00  0.00     0.031 C 
ATOM     47  C   UNL A   1      38.747  28.276  29.578  1.00  0.00     0.029 A 
ATOM     48  C   UNL A   1      39.770  29.316  29.604  1.00  0.00     0.049 A 
ATOM     49  H   UNL A   1      41.683  29.227  28.779  1.00  0.00     0.167 HD
ATOM     50  C   UNL A   1      45.736  28.829  27.130  1.00  0.00     0.034 A 
ATOM     51  C   UNL A   1      39.637  30.528  30.180  1.00  0.00     0.034 A 
ATOM     52  C   UNL A   1      45.653  30.180  27.632  1.00  0.00     0.049 A 
ATOM     53  C   UNL A   1      40.793  31.495  30.115  1.00  0.00     0.074 A 
ATOM     54  C   UNL A   1      46.602  31.185  27.563  1.00  0.00     0.029 A 
ATOM     55  N   UNL A   1      44.560  30.714  28.304  1.00  0.00    -0.354 N 
ATOM     56  N   UNL A   1      41.978  31.332  29.573  1.00  0.00    -0.248 NA
ATOM     57  C   UNL A   1      40.589  32.812  30.732  1.00  0.00     0.031 C 
ATOM     58  C   UNL A   1      46.115  32.296  28.261  1.00  0.00     0.029 A 
ATOM     59  C   UNL A   1      44.827  32.020  28.686  1.00  0.00     0.049 A 
ATOM     60  H   UNL A   1      43.718  30.235  28.484  1.00  0.00     0.167 HD
ATOM     61  C   UNL A   1      42.647  32.541  29.754  1.00  0.00     0.074 A 
ATOM     62  C   UNL A   1      41.727  33.424  30.440  1.00  0.00     0.031 C 
ATOM     63  C   UNL A   1      43.905  32.889  29.382  1.00  0.00     0.034 A 
BRANCH  50  64
ATOM     64  C   UNL A   1      47.030  28.363  26.503  1.00  0.00     0.023 A 
ATOM     65  C   UNL A   1      47.210  28.339  25.109  1.00  0.00     0.031 A 
ATOM     66  C   UNL A   1      48.091  27.910  27.308  1.00  0.00     0.131 A 
ATOM     67  C   UNL A   1      48.384  27.801  24.561  1.00  0.00     0.055 A 
ATOM     68  C   UNL A   1      49.293  27.458  26.759  1.00  0.00     0.041 A 
ATOM     69  F   UNL A   1      47.973  27.886  28.645  1.00  0.00    -0.206 F 
ATOM     70  C   UNL A   1      49.438  27.386  25.376  1.00  0.00     0.022 A 
BRANCH  67  71
ATOM     71  S   UNL A   1      48.448  27.506  22.772  1.00  0.00     0.124 S 
ATOM     72  O   UNL A   1      49.682  28.197  22.404  1.00  0.00    -0.237 OA
ATOM     73  O   UNL A   1      48.483  26.051  22.695  1.00  0.00    -0.237 OA
ATOM     74  O   UNL A   1      47.223  28.129  22.277  1.00  0.00    -0.744 OA
ENDBRANCH  67  71
ENDBRANCH  50  64
BRANCH  51  75
ATOM     75  C   UNL A   1      38.372  30.898  30.881  1.00  0.00     0.023 A 
ATOM     76  C   UNL A   1      37.323  31.531  30.196  1.00  0.00     0.031 A 
ATOM     77  C   UNL A   1      38.213  30.667  32.258  1.00  0.00     0.131 A 
ATOM     78  C   UNL A   1      36.184  31.958  30.898  1.00  0.00     0.055 A 
ATOM     79  C   UNL A   1      37.053  31.039  32.941  1.00  0.00     0.041 A 
ATOM     80  F   UNL A   1      39.184  30.062  32.962  1.00  0.00    -0.206 F 
ATOM     81  C   UNL A   1      36.036  31.702  32.262  1.00  0.00     0.022 A 
BRANCH  78  82
ATOM     82  S   UNL A   1      34.939  32.942  30.020  1.00  0.00     0.124 S 
ATOM     83  O   UNL A   1      35.755  34.001  29.438  1.00  0.00    -0.237 OA
ATOM     84  O   UNL A   1      34.390  31.967  29.082  1.00  0.00    -0.237 OA
ATOM     85  O   UNL A   1      34.028  33.364  31.081  1.00  0.00    -0.744 OA
ENDBRANCH  78  82
ENDBRANCH  51  75
BRANCH  63  86
ATOM     86  C   UNL A   1      44.339  34.308  29.669  1.00  0.00     0.023 A 
ATOM     87  C   UNL A   1      44.082  35.359  28.773  1.00  0.00     0.031 A 
ATOM     88  C   UNL A   1      45.033  34.606  30.856  1.00  0.00     0.131 A 
ATOM     89  C   UNL A   1      44.568  36.648  29.048  1.00  0.00     0.055 A 
ATOM     90  C   UNL A   1      45.453  35.903  31.157  1.00  0.00     0.041 A 
ATOM     91  F   UNL A   1      45.311  33.642  31.747  1.00  0.00    -0.206 F 
ATOM     92  C   UNL A   1      45.235  36.929  30.243  1.00  0.00     0.022 A 
BRANCH  89  93
ATOM     93  S   UNL A   1      44.406  37.930  27.775  1.00  0.00     0.124 S 
ATOM     94  O   UNL A   1      44.003  39.090  28.563  1.00  0.00    -0.237 OA
ATOM     95  O   UNL A   1      45.748  37.978  27.208  1.00  0.00    -0.237 OA
ATOM     96  O   UNL A   1      43.375  37.398  26.884  1.00  0.00    -0.744 OA
ENDBRANCH  89  93
ENDBRANCH  63  86
ENDBRANCH  37  38
ENDBRANCH  29  32
ENDBRANCH  27  28
ENDBRANCH  26  27
ENDBRANCH   1  26
TORSDOF 18
ENDMDL
