MODEL 1
REMARK VINA RESULT:     -12.1      0.000      0.000
REMARK SMILES CC(C)[C@H](C(=O)NCCCCNC(=O)c1ccc(-c2c3nc(c(-c4cc(S(=O)(=O)[O-])ccc4F)c4ccc([nH]4)c(-c4cc(S(=O)(=O)[O-])ccc4F)c4nc(c(-c5cc(S(=O)(=O)[O-])ccc5F)c5ccc2[nH]5)C=C4)C=C3)cc1)N1C(=O)/C(=C/c2ccccc2Cl)SC1=S
REMARK SMILES IDX 10 1 9 2 8 3 7 4 5 5 6 6 4 8 2 9 1 10 3 11 78 12 79 13 91 14
REMARK SMILES IDX 80 15 81 16 90 17 92 18 82 19 83 20 84 21 88 22 85 23 87 24
REMARK SMILES IDX 89 25 86 26 11 27 12 28 13 29 14 31 15 32 16 33 77 34 17 35
REMARK SMILES IDX 76 36 18 37 19 38 20 39 70 40 21 41 75 42 69 43 71 44 22 45
REMARK SMILES IDX 74 46 68 47 67 48 23 50 55 51 35 52 54 53 36 54 39 55 53 56
REMARK SMILES IDX 72 57 37 58 38 59 52 61 73 62 40 63 24 64 25 65 33 66 26 67
REMARK SMILES IDX 32 68 34 69 31 70 27 71 28 72 29 73 30 74 56 75 57 76 65 77
REMARK SMILES IDX 58 78 64 79 66 80 63 81 59 82 60 83 61 84 62 85 41 86 42 87
REMARK SMILES IDX 50 88 43 89 49 90 51 91 48 92 44 93 45 94 46 95 47 96
REMARK H PARENT 7 7 12 30 71 49 39 60
REMARK Flexibility Score: inf
ROOT
ATOM      1  C   UNL A   1      32.287  30.863  27.060  1.00  0.00     0.023 C 
ENDROOT
BRANCH   1   2
ATOM      2  C   UNL A   1      32.580  29.367  27.120  1.00  0.00     0.023 C 
BRANCH   2   3
ATOM      3  C   UNL A   1      33.960  28.942  26.618  1.00  0.00     0.116 C 
BRANCH   3   4
ATOM      4  N   UNL A   1      34.080  29.079  25.183  1.00  0.00    -0.354 N 
ATOM      5  C   UNL A   1      33.494  28.439  24.136  1.00  0.00     0.243 C 
ATOM      6  O   UNL A   1      33.740  28.933  23.028  1.00  0.00    -0.273 OA
ATOM      7  H   UNL A   1      34.717  29.779  24.908  1.00  0.00     0.163 HD
BRANCH   5   8
ATOM      8  C   UNL A   1      32.387  27.343  24.292  1.00  0.00     0.184 C 
BRANCH   8   9
ATOM      9  C   UNL A   1      31.043  27.828  23.639  1.00  0.00     0.015 C 
ATOM     10  C   UNL A   1      29.801  26.975  23.909  1.00  0.00     0.010 C 
ATOM     11  C   UNL A   1      30.755  29.280  24.054  1.00  0.00     0.010 C 
ENDBRANCH   8   9
BRANCH   8  12
ATOM     12  N   UNL A   1      32.768  25.956  23.969  1.00  0.00    -0.280 N 
ATOM     13  C   UNL A   1      33.146  25.107  24.991  1.00  0.00     0.266 C 
ATOM     14  C   UNL A   1      32.919  25.451  22.690  1.00  0.00     0.149 C 
ATOM     15  O   UNL A   1      33.300  25.416  26.162  1.00  0.00    -0.268 OA
ATOM     16  C   UNL A   1      33.303  23.720  24.468  1.00  0.00     0.081 C 
ATOM     17  S   UNL A   1      33.393  23.753  22.760  1.00  0.00    -0.054 SA
ATOM     18  S   UNL A   1      32.708  26.230  21.229  1.00  0.00    -0.052 S 
ATOM     19  C   UNL A   1      33.285  22.661  25.286  1.00  0.00     0.031 C 
BRANCH  19  20
ATOM     20  C   UNL A   1      33.456  21.241  24.936  1.00  0.00    -0.006 A 
ATOM     21  C   UNL A   1      32.367  20.451  24.535  1.00  0.00     0.010 A 
ATOM     22  C   UNL A   1      34.717  20.632  25.068  1.00  0.00     0.048 A 
ATOM     23  C   UNL A   1      32.540  19.088  24.264  1.00  0.00     0.001 A 
ATOM     24  C   UNL A   1      34.885  19.272  24.801  1.00  0.00     0.021 A 
ATOM     25  Cl  UNL A   1      36.114  21.529  25.562  1.00  0.00    -0.084 Cl
ATOM     26  C   UNL A   1      33.797  18.499  24.399  1.00  0.00     0.002 A 
ENDBRANCH  19  20
ENDBRANCH   8  12
ENDBRANCH   5   8
ENDBRANCH   3   4
ENDBRANCH   2   3
ENDBRANCH   1   2
BRANCH   1  27
ATOM     27  C   UNL A   1      33.420  31.755  27.539  1.00  0.00     0.116 C 
BRANCH  27  28
ATOM     28  N   UNL A   1      33.026  33.155  27.646  1.00  0.00    -0.352 N 
ATOM     29  C   UNL A   1      33.467  34.129  28.512  1.00  0.00     0.251 C 
ATOM     30  H   UNL A   1      32.340  33.447  27.002  1.00  0.00     0.163 HD
ATOM     31  O   UNL A   1      32.882  35.207  28.564  1.00  0.00    -0.269 OA
BRANCH  29  32
ATOM     32  C   UNL A   1      34.619  33.852  29.396  1.00  0.00     0.039 A 
ATOM     33  C   UNL A   1      34.422  33.119  30.569  1.00  0.00     0.014 A 
ATOM     34  C   UNL A   1      35.900  34.266  29.029  1.00  0.00     0.014 A 
ATOM     35  C   UNL A   1      35.529  32.707  31.316  1.00  0.00     0.010 A 
ATOM     36  C   UNL A   1      37.001  33.772  29.716  1.00  0.00     0.010 A 
ATOM     37  C   UNL A   1      36.829  32.976  30.859  1.00  0.00    -0.014 A 
BRANCH  37  38
ATOM     38  C   UNL A   1      38.035  32.432  31.536  1.00  0.00     0.031 A 
ATOM     39  C   UNL A   1      38.814  31.320  30.889  1.00  0.00     0.074 A 
ATOM     40  C   UNL A   1      38.355  32.855  32.775  1.00  0.00     0.049 A 
ATOM     41  N   UNL A   1      39.776  30.585  31.380  1.00  0.00    -0.248 NA
ATOM     42  C   UNL A   1      38.419  30.962  29.518  1.00  0.00     0.031 C 
ATOM     43  C   UNL A   1      37.653  33.900  33.524  1.00  0.00     0.029 A 
ATOM     44  N   UNL A   1      39.344  32.443  33.634  1.00  0.00    -0.354 N 
ATOM     45  C   UNL A   1      40.088  29.661  30.387  1.00  0.00     0.074 A 
ATOM     46  C   UNL A   1      39.161  29.888  29.300  1.00  0.00     0.031 C 
ATOM     47  C   UNL A   1      38.248  34.064  34.716  1.00  0.00     0.029 A 
ATOM     48  C   UNL A   1      39.334  33.099  34.844  1.00  0.00     0.049 A 
ATOM     49  H   UNL A   1      39.998  31.745  33.406  1.00  0.00     0.167 HD
ATOM     50  C   UNL A   1      41.074  28.730  30.375  1.00  0.00     0.034 A 
ATOM     51  C   UNL A   1      40.099  32.925  35.941  1.00  0.00     0.034 A 
ATOM     52  C   UNL A   1      41.998  28.533  31.464  1.00  0.00     0.049 A 
ATOM     53  C   UNL A   1      41.154  31.850  35.926  1.00  0.00     0.074 A 
ATOM     54  C   UNL A   1      43.077  27.670  31.537  1.00  0.00     0.029 A 
ATOM     55  N   UNL A   1      41.947  29.207  32.679  1.00  0.00    -0.354 N 
ATOM     56  N   UNL A   1      41.465  31.011  34.965  1.00  0.00    -0.248 NA
ATOM     57  C   UNL A   1      41.956  31.694  37.147  1.00  0.00     0.031 C 
ATOM     58  C   UNL A   1      43.637  27.774  32.815  1.00  0.00     0.029 A 
ATOM     59  C   UNL A   1      42.951  28.752  33.519  1.00  0.00     0.049 A 
ATOM     60  H   UNL A   1      41.293  29.906  32.909  1.00  0.00     0.167 HD
ATOM     61  C   UNL A   1      42.515  30.242  35.459  1.00  0.00     0.074 A 
ATOM     62  C   UNL A   1      42.790  30.725  36.798  1.00  0.00     0.031 C 
ATOM     63  C   UNL A   1      43.195  29.233  34.859  1.00  0.00     0.034 A 
BRANCH  50  64
ATOM     64  C   UNL A   1      41.174  27.850  29.151  1.00  0.00     0.023 A 
ATOM     65  C   UNL A   1      42.185  28.040  28.192  1.00  0.00     0.031 A 
ATOM     66  C   UNL A   1      40.217  26.851  28.905  1.00  0.00     0.131 A 
ATOM     67  C   UNL A   1      42.156  27.318  26.990  1.00  0.00     0.055 A 
ATOM     68  C   UNL A   1      40.248  26.070  27.748  1.00  0.00     0.041 A 
ATOM     69  F   UNL A   1      39.215  26.634  29.774  1.00  0.00    -0.206 F 
ATOM     70  C   UNL A   1      41.210  26.316  26.772  1.00  0.00     0.022 A 
BRANCH  67  71
ATOM     71  S   UNL A   1      43.263  27.835  25.648  1.00  0.00     0.124 S 
ATOM     72  O   UNL A   1      43.758  29.114  26.152  1.00  0.00    -0.237 OA
ATOM     73  O   UNL A   1      44.233  26.747  25.604  1.00  0.00    -0.237 OA
ATOM     74  O   UNL A   1      42.377  27.931  24.491  1.00  0.00    -0.744 OA
ENDBRANCH  67  71
ENDBRANCH  50  64
BRANCH  51  75
ATOM     75  C   UNL A   1      39.889  33.772  37.148  1.00  0.00     0.023 A 
ATOM     76  C   UNL A   1      40.725  34.871  37.405  1.00  0.00     0.031 A 
ATOM     77  C   UNL A   1      38.872  33.485  38.074  1.00  0.00     0.131 A 
ATOM     78  C   UNL A   1      40.550  35.624  38.576  1.00  0.00     0.055 A 
ATOM     79  C   UNL A   1      38.673  34.264  39.216  1.00  0.00     0.041 A 
ATOM     80  F   UNL A   1      38.042  32.450  37.872  1.00  0.00    -0.206 F 
ATOM     81  C   UNL A   1      39.523  35.336  39.477  1.00  0.00     0.022 A 
BRANCH  78  82
ATOM     82  S   UNL A   1      41.731  36.953  38.938  1.00  0.00     0.124 S 
ATOM     83  O   UNL A   1      40.843  38.039  39.335  1.00  0.00    -0.237 OA
ATOM     84  O   UNL A   1      42.537  36.361  40.000  1.00  0.00    -0.237 OA
ATOM     85  O   UNL A   1      42.425  37.146  37.666  1.00  0.00    -0.744 OA
ENDBRANCH  78  82
ENDBRANCH  51  75
BRANCH  63  86
ATOM     86  C   UNL A   1      44.320  28.608  35.642  1.00  0.00     0.023 A 
ATOM     87  C   UNL A   1      44.082  27.605  36.599  1.00  0.00     0.031 A 
ATOM     88  C   UNL A   1      45.647  29.018  35.424  1.00  0.00     0.131 A 
ATOM     89  C   UNL A   1      45.154  27.073  37.331  1.00  0.00     0.055 A 
ATOM     90  C   UNL A   1      46.714  28.447  36.119  1.00  0.00     0.041 A 
ATOM     91  F   UNL A   1      45.926  29.973  34.523  1.00  0.00    -0.206 F 
ATOM     92  C   UNL A   1      46.469  27.475  37.085  1.00  0.00     0.022 A 
BRANCH  89  93
ATOM     93  S   UNL A   1      44.801  25.884  38.654  1.00  0.00     0.124 S 
ATOM     94  O   UNL A   1      43.659  26.503  39.319  1.00  0.00    -0.237 OA
ATOM     95  O   UNL A   1      44.521  24.660  37.911  1.00  0.00    -0.237 OA
ATOM     96  O   UNL A   1      46.037  25.864  39.436  1.00  0.00    -0.744 OA
ENDBRANCH  89  93
ENDBRANCH  63  86
ENDBRANCH  37  38
ENDBRANCH  29  32
ENDBRANCH  27  28
ENDBRANCH   1  27
TORSDOF 17
ENDMDL
MODEL 2
REMARK VINA RESULT:     -11.6      3.051      8.247
REMARK SMILES CC(C)[C@H](C(=O)NCCCCNC(=O)c1ccc(-c2c3nc(c(-c4cc(S(=O)(=O)[O-])ccc4F)c4ccc([nH]4)c(-c4cc(S(=O)(=O)[O-])ccc4F)c4nc(c(-c5cc(S(=O)(=O)[O-])ccc5F)c5ccc2[nH]5)C=C4)C=C3)cc1)N1C(=O)/C(=C/c2ccccc2Cl)SC1=S
REMARK SMILES IDX 10 1 9 2 8 3 7 4 5 5 6 6 4 8 2 9 1 10 3 11 78 12 79 13 91 14
REMARK SMILES IDX 80 15 81 16 90 17 92 18 82 19 83 20 84 21 88 22 85 23 87 24
REMARK SMILES IDX 89 25 86 26 11 27 12 28 13 29 14 31 15 32 16 33 77 34 17 35
REMARK SMILES IDX 76 36 18 37 19 38 20 39 70 40 21 41 75 42 69 43 71 44 22 45
REMARK SMILES IDX 74 46 68 47 67 48 23 50 55 51 35 52 54 53 36 54 39 55 53 56
REMARK SMILES IDX 72 57 37 58 38 59 52 61 73 62 40 63 24 64 25 65 33 66 26 67
REMARK SMILES IDX 32 68 34 69 31 70 27 71 28 72 29 73 30 74 56 75 57 76 65 77
REMARK SMILES IDX 58 78 64 79 66 80 63 81 59 82 60 83 61 84 62 85 41 86 42 87
REMARK SMILES IDX 50 88 43 89 49 90 51 91 48 92 44 93 45 94 46 95 47 96
REMARK H PARENT 7 7 12 30 71 49 39 60
REMARK Flexibility Score: inf
ROOT
ATOM      1  C   UNL A   1      32.713  30.324  27.225  1.00  0.00     0.023 C 
ENDROOT
BRANCH   1   2
ATOM      2  C   UNL A   1      32.795  28.818  26.995  1.00  0.00     0.023 C 
BRANCH   2   3
ATOM      3  C   UNL A   1      34.082  28.317  26.340  1.00  0.00     0.116 C 
BRANCH   3   4
ATOM      4  N   UNL A   1      34.070  28.509  24.906  1.00  0.00    -0.354 N 
ATOM      5  C   UNL A   1      33.397  27.900  23.892  1.00  0.00     0.243 C 
ATOM      6  O   UNL A   1      33.537  28.438  22.786  1.00  0.00    -0.273 OA
ATOM      7  H   UNL A   1      34.673  29.226  24.602  1.00  0.00     0.163 HD
BRANCH   5   8
ATOM      8  C   UNL A   1      32.318  26.787  24.107  1.00  0.00     0.184 C 
BRANCH   8   9
ATOM      9  C   UNL A   1      30.935  27.246  23.521  1.00  0.00     0.015 C 
ATOM     10  C   UNL A   1      29.730  26.352  23.822  1.00  0.00     0.010 C 
ATOM     11  C   UNL A   1      30.624  28.680  23.980  1.00  0.00     0.010 C 
ENDBRANCH   8   9
BRANCH   8  12
ATOM     12  N   UNL A   1      32.707  25.405  23.768  1.00  0.00    -0.280 N 
ATOM     13  C   UNL A   1      33.112  24.553  24.777  1.00  0.00     0.266 C 
ATOM     14  C   UNL A   1      32.839  24.909  22.483  1.00  0.00     0.149 C 
ATOM     15  O   UNL A   1      33.284  24.857  25.947  1.00  0.00    -0.268 OA
ATOM     16  C   UNL A   1      33.273  23.171  24.243  1.00  0.00     0.081 C 
ATOM     17  S   UNL A   1      33.330  23.216  22.534  1.00  0.00    -0.054 SA
ATOM     18  S   UNL A   1      32.593  25.695  21.031  1.00  0.00    -0.052 S 
ATOM     19  C   UNL A   1      33.280  22.107  25.055  1.00  0.00     0.031 C 
BRANCH  19  20
ATOM     20  C   UNL A   1      33.459  20.691  24.693  1.00  0.00    -0.006 A 
ATOM     21  C   UNL A   1      32.379  19.908  24.255  1.00  0.00     0.010 A 
ATOM     22  C   UNL A   1      34.715  20.079  24.849  1.00  0.00     0.048 A 
ATOM     23  C   UNL A   1      32.558  18.547  23.973  1.00  0.00     0.001 A 
ATOM     24  C   UNL A   1      34.888  18.721  24.571  1.00  0.00     0.021 A 
ATOM     25  Cl  UNL A   1      36.100  20.968  25.389  1.00  0.00    -0.084 Cl
ATOM     26  C   UNL A   1      33.810  17.955  24.133  1.00  0.00     0.002 A 
ENDBRANCH  19  20
ENDBRANCH   8  12
ENDBRANCH   5   8
ENDBRANCH   3   4
ENDBRANCH   2   3
ENDBRANCH   1   2
BRANCH   1  27
ATOM     27  C   UNL A   1      34.055  31.024  27.353  1.00  0.00     0.116 C 
BRANCH  27  28
ATOM     28  N   UNL A   1      34.056  32.055  28.384  1.00  0.00    -0.352 N 
ATOM     29  C   UNL A   1      34.900  32.227  29.457  1.00  0.00     0.251 C 
ATOM     30  H   UNL A   1      33.344  32.731  28.300  1.00  0.00     0.163 HD
ATOM     31  O   UNL A   1      34.627  33.057  30.319  1.00  0.00    -0.269 OA
BRANCH  29  32
ATOM     32  C   UNL A   1      36.106  31.382  29.578  1.00  0.00     0.039 A 
ATOM     33  C   UNL A   1      37.313  31.828  29.035  1.00  0.00     0.014 A 
ATOM     34  C   UNL A   1      36.051  30.178  30.281  1.00  0.00     0.014 A 
ATOM     35  C   UNL A   1      38.489  31.118  29.296  1.00  0.00     0.010 A 
ATOM     36  C   UNL A   1      37.232  29.531  30.622  1.00  0.00     0.010 A 
ATOM     37  C   UNL A   1      38.465  30.000  30.145  1.00  0.00    -0.014 A 
BRANCH  37  38
ATOM     38  C   UNL A   1      39.706  29.303  30.572  1.00  0.00     0.031 A 
ATOM     39  C   UNL A   1      40.473  29.811  31.761  1.00  0.00     0.074 A 
ATOM     40  C   UNL A   1      40.199  28.295  29.824  1.00  0.00     0.049 A 
ATOM     41  N   UNL A   1      41.660  29.470  32.191  1.00  0.00    -0.248 NA
ATOM     42  C   UNL A   1      39.831  30.879  32.541  1.00  0.00     0.031 C 
ATOM     43  C   UNL A   1      39.566  27.738  28.626  1.00  0.00     0.029 A 
ATOM     44  N   UNL A   1      41.358  27.571  29.951  1.00  0.00    -0.354 N 
ATOM     45  C   UNL A   1      41.917  30.298  33.280  1.00  0.00     0.074 A 
ATOM     46  C   UNL A   1      40.792  31.203  33.392  1.00  0.00     0.031 C 
ATOM     47  C   UNL A   1      40.331  26.745  28.145  1.00  0.00     0.029 A 
ATOM     48  C   UNL A   1      41.534  26.632  28.960  1.00  0.00     0.049 A 
ATOM     49  H   UNL A   1      42.002  27.709  30.682  1.00  0.00     0.167 HD
ATOM     50  C   UNL A   1      42.980  30.287  34.121  1.00  0.00     0.034 A 
ATOM     51  C   UNL A   1      42.562  25.793  28.722  1.00  0.00     0.034 A 
ATOM     52  C   UNL A   1      44.083  29.365  34.001  1.00  0.00     0.049 A 
ATOM     53  C   UNL A   1      43.757  25.831  29.638  1.00  0.00     0.074 A 
ATOM     54  C   UNL A   1      45.178  29.214  34.832  1.00  0.00     0.029 A 
ATOM     55  N   UNL A   1      44.233  28.439  32.975  1.00  0.00    -0.354 N 
ATOM     56  N   UNL A   1      43.970  26.591  30.688  1.00  0.00    -0.248 NA
ATOM     57  C   UNL A   1      44.854  24.903  29.333  1.00  0.00     0.031 C 
ATOM     58  C   UNL A   1      46.020  28.245  34.276  1.00  0.00     0.029 A 
ATOM     59  C   UNL A   1      45.419  27.741  33.133  1.00  0.00     0.049 A 
ATOM     60  H   UNL A   1      43.589  28.299  32.243  1.00  0.00     0.167 HD
ATOM     61  C   UNL A   1      45.216  26.217  31.181  1.00  0.00     0.074 A 
ATOM     62  C   UNL A   1      45.702  25.156  30.321  1.00  0.00     0.031 C 
ATOM     63  C   UNL A   1      45.895  26.700  32.251  1.00  0.00     0.034 A 
BRANCH  50  64
ATOM     64  C   UNL A   1      42.997  31.320  35.224  1.00  0.00     0.023 A 
ATOM     65  C   UNL A   1      43.600  32.578  35.041  1.00  0.00     0.031 A 
ATOM     66  C   UNL A   1      42.463  31.027  36.489  1.00  0.00     0.131 A 
ATOM     67  C   UNL A   1      43.745  33.451  36.128  1.00  0.00     0.055 A 
ATOM     68  C   UNL A   1      42.527  31.940  37.545  1.00  0.00     0.041 A 
ATOM     69  F   UNL A   1      41.891  29.836  36.733  1.00  0.00    -0.206 F 
ATOM     70  C   UNL A   1      43.190  33.152  37.374  1.00  0.00     0.022 A 
BRANCH  67  71
ATOM     71  S   UNL A   1      44.824  34.897  35.934  1.00  0.00     0.124 S 
ATOM     72  O   UNL A   1      43.853  35.989  35.928  1.00  0.00    -0.237 OA
ATOM     73  O   UNL A   1      45.681  34.810  37.110  1.00  0.00    -0.237 OA
ATOM     74  O   UNL A   1      45.490  34.658  34.656  1.00  0.00    -0.744 OA
ENDBRANCH  67  71
ENDBRANCH  50  64
BRANCH  51  75
ATOM     75  C   UNL A   1      42.519  24.857  27.564  1.00  0.00     0.023 A 
ATOM     76  C   UNL A   1      41.841  23.631  27.658  1.00  0.00     0.031 A 
ATOM     77  C   UNL A   1      43.172  25.159  26.356  1.00  0.00     0.131 A 
ATOM     78  C   UNL A   1      41.858  22.737  26.578  1.00  0.00     0.055 A 
ATOM     79  C   UNL A   1      43.150  24.284  25.267  1.00  0.00     0.041 A 
ATOM     80  F   UNL A   1      43.830  26.320  26.211  1.00  0.00    -0.206 F 
ATOM     81  C   UNL A   1      42.497  23.059  25.379  1.00  0.00     0.022 A 
BRANCH  78  82
ATOM     82  S   UNL A   1      41.084  21.109  26.786  1.00  0.00     0.124 S 
ATOM     83  O   UNL A   1      42.189  20.212  26.474  1.00  0.00    -0.237 OA
ATOM     84  O   UNL A   1      40.664  21.150  28.182  1.00  0.00    -0.237 OA
ATOM     85  O   UNL A   1      39.995  21.124  25.810  1.00  0.00    -0.744 OA
ENDBRANCH  78  82
ENDBRANCH  51  75
BRANCH  63  86
ATOM     86  C   UNL A   1      47.223  26.061  32.562  1.00  0.00     0.023 A 
ATOM     87  C   UNL A   1      47.340  25.034  33.515  1.00  0.00     0.031 A 
ATOM     88  C   UNL A   1      48.385  26.481  31.891  1.00  0.00     0.131 A 
ATOM     89  C   UNL A   1      48.601  24.488  33.799  1.00  0.00     0.055 A 
ATOM     90  C   UNL A   1      49.628  25.898  32.141  1.00  0.00     0.041 A 
ATOM     91  F   UNL A   1      48.327  27.459  30.974  1.00  0.00    -0.206 F 
ATOM     92  C   UNL A   1      49.741  24.901  33.107  1.00  0.00     0.022 A 
BRANCH  89  93
ATOM     93  S   UNL A   1      48.741  23.265  35.132  1.00  0.00     0.124 S 
ATOM     94  O   UNL A   1      50.089  23.516  35.630  1.00  0.00    -0.237 OA
ATOM     95  O   UNL A   1      47.650  23.645  36.023  1.00  0.00    -0.237 OA
ATOM     96  O   UNL A   1      48.562  21.987  34.445  1.00  0.00    -0.744 OA
ENDBRANCH  89  93
ENDBRANCH  63  86
ENDBRANCH  37  38
ENDBRANCH  29  32
ENDBRANCH  27  28
ENDBRANCH   1  27
TORSDOF 17
ENDMDL
MODEL 3
REMARK VINA RESULT:     -11.5      1.095      7.483
REMARK SMILES CC(C)[C@H](C(=O)NCCCCNC(=O)c1ccc(-c2c3nc(c(-c4cc(S(=O)(=O)[O-])ccc4F)c4ccc([nH]4)c(-c4cc(S(=O)(=O)[O-])ccc4F)c4nc(c(-c5cc(S(=O)(=O)[O-])ccc5F)c5ccc2[nH]5)C=C4)C=C3)cc1)N1C(=O)/C(=C/c2ccccc2Cl)SC1=S
REMARK SMILES IDX 10 1 9 2 8 3 7 4 5 5 6 6 4 8 2 9 1 10 3 11 78 12 79 13 91 14
REMARK SMILES IDX 80 15 81 16 90 17 92 18 82 19 83 20 84 21 88 22 85 23 87 24
REMARK SMILES IDX 89 25 86 26 11 27 12 28 13 29 14 31 15 32 16 33 77 34 17 35
REMARK SMILES IDX 76 36 18 37 19 38 20 39 70 40 21 41 75 42 69 43 71 44 22 45
REMARK SMILES IDX 74 46 68 47 67 48 23 50 55 51 35 52 54 53 36 54 39 55 53 56
REMARK SMILES IDX 72 57 37 58 38 59 52 61 73 62 40 63 24 64 25 65 33 66 26 67
REMARK SMILES IDX 32 68 34 69 31 70 27 71 28 72 29 73 30 74 56 75 57 76 65 77
REMARK SMILES IDX 58 78 64 79 66 80 63 81 59 82 60 83 61 84 62 85 41 86 42 87
REMARK SMILES IDX 50 88 43 89 49 90 51 91 48 92 44 93 45 94 46 95 47 96
REMARK H PARENT 7 7 12 30 71 49 39 60
REMARK Flexibility Score: inf
ROOT
ATOM      1  C   UNL A   1      31.929  32.018  27.039  1.00  0.00     0.023 C 
ENDROOT
BRANCH   1   2
ATOM      2  C   UNL A   1      32.240  30.574  26.658  1.00  0.00     0.023 C 
BRANCH   2   3
ATOM      3  C   UNL A   1      31.363  29.976  25.557  1.00  0.00     0.116 C 
BRANCH   3   4
ATOM      4  N   UNL A   1      32.100  29.775  24.328  1.00  0.00    -0.354 N 
ATOM      5  C   UNL A   1      32.426  28.667  23.610  1.00  0.00     0.243 C 
ATOM      6  O   UNL A   1      32.953  28.901  22.514  1.00  0.00    -0.273 OA
ATOM      7  H   UNL A   1      32.435  30.612  23.931  1.00  0.00     0.163 HD
BRANCH   5   8
ATOM      8  C   UNL A   1      31.950  27.221  23.974  1.00  0.00     0.184 C 
BRANCH   8   9
ATOM      9  C   UNL A   1      30.546  26.930  23.333  1.00  0.00     0.015 C 
ATOM     10  C   UNL A   1      29.465  26.382  24.266  1.00  0.00     0.010 C 
ATOM     11  C   UNL A   1      30.016  28.196  22.639  1.00  0.00     0.010 C 
ENDBRANCH   8   9
BRANCH   8  12
ATOM     12  N   UNL A   1      32.936  26.134  23.825  1.00  0.00    -0.280 N 
ATOM     13  C   UNL A   1      33.755  25.818  24.892  1.00  0.00     0.266 C 
ATOM     14  C   UNL A   1      33.221  25.477  22.641  1.00  0.00     0.149 C 
ATOM     15  O   UNL A   1      33.822  26.423  25.949  1.00  0.00    -0.268 OA
ATOM     16  C   UNL A   1      34.531  24.583  24.588  1.00  0.00     0.081 C 
ATOM     17  S   UNL A   1      34.469  24.259  22.909  1.00  0.00    -0.054 SA
ATOM     18  S   UNL A   1      32.551  25.711  21.131  1.00  0.00    -0.052 S 
ATOM     19  C   UNL A   1      35.093  23.856  25.561  1.00  0.00     0.031 C 
BRANCH  19  20
ATOM     20  C   UNL A   1      35.911  22.639  25.428  1.00  0.00    -0.006 A 
ATOM     21  C   UNL A   1      37.313  22.697  25.441  1.00  0.00     0.010 A 
ATOM     22  C   UNL A   1      35.291  21.395  25.213  1.00  0.00     0.048 A 
ATOM     23  C   UNL A   1      38.074  21.535  25.253  1.00  0.00     0.001 A 
ATOM     24  C   UNL A   1      36.052  20.240  25.022  1.00  0.00     0.021 A 
ATOM     25  Cl  UNL A   1      33.566  21.232  25.176  1.00  0.00    -0.084 Cl
ATOM     26  C   UNL A   1      37.443  20.310  25.041  1.00  0.00     0.002 A 
ENDBRANCH  19  20
ENDBRANCH   8  12
ENDBRANCH   5   8
ENDBRANCH   3   4
ENDBRANCH   2   3
ENDBRANCH   1   2
BRANCH   1  27
ATOM     27  C   UNL A   1      33.145  32.867  27.367  1.00  0.00     0.116 C 
BRANCH  27  28
ATOM     28  N   UNL A   1      32.792  34.224  27.768  1.00  0.00    -0.352 N 
ATOM     29  C   UNL A   1      33.215  34.960  28.851  1.00  0.00     0.251 C 
ATOM     30  H   UNL A   1      32.154  34.683  27.174  1.00  0.00     0.163 HD
ATOM     31  O   UNL A   1      32.663  36.024  29.116  1.00  0.00    -0.269 OA
BRANCH  29  32
ATOM     32  C   UNL A   1      34.305  34.441  29.703  1.00  0.00     0.039 A 
ATOM     33  C   UNL A   1      33.989  33.780  30.892  1.00  0.00     0.014 A 
ATOM     34  C   UNL A   1      35.633  34.559  29.293  1.00  0.00     0.014 A 
ATOM     35  C   UNL A   1      35.002  33.138  31.612  1.00  0.00     0.010 A 
ATOM     36  C   UNL A   1      36.620  33.838  29.953  1.00  0.00     0.010 A 
ATOM     37  C   UNL A   1      36.313  33.109  31.113  1.00  0.00    -0.014 A 
BRANCH  37  38
ATOM     38  C   UNL A   1      37.390  32.316  31.761  1.00  0.00     0.031 A 
ATOM     39  C   UNL A   1      37.923  32.741  33.101  1.00  0.00     0.074 A 
ATOM     40  C   UNL A   1      37.962  31.294  31.094  1.00  0.00     0.049 A 
ATOM     41  N   UNL A   1      38.969  32.308  33.754  1.00  0.00    -0.248 NA
ATOM     42  C   UNL A   1      37.203  33.834  33.770  1.00  0.00     0.031 C 
ATOM     43  C   UNL A   1      37.559  30.811  29.771  1.00  0.00     0.029 A 
ATOM     44  N   UNL A   1      39.020  30.487  31.431  1.00  0.00    -0.354 N 
ATOM     45  C   UNL A   1      39.047  33.091  34.902  1.00  0.00     0.074 A 
ATOM     46  C   UNL A   1      37.984  34.069  34.813  1.00  0.00     0.031 C 
ATOM     47  C   UNL A   1      38.342  29.777  29.422  1.00  0.00     0.029 A 
ATOM     48  C   UNL A   1      39.339  29.561  30.463  1.00  0.00     0.049 A 
ATOM     49  H   UNL A   1      39.506  30.562  32.283  1.00  0.00     0.167 HD
ATOM     50  C   UNL A   1      39.907  32.984  35.944  1.00  0.00     0.034 A 
ATOM     51  C   UNL A   1      40.338  28.657  30.412  1.00  0.00     0.034 A 
ATOM     52  C   UNL A   1      40.949  31.990  36.020  1.00  0.00     0.049 A 
ATOM     53  C   UNL A   1      41.315  28.589  31.556  1.00  0.00     0.074 A 
ATOM     54  C   UNL A   1      41.835  31.743  37.053  1.00  0.00     0.029 A 
ATOM     55  N   UNL A   1      41.250  31.080  35.014  1.00  0.00    -0.354 N 
ATOM     56  N   UNL A   1      41.353  29.309  32.654  1.00  0.00    -0.248 NA
ATOM     57  C   UNL A   1      42.390  27.594  31.450  1.00  0.00     0.031 C 
ATOM     58  C   UNL A   1      42.711  30.730  36.648  1.00  0.00     0.029 A 
ATOM     59  C   UNL A   1      42.331  30.296  35.387  1.00  0.00     0.049 A 
ATOM     60  H   UNL A   1      40.766  31.002  34.160  1.00  0.00     0.167 HD
ATOM     61  C   UNL A   1      42.442  28.836  33.380  1.00  0.00     0.074 A 
ATOM     62  C   UNL A   1      43.027  27.763  32.601  1.00  0.00     0.031 C 
ATOM     63  C   UNL A   1      42.912  29.245  34.585  1.00  0.00     0.034 A 
BRANCH  50  64
ATOM     64  C   UNL A   1      39.760  33.988  37.064  1.00  0.00     0.023 A 
ATOM     65  C   UNL A   1      40.679  35.040  37.232  1.00  0.00     0.031 A 
ATOM     66  C   UNL A   1      38.730  33.861  38.011  1.00  0.00     0.131 A 
ATOM     67  C   UNL A   1      40.612  35.855  38.371  1.00  0.00     0.055 A 
ATOM     68  C   UNL A   1      38.613  34.735  39.094  1.00  0.00     0.041 A 
ATOM     69  F   UNL A   1      37.833  32.866  37.917  1.00  0.00    -0.206 F 
ATOM     70  C   UNL A   1      39.570  35.727  39.291  1.00  0.00     0.022 A 
BRANCH  67  71
ATOM     71  S   UNL A   1      42.006  36.962  38.721  1.00  0.00     0.124 S 
ATOM     72  O   UNL A   1      42.575  37.149  37.388  1.00  0.00    -0.237 OA
ATOM     73  O   UNL A   1      41.347  38.125  39.303  1.00  0.00    -0.237 OA
ATOM     74  O   UNL A   1      42.836  36.188  39.641  1.00  0.00    -0.744 OA
ENDBRANCH  67  71
ENDBRANCH  50  64
BRANCH  51  75
ATOM     75  C   UNL A   1      40.477  27.753  29.235  1.00  0.00     0.023 A 
ATOM     76  C   UNL A   1      41.408  28.035  28.222  1.00  0.00     0.031 A 
ATOM     77  C   UNL A   1      39.669  26.613  29.091  1.00  0.00     0.131 A 
ATOM     78  C   UNL A   1      41.486  27.206  27.093  1.00  0.00     0.055 A 
ATOM     79  C   UNL A   1      39.781  25.765  27.986  1.00  0.00     0.041 A 
ATOM     80  F   UNL A   1      38.768  26.295  30.033  1.00  0.00    -0.206 F 
ATOM     81  C   UNL A   1      40.687  26.067  26.974  1.00  0.00     0.022 A 
BRANCH  78  82
ATOM     82  S   UNL A   1      42.607  27.676  25.747  1.00  0.00     0.124 S 
ATOM     83  O   UNL A   1      42.219  29.062  25.508  1.00  0.00    -0.237 OA
ATOM     84  O   UNL A   1      43.916  27.472  26.357  1.00  0.00    -0.237 OA
ATOM     85  O   UNL A   1      42.267  26.739  24.678  1.00  0.00    -0.744 OA
ENDBRANCH  78  82
ENDBRANCH  51  75
BRANCH  63  86
ATOM     86  C   UNL A   1      44.102  28.506  35.140  1.00  0.00     0.023 A 
ATOM     87  C   UNL A   1      43.953  27.473  36.081  1.00  0.00     0.031 A 
ATOM     88  C   UNL A   1      45.401  28.837  34.715  1.00  0.00     0.131 A 
ATOM     89  C   UNL A   1      45.089  26.833  36.598  1.00  0.00     0.055 A 
ATOM     90  C   UNL A   1      46.524  28.161  35.194  1.00  0.00     0.041 A 
ATOM     91  F   UNL A   1      45.597  29.817  33.819  1.00  0.00    -0.206 F 
ATOM     92  C   UNL A   1      46.371  27.159  36.148  1.00  0.00     0.022 A 
BRANCH  89  93
ATOM     93  S   UNL A   1      44.874  25.603  37.913  1.00  0.00     0.124 S 
ATOM     94  O   UNL A   1      46.252  25.356  38.324  1.00  0.00    -0.237 OA
ATOM     95  O   UNL A   1      44.040  26.314  38.876  1.00  0.00    -0.237 OA
ATOM     96  O   UNL A   1      44.220  24.485  37.234  1.00  0.00    -0.744 OA
ENDBRANCH  89  93
ENDBRANCH  63  86
ENDBRANCH  37  38
ENDBRANCH  29  32
ENDBRANCH  27  28
ENDBRANCH   1  27
TORSDOF 17
ENDMDL
