MODEL 1
REMARK VINA RESULT:     -13.2      0.000      0.000
REMARK SMILES Cc1ccc(N2C(=O)C[C@H](Sc3ccccc3C(=O)NCCCCNC(=O)c3ccc(-c4c5nc(c(-c6cc(S(=O)(=O)[O-])ccc6F)c6ccc([nH]6)c(-c6cc(S(=O)(=O)[O-])ccc6F)c6nc(c(-c7cc(S(=O)(=O)[O-])ccc7F)c7ccc4[nH]7)C=C6)C=C5)cc3)C2=O)cc1
REMARK SMILES IDX 22 1 21 2 20 3 18 4 19 5 17 7 12 8 13 9 14 10 16 11 15 12
REMARK SMILES IDX 11 13 10 14 6 15 7 16 91 17 8 18 9 19 92 20 5 21 1 22 2 23
REMARK SMILES IDX 3 24 94 25 4 26 93 27 23 28 24 29 25 30 26 31 27 33 28 34
REMARK SMILES IDX 29 35 90 36 30 37 89 38 31 39 32 40 33 41 83 42 34 43 88 44
REMARK SMILES IDX 82 45 84 46 35 47 87 48 81 49 80 50 36 52 68 53 48 54 67 55
REMARK SMILES IDX 49 56 52 57 66 58 85 59 50 60 51 61 65 63 86 64 53 65 37 66
REMARK SMILES IDX 38 67 46 68 39 69 45 70 47 71 44 72 40 73 41 74 42 75 43 76
REMARK SMILES IDX 69 77 70 78 78 79 71 80 77 81 79 82 76 83 72 84 73 85 74 86
REMARK SMILES IDX 75 87 54 88 55 89 63 90 56 91 62 92 64 93 61 94 57 95 58 96
REMARK SMILES IDX 59 97 60 98
REMARK H PARENT 20 6 25 32 84 51 52 62
REMARK Flexibility Score: inf
ROOT
ATOM      1  C   UNL A   1      37.236  21.222  24.993  1.00  0.00     0.023 C 
ENDROOT
BRANCH   1   2
ATOM      2  C   UNL A   1      36.285  22.395  25.238  1.00  0.00     0.116 C 
BRANCH   2   3
ATOM      3  N   UNL A   1      35.360  22.221  26.363  1.00  0.00    -0.352 N 
ATOM      4  C   UNL A   1      34.265  21.407  26.567  1.00  0.00     0.252 C 
ATOM      5  O   UNL A   1      33.773  21.378  27.693  1.00  0.00    -0.269 OA
ATOM      6  H   UNL A   1      35.562  22.805  27.130  1.00  0.00     0.163 HD
BRANCH   4   7
ATOM      7  C   UNL A   1      33.635  20.638  25.460  1.00  0.00     0.053 A 
ATOM      8  C   UNL A   1      32.643  21.189  24.612  1.00  0.00     0.021 A 
ATOM      9  C   UNL A   1      32.159  20.406  23.543  1.00  0.00     0.016 A 
ATOM     10  C   UNL A   1      32.607  19.100  23.342  1.00  0.00     0.001 A 
ATOM     11  C   UNL A   1      33.989  19.288  25.302  1.00  0.00     0.015 A 
ATOM     12  C   UNL A   1      33.501  18.531  24.238  1.00  0.00     0.001 A 
BRANCH   8  13
ATOM     13  S   UNL A   1      31.660  22.661  24.949  1.00  0.00    -0.111 SA
BRANCH  13  14
ATOM     14  C   UNL A   1      32.577  24.056  24.230  1.00  0.00     0.151 C 
ATOM     15  N   UNL A   1      32.418  26.295  24.861  1.00  0.00    -0.250 N 
ATOM     16  C   UNL A   1      31.672  26.184  23.708  1.00  0.00     0.235 C 
ATOM     17  C   UNL A   1      32.998  25.100  25.227  1.00  0.00     0.247 C 
ATOM     18  O   UNL A   1      31.060  27.060  23.110  1.00  0.00    -0.274 OA
ATOM     19  C   UNL A   1      31.872  24.817  23.135  1.00  0.00     0.126 C 
ATOM     20  O   UNL A   1      33.736  24.880  26.180  1.00  0.00    -0.273 OA
BRANCH  15  21
ATOM     21  C   UNL A   1      32.654  27.533  25.510  1.00  0.00     0.052 A 
ATOM     22  C   UNL A   1      33.489  31.126  27.764  1.00  0.00     0.044 C 
ATOM     23  C   UNL A   1      33.185  29.907  26.947  1.00  0.00    -0.051 A 
ATOM     24  C   UNL A   1      31.947  29.268  27.065  1.00  0.00     0.005 A 
ATOM     25  C   UNL A   1      34.153  29.354  26.105  1.00  0.00     0.005 A 
ATOM     26  C   UNL A   1      31.674  28.107  26.332  1.00  0.00     0.027 A 
ATOM     27  C   UNL A   1      33.894  28.173  25.405  1.00  0.00     0.027 A 
ENDBRANCH  15  21
ENDBRANCH  13  14
ENDBRANCH   8  13
ENDBRANCH   4   7
ENDBRANCH   2   3
ENDBRANCH   1   2
BRANCH   1  28
ATOM     28  C   UNL A   1      38.579  21.279  25.711  1.00  0.00     0.023 C 
BRANCH  28  29
ATOM     29  C   UNL A   1      39.041  22.666  26.147  1.00  0.00     0.116 C 
BRANCH  29  30
ATOM     30  N   UNL A   1      40.475  22.810  26.368  1.00  0.00    -0.352 N 
ATOM     31  C   UNL A   1      41.193  23.971  26.655  1.00  0.00     0.251 C 
ATOM     32  H   UNL A   1      41.003  21.983  26.309  1.00  0.00     0.163 HD
ATOM     33  O   UNL A   1      42.398  23.973  26.766  1.00  0.00    -0.269 OA
BRANCH  31  34
ATOM     34  C   UNL A   1      40.421  25.209  26.947  1.00  0.00     0.039 A 
ATOM     35  C   UNL A   1      40.768  26.362  26.234  1.00  0.00     0.014 A 
ATOM     36  C   UNL A   1      39.591  25.288  28.060  1.00  0.00     0.014 A 
ATOM     37  C   UNL A   1      40.500  27.610  26.790  1.00  0.00     0.010 A 
ATOM     38  C   UNL A   1      39.417  26.519  28.664  1.00  0.00     0.010 A 
ATOM     39  C   UNL A   1      39.937  27.673  28.065  1.00  0.00    -0.014 A 
BRANCH  39  40
ATOM     40  C   UNL A   1      40.022  28.866  28.905  1.00  0.00     0.031 A 
ATOM     41  C   UNL A   1      38.968  29.898  28.885  1.00  0.00     0.074 A 
ATOM     42  C   UNL A   1      41.061  29.004  29.759  1.00  0.00     0.049 A 
ATOM     43  N   UNL A   1      39.144  31.131  29.223  1.00  0.00    -0.248 NA
ATOM     44  C   UNL A   1      37.617  29.620  28.420  1.00  0.00     0.031 C 
ATOM     45  C   UNL A   1      41.201  29.971  30.844  1.00  0.00     0.029 A 
ATOM     46  N   UNL A   1      42.327  28.435  29.635  1.00  0.00    -0.354 N 
ATOM     47  C   UNL A   1      37.905  31.724  29.317  1.00  0.00     0.074 A 
ATOM     48  C   UNL A   1      37.001  30.765  28.723  1.00  0.00     0.031 C 
ATOM     49  C   UNL A   1      42.506  30.132  31.113  1.00  0.00     0.029 A 
ATOM     50  C   UNL A   1      43.250  29.377  30.123  1.00  0.00     0.049 A 
ATOM     51  H   UNL A   1      42.536  27.543  29.274  1.00  0.00     0.167 HD
ATOM     52  C   UNL A   1      37.771  32.888  30.018  1.00  0.00     0.034 A 
ATOM     53  C   UNL A   1      44.234  29.879  29.322  1.00  0.00     0.034 A 
ATOM     54  C   UNL A   1      39.071  33.404  30.459  1.00  0.00     0.049 A 
ATOM     55  C   UNL A   1      44.160  31.377  29.141  1.00  0.00     0.074 A 
ATOM     56  C   UNL A   1      39.726  33.398  31.681  1.00  0.00     0.029 A 
ATOM     57  N   UNL A   1      40.015  33.804  29.516  1.00  0.00    -0.354 N 
ATOM     58  N   UNL A   1      43.118  32.102  29.444  1.00  0.00    -0.248 NA
ATOM     59  C   UNL A   1      45.250  32.175  28.591  1.00  0.00     0.031 C 
ATOM     60  C   UNL A   1      41.086  33.733  31.454  1.00  0.00     0.029 A 
ATOM     61  C   UNL A   1      41.255  33.975  30.102  1.00  0.00     0.049 A 
ATOM     62  H   UNL A   1      39.823  33.944  28.560  1.00  0.00     0.167 HD
ATOM     63  C   UNL A   1      43.359  33.417  29.130  1.00  0.00     0.074 A 
ATOM     64  C   UNL A   1      44.723  33.412  28.626  1.00  0.00     0.031 C 
ATOM     65  C   UNL A   1      42.408  34.386  29.307  1.00  0.00     0.034 A 
BRANCH  52  66
ATOM     66  C   UNL A   1      36.450  33.396  30.577  1.00  0.00     0.023 A 
ATOM     67  C   UNL A   1      35.565  34.102  29.731  1.00  0.00     0.031 A 
ATOM     68  C   UNL A   1      36.026  33.289  31.916  1.00  0.00     0.131 A 
ATOM     69  C   UNL A   1      34.417  34.749  30.231  1.00  0.00     0.055 A 
ATOM     70  C   UNL A   1      34.920  33.983  32.429  1.00  0.00     0.041 A 
ATOM     71  F   UNL A   1      36.614  32.453  32.779  1.00  0.00    -0.206 F 
ATOM     72  C   UNL A   1      34.116  34.732  31.589  1.00  0.00     0.022 A 
BRANCH  69  73
ATOM     73  S   UNL A   1      33.307  35.610  29.083  1.00  0.00     0.124 S 
ATOM     74  O   UNL A   1      32.528  34.513  28.521  1.00  0.00    -0.237 OA
ATOM     75  O   UNL A   1      32.596  36.524  29.969  1.00  0.00    -0.237 OA
ATOM     76  O   UNL A   1      34.226  36.256  28.145  1.00  0.00    -0.744 OA
ENDBRANCH  69  73
ENDBRANCH  52  66
BRANCH  53  77
ATOM     77  C   UNL A   1      44.729  28.890  28.321  1.00  0.00     0.023 A 
ATOM     78  C   UNL A   1      45.565  27.860  28.808  1.00  0.00     0.031 A 
ATOM     79  C   UNL A   1      44.104  28.699  27.082  1.00  0.00     0.131 A 
ATOM     80  C   UNL A   1      45.606  26.617  28.163  1.00  0.00     0.055 A 
ATOM     81  C   UNL A   1      44.214  27.480  26.397  1.00  0.00     0.041 A 
ATOM     82  F   UNL A   1      43.278  29.629  26.581  1.00  0.00    -0.206 F 
ATOM     83  C   UNL A   1      44.924  26.417  26.962  1.00  0.00     0.022 A 
BRANCH  80  84
ATOM     84  S   UNL A   1      46.320  25.189  29.037  1.00  0.00     0.124 S 
ATOM     85  O   UNL A   1      46.030  25.503  30.431  1.00  0.00    -0.237 OA
ATOM     86  O   UNL A   1      45.592  24.047  28.485  1.00  0.00    -0.237 OA
ATOM     87  O   UNL A   1      47.729  25.233  28.652  1.00  0.00    -0.744 OA
ENDBRANCH  80  84
ENDBRANCH  53  77
BRANCH  65  88
ATOM     88  C   UNL A   1      42.502  35.827  28.835  1.00  0.00     0.023 A 
ATOM     89  C   UNL A   1      43.099  36.856  29.578  1.00  0.00     0.031 A 
ATOM     90  C   UNL A   1      42.033  36.203  27.550  1.00  0.00     0.131 A 
ATOM     91  C   UNL A   1      43.135  38.181  29.101  1.00  0.00     0.055 A 
ATOM     92  C   UNL A   1      42.141  37.504  27.045  1.00  0.00     0.041 A 
ATOM     93  F   UNL A   1      41.456  35.321  26.719  1.00  0.00    -0.206 F 
ATOM     94  C   UNL A   1      42.679  38.509  27.828  1.00  0.00     0.022 A 
BRANCH  91  95
ATOM     95  S   UNL A   1      43.740  39.479  30.213  1.00  0.00     0.124 S 
ATOM     96  O   UNL A   1      43.968  38.734  31.449  1.00  0.00    -0.237 OA
ATOM     97  O   UNL A   1      44.940  39.946  29.527  1.00  0.00    -0.237 OA
ATOM     98  O   UNL A   1      42.638  40.437  30.260  1.00  0.00    -0.744 OA
ENDBRANCH  91  95
ENDBRANCH  65  88
ENDBRANCH  39  40
ENDBRANCH  31  34
ENDBRANCH  29  30
ENDBRANCH  28  29
ENDBRANCH   1  28
TORSDOF 17
ENDMDL
MODEL 2
REMARK VINA RESULT:     -13.2      3.891     10.502
REMARK SMILES Cc1ccc(N2C(=O)C[C@H](Sc3ccccc3C(=O)NCCCCNC(=O)c3ccc(-c4c5nc(c(-c6cc(S(=O)(=O)[O-])ccc6F)c6ccc([nH]6)c(-c6cc(S(=O)(=O)[O-])ccc6F)c6nc(c(-c7cc(S(=O)(=O)[O-])ccc7F)c7ccc4[nH]7)C=C6)C=C5)cc3)C2=O)cc1
REMARK SMILES IDX 22 1 21 2 20 3 18 4 19 5 17 7 12 8 13 9 14 10 16 11 15 12
REMARK SMILES IDX 11 13 10 14 6 15 7 16 91 17 8 18 9 19 92 20 5 21 1 22 2 23
REMARK SMILES IDX 3 24 94 25 4 26 93 27 23 28 24 29 25 30 26 31 27 33 28 34
REMARK SMILES IDX 29 35 90 36 30 37 89 38 31 39 32 40 33 41 83 42 34 43 88 44
REMARK SMILES IDX 82 45 84 46 35 47 87 48 81 49 80 50 36 52 68 53 48 54 67 55
REMARK SMILES IDX 49 56 52 57 66 58 85 59 50 60 51 61 65 63 86 64 53 65 37 66
REMARK SMILES IDX 38 67 46 68 39 69 45 70 47 71 44 72 40 73 41 74 42 75 43 76
REMARK SMILES IDX 69 77 70 78 78 79 71 80 77 81 79 82 76 83 72 84 73 85 74 86
REMARK SMILES IDX 75 87 54 88 55 89 63 90 56 91 62 92 64 93 61 94 57 95 58 96
REMARK SMILES IDX 59 97 60 98
REMARK H PARENT 20 6 25 32 84 51 52 62
REMARK Flexibility Score: inf
ROOT
ATOM      1  C   UNL A   1      32.268  30.585  26.642  1.00  0.00     0.023 C 
ENDROOT
BRANCH   1   2
ATOM      2  C   UNL A   1      32.308  29.172  27.226  1.00  0.00     0.116 C 
BRANCH   2   3
ATOM      3  N   UNL A   1      33.185  28.232  26.521  1.00  0.00    -0.352 N 
ATOM      4  C   UNL A   1      33.136  27.654  25.270  1.00  0.00     0.252 C 
ATOM      5  O   UNL A   1      34.115  27.009  24.897  1.00  0.00    -0.269 OA
ATOM      6  H   UNL A   1      33.969  27.956  27.049  1.00  0.00     0.163 HD
BRANCH   4   7
ATOM      7  C   UNL A   1      31.923  27.728  24.411  1.00  0.00     0.053 A 
ATOM      8  C   UNL A   1      30.742  26.998  24.689  1.00  0.00     0.021 A 
ATOM      9  C   UNL A   1      29.618  27.192  23.860  1.00  0.00     0.016 A 
ATOM     10  C   UNL A   1      29.670  28.048  22.758  1.00  0.00     0.001 A 
ATOM     11  C   UNL A   1      31.985  28.498  23.238  1.00  0.00     0.015 A 
ATOM     12  C   UNL A   1      30.863  28.678  22.431  1.00  0.00     0.001 A 
BRANCH   8  13
ATOM     13  S   UNL A   1      30.610  25.572  25.784  1.00  0.00    -0.111 SA
BRANCH  13  14
ATOM     14  C   UNL A   1      31.373  24.182  24.896  1.00  0.00     0.151 C 
ATOM     15  N   UNL A   1      33.657  23.788  24.637  1.00  0.00    -0.250 N 
ATOM     16  C   UNL A   1      33.239  24.330  23.441  1.00  0.00     0.235 C 
ATOM     17  C   UNL A   1      32.625  23.650  25.538  1.00  0.00     0.247 C 
ATOM     18  O   UNL A   1      33.900  24.553  22.434  1.00  0.00    -0.274 OA
ATOM     19  C   UNL A   1      31.748  24.443  23.457  1.00  0.00     0.126 C 
ATOM     20  O   UNL A   1      32.668  23.178  26.668  1.00  0.00    -0.273 OA
BRANCH  15  21
ATOM     21  C   UNL A   1      34.976  23.316  24.849  1.00  0.00     0.052 A 
ATOM     22  C   UNL A   1      38.883  21.720  25.789  1.00  0.00     0.044 C 
ATOM     23  C   UNL A   1      37.546  22.292  25.424  1.00  0.00    -0.051 A 
ATOM     24  C   UNL A   1      37.147  23.533  25.930  1.00  0.00     0.005 A 
ATOM     25  C   UNL A   1      36.655  21.569  24.627  1.00  0.00     0.005 A 
ATOM     26  C   UNL A   1      35.884  24.052  25.623  1.00  0.00     0.027 A 
ATOM     27  C   UNL A   1      35.380  22.070  24.354  1.00  0.00     0.027 A 
ENDBRANCH  15  21
ENDBRANCH  13  14
ENDBRANCH   8  13
ENDBRANCH   4   7
ENDBRANCH   2   3
ENDBRANCH   1   2
BRANCH   1  28
ATOM     28  C   UNL A   1      33.189  31.612  27.290  1.00  0.00     0.023 C 
BRANCH  28  29
ATOM     29  C   UNL A   1      34.556  31.095  27.728  1.00  0.00     0.116 C 
BRANCH  29  30
ATOM     30  N   UNL A   1      35.139  31.764  28.885  1.00  0.00    -0.352 N 
ATOM     31  C   UNL A   1      36.161  31.314  29.720  1.00  0.00     0.251 C 
ATOM     32  H   UNL A   1      34.764  32.647  29.104  1.00  0.00     0.163 HD
ATOM     33  O   UNL A   1      36.526  31.941  30.689  1.00  0.00    -0.269 OA
BRANCH  31  34
ATOM     34  C   UNL A   1      36.890  30.081  29.318  1.00  0.00     0.039 A 
ATOM     35  C   UNL A   1      37.090  29.106  30.303  1.00  0.00     0.014 A 
ATOM     36  C   UNL A   1      37.578  30.017  28.112  1.00  0.00     0.014 A 
ATOM     37  C   UNL A   1      38.163  28.229  30.182  1.00  0.00     0.010 A 
ATOM     38  C   UNL A   1      38.705  29.220  28.038  1.00  0.00     0.010 A 
ATOM     39  C   UNL A   1      39.039  28.379  29.107  1.00  0.00    -0.014 A 
BRANCH  39  40
ATOM     40  C   UNL A   1      40.396  27.836  29.114  1.00  0.00     0.031 A 
ATOM     41  C   UNL A   1      40.676  26.460  28.662  1.00  0.00     0.074 A 
ATOM     42  C   UNL A   1      41.425  28.627  29.492  1.00  0.00     0.049 A 
ATOM     43  N   UNL A   1      41.700  25.764  29.027  1.00  0.00    -0.248 NA
ATOM     44  C   UNL A   1      39.772  25.730  27.786  1.00  0.00     0.031 C 
ATOM     45  C   UNL A   1      42.853  28.369  29.331  1.00  0.00     0.029 A 
ATOM     46  N   UNL A   1      41.365  29.730  30.340  1.00  0.00    -0.354 N 
ATOM     47  C   UNL A   1      41.759  24.648  28.223  1.00  0.00     0.074 A 
ATOM     48  C   UNL A   1      40.490  24.634  27.532  1.00  0.00     0.031 C 
ATOM     49  C   UNL A   1      43.527  29.090  30.240  1.00  0.00     0.029 A 
ATOM     50  C   UNL A   1      42.549  29.731  31.098  1.00  0.00     0.049 A 
ATOM     51  H   UNL A   1      40.632  30.386  30.398  1.00  0.00     0.167 HD
ATOM     52  C   UNL A   1      42.931  23.952  28.129  1.00  0.00     0.034 A 
ATOM     53  C   UNL A   1      42.513  29.643  32.459  1.00  0.00     0.034 A 
ATOM     54  C   UNL A   1      43.941  24.468  29.059  1.00  0.00     0.049 A 
ATOM     55  C   UNL A   1      43.223  28.426  33.005  1.00  0.00     0.074 A 
ATOM     56  C   UNL A   1      45.056  25.274  28.892  1.00  0.00     0.029 A 
ATOM     57  N   UNL A   1      43.725  24.382  30.433  1.00  0.00    -0.354 N 
ATOM     58  N   UNL A   1      43.576  27.397  32.282  1.00  0.00    -0.248 NA
ATOM     59  C   UNL A   1      43.582  28.266  34.410  1.00  0.00     0.031 C 
ATOM     60  C   UNL A   1      45.469  25.726  30.173  1.00  0.00     0.029 A 
ATOM     61  C   UNL A   1      44.628  25.170  31.122  1.00  0.00     0.049 A 
ATOM     62  H   UNL A   1      43.024  23.835  30.855  1.00  0.00     0.167 HD
ATOM     63  C   UNL A   1      44.170  26.451  33.081  1.00  0.00     0.074 A 
ATOM     64  C   UNL A   1      44.175  27.060  34.401  1.00  0.00     0.031 C 
ATOM     65  C   UNL A   1      44.593  25.248  32.580  1.00  0.00     0.034 A 
BRANCH  52  66
ATOM     66  C   UNL A   1      43.271  23.013  26.980  1.00  0.00     0.023 A 
ATOM     67  C   UNL A   1      42.798  21.682  27.010  1.00  0.00     0.031 A 
ATOM     68  C   UNL A   1      44.092  23.324  25.878  1.00  0.00     0.131 A 
ATOM     69  C   UNL A   1      43.227  20.722  26.071  1.00  0.00     0.055 A 
ATOM     70  C   UNL A   1      44.571  22.358  24.981  1.00  0.00     0.041 A 
ATOM     71  F   UNL A   1      44.415  24.585  25.570  1.00  0.00    -0.206 F 
ATOM     72  C   UNL A   1      44.151  21.043  25.084  1.00  0.00     0.022 A 
BRANCH  69  73
ATOM     73  S   UNL A   1      42.555  19.038  26.149  1.00  0.00     0.124 S 
ATOM     74  O   UNL A   1      42.451  18.810  27.586  1.00  0.00    -0.237 OA
ATOM     75  O   UNL A   1      41.298  19.174  25.421  1.00  0.00    -0.237 OA
ATOM     76  O   UNL A   1      43.572  18.235  25.470  1.00  0.00    -0.744 OA
ENDBRANCH  69  73
ENDBRANCH  52  66
BRANCH  53  77
ATOM     77  C   UNL A   1      41.319  30.310  33.054  1.00  0.00     0.023 A 
ATOM     78  C   UNL A   1      41.335  31.723  33.090  1.00  0.00     0.031 A 
ATOM     79  C   UNL A   1      40.083  29.664  33.180  1.00  0.00     0.131 A 
ATOM     80  C   UNL A   1      40.136  32.446  33.056  1.00  0.00     0.055 A 
ATOM     81  C   UNL A   1      38.887  30.394  33.229  1.00  0.00     0.041 A 
ATOM     82  F   UNL A   1      40.001  28.327  33.126  1.00  0.00    -0.206 F 
ATOM     83  C   UNL A   1      38.907  31.787  33.116  1.00  0.00     0.022 A 
BRANCH  80  84
ATOM     84  S   UNL A   1      40.183  34.221  32.655  1.00  0.00     0.124 S 
ATOM     85  O   UNL A   1      41.426  34.648  33.286  1.00  0.00    -0.237 OA
ATOM     86  O   UNL A   1      40.180  34.245  31.193  1.00  0.00    -0.237 OA
ATOM     87  O   UNL A   1      38.953  34.731  33.258  1.00  0.00    -0.744 OA
ENDBRANCH  80  84
ENDBRANCH  53  77
BRANCH  65  88
ATOM     88  C   UNL A   1      45.097  24.069  33.393  1.00  0.00     0.023 A 
ATOM     89  C   UNL A   1      46.409  23.954  33.875  1.00  0.00     0.031 A 
ATOM     90  C   UNL A   1      44.220  23.021  33.774  1.00  0.00     0.131 A 
ATOM     91  C   UNL A   1      46.829  22.824  34.604  1.00  0.00     0.055 A 
ATOM     92  C   UNL A   1      44.618  21.937  34.565  1.00  0.00     0.041 A 
ATOM     93  F   UNL A   1      42.931  23.004  33.403  1.00  0.00    -0.206 F 
ATOM     94  C   UNL A   1      45.936  21.823  34.971  1.00  0.00     0.022 A 
BRANCH  91  95
ATOM     95  S   UNL A   1      48.589  22.667  35.009  1.00  0.00     0.124 S 
ATOM     96  O   UNL A   1      49.199  23.600  34.065  1.00  0.00    -0.237 OA
ATOM     97  O   UNL A   1      48.627  23.070  36.410  1.00  0.00    -0.237 OA
ATOM     98  O   UNL A   1      48.877  21.256  34.759  1.00  0.00    -0.744 OA
ENDBRANCH  91  95
ENDBRANCH  65  88
ENDBRANCH  39  40
ENDBRANCH  31  34
ENDBRANCH  29  30
ENDBRANCH  28  29
ENDBRANCH   1  28
TORSDOF 17
ENDMDL
MODEL 3
REMARK VINA RESULT:     -12.8      3.946     10.616
REMARK SMILES Cc1ccc(N2C(=O)C[C@H](Sc3ccccc3C(=O)NCCCCNC(=O)c3ccc(-c4c5nc(c(-c6cc(S(=O)(=O)[O-])ccc6F)c6ccc([nH]6)c(-c6cc(S(=O)(=O)[O-])ccc6F)c6nc(c(-c7cc(S(=O)(=O)[O-])ccc7F)c7ccc4[nH]7)C=C6)C=C5)cc3)C2=O)cc1
REMARK SMILES IDX 22 1 21 2 20 3 18 4 19 5 17 7 12 8 13 9 14 10 16 11 15 12
REMARK SMILES IDX 11 13 10 14 6 15 7 16 91 17 8 18 9 19 92 20 5 21 1 22 2 23
REMARK SMILES IDX 3 24 94 25 4 26 93 27 23 28 24 29 25 30 26 31 27 33 28 34
REMARK SMILES IDX 29 35 90 36 30 37 89 38 31 39 32 40 33 41 83 42 34 43 88 44
REMARK SMILES IDX 82 45 84 46 35 47 87 48 81 49 80 50 36 52 68 53 48 54 67 55
REMARK SMILES IDX 49 56 52 57 66 58 85 59 50 60 51 61 65 63 86 64 53 65 37 66
REMARK SMILES IDX 38 67 46 68 39 69 45 70 47 71 44 72 40 73 41 74 42 75 43 76
REMARK SMILES IDX 69 77 70 78 78 79 71 80 77 81 79 82 76 83 72 84 73 85 74 86
REMARK SMILES IDX 75 87 54 88 55 89 63 90 56 91 62 92 64 93 61 94 57 95 58 96
REMARK SMILES IDX 59 97 60 98
REMARK H PARENT 20 6 25 32 84 51 52 62
REMARK Flexibility Score: inf
ROOT
ATOM      1  C   UNL A   1      32.218  30.419  26.895  1.00  0.00     0.023 C 
ENDROOT
BRANCH   1   2
ATOM      2  C   UNL A   1      31.875  29.107  26.187  1.00  0.00     0.116 C 
BRANCH   2   3
ATOM      3  N   UNL A   1      32.400  28.980  24.824  1.00  0.00    -0.352 N 
ATOM      4  C   UNL A   1      31.802  28.958  23.581  1.00  0.00     0.252 C 
ATOM      5  O   UNL A   1      32.532  28.993  22.592  1.00  0.00    -0.269 OA
ATOM      6  H   UNL A   1      33.380  28.893  24.788  1.00  0.00     0.163 HD
BRANCH   4   7
ATOM      7  C   UNL A   1      30.329  28.821  23.414  1.00  0.00     0.053 A 
ATOM      8  C   UNL A   1      29.664  27.573  23.482  1.00  0.00     0.021 A 
ATOM      9  C   UNL A   1      28.257  27.553  23.387  1.00  0.00     0.016 A 
ATOM     10  C   UNL A   1      27.528  28.726  23.184  1.00  0.00     0.001 A 
ATOM     11  C   UNL A   1      29.585  29.971  23.102  1.00  0.00     0.015 A 
ATOM     12  C   UNL A   1      28.195  29.931  23.013  1.00  0.00     0.001 A 
BRANCH   8  13
ATOM     13  S   UNL A   1      30.434  25.951  23.327  1.00  0.00    -0.111 SA
BRANCH  13  14
ATOM     14  C   UNL A   1      31.377  25.690  24.859  1.00  0.00     0.151 C 
ATOM     15  N   UNL A   1      33.012  24.068  25.224  1.00  0.00    -0.250 N 
ATOM     16  C   UNL A   1      31.874  23.588  25.835  1.00  0.00     0.235 C 
ATOM     17  C   UNL A   1      32.813  25.301  24.644  1.00  0.00     0.247 C 
ATOM     18  O   UNL A   1      31.727  22.544  26.459  1.00  0.00    -0.274 OA
ATOM     19  C   UNL A   1      30.824  24.654  25.806  1.00  0.00     0.126 C 
ATOM     20  O   UNL A   1      33.631  25.998  24.054  1.00  0.00    -0.273 OA
BRANCH  15  21
ATOM     21  C   UNL A   1      34.265  23.411  25.305  1.00  0.00     0.052 A 
ATOM     22  C   UNL A   1      38.191  21.601  25.277  1.00  0.00     0.044 C 
ATOM     23  C   UNL A   1      36.818  22.203  25.324  1.00  0.00    -0.051 A 
ATOM     24  C   UNL A   1      35.787  21.670  24.544  1.00  0.00     0.005 A 
ATOM     25  C   UNL A   1      36.565  23.340  26.095  1.00  0.00     0.005 A 
ATOM     26  C   UNL A   1      34.515  22.253  24.556  1.00  0.00     0.027 A 
ATOM     27  C   UNL A   1      35.305  23.944  26.075  1.00  0.00     0.027 A 
ENDBRANCH  15  21
ENDBRANCH  13  14
ENDBRANCH   8  13
ENDBRANCH   4   7
ENDBRANCH   2   3
ENDBRANCH   1   2
BRANCH   1  28
ATOM     28  C   UNL A   1      33.672  30.869  26.819  1.00  0.00     0.023 C 
BRANCH  28  29
ATOM     29  C   UNL A   1      34.537  30.524  28.027  1.00  0.00     0.116 C 
BRANCH  29  30
ATOM     30  N   UNL A   1      35.564  31.502  28.364  1.00  0.00    -0.352 N 
ATOM     31  C   UNL A   1      36.915  31.280  28.635  1.00  0.00     0.251 C 
ATOM     32  H   UNL A   1      35.268  32.439  28.404  1.00  0.00     0.163 HD
ATOM     33  O   UNL A   1      37.664  32.175  28.956  1.00  0.00    -0.269 OA
BRANCH  31  34
ATOM     34  C   UNL A   1      37.453  29.914  28.396  1.00  0.00     0.039 A 
ATOM     35  C   UNL A   1      37.548  29.062  29.503  1.00  0.00     0.014 A 
ATOM     36  C   UNL A   1      38.085  29.592  27.200  1.00  0.00     0.014 A 
ATOM     37  C   UNL A   1      38.486  28.033  29.489  1.00  0.00     0.010 A 
ATOM     38  C   UNL A   1      39.088  28.641  27.221  1.00  0.00     0.010 A 
ATOM     39  C   UNL A   1      39.337  27.912  28.390  1.00  0.00    -0.014 A 
BRANCH  39  40
ATOM     40  C   UNL A   1      40.606  27.189  28.453  1.00  0.00     0.031 A 
ATOM     41  C   UNL A   1      40.659  25.718  28.343  1.00  0.00     0.074 A 
ATOM     42  C   UNL A   1      41.761  27.882  28.562  1.00  0.00     0.049 A 
ATOM     43  N   UNL A   1      41.612  24.983  28.809  1.00  0.00    -0.248 NA
ATOM     44  C   UNL A   1      39.588  24.946  27.729  1.00  0.00     0.031 C 
ATOM     45  C   UNL A   1      43.121  27.381  28.388  1.00  0.00     0.029 A 
ATOM     46  N   UNL A   1      41.926  29.152  29.111  1.00  0.00    -0.354 N 
ATOM     47  C   UNL A   1      41.448  23.712  28.306  1.00  0.00     0.074 A 
ATOM     48  C   UNL A   1      40.130  23.725  27.715  1.00  0.00     0.031 C 
ATOM     49  C   UNL A   1      43.966  28.188  29.048  1.00  0.00     0.029 A 
ATOM     50  C   UNL A   1      43.166  29.155  29.775  1.00  0.00     0.049 A 
ATOM     51  H   UNL A   1      41.295  29.905  29.047  1.00  0.00     0.167 HD
ATOM     52  C   UNL A   1      42.504  22.845  28.319  1.00  0.00     0.034 A 
ATOM     53  C   UNL A   1      43.245  29.399  31.115  1.00  0.00     0.034 A 
ATOM     54  C   UNL A   1      43.655  23.410  29.032  1.00  0.00     0.049 A 
ATOM     55  C   UNL A   1      43.837  28.254  31.904  1.00  0.00     0.074 A 
ATOM     56  C   UNL A   1      44.846  23.976  28.605  1.00  0.00     0.029 A 
ATOM     57  N   UNL A   1      43.560  23.687  30.393  1.00  0.00    -0.354 N 
ATOM     58  N   UNL A   1      43.982  27.042  31.440  1.00  0.00    -0.248 NA
ATOM     59  C   UNL A   1      44.301  28.381  33.281  1.00  0.00     0.031 C 
ATOM     60  C   UNL A   1      45.433  24.651  29.707  1.00  0.00     0.029 A 
ATOM     61  C   UNL A   1      44.619  24.471  30.811  1.00  0.00     0.049 A 
ATOM     62  H   UNL A   1      42.835  23.367  30.978  1.00  0.00     0.167 HD
ATOM     63  C   UNL A   1      44.518  26.234  32.413  1.00  0.00     0.074 A 
ATOM     64  C   UNL A   1      44.727  27.131  33.537  1.00  0.00     0.031 C 
ATOM     65  C   UNL A   1      44.731  24.897  32.203  1.00  0.00     0.034 A 
BRANCH  52  66
ATOM     66  C   UNL A   1      42.609  21.621  27.422  1.00  0.00     0.023 A 
ATOM     67  C   UNL A   1      43.672  21.528  26.496  1.00  0.00     0.031 A 
ATOM     68  C   UNL A   1      41.688  20.556  27.371  1.00  0.00     0.131 A 
ATOM     69  C   UNL A   1      43.721  20.511  25.522  1.00  0.00     0.055 A 
ATOM     70  C   UNL A   1      41.698  19.580  26.364  1.00  0.00     0.041 A 
ATOM     71  F   UNL A   1      40.775  20.363  28.330  1.00  0.00    -0.206 F 
ATOM     72  C   UNL A   1      42.711  19.562  25.421  1.00  0.00     0.022 A 
BRANCH  69  73
ATOM     73  S   UNL A   1      45.133  20.434  24.384  1.00  0.00     0.124 S 
ATOM     74  O   UNL A   1      44.747  21.381  23.344  1.00  0.00    -0.237 OA
ATOM     75  O   UNL A   1      46.243  20.831  25.244  1.00  0.00    -0.237 OA
ATOM     76  O   UNL A   1      45.154  19.033  23.964  1.00  0.00    -0.744 OA
ENDBRANCH  69  73
ENDBRANCH  52  66
BRANCH  53  77
ATOM     77  C   UNL A   1      42.211  30.360  31.594  1.00  0.00     0.023 A 
ATOM     78  C   UNL A   1      42.445  31.728  31.326  1.00  0.00     0.031 A 
ATOM     79  C   UNL A   1      40.902  29.965  31.897  1.00  0.00     0.131 A 
ATOM     80  C   UNL A   1      41.371  32.615  31.179  1.00  0.00     0.055 A 
ATOM     81  C   UNL A   1      39.837  30.875  31.830  1.00  0.00     0.041 A 
ATOM     82  F   UNL A   1      40.613  28.677  32.133  1.00  0.00    -0.206 F 
ATOM     83  C   UNL A   1      40.063  32.192  31.421  1.00  0.00     0.022 A 
BRANCH  80  84
ATOM     84  S   UNL A   1      41.660  34.237  30.407  1.00  0.00     0.124 S 
ATOM     85  O   UNL A   1      40.317  34.628  29.994  1.00  0.00    -0.237 OA
ATOM     86  O   UNL A   1      42.242  35.035  31.486  1.00  0.00    -0.237 OA
ATOM     87  O   UNL A   1      42.596  33.930  29.328  1.00  0.00    -0.744 OA
ENDBRANCH  80  84
ENDBRANCH  53  77
BRANCH  65  88
ATOM     88  C   UNL A   1      45.149  23.883  33.253  1.00  0.00     0.023 A 
ATOM     89  C   UNL A   1      46.421  23.846  33.843  1.00  0.00     0.031 A 
ATOM     90  C   UNL A   1      44.223  22.932  33.755  1.00  0.00     0.131 A 
ATOM     91  C   UNL A   1      46.762  22.865  34.795  1.00  0.00     0.055 A 
ATOM     92  C   UNL A   1      44.539  22.009  34.758  1.00  0.00     0.041 A 
ATOM     93  F   UNL A   1      42.963  22.861  33.300  1.00  0.00    -0.206 F 
ATOM     94  C   UNL A   1      45.822  21.958  35.273  1.00  0.00     0.022 A 
BRANCH  91  95
ATOM     95  S   UNL A   1      48.486  22.767  35.349  1.00  0.00     0.124 S 
ATOM     96  O   UNL A   1      48.381  23.207  36.737  1.00  0.00    -0.237 OA
ATOM     97  O   UNL A   1      48.797  21.354  35.155  1.00  0.00    -0.237 OA
ATOM     98  O   UNL A   1      49.189  23.687  34.458  1.00  0.00    -0.744 OA
ENDBRANCH  91  95
ENDBRANCH  65  88
ENDBRANCH  39  40
ENDBRANCH  31  34
ENDBRANCH  29  30
ENDBRANCH  28  29
ENDBRANCH   1  28
TORSDOF 17
ENDMDL
