MODEL 1
REMARK VINA RESULT:     -12.3      0.000      0.000
REMARK SMILES C[C@H]1[C@@H](C(=O)NCCCCNC(=O)c2ccc(-c3c4nc(c(-c5cc(S(=O)(=O)[O-])ccc5F)c5ccc([nH]5)c(-c5cc(S(=O)(=O)[O-])ccc5F)c5nc(c(-c6cc(S(=O)(=O)[O-])ccc6F)c6ccc3[nH]6)C=C5)C=C4)cc2)CC[N@@H+]1CC(=O)NNc1ccccn1
REMARK SMILES IDX 8 1 7 2 6 3 4 4 5 5 3 7 1 8 2 9 79 10 77 11 78 12 80 14
REMARK SMILES IDX 81 15 82 16 83 17 84 19 85 21 86 22 90 23 87 24 89 25 88 26
REMARK SMILES IDX 9 27 10 28 11 29 12 30 13 32 14 33 15 34 76 35 16 36 75 37
REMARK SMILES IDX 17 38 18 39 19 40 69 41 20 42 74 43 68 44 70 45 21 46 73 47
REMARK SMILES IDX 67 48 66 49 22 51 54 52 34 53 53 54 35 55 38 56 52 57 71 58
REMARK SMILES IDX 36 59 37 60 51 62 72 63 39 64 23 65 24 66 32 67 25 68 31 69
REMARK SMILES IDX 33 70 30 71 26 72 27 73 28 74 29 75 55 76 56 77 64 78 57 79
REMARK SMILES IDX 63 80 65 81 62 82 58 83 59 84 60 85 61 86 40 87 41 88 49 89
REMARK SMILES IDX 42 90 48 91 50 92 47 93 43 94 44 95 45 96 46 97
REMARK H PARENT 6 6 79 13 83 18 84 20 11 31 70 50 38 61
REMARK Flexibility Score: inf
ROOT
ATOM      1  C   UNL A   1      31.605  28.957  23.964  1.00  0.00     0.023 C 
ENDROOT
BRANCH   1   2
ATOM      2  C   UNL A   1      31.087  27.684  23.291  1.00  0.00     0.116 C 
BRANCH   2   3
ATOM      3  N   UNL A   1      31.978  27.319  22.213  1.00  0.00    -0.356 N 
ATOM      4  C   UNL A   1      32.791  26.232  22.096  1.00  0.00     0.229 C 
ATOM      5  O   UNL A   1      33.654  26.283  21.217  1.00  0.00    -0.275 OA
ATOM      6  H   UNL A   1      32.002  27.945  21.454  1.00  0.00     0.163 HD
BRANCH   4   7
ATOM      7  C   UNL A   1      32.549  24.976  22.935  1.00  0.00     0.142 C 
ATOM      8  C   UNL A   1      34.038  25.960  24.881  1.00  0.00     0.076 C 
ATOM      9  C   UNL A   1      33.044  24.909  24.397  1.00  0.00     0.194 C 
ATOM     10  N   UNL A   1      33.745  23.624  24.553  1.00  0.00    -0.324 N 
ATOM     11  C   UNL A   1      33.153  23.730  22.266  1.00  0.00     0.081 C 
ATOM     12  C   UNL A   1      34.220  23.246  23.227  1.00  0.00     0.263 C 
ATOM     13  H   UNL A   1      34.550  23.727  25.172  1.00  0.00     0.348 HD
BRANCH  10  14
ATOM     14  C   UNL A   1      33.012  22.599  25.312  1.00  0.00     0.365 C 
BRANCH  14  15
ATOM     15  C   UNL A   1      33.837  21.803  26.320  1.00  0.00     0.293 C 
ATOM     16  O   UNL A   1      34.760  22.325  26.955  1.00  0.00    -0.267 OA
ATOM     17  N   UNL A   1      33.545  20.486  26.559  1.00  0.00    -0.264 N 
ATOM     18  H   UNL A   1      34.082  20.009  27.230  1.00  0.00     0.191 HD
BRANCH  17  19
ATOM     19  N   UNL A   1      32.533  19.779  25.908  1.00  0.00    -0.282 N 
ATOM     20  H   UNL A   1      31.600  20.089  25.865  1.00  0.00     0.190 HD
BRANCH  19  21
ATOM     21  C   UNL A   1      32.976  18.578  25.318  1.00  0.00     0.144 A 
ATOM     22  C   UNL A   1      34.188  18.557  24.625  1.00  0.00     0.048 A 
ATOM     23  N   UNL A   1      32.206  17.479  25.434  1.00  0.00    -0.238 NA
ATOM     24  C   UNL A   1      34.611  17.376  24.022  1.00  0.00     0.005 A 
ATOM     25  C   UNL A   1      32.638  16.341  24.844  1.00  0.00     0.113 A 
ATOM     26  C   UNL A   1      33.820  16.241  24.133  1.00  0.00     0.020 A 
ENDBRANCH  19  21
ENDBRANCH  17  19
ENDBRANCH  14  15
ENDBRANCH  10  14
ENDBRANCH   4   7
ENDBRANCH   2   3
ENDBRANCH   1   2
BRANCH   1  27
ATOM     27  C   UNL A   1      31.628  28.919  25.484  1.00  0.00     0.023 C 
BRANCH  27  28
ATOM     28  C   UNL A   1      32.846  29.577  26.101  1.00  0.00     0.116 C 
BRANCH  28  29
ATOM     29  N   UNL A   1      32.617  30.965  26.486  1.00  0.00    -0.352 N 
ATOM     30  C   UNL A   1      33.381  31.775  27.299  1.00  0.00     0.251 C 
ATOM     31  H   UNL A   1      31.804  31.379  26.116  1.00  0.00     0.163 HD
ATOM     32  O   UNL A   1      32.983  32.880  27.628  1.00  0.00    -0.269 OA
BRANCH  30  33
ATOM     33  C   UNL A   1      34.672  31.251  27.790  1.00  0.00     0.039 A 
ATOM     34  C   UNL A   1      35.729  32.134  28.013  1.00  0.00     0.014 A 
ATOM     35  C   UNL A   1      34.785  29.902  28.134  1.00  0.00     0.014 A 
ATOM     36  C   UNL A   1      36.871  31.678  28.672  1.00  0.00     0.010 A 
ATOM     37  C   UNL A   1      35.866  29.484  28.893  1.00  0.00     0.010 A 
ATOM     38  C   UNL A   1      36.925  30.363  29.165  1.00  0.00    -0.014 A 
BRANCH  38  39
ATOM     39  C   UNL A   1      38.089  29.864  29.942  1.00  0.00     0.031 A 
ATOM     40  C   UNL A   1      38.304  30.362  31.346  1.00  0.00     0.074 A 
ATOM     41  C   UNL A   1      38.990  29.047  29.360  1.00  0.00     0.049 A 
ATOM     42  N   UNL A   1      39.316  30.168  32.151  1.00  0.00    -0.248 NA
ATOM     43  C   UNL A   1      37.264  31.247  31.895  1.00  0.00     0.031 C 
ATOM     44  C   UNL A   1      38.924  28.551  27.983  1.00  0.00     0.029 A 
ATOM     45  N   UNL A   1      40.147  28.497  29.852  1.00  0.00    -0.354 N 
ATOM     46  C   UNL A   1      39.049  30.933  33.282  1.00  0.00     0.074 A 
ATOM     47  C   UNL A   1      37.823  31.655  33.022  1.00  0.00     0.031 C 
ATOM     48  C   UNL A   1      39.973  27.744  27.754  1.00  0.00     0.029 A 
ATOM     49  C   UNL A   1      40.809  27.699  28.947  1.00  0.00     0.049 A 
ATOM     50  H   UNL A   1      40.473  28.658  30.766  1.00  0.00     0.167 HD
ATOM     51  C   UNL A   1      39.743  31.000  34.444  1.00  0.00     0.034 A 
ATOM     52  C   UNL A   1      41.963  27.014  29.071  1.00  0.00     0.034 A 
ATOM     53  C   UNL A   1      40.938  30.235  34.699  1.00  0.00     0.049 A 
ATOM     54  C   UNL A   1      42.704  27.076  30.383  1.00  0.00     0.074 A 
ATOM     55  C   UNL A   1      41.686  30.162  35.860  1.00  0.00     0.029 A 
ATOM     56  N   UNL A   1      41.557  29.403  33.774  1.00  0.00    -0.354 N 
ATOM     57  N   UNL A   1      42.410  27.762  31.465  1.00  0.00    -0.248 NA
ATOM     58  C   UNL A   1      43.923  26.265  30.494  1.00  0.00     0.031 C 
ATOM     59  C   UNL A   1      42.784  29.328  35.622  1.00  0.00     0.029 A 
ATOM     60  C   UNL A   1      42.687  28.827  34.332  1.00  0.00     0.049 A 
ATOM     61  H   UNL A   1      41.238  29.245  32.856  1.00  0.00     0.167 HD
ATOM     62  C   UNL A   1      43.394  27.439  32.395  1.00  0.00     0.074 A 
ATOM     63  C   UNL A   1      44.279  26.489  31.751  1.00  0.00     0.031 C 
ATOM     64  C   UNL A   1      43.554  27.886  33.666  1.00  0.00     0.034 A 
BRANCH  51  65
ATOM     65  C   UNL A   1      39.223  31.939  35.507  1.00  0.00     0.023 A 
ATOM     66  C   UNL A   1      39.673  33.268  35.601  1.00  0.00     0.031 A 
ATOM     67  C   UNL A   1      38.309  31.486  36.474  1.00  0.00     0.131 A 
ATOM     68  C   UNL A   1      39.288  34.064  36.691  1.00  0.00     0.055 A 
ATOM     69  C   UNL A   1      37.857  32.313  37.505  1.00  0.00     0.041 A 
ATOM     70  F   UNL A   1      37.858  30.221  36.451  1.00  0.00    -0.206 F 
ATOM     71  C   UNL A   1      38.361  33.605  37.629  1.00  0.00     0.022 A 
BRANCH  68  72
ATOM     72  S   UNL A   1      40.142  35.642  36.951  1.00  0.00     0.124 S 
ATOM     73  O   UNL A   1      41.543  35.232  36.877  1.00  0.00    -0.237 OA
ATOM     74  O   UNL A   1      39.655  36.454  35.843  1.00  0.00    -0.237 OA
ATOM     75  O   UNL A   1      39.693  36.060  38.278  1.00  0.00    -0.744 OA
ENDBRANCH  68  72
ENDBRANCH  51  65
BRANCH  52  76
ATOM     76  C   UNL A   1      42.491  26.204  27.935  1.00  0.00     0.023 A 
ATOM     77  C   UNL A   1      42.164  24.844  27.806  1.00  0.00     0.031 A 
ATOM     78  C   UNL A   1      43.359  26.765  26.983  1.00  0.00     0.131 A 
ATOM     79  C   UNL A   1      42.736  24.079  26.778  1.00  0.00     0.055 A 
ATOM     80  C   UNL A   1      43.889  26.012  25.933  1.00  0.00     0.041 A 
ATOM     81  F   UNL A   1      43.697  28.062  27.053  1.00  0.00    -0.206 F 
ATOM     82  C   UNL A   1      43.588  24.656  25.835  1.00  0.00     0.022 A 
BRANCH  79  83
ATOM     83  S   UNL A   1      42.412  22.295  26.741  1.00  0.00     0.124 S 
ATOM     84  O   UNL A   1      43.528  21.806  25.938  1.00  0.00    -0.237 OA
ATOM     85  O   UNL A   1      42.443  21.951  28.158  1.00  0.00    -0.237 OA
ATOM     86  O   UNL A   1      41.099  22.201  26.107  1.00  0.00    -0.744 OA
ENDBRANCH  79  83
ENDBRANCH  52  76
BRANCH  64  87
ATOM     87  C   UNL A   1      44.704  27.308  34.452  1.00  0.00     0.023 A 
ATOM     88  C   UNL A   1      44.579  26.104  35.165  1.00  0.00     0.031 A 
ATOM     89  C   UNL A   1      45.938  27.980  34.492  1.00  0.00     0.131 A 
ATOM     90  C   UNL A   1      45.655  25.634  35.932  1.00  0.00     0.055 A 
ATOM     91  C   UNL A   1      47.024  27.478  35.210  1.00  0.00     0.041 A 
ATOM     92  F   UNL A   1      46.109  29.135  33.827  1.00  0.00    -0.206 F 
ATOM     93  C   UNL A   1      46.882  26.304  35.946  1.00  0.00     0.022 A 
BRANCH  90  94
ATOM     94  S   UNL A   1      45.407  24.175  36.979  1.00  0.00     0.124 S 
ATOM     95  O   UNL A   1      44.744  24.749  38.146  1.00  0.00    -0.237 OA
ATOM     96  O   UNL A   1      44.579  23.321  36.133  1.00  0.00    -0.237 OA
ATOM     97  O   UNL A   1      46.762  23.686  37.214  1.00  0.00    -0.744 OA
ENDBRANCH  90  94
ENDBRANCH  64  87
ENDBRANCH  38  39
ENDBRANCH  30  33
ENDBRANCH  28  29
ENDBRANCH  27  28
ENDBRANCH   1  27
TORSDOF 18
ENDMDL
MODEL 2
REMARK VINA RESULT:     -11.9      4.604     10.552
REMARK SMILES C[C@H]1[C@@H](C(=O)NCCCCNC(=O)c2ccc(-c3c4nc(c(-c5cc(S(=O)(=O)[O-])ccc5F)c5ccc([nH]5)c(-c5cc(S(=O)(=O)[O-])ccc5F)c5nc(c(-c6cc(S(=O)(=O)[O-])ccc6F)c6ccc3[nH]6)C=C5)C=C4)cc2)CC[N@@H+]1CC(=O)NNc1ccccn1
REMARK SMILES IDX 8 1 7 2 6 3 4 4 5 5 3 7 1 8 2 9 79 10 77 11 78 12 80 14
REMARK SMILES IDX 81 15 82 16 83 17 84 19 85 21 86 22 90 23 87 24 89 25 88 26
REMARK SMILES IDX 9 27 10 28 11 29 12 30 13 32 14 33 15 34 76 35 16 36 75 37
REMARK SMILES IDX 17 38 18 39 19 40 69 41 20 42 74 43 68 44 70 45 21 46 73 47
REMARK SMILES IDX 67 48 66 49 22 51 54 52 34 53 53 54 35 55 38 56 52 57 71 58
REMARK SMILES IDX 36 59 37 60 51 62 72 63 39 64 23 65 24 66 32 67 25 68 31 69
REMARK SMILES IDX 33 70 30 71 26 72 27 73 28 74 29 75 55 76 56 77 64 78 57 79
REMARK SMILES IDX 63 80 65 81 62 82 58 83 59 84 60 85 61 86 40 87 41 88 49 89
REMARK SMILES IDX 42 90 48 91 50 92 47 93 43 94 44 95 45 96 46 97
REMARK H PARENT 6 6 79 13 83 18 84 20 11 31 70 50 38 61
REMARK Flexibility Score: inf
ROOT
ATOM      1  C   UNL A   1      34.326  20.799  25.226  1.00  0.00     0.023 C 
ENDROOT
BRANCH   1   2
ATOM      2  C   UNL A   1      32.879  21.227  24.971  1.00  0.00     0.116 C 
BRANCH   2   3
ATOM      3  N   UNL A   1      32.324  21.779  26.186  1.00  0.00    -0.356 N 
ATOM      4  C   UNL A   1      31.930  23.055  26.454  1.00  0.00     0.229 C 
ATOM      5  O   UNL A   1      31.749  23.337  27.641  1.00  0.00    -0.275 OA
ATOM      6  H   UNL A   1      32.214  21.140  26.928  1.00  0.00     0.163 HD
BRANCH   4   7
ATOM      7  C   UNL A   1      31.613  24.033  25.322  1.00  0.00     0.142 C 
ATOM      8  C   UNL A   1      34.014  25.109  25.547  1.00  0.00     0.076 C 
ATOM      9  C   UNL A   1      32.716  24.957  24.759  1.00  0.00     0.194 C 
ATOM     10  N   UNL A   1      32.148  26.314  24.701  1.00  0.00    -0.324 N 
ATOM     11  C   UNL A   1      30.471  24.988  25.709  1.00  0.00     0.081 C 
ATOM     12  C   UNL A   1      31.095  26.369  25.707  1.00  0.00     0.263 C 
ATOM     13  H   UNL A   1      32.858  27.011  24.931  1.00  0.00     0.348 HD
BRANCH  10  14
ATOM     14  C   UNL A   1      31.803  26.789  23.352  1.00  0.00     0.365 C 
BRANCH  14  15
ATOM     15  C   UNL A   1      32.476  28.087  22.912  1.00  0.00     0.293 C 
ATOM     16  O   UNL A   1      33.544  28.082  22.292  1.00  0.00    -0.267 OA
ATOM     17  N   UNL A   1      31.884  29.293  23.181  1.00  0.00    -0.264 N 
ATOM     18  H   UNL A   1      32.334  30.109  22.865  1.00  0.00     0.191 HD
BRANCH  17  19
ATOM     19  N   UNL A   1      30.683  29.437  23.877  1.00  0.00    -0.282 N 
ATOM     20  H   UNL A   1      30.532  29.065  24.776  1.00  0.00     0.190 HD
BRANCH  19  21
ATOM     21  C   UNL A   1      29.707  30.167  23.170  1.00  0.00     0.144 A 
ATOM     22  C   UNL A   1      29.068  31.243  23.790  1.00  0.00     0.048 A 
ATOM     23  N   UNL A   1      29.411  29.797  21.909  1.00  0.00    -0.238 NA
ATOM     24  C   UNL A   1      28.087  31.947  23.097  1.00  0.00     0.005 A 
ATOM     25  C   UNL A   1      28.457  30.497  21.254  1.00  0.00     0.113 A 
ATOM     26  C   UNL A   1      27.773  31.567  21.800  1.00  0.00     0.020 A 
ENDBRANCH  19  21
ENDBRANCH  17  19
ENDBRANCH  14  15
ENDBRANCH  10  14
ENDBRANCH   4   7
ENDBRANCH   2   3
ENDBRANCH   1   2
BRANCH   1  27
ATOM     27  C   UNL A   1      35.385  21.749  24.689  1.00  0.00     0.023 C 
BRANCH  27  28
ATOM     28  C   UNL A   1      36.524  22.015  25.652  1.00  0.00     0.116 C 
BRANCH  28  29
ATOM     29  N   UNL A   1      37.572  21.002  25.597  1.00  0.00    -0.352 N 
ATOM     30  C   UNL A   1      38.904  21.114  25.935  1.00  0.00     0.251 C 
ATOM     31  H   UNL A   1      37.289  20.116  25.270  1.00  0.00     0.163 HD
ATOM     32  O   UNL A   1      39.683  20.204  25.708  1.00  0.00    -0.269 OA
BRANCH  30  33
ATOM     33  C   UNL A   1      39.364  22.381  26.541  1.00  0.00     0.039 A 
ATOM     34  C   UNL A   1      40.399  22.356  27.476  1.00  0.00     0.014 A 
ATOM     35  C   UNL A   1      38.842  23.594  26.088  1.00  0.00     0.014 A 
ATOM     36  C   UNL A   1      40.975  23.558  27.889  1.00  0.00     0.010 A 
ATOM     37  C   UNL A   1      39.494  24.775  26.406  1.00  0.00     0.010 A 
ATOM     38  C   UNL A   1      40.563  24.772  27.315  1.00  0.00    -0.014 A 
BRANCH  38  39
ATOM     39  C   UNL A   1      41.206  26.065  27.667  1.00  0.00     0.031 A 
ATOM     40  C   UNL A   1      42.620  26.327  27.223  1.00  0.00     0.074 A 
ATOM     41  C   UNL A   1      40.561  26.949  28.454  1.00  0.00     0.049 A 
ATOM     42  N   UNL A   1      43.417  27.317  27.529  1.00  0.00    -0.248 NA
ATOM     43  C   UNL A   1      43.238  25.304  26.364  1.00  0.00     0.031 C 
ATOM     44  C   UNL A   1      39.213  26.775  29.002  1.00  0.00     0.029 A 
ATOM     45  N   UNL A   1      40.958  28.170  28.940  1.00  0.00    -0.354 N 
ATOM     46  C   UNL A   1      44.637  27.017  26.930  1.00  0.00     0.074 A 
ATOM     47  C   UNL A   1      44.494  25.716  26.314  1.00  0.00     0.031 C 
ATOM     48  C   UNL A   1      38.884  27.863  29.718  1.00  0.00     0.029 A 
ATOM     49  C   UNL A   1      40.008  28.791  29.719  1.00  0.00     0.049 A 
ATOM     50  H   UNL A   1      41.839  28.563  28.750  1.00  0.00     0.167 HD
ATOM     51  C   UNL A   1      45.760  27.773  26.869  1.00  0.00     0.034 A 
ATOM     52  C   UNL A   1      40.048  29.974  30.363  1.00  0.00     0.034 A 
ATOM     53  C   UNL A   1      45.864  29.088  27.450  1.00  0.00     0.049 A 
ATOM     54  C   UNL A   1      41.296  30.814  30.255  1.00  0.00     0.074 A 
ATOM     55  C   UNL A   1      46.921  29.977  27.391  1.00  0.00     0.029 A 
ATOM     56  N   UNL A   1      44.866  29.704  28.195  1.00  0.00    -0.354 N 
ATOM     57  N   UNL A   1      42.423  30.542  29.638  1.00  0.00    -0.248 NA
ATOM     58  C   UNL A   1      41.271  32.123  30.920  1.00  0.00     0.031 C 
ATOM     59  C   UNL A   1      46.584  31.108  28.142  1.00  0.00     0.029 A 
ATOM     60  C   UNL A   1      45.290  30.954  28.617  1.00  0.00     0.049 A 
ATOM     61  H   UNL A   1      43.987  29.310  28.395  1.00  0.00     0.167 HD
ATOM     62  C   UNL A   1      43.231  31.660  29.817  1.00  0.00     0.074 A 
ATOM     63  C   UNL A   1      42.456  32.614  30.586  1.00  0.00     0.031 C 
ATOM     64  C   UNL A   1      44.499  31.883  29.386  1.00  0.00     0.034 A 
BRANCH  51  65
ATOM     65  C   UNL A   1      46.954  27.180  26.157  1.00  0.00     0.023 A 
ATOM     66  C   UNL A   1      47.957  26.483  26.855  1.00  0.00     0.031 A 
ATOM     67  C   UNL A   1      47.123  27.362  24.774  1.00  0.00     0.131 A 
ATOM     68  C   UNL A   1      49.125  26.082  26.190  1.00  0.00     0.055 A 
ATOM     69  C   UNL A   1      48.247  26.877  24.099  1.00  0.00     0.041 A 
ATOM     70  F   UNL A   1      46.212  28.036  24.055  1.00  0.00    -0.206 F 
ATOM     71  C   UNL A   1      49.265  26.250  24.811  1.00  0.00     0.022 A 
BRANCH  68  72
ATOM     72  S   UNL A   1      50.522  25.489  27.182  1.00  0.00     0.124 S 
ATOM     73  O   UNL A   1      51.576  25.392  26.174  1.00  0.00    -0.237 OA
ATOM     74  O   UNL A   1      50.680  26.547  28.172  1.00  0.00    -0.237 OA
ATOM     75  O   UNL A   1      50.052  24.207  27.705  1.00  0.00    -0.744 OA
ENDBRANCH  68  72
ENDBRANCH  51  65
BRANCH  52  76
ATOM     76  C   UNL A   1      38.877  30.446  31.156  1.00  0.00     0.023 A 
ATOM     77  C   UNL A   1      37.906  31.283  30.582  1.00  0.00     0.031 A 
ATOM     78  C   UNL A   1      38.728  30.099  32.510  1.00  0.00     0.131 A 
ATOM     79  C   UNL A   1      36.857  31.784  31.368  1.00  0.00     0.055 A 
ATOM     80  C   UNL A   1      37.656  30.561  33.277  1.00  0.00     0.041 A 
ATOM     81  F   UNL A   1      39.622  29.294  33.107  1.00  0.00    -0.206 F 
ATOM     82  C   UNL A   1      36.720  31.420  32.709  1.00  0.00     0.022 A 
BRANCH  79  83
ATOM     83  S   UNL A   1      35.716  32.985  30.630  1.00  0.00     0.124 S 
ATOM     84  O   UNL A   1      36.104  34.219  31.306  1.00  0.00    -0.237 OA
ATOM     85  O   UNL A   1      36.056  32.896  29.214  1.00  0.00    -0.237 OA
ATOM     86  O   UNL A   1      34.398  32.466  30.986  1.00  0.00    -0.744 OA
ENDBRANCH  79  83
ENDBRANCH  52  76
BRANCH  64  87
ATOM     87  C   UNL A   1      45.099  33.230  29.700  1.00  0.00     0.023 A 
ATOM     88  C   UNL A   1      45.065  34.286  28.774  1.00  0.00     0.031 A 
ATOM     89  C   UNL A   1      45.720  33.453  30.941  1.00  0.00     0.131 A 
ATOM     90  C   UNL A   1      45.689  35.504  29.083  1.00  0.00     0.055 A 
ATOM     91  C   UNL A   1      46.288  34.685  31.266  1.00  0.00     0.041 A 
ATOM     92  F   UNL A   1      45.779  32.476  31.861  1.00  0.00    -0.206 F 
ATOM     93  C   UNL A   1      46.285  35.716  30.329  1.00  0.00     0.022 A 
BRANCH  90  94
ATOM     94  S   UNL A   1      45.782  36.784  27.803  1.00  0.00     0.124 S 
ATOM     95  O   UNL A   1      46.860  37.632  28.301  1.00  0.00    -0.237 OA
ATOM     96  O   UNL A   1      46.084  36.007  26.605  1.00  0.00    -0.237 OA
ATOM     97  O   UNL A   1      44.454  37.392  27.827  1.00  0.00    -0.744 OA
ENDBRANCH  90  94
ENDBRANCH  64  87
ENDBRANCH  38  39
ENDBRANCH  30  33
ENDBRANCH  28  29
ENDBRANCH  27  28
ENDBRANCH   1  27
TORSDOF 18
ENDMDL
MODEL 3
REMARK VINA RESULT:     -11.8      5.619      9.182
REMARK SMILES C[C@H]1[C@@H](C(=O)NCCCCNC(=O)c2ccc(-c3c4nc(c(-c5cc(S(=O)(=O)[O-])ccc5F)c5ccc([nH]5)c(-c5cc(S(=O)(=O)[O-])ccc5F)c5nc(c(-c6cc(S(=O)(=O)[O-])ccc6F)c6ccc3[nH]6)C=C5)C=C4)cc2)CC[N@@H+]1CC(=O)NNc1ccccn1
REMARK SMILES IDX 8 1 7 2 6 3 4 4 5 5 3 7 1 8 2 9 79 10 77 11 78 12 80 14
REMARK SMILES IDX 81 15 82 16 83 17 84 19 85 21 86 22 90 23 87 24 89 25 88 26
REMARK SMILES IDX 9 27 10 28 11 29 12 30 13 32 14 33 15 34 76 35 16 36 75 37
REMARK SMILES IDX 17 38 18 39 19 40 69 41 20 42 74 43 68 44 70 45 21 46 73 47
REMARK SMILES IDX 67 48 66 49 22 51 54 52 34 53 53 54 35 55 38 56 52 57 71 58
REMARK SMILES IDX 36 59 37 60 51 62 72 63 39 64 23 65 24 66 32 67 25 68 31 69
REMARK SMILES IDX 33 70 30 71 26 72 27 73 28 74 29 75 55 76 56 77 64 78 57 79
REMARK SMILES IDX 63 80 65 81 62 82 58 83 59 84 60 85 61 86 40 87 41 88 49 89
REMARK SMILES IDX 42 90 48 91 50 92 47 93 43 94 44 95 45 96 46 97
REMARK H PARENT 6 6 79 13 83 18 84 20 11 31 70 50 38 61
REMARK Flexibility Score: inf
ROOT
ATOM      1  C   UNL A   1      39.419  23.177  26.557  1.00  0.00     0.023 C 
ENDROOT
BRANCH   1   2
ATOM      2  C   UNL A   1      38.064  23.869  26.397  1.00  0.00     0.116 C 
BRANCH   2   3
ATOM      3  N   UNL A   1      37.656  23.804  25.012  1.00  0.00    -0.356 N 
ATOM      4  C   UNL A   1      36.423  23.561  24.485  1.00  0.00     0.229 C 
ATOM      5  O   UNL A   1      36.383  23.285  23.284  1.00  0.00    -0.275 OA
ATOM      6  H   UNL A   1      38.372  23.957  24.354  1.00  0.00     0.163 HD
BRANCH   4   7
ATOM      7  C   UNL A   1      35.159  23.749  25.327  1.00  0.00     0.142 C 
ATOM      8  C   UNL A   1      34.909  21.133  25.578  1.00  0.00     0.076 C 
ATOM      9  C   UNL A   1      34.490  22.535  26.009  1.00  0.00     0.194 C 
ATOM     10  N   UNL A   1      33.052  22.611  25.702  1.00  0.00    -0.324 N 
ATOM     11  C   UNL A   1      34.032  24.400  24.506  1.00  0.00     0.081 C 
ATOM     12  C   UNL A   1      32.931  23.360  24.457  1.00  0.00     0.263 C 
ATOM     13  H   UNL A   1      32.665  21.677  25.561  1.00  0.00     0.348 HD
BRANCH  10  14
ATOM     14  C   UNL A   1      32.196  23.039  26.819  1.00  0.00     0.365 C 
BRANCH  14  15
ATOM     15  C   UNL A   1      30.701  23.108  26.521  1.00  0.00     0.293 C 
ATOM     16  O   UNL A   1      30.026  22.086  26.359  1.00  0.00    -0.267 OA
ATOM     17  N   UNL A   1      30.070  24.323  26.453  1.00  0.00    -0.264 N 
ATOM     18  H   UNL A   1      29.101  24.331  26.281  1.00  0.00     0.191 HD
BRANCH  17  19
ATOM     19  N   UNL A   1      30.715  25.550  26.613  1.00  0.00    -0.282 N 
ATOM     20  H   UNL A   1      31.260  25.774  27.402  1.00  0.00     0.190 HD
BRANCH  19  21
ATOM     21  C   UNL A   1      30.514  26.437  25.537  1.00  0.00     0.144 A 
ATOM     22  C   UNL A   1      31.314  27.575  25.423  1.00  0.00     0.048 A 
ATOM     23  N   UNL A   1      29.541  26.161  24.647  1.00  0.00    -0.238 NA
ATOM     24  C   UNL A   1      31.097  28.462  24.373  1.00  0.00     0.005 A 
ATOM     25  C   UNL A   1      29.349  27.035  23.633  1.00  0.00     0.113 A 
ATOM     26  C   UNL A   1      30.092  28.188  23.455  1.00  0.00     0.020 A 
ENDBRANCH  19  21
ENDBRANCH  17  19
ENDBRANCH  14  15
ENDBRANCH  10  14
ENDBRANCH   4   7
ENDBRANCH   2   3
ENDBRANCH   1   2
BRANCH   1  27
ATOM     27  C   UNL A   1      39.453  21.718  26.132  1.00  0.00     0.023 C 
BRANCH  27  28
ATOM     28  C   UNL A   1      40.293  20.831  27.029  1.00  0.00     0.116 C 
BRANCH  28  29
ATOM     29  N   UNL A   1      41.123  19.887  26.289  1.00  0.00    -0.352 N 
ATOM     30  C   UNL A   1      42.371  20.079  25.736  1.00  0.00     0.251 C 
ATOM     31  H   UNL A   1      40.737  18.988  26.167  1.00  0.00     0.163 HD
ATOM     32  O   UNL A   1      42.879  19.222  25.034  1.00  0.00    -0.269 OA
BRANCH  30  33
ATOM     33  C   UNL A   1      43.053  21.366  25.986  1.00  0.00     0.039 A 
ATOM     34  C   UNL A   1      43.024  22.356  25.003  1.00  0.00     0.014 A 
ATOM     35  C   UNL A   1      43.615  21.619  27.238  1.00  0.00     0.014 A 
ATOM     36  C   UNL A   1      43.480  23.638  25.314  1.00  0.00     0.010 A 
ATOM     37  C   UNL A   1      43.952  22.920  27.580  1.00  0.00     0.010 A 
ATOM     38  C   UNL A   1      43.897  23.943  26.621  1.00  0.00    -0.014 A 
BRANCH  38  39
ATOM     39  C   UNL A   1      44.312  25.314  27.013  1.00  0.00     0.031 A 
ATOM     40  C   UNL A   1      43.298  26.242  27.626  1.00  0.00     0.074 A 
ATOM     41  C   UNL A   1      45.557  25.749  26.734  1.00  0.00     0.049 A 
ATOM     42  N   UNL A   1      43.403  27.513  27.916  1.00  0.00    -0.248 NA
ATOM     43  C   UNL A   1      41.967  25.674  27.895  1.00  0.00     0.031 C 
ATOM     44  C   UNL A   1      46.607  24.963  26.081  1.00  0.00     0.029 A 
ATOM     45  N   UNL A   1      46.150  26.967  26.957  1.00  0.00    -0.354 N 
ATOM     46  C   UNL A   1      42.144  27.901  28.366  1.00  0.00     0.074 A 
ATOM     47  C   UNL A   1      41.277  26.751  28.232  1.00  0.00     0.031 C 
ATOM     48  C   UNL A   1      47.722  25.706  25.989  1.00  0.00     0.029 A 
ATOM     49  C   UNL A   1      47.458  27.032  26.533  1.00  0.00     0.049 A 
ATOM     50  H   UNL A   1      45.684  27.722  27.381  1.00  0.00     0.167 HD
ATOM     51  C   UNL A   1      41.757  29.095  28.877  1.00  0.00     0.034 A 
ATOM     52  C   UNL A   1      48.338  28.052  26.576  1.00  0.00     0.034 A 
ATOM     53  C   UNL A   1      42.651  30.213  29.045  1.00  0.00     0.049 A 
ATOM     54  C   UNL A   1      47.897  29.362  27.178  1.00  0.00     0.074 A 
ATOM     55  C   UNL A   1      42.395  31.445  29.617  1.00  0.00     0.029 A 
ATOM     56  N   UNL A   1      43.982  30.229  28.644  1.00  0.00    -0.354 N 
ATOM     57  N   UNL A   1      46.718  29.698  27.651  1.00  0.00    -0.248 NA
ATOM     58  C   UNL A   1      48.906  30.425  27.262  1.00  0.00     0.031 C 
ATOM     59  C   UNL A   1      43.553  32.224  29.515  1.00  0.00     0.029 A 
ATOM     60  C   UNL A   1      44.553  31.456  28.938  1.00  0.00     0.049 A 
ATOM     61  H   UNL A   1      44.449  29.478  28.212  1.00  0.00     0.167 HD
ATOM     62  C   UNL A   1      46.855  31.002  28.116  1.00  0.00     0.074 A 
ATOM     63  C   UNL A   1      48.233  31.385  27.879  1.00  0.00     0.031 C 
ATOM     64  C   UNL A   1      45.929  31.813  28.688  1.00  0.00     0.034 A 
BRANCH  51  65
ATOM     65  C   UNL A   1      40.307  29.239  29.275  1.00  0.00     0.023 A 
ATOM     66  C   UNL A   1      39.901  29.164  30.619  1.00  0.00     0.031 A 
ATOM     67  C   UNL A   1      39.310  29.394  28.297  1.00  0.00     0.131 A 
ATOM     68  C   UNL A   1      38.535  29.145  30.940  1.00  0.00     0.055 A 
ATOM     69  C   UNL A   1      37.955  29.469  28.631  1.00  0.00     0.041 A 
ATOM     70  F   UNL A   1      39.632  29.451  26.994  1.00  0.00    -0.206 F 
ATOM     71  C   UNL A   1      37.560  29.325  29.957  1.00  0.00     0.022 A 
BRANCH  68  72
ATOM     72  S   UNL A   1      38.052  28.718  32.635  1.00  0.00     0.124 S 
ATOM     73  O   UNL A   1      36.696  29.259  32.698  1.00  0.00    -0.237 OA
ATOM     74  O   UNL A   1      38.161  27.264  32.639  1.00  0.00    -0.237 OA
ATOM     75  O   UNL A   1      39.034  29.422  33.459  1.00  0.00    -0.744 OA
ENDBRANCH  68  72
ENDBRANCH  51  65
BRANCH  52  76
ATOM     76  C   UNL A   1      49.722  27.882  26.048  1.00  0.00     0.023 A 
ATOM     77  C   UNL A   1      50.019  28.158  24.703  1.00  0.00     0.031 A 
ATOM     78  C   UNL A   1      50.760  27.406  26.866  1.00  0.00     0.131 A 
ATOM     79  C   UNL A   1      51.307  27.913  24.204  1.00  0.00     0.055 A 
ATOM     80  C   UNL A   1      52.053  27.208  26.378  1.00  0.00     0.041 A 
ATOM     81  F   UNL A   1      50.534  27.135  28.161  1.00  0.00    -0.206 F 
ATOM     82  C   UNL A   1      52.330  27.450  25.035  1.00  0.00     0.022 A 
BRANCH  79  83
ATOM     83  S   UNL A   1      51.608  28.133  22.429  1.00  0.00     0.124 S 
ATOM     84  O   UNL A   1      53.053  27.951  22.346  1.00  0.00    -0.237 OA
ATOM     85  O   UNL A   1      50.794  27.070  21.850  1.00  0.00    -0.237 OA
ATOM     86  O   UNL A   1      51.134  29.491  22.169  1.00  0.00    -0.744 OA
ENDBRANCH  79  83
ENDBRANCH  52  76
BRANCH  64  87
ATOM     87  C   UNL A   1      46.398  33.174  29.137  1.00  0.00     0.023 A 
ATOM     88  C   UNL A   1      46.294  34.301  28.304  1.00  0.00     0.031 A 
ATOM     89  C   UNL A   1      46.964  33.339  30.412  1.00  0.00     0.131 A 
ATOM     90  C   UNL A   1      46.798  35.536  28.738  1.00  0.00     0.055 A 
ATOM     91  C   UNL A   1      47.411  34.581  30.861  1.00  0.00     0.041 A 
ATOM     92  F   UNL A   1      47.086  32.293  31.246  1.00  0.00    -0.206 F 
ATOM     93  C   UNL A   1      47.341  35.687  30.017  1.00  0.00     0.022 A 
BRANCH  90  94
ATOM     94  S   UNL A   1      46.810  36.928  27.577  1.00  0.00     0.124 S 
ATOM     95  O   UNL A   1      48.239  37.137  27.369  1.00  0.00    -0.237 OA
ATOM     96  O   UNL A   1      46.073  36.390  26.437  1.00  0.00    -0.237 OA
ATOM     97  O   UNL A   1      46.127  37.992  28.308  1.00  0.00    -0.744 OA
ENDBRANCH  90  94
ENDBRANCH  64  87
ENDBRANCH  38  39
ENDBRANCH  30  33
ENDBRANCH  28  29
ENDBRANCH  27  28
ENDBRANCH   1  27
TORSDOF 18
ENDMDL
