MODEL 1
REMARK VINA RESULT:     -11.8      0.000      0.000
REMARK SMILES O=C(CCc1ccc(S(=O)(=O)Nc2cccc(I)c2)cc1)NCCCCNC(=O)c1ccc(-c2c3nc(c(-c4cc(S(=O)(=O)[O-])ccc4F)c4ccc([nH]4)c(-c4cc(S(=O)(=O)[O-])ccc4F)c4nc(c(-c5cc(S(=O)(=O)[O-])ccc5F)c5ccc2[nH]5)C=C4)C=C3)cc1
REMARK SMILES IDX 23 1 22 2 1 3 2 4 3 6 4 7 5 8 6 9 21 10 7 11 20 12 8 13 9 14
REMARK SMILES IDX 10 15 11 16 12 17 13 19 14 20 19 21 15 22 17 23 16 24 18 25
REMARK SMILES IDX 24 26 25 27 26 28 27 29 28 30 29 32 30 33 31 34 92 35 32 36
REMARK SMILES IDX 91 37 33 38 34 39 35 40 85 41 36 42 90 43 84 44 86 45 37 46
REMARK SMILES IDX 89 47 83 48 82 49 38 51 70 52 50 53 69 54 51 55 54 56 68 57
REMARK SMILES IDX 87 58 52 59 53 60 67 62 88 63 55 64 39 65 40 66 48 67 41 68
REMARK SMILES IDX 47 69 49 70 46 71 42 72 43 73 44 74 45 75 71 76 72 77 80 78
REMARK SMILES IDX 73 79 79 80 81 81 78 82 74 83 75 84 76 85 77 86 56 87 57 88
REMARK SMILES IDX 65 89 58 90 64 91 66 92 63 93 59 94 60 95 61 96 62 97
REMARK H PARENT 22 5 12 18 27 31 86 50 54 61
REMARK Flexibility Score: inf
ROOT
ATOM      1  C   UNL A   1      32.381  29.651  25.574  1.00  0.00     0.116 C 
ENDROOT
BRANCH   1   2
ATOM      2  N   UNL A   1      31.470  28.762  24.875  1.00  0.00    -0.356 N 
ATOM      3  O   UNL A   1      32.396  29.005  22.800  1.00  0.00    -0.275 OA
ATOM      4  C   UNL A   1      31.514  28.539  23.520  1.00  0.00     0.220 C 
ATOM      5  H   UNL A   1      30.783  28.292  25.401  1.00  0.00     0.163 HD
BRANCH   4   6
ATOM      6  C   UNL A   1      30.334  27.789  22.909  1.00  0.00     0.105 C 
BRANCH   6   7
ATOM      7  C   UNL A   1      29.430  26.993  23.856  1.00  0.00     0.045 C 
BRANCH   7   8
ATOM      8  C   UNL A   1      29.968  25.685  24.393  1.00  0.00    -0.047 A 
ATOM      9  C   UNL A   1      30.100  25.414  25.761  1.00  0.00     0.005 A 
ATOM     10  C   UNL A   1      30.403  24.721  23.473  1.00  0.00     0.005 A 
ATOM     11  C   UNL A   1      30.863  24.328  26.189  1.00  0.00     0.022 A 
ATOM     12  C   UNL A   1      31.131  23.612  23.897  1.00  0.00     0.022 A 
ATOM     13  C   UNL A   1      31.440  23.470  25.247  1.00  0.00     0.087 A 
BRANCH  13  14
ATOM     14  S   UNL A   1      32.778  22.434  25.800  1.00  0.00     0.261 S 
ATOM     15  O   UNL A   1      33.769  22.514  24.744  1.00  0.00    -0.201 OA
ATOM     16  O   UNL A   1      33.094  22.859  27.141  1.00  0.00    -0.201 OA
BRANCH  14  17
ATOM     17  N   UNL A   1      32.218  20.877  25.937  1.00  0.00    -0.280 N 
ATOM     18  H   UNL A   1      31.651  20.682  26.717  1.00  0.00     0.180 HD
BRANCH  17  19
ATOM     19  C   UNL A   1      32.469  19.794  25.048  1.00  0.00     0.050 A 
ATOM     20  C   UNL A   1      32.145  19.999  23.706  1.00  0.00     0.027 A 
ATOM     21  C   UNL A   1      33.054  18.588  25.432  1.00  0.00     0.041 A 
ATOM     22  C   UNL A   1      32.475  19.046  22.743  1.00  0.00     0.003 A 
ATOM     23  C   UNL A   1      33.411  17.645  24.463  1.00  0.00     0.015 A 
ATOM     24  C   UNL A   1      33.132  17.874  23.116  1.00  0.00     0.015 A 
ATOM     25  I   UNL A   1      34.433  15.922  25.024  1.00  0.00    -0.044 I 
ENDBRANCH  17  19
ENDBRANCH  14  17
ENDBRANCH  13  14
ENDBRANCH   7   8
ENDBRANCH   6   7
ENDBRANCH   4   6
ENDBRANCH   1   2
BRANCH   1  26
ATOM     26  C   UNL A   1      31.785  30.162  26.889  1.00  0.00     0.023 C 
BRANCH  26  27
ATOM     27  C   UNL A   1      31.441  31.659  26.920  1.00  0.00     0.023 C 
BRANCH  27  28
ATOM     28  C   UNL A   1      32.610  32.623  26.692  1.00  0.00     0.116 C 
BRANCH  28  29
ATOM     29  N   UNL A   1      32.440  33.889  27.390  1.00  0.00    -0.352 N 
ATOM     30  C   UNL A   1      33.122  34.404  28.471  1.00  0.00     0.251 C 
ATOM     31  H   UNL A   1      31.726  34.467  27.035  1.00  0.00     0.163 HD
ATOM     32  O   UNL A   1      32.723  35.449  28.983  1.00  0.00    -0.269 OA
BRANCH  30  33
ATOM     33  C   UNL A   1      34.300  33.706  29.047  1.00  0.00     0.039 A 
ATOM     34  C   UNL A   1      35.561  34.302  28.957  1.00  0.00     0.014 A 
ATOM     35  C   UNL A   1      34.183  32.455  29.647  1.00  0.00     0.014 A 
ATOM     36  C   UNL A   1      36.676  33.688  29.545  1.00  0.00     0.010 A 
ATOM     37  C   UNL A   1      35.280  31.875  30.292  1.00  0.00     0.010 A 
ATOM     38  C   UNL A   1      36.540  32.490  30.266  1.00  0.00    -0.014 A 
BRANCH  38  39
ATOM     39  C   UNL A   1      37.683  31.896  31.024  1.00  0.00     0.031 A 
ATOM     40  C   UNL A   1      38.553  30.826  30.414  1.00  0.00     0.074 A 
ATOM     41  C   UNL A   1      37.893  32.258  32.305  1.00  0.00     0.049 A 
ATOM     42  N   UNL A   1      39.533  30.143  30.956  1.00  0.00    -0.248 NA
ATOM     43  C   UNL A   1      38.260  30.447  29.024  1.00  0.00     0.031 C 
ATOM     44  C   UNL A   1      37.081  33.216  33.060  1.00  0.00     0.029 A 
ATOM     45  N   UNL A   1      38.848  31.856  33.209  1.00  0.00    -0.354 N 
ATOM     46  C   UNL A   1      39.953  29.236  29.988  1.00  0.00     0.074 A 
ATOM     47  C   UNL A   1      39.089  29.430  28.841  1.00  0.00     0.031 C 
ATOM     48  C   UNL A   1      37.586  33.346  34.297  1.00  0.00     0.029 A 
ATOM     49  C   UNL A   1      38.735  32.458  34.440  1.00  0.00     0.049 A 
ATOM     50  H   UNL A   1      39.549  31.197  32.994  1.00  0.00     0.167 HD
ATOM     51  C   UNL A   1      40.969  28.338  30.041  1.00  0.00     0.034 A 
ATOM     52  C   UNL A   1      39.465  32.313  35.564  1.00  0.00     0.034 A 
ATOM     53  C   UNL A   1      41.858  28.176  31.167  1.00  0.00     0.049 A 
ATOM     54  C   UNL A   1      40.629  31.362  35.578  1.00  0.00     0.074 A 
ATOM     55  C   UNL A   1      42.968  27.353  31.280  1.00  0.00     0.029 A 
ATOM     56  N   UNL A   1      41.747  28.851  32.374  1.00  0.00    -0.354 N 
ATOM     57  N   UNL A   1      41.038  30.545  34.636  1.00  0.00    -0.248 NA
ATOM     58  C   UNL A   1      41.438  31.323  36.804  1.00  0.00     0.031 C 
ATOM     59  C   UNL A   1      43.499  27.498  32.568  1.00  0.00     0.029 A 
ATOM     60  C   UNL A   1      42.753  28.450  33.241  1.00  0.00     0.049 A 
ATOM     61  H   UNL A   1      41.054  29.519  32.585  1.00  0.00     0.167 HD
ATOM     62  C   UNL A   1      42.162  29.908  35.152  1.00  0.00     0.074 A 
ATOM     63  C   UNL A   1      42.373  30.441  36.482  1.00  0.00     0.031 C 
ATOM     64  C   UNL A   1      42.950  28.970  34.571  1.00  0.00     0.034 A 
BRANCH  51  65
ATOM     65  C   UNL A   1      41.161  27.442  28.842  1.00  0.00     0.023 A 
ATOM     66  C   UNL A   1      42.179  27.675  27.901  1.00  0.00     0.031 A 
ATOM     67  C   UNL A   1      40.299  26.351  28.625  1.00  0.00     0.131 A 
ATOM     68  C   UNL A   1      42.261  26.879  26.749  1.00  0.00     0.055 A 
ATOM     69  C   UNL A   1      40.436  25.516  27.515  1.00  0.00     0.041 A 
ATOM     70  F   UNL A   1      39.300  26.089  29.482  1.00  0.00    -0.206 F 
ATOM     71  C   UNL A   1      41.412  25.787  26.560  1.00  0.00     0.022 A 
BRANCH  68  72
ATOM     72  S   UNL A   1      43.408  27.376  25.435  1.00  0.00     0.124 S 
ATOM     73  O   UNL A   1      42.492  27.923  24.437  1.00  0.00    -0.237 OA
ATOM     74  O   UNL A   1      44.265  28.342  26.114  1.00  0.00    -0.237 OA
ATOM     75  O   UNL A   1      44.057  26.124  25.055  1.00  0.00    -0.744 OA
ENDBRANCH  68  72
ENDBRANCH  51  65
BRANCH  52  76
ATOM     76  C   UNL A   1      39.115  33.087  36.784  1.00  0.00     0.023 A 
ATOM     77  C   UNL A   1      39.636  34.374  36.994  1.00  0.00     0.031 A 
ATOM     78  C   UNL A   1      38.277  32.538  37.769  1.00  0.00     0.131 A 
ATOM     79  C   UNL A   1      39.341  35.057  38.182  1.00  0.00     0.055 A 
ATOM     80  C   UNL A   1      37.958  33.237  38.933  1.00  0.00     0.041 A 
ATOM     81  F   UNL A   1      37.749  31.314  37.604  1.00  0.00    -0.206 F 
ATOM     82  C   UNL A   1      38.500  34.500  39.149  1.00  0.00     0.022 A 
BRANCH  79  83
ATOM     83  S   UNL A   1      40.123  36.667  38.474  1.00  0.00     0.124 S 
ATOM     84  O   UNL A   1      41.182  36.320  39.415  1.00  0.00    -0.237 OA
ATOM     85  O   UNL A   1      40.555  37.041  37.130  1.00  0.00    -0.237 OA
ATOM     86  O   UNL A   1      39.038  37.477  39.024  1.00  0.00    -0.744 OA
ENDBRANCH  79  83
ENDBRANCH  52  76
BRANCH  64  87
ATOM     87  C   UNL A   1      44.135  28.491  35.368  1.00  0.00     0.023 A 
ATOM     88  C   UNL A   1      44.024  27.437  36.291  1.00  0.00     0.031 A 
ATOM     89  C   UNL A   1      45.384  29.115  35.216  1.00  0.00     0.131 A 
ATOM     90  C   UNL A   1      45.137  27.067  37.062  1.00  0.00     0.055 A 
ATOM     91  C   UNL A   1      46.498  28.717  35.958  1.00  0.00     0.041 A 
ATOM     92  F   UNL A   1      45.541  30.127  34.348  1.00  0.00    -0.206 F 
ATOM     93  C   UNL A   1      46.374  27.694  36.895  1.00  0.00     0.022 A 
BRANCH  90  94
ATOM     94  S   UNL A   1      44.931  25.793  38.338  1.00  0.00     0.124 S 
ATOM     95  O   UNL A   1      44.119  24.796  37.647  1.00  0.00    -0.237 OA
ATOM     96  O   UNL A   1      46.310  25.408  38.620  1.00  0.00    -0.237 OA
ATOM     97  O   UNL A   1      44.253  26.500  39.423  1.00  0.00    -0.744 OA
ENDBRANCH  90  94
ENDBRANCH  64  87
ENDBRANCH  38  39
ENDBRANCH  30  33
ENDBRANCH  28  29
ENDBRANCH  27  28
ENDBRANCH  26  27
ENDBRANCH   1  26
TORSDOF 19
ENDMDL
MODEL 2
REMARK VINA RESULT:     -11.5      2.172      7.788
REMARK SMILES O=C(CCc1ccc(S(=O)(=O)Nc2cccc(I)c2)cc1)NCCCCNC(=O)c1ccc(-c2c3nc(c(-c4cc(S(=O)(=O)[O-])ccc4F)c4ccc([nH]4)c(-c4cc(S(=O)(=O)[O-])ccc4F)c4nc(c(-c5cc(S(=O)(=O)[O-])ccc5F)c5ccc2[nH]5)C=C4)C=C3)cc1
REMARK SMILES IDX 23 1 22 2 1 3 2 4 3 6 4 7 5 8 6 9 21 10 7 11 20 12 8 13 9 14
REMARK SMILES IDX 10 15 11 16 12 17 13 19 14 20 19 21 15 22 17 23 16 24 18 25
REMARK SMILES IDX 24 26 25 27 26 28 27 29 28 30 29 32 30 33 31 34 92 35 32 36
REMARK SMILES IDX 91 37 33 38 34 39 35 40 85 41 36 42 90 43 84 44 86 45 37 46
REMARK SMILES IDX 89 47 83 48 82 49 38 51 70 52 50 53 69 54 51 55 54 56 68 57
REMARK SMILES IDX 87 58 52 59 53 60 67 62 88 63 55 64 39 65 40 66 48 67 41 68
REMARK SMILES IDX 47 69 49 70 46 71 42 72 43 73 44 74 45 75 71 76 72 77 80 78
REMARK SMILES IDX 73 79 79 80 81 81 78 82 74 83 75 84 76 85 77 86 56 87 57 88
REMARK SMILES IDX 65 89 58 90 64 91 66 92 63 93 59 94 60 95 61 96 62 97
REMARK H PARENT 22 5 12 18 27 31 86 50 54 61
REMARK Flexibility Score: inf
ROOT
ATOM      1  C   UNL A   1      32.862  30.119  25.973  1.00  0.00     0.116 C 
ENDROOT
BRANCH   1   2
ATOM      2  N   UNL A   1      32.352  29.588  24.722  1.00  0.00    -0.356 N 
ATOM      3  O   UNL A   1      33.935  27.962  24.453  1.00  0.00    -0.275 OA
ATOM      4  C   UNL A   1      32.956  28.573  24.022  1.00  0.00     0.220 C 
ATOM      5  H   UNL A   1      31.525  29.978  24.354  1.00  0.00     0.163 HD
BRANCH   4   6
ATOM      6  C   UNL A   1      32.444  28.313  22.608  1.00  0.00     0.105 C 
BRANCH   6   7
ATOM      7  C   UNL A   1      31.041  27.718  22.459  1.00  0.00     0.045 C 
BRANCH   7   8
ATOM      8  C   UNL A   1      30.677  26.560  23.360  1.00  0.00    -0.047 A 
ATOM      9  C   UNL A   1      29.855  26.693  24.486  1.00  0.00     0.005 A 
ATOM     10  C   UNL A   1      31.236  25.305  23.083  1.00  0.00     0.005 A 
ATOM     11  C   UNL A   1      29.793  25.672  25.434  1.00  0.00     0.022 A 
ATOM     12  C   UNL A   1      31.144  24.267  24.006  1.00  0.00     0.022 A 
ATOM     13  C   UNL A   1      30.502  24.485  25.222  1.00  0.00     0.087 A 
BRANCH  13  14
ATOM     14  S   UNL A   1      30.799  23.448  26.639  1.00  0.00     0.261 S 
ATOM     15  O   UNL A   1      31.883  24.095  27.352  1.00  0.00    -0.201 OA
ATOM     16  O   UNL A   1      29.518  23.247  27.270  1.00  0.00    -0.201 OA
BRANCH  14  17
ATOM     17  N   UNL A   1      31.282  21.952  26.106  1.00  0.00    -0.280 N 
ATOM     18  H   UNL A   1      30.580  21.267  26.027  1.00  0.00     0.180 HD
BRANCH  17  19
ATOM     19  C   UNL A   1      32.601  21.553  25.751  1.00  0.00     0.050 A 
ATOM     20  C   UNL A   1      32.770  20.220  25.372  1.00  0.00     0.027 A 
ATOM     21  C   UNL A   1      33.695  22.416  25.715  1.00  0.00     0.041 A 
ATOM     22  C   UNL A   1      33.996  19.771  24.884  1.00  0.00     0.003 A 
ATOM     23  C   UNL A   1      34.918  21.973  25.198  1.00  0.00     0.015 A 
ATOM     24  C   UNL A   1      35.070  20.654  24.773  1.00  0.00     0.015 A 
ATOM     25  I   UNL A   1      36.498  23.310  24.993  1.00  0.00    -0.044 I 
ENDBRANCH  17  19
ENDBRANCH  14  17
ENDBRANCH  13  14
ENDBRANCH   7   8
ENDBRANCH   6   7
ENDBRANCH   4   6
ENDBRANCH   1   2
BRANCH   1  26
ATOM     26  C   UNL A   1      31.736  30.608  26.889  1.00  0.00     0.023 C 
BRANCH  26  27
ATOM     27  C   UNL A   1      31.506  32.128  26.898  1.00  0.00     0.023 C 
BRANCH  27  28
ATOM     28  C   UNL A   1      32.765  32.999  26.846  1.00  0.00     0.116 C 
BRANCH  28  29
ATOM     29  N   UNL A   1      32.675  34.169  27.707  1.00  0.00    -0.352 N 
ATOM     30  C   UNL A   1      33.411  34.507  28.822  1.00  0.00     0.251 C 
ATOM     31  H   UNL A   1      31.981  34.820  27.455  1.00  0.00     0.163 HD
ATOM     32  O   UNL A   1      33.078  35.493  29.479  1.00  0.00    -0.269 OA
BRANCH  30  33
ATOM     33  C   UNL A   1      34.570  33.689  29.263  1.00  0.00     0.039 A 
ATOM     34  C   UNL A   1      35.866  34.140  29.001  1.00  0.00     0.014 A 
ATOM     35  C   UNL A   1      34.394  32.464  29.903  1.00  0.00     0.014 A 
ATOM     36  C   UNL A   1      36.974  33.412  29.460  1.00  0.00     0.010 A 
ATOM     37  C   UNL A   1      35.495  31.772  30.419  1.00  0.00     0.010 A 
ATOM     38  C   UNL A   1      36.801  32.243  30.220  1.00  0.00    -0.014 A 
BRANCH  38  39
ATOM     39  C   UNL A   1      37.959  31.533  30.843  1.00  0.00     0.031 A 
ATOM     40  C   UNL A   1      38.435  31.882  32.231  1.00  0.00     0.074 A 
ATOM     41  C   UNL A   1      38.646  30.622  30.125  1.00  0.00     0.049 A 
ATOM     42  N   UNL A   1      39.472  31.427  32.892  1.00  0.00    -0.248 NA
ATOM     43  C   UNL A   1      37.667  32.904  32.956  1.00  0.00     0.031 C 
ATOM     44  C   UNL A   1      38.360  30.242  28.740  1.00  0.00     0.029 A 
ATOM     45  N   UNL A   1      39.738  29.855  30.456  1.00  0.00    -0.354 N 
ATOM     46  C   UNL A   1      39.500  32.125  34.095  1.00  0.00     0.074 A 
ATOM     47  C   UNL A   1      38.398  33.066  34.049  1.00  0.00     0.031 C 
ATOM     48  C   UNL A   1      39.233  29.300  28.350  1.00  0.00     0.029 A 
ATOM     49  C   UNL A   1      40.164  29.030  29.441  1.00  0.00     0.049 A 
ATOM     50  H   UNL A   1      40.176  29.893  31.338  1.00  0.00     0.167 HD
ATOM     51  C   UNL A   1      40.350  31.989  35.144  1.00  0.00     0.034 A 
ATOM     52  C   UNL A   1      41.190  28.158  29.383  1.00  0.00     0.034 A 
ATOM     53  C   UNL A   1      41.420  31.021  35.208  1.00  0.00     0.049 A 
ATOM     54  C   UNL A   1      42.077  27.973  30.583  1.00  0.00     0.074 A 
ATOM     55  C   UNL A   1      42.278  30.750  36.262  1.00  0.00     0.029 A 
ATOM     56  N   UNL A   1      41.778  30.160  34.180  1.00  0.00    -0.354 N 
ATOM     57  N   UNL A   1      42.059  28.612  31.728  1.00  0.00    -0.248 NA
ATOM     58  C   UNL A   1      43.118  26.940  30.483  1.00  0.00     0.031 C 
ATOM     59  C   UNL A   1      43.181  29.760  35.857  1.00  0.00     0.029 A 
ATOM     60  C   UNL A   1      42.854  29.374  34.568  1.00  0.00     0.049 A 
ATOM     61  H   UNL A   1      41.333  30.114  33.302  1.00  0.00     0.167 HD
ATOM     62  C   UNL A   1      43.074  28.044  32.492  1.00  0.00     0.074 A 
ATOM     63  C   UNL A   1      43.678  27.007  31.682  1.00  0.00     0.031 C 
ATOM     64  C   UNL A   1      43.464  28.353  33.753  1.00  0.00     0.034 A 
BRANCH  51  65
ATOM     65  C   UNL A   1      40.165  32.929  36.309  1.00  0.00     0.023 A 
ATOM     66  C   UNL A   1      39.421  32.562  37.444  1.00  0.00     0.031 A 
ATOM     67  C   UNL A   1      40.721  34.221  36.275  1.00  0.00     0.131 A 
ATOM     68  C   UNL A   1      39.189  33.500  38.461  1.00  0.00     0.055 A 
ATOM     69  C   UNL A   1      40.550  35.123  37.327  1.00  0.00     0.041 A 
ATOM     70  F   UNL A   1      41.427  34.632  35.210  1.00  0.00    -0.206 F 
ATOM     71  C   UNL A   1      39.767  34.770  38.422  1.00  0.00     0.022 A 
BRANCH  68  72
ATOM     72  S   UNL A   1      38.007  33.079  39.771  1.00  0.00     0.124 S 
ATOM     73  O   UNL A   1      36.809  32.764  38.996  1.00  0.00    -0.237 OA
ATOM     74  O   UNL A   1      38.656  31.953  40.432  1.00  0.00    -0.237 OA
ATOM     75  O   UNL A   1      37.923  34.304  40.562  1.00  0.00    -0.744 OA
ENDBRANCH  68  72
ENDBRANCH  51  65
BRANCH  52  76
ATOM     76  C   UNL A   1      41.444  27.388  28.137  1.00  0.00     0.023 A 
ATOM     77  C   UNL A   1      41.151  26.017  28.067  1.00  0.00     0.031 A 
ATOM     78  C   UNL A   1      42.009  28.008  27.010  1.00  0.00     0.131 A 
ATOM     79  C   UNL A   1      41.459  25.300  26.902  1.00  0.00     0.055 A 
ATOM     80  C   UNL A   1      42.279  27.297  25.841  1.00  0.00     0.041 A 
ATOM     81  F   UNL A   1      42.296  29.320  27.031  1.00  0.00    -0.206 F 
ATOM     82  C   UNL A   1      42.014  25.933  25.786  1.00  0.00     0.022 A 
BRANCH  79  83
ATOM     83  S   UNL A   1      41.175  23.509  26.885  1.00  0.00     0.124 S 
ATOM     84  O   UNL A   1      41.971  23.090  25.737  1.00  0.00    -0.237 OA
ATOM     85  O   UNL A   1      41.680  23.110  28.195  1.00  0.00    -0.237 OA
ATOM     86  O   UNL A   1      39.728  23.395  26.717  1.00  0.00    -0.744 OA
ENDBRANCH  79  83
ENDBRANCH  52  76
BRANCH  64  87
ATOM     87  C   UNL A   1      44.578  27.528  34.341  1.00  0.00     0.023 A 
ATOM     88  C   UNL A   1      44.328  26.305  34.986  1.00  0.00     0.031 A 
ATOM     89  C   UNL A   1      45.905  27.987  34.273  1.00  0.00     0.131 A 
ATOM     90  C   UNL A   1      45.387  25.600  35.579  1.00  0.00     0.055 A 
ATOM     91  C   UNL A   1      46.959  27.263  34.832  1.00  0.00     0.041 A 
ATOM     92  F   UNL A   1      46.195  29.150  33.669  1.00  0.00    -0.206 F 
ATOM     93  C   UNL A   1      46.702  26.067  35.498  1.00  0.00     0.022 A 
BRANCH  90  94
ATOM     94  S   UNL A   1      45.016  24.092  36.518  1.00  0.00     0.124 S 
ATOM     95  O   UNL A   1      46.257  23.336  36.384  1.00  0.00    -0.237 OA
ATOM     96  O   UNL A   1      44.730  24.616  37.849  1.00  0.00    -0.237 OA
ATOM     97  O   UNL A   1      43.866  23.525  35.817  1.00  0.00    -0.744 OA
ENDBRANCH  90  94
ENDBRANCH  64  87
ENDBRANCH  38  39
ENDBRANCH  30  33
ENDBRANCH  28  29
ENDBRANCH  27  28
ENDBRANCH  26  27
ENDBRANCH   1  26
TORSDOF 19
ENDMDL
MODEL 3
REMARK VINA RESULT:     -11.4      5.877     10.843
REMARK SMILES O=C(CCc1ccc(S(=O)(=O)Nc2cccc(I)c2)cc1)NCCCCNC(=O)c1ccc(-c2c3nc(c(-c4cc(S(=O)(=O)[O-])ccc4F)c4ccc([nH]4)c(-c4cc(S(=O)(=O)[O-])ccc4F)c4nc(c(-c5cc(S(=O)(=O)[O-])ccc5F)c5ccc2[nH]5)C=C4)C=C3)cc1
REMARK SMILES IDX 23 1 22 2 1 3 2 4 3 6 4 7 5 8 6 9 21 10 7 11 20 12 8 13 9 14
REMARK SMILES IDX 10 15 11 16 12 17 13 19 14 20 19 21 15 22 17 23 16 24 18 25
REMARK SMILES IDX 24 26 25 27 26 28 27 29 28 30 29 32 30 33 31 34 92 35 32 36
REMARK SMILES IDX 91 37 33 38 34 39 35 40 85 41 36 42 90 43 84 44 86 45 37 46
REMARK SMILES IDX 89 47 83 48 82 49 38 51 70 52 50 53 69 54 51 55 54 56 68 57
REMARK SMILES IDX 87 58 52 59 53 60 67 62 88 63 55 64 39 65 40 66 48 67 41 68
REMARK SMILES IDX 47 69 49 70 46 71 42 72 43 73 44 74 45 75 71 76 72 77 80 78
REMARK SMILES IDX 73 79 79 80 81 81 78 82 74 83 75 84 76 85 77 86 56 87 57 88
REMARK SMILES IDX 65 89 58 90 64 91 66 92 63 93 59 94 60 95 61 96 62 97
REMARK H PARENT 22 5 12 18 27 31 86 50 54 61
REMARK Flexibility Score: inf
ROOT
ATOM      1  C   UNL A   1      41.933  19.220  26.534  1.00  0.00     0.116 C 
ENDROOT
BRANCH   1   2
ATOM      2  N   UNL A   1      42.776  19.582  25.408  1.00  0.00    -0.356 N 
ATOM      3  O   UNL A   1      44.373  17.982  25.743  1.00  0.00    -0.275 OA
ATOM      4  C   UNL A   1      43.969  18.964  25.120  1.00  0.00     0.220 C 
ATOM      5  H   UNL A   1      42.476  20.311  24.818  1.00  0.00     0.163 HD
BRANCH   4   6
ATOM      6  C   UNL A   1      44.852  19.630  24.069  1.00  0.00     0.105 C 
BRANCH   6   7
ATOM      7  C   UNL A   1      46.106  20.362  24.554  1.00  0.00     0.045 C 
BRANCH   7   8
ATOM      8  C   UNL A   1      45.953  21.813  24.954  1.00  0.00    -0.047 A 
ATOM      9  C   UNL A   1      46.090  22.875  24.051  1.00  0.00     0.005 A 
ATOM     10  C   UNL A   1      45.716  22.106  26.304  1.00  0.00     0.005 A 
ATOM     11  C   UNL A   1      46.229  24.181  24.522  1.00  0.00     0.022 A 
ATOM     12  C   UNL A   1      45.813  23.413  26.774  1.00  0.00     0.022 A 
ATOM     13  C   UNL A   1      46.164  24.434  25.895  1.00  0.00     0.087 A 
BRANCH  13  14
ATOM     14  S   UNL A   1      46.832  25.980  26.472  1.00  0.00     0.261 S 
ATOM     15  O   UNL A   1      48.050  25.620  27.173  1.00  0.00    -0.201 OA
ATOM     16  O   UNL A   1      46.873  26.857  25.329  1.00  0.00    -0.201 OA
BRANCH  14  17
ATOM     17  N   UNL A   1      45.749  26.662  27.529  1.00  0.00    -0.280 N 
ATOM     18  H   UNL A   1      45.605  26.186  28.378  1.00  0.00     0.180 HD
BRANCH  17  19
ATOM     19  C   UNL A   1      45.005  27.861  27.341  1.00  0.00     0.050 A 
ATOM     20  C   UNL A   1      43.873  27.773  26.530  1.00  0.00     0.027 A 
ATOM     21  C   UNL A   1      45.315  29.076  27.950  1.00  0.00     0.041 A 
ATOM     22  C   UNL A   1      43.012  28.861  26.392  1.00  0.00     0.003 A 
ATOM     23  C   UNL A   1      44.436  30.159  27.836  1.00  0.00     0.015 A 
ATOM     24  C   UNL A   1      43.278  30.052  27.066  1.00  0.00     0.015 A 
ATOM     25  I   UNL A   1      44.819  31.915  28.883  1.00  0.00    -0.044 I 
ENDBRANCH  17  19
ENDBRANCH  14  17
ENDBRANCH  13  14
ENDBRANCH   7   8
ENDBRANCH   6   7
ENDBRANCH   4   6
ENDBRANCH   1   2
BRANCH   1  26
ATOM     26  C   UNL A   1      41.410  20.453  27.277  1.00  0.00     0.023 C 
BRANCH  26  27
ATOM     27  C   UNL A   1      42.312  21.696  27.210  1.00  0.00     0.023 C 
BRANCH  27  28
ATOM     28  C   UNL A   1      41.752  22.892  26.435  1.00  0.00     0.116 C 
BRANCH  28  29
ATOM     29  N   UNL A   1      40.340  22.743  26.113  1.00  0.00    -0.352 N 
ATOM     30  C   UNL A   1      39.261  23.515  26.485  1.00  0.00     0.251 C 
ATOM     31  H   UNL A   1      40.123  21.972  25.542  1.00  0.00     0.163 HD
ATOM     32  O   UNL A   1      38.128  23.129  26.200  1.00  0.00    -0.269 OA
BRANCH  30  33
ATOM     33  C   UNL A   1      39.437  24.777  27.247  1.00  0.00     0.039 A 
ATOM     34  C   UNL A   1      39.073  24.819  28.596  1.00  0.00     0.014 A 
ATOM     35  C   UNL A   1      39.926  25.932  26.641  1.00  0.00     0.014 A 
ATOM     36  C   UNL A   1      39.285  25.983  29.349  1.00  0.00     0.010 A 
ATOM     37  C   UNL A   1      40.201  27.070  27.406  1.00  0.00     0.010 A 
ATOM     38  C   UNL A   1      39.901  27.109  28.775  1.00  0.00    -0.014 A 
BRANCH  38  39
ATOM     39  C   UNL A   1      40.270  28.303  29.592  1.00  0.00     0.031 A 
ATOM     40  C   UNL A   1      41.637  28.430  30.217  1.00  0.00     0.074 A 
ATOM     41  C   UNL A   1      39.343  29.249  29.849  1.00  0.00     0.049 A 
ATOM     42  N   UNL A   1      42.099  29.357  31.023  1.00  0.00    -0.248 NA
ATOM     43  C   UNL A   1      42.598  27.356  29.930  1.00  0.00     0.031 C 
ATOM     44  C   UNL A   1      37.953  29.221  29.386  1.00  0.00     0.029 A 
ATOM     45  N   UNL A   1      39.424  30.415  30.572  1.00  0.00    -0.354 N 
ATOM     46  C   UNL A   1      43.390  28.964  31.362  1.00  0.00     0.074 A 
ATOM     47  C   UNL A   1      43.618  27.691  30.706  1.00  0.00     0.031 C 
ATOM     48  C   UNL A   1      37.323  30.326  29.813  1.00  0.00     0.029 A 
ATOM     49  C   UNL A   1      38.248  31.127  30.609  1.00  0.00     0.049 A 
ATOM     50  H   UNL A   1      40.248  30.712  31.023  1.00  0.00     0.167 HD
ATOM     51  C   UNL A   1      44.305  29.605  32.132  1.00  0.00     0.034 A 
ATOM     52  C   UNL A   1      37.938  32.289  31.217  1.00  0.00     0.034 A 
ATOM     53  C   UNL A   1      44.094  30.894  32.748  1.00  0.00     0.049 A 
ATOM     54  C   UNL A   1      38.989  33.018  32.008  1.00  0.00     0.074 A 
ATOM     55  C   UNL A   1      44.991  31.662  33.475  1.00  0.00     0.029 A 
ATOM     56  N   UNL A   1      42.907  31.612  32.709  1.00  0.00    -0.354 N 
ATOM     57  N   UNL A   1      40.219  32.651  32.280  1.00  0.00    -0.248 NA
ATOM     58  C   UNL A   1      38.611  34.324  32.566  1.00  0.00     0.031 C 
ATOM     59  C   UNL A   1      44.334  32.819  33.911  1.00  0.00     0.029 A 
ATOM     60  C   UNL A   1      43.042  32.800  33.413  1.00  0.00     0.049 A 
ATOM     61  H   UNL A   1      42.086  31.320  32.248  1.00  0.00     0.167 HD
ATOM     62  C   UNL A   1      40.765  33.691  33.026  1.00  0.00     0.074 A 
ATOM     63  C   UNL A   1      39.736  34.702  33.153  1.00  0.00     0.031 C 
ATOM     64  C   UNL A   1      42.011  33.798  33.552  1.00  0.00     0.034 A 
BRANCH  51  65
ATOM     65  C   UNL A   1      45.621  28.907  32.367  1.00  0.00     0.023 A 
ATOM     66  C   UNL A   1      46.689  29.019  31.460  1.00  0.00     0.031 A 
ATOM     67  C   UNL A   1      45.803  28.098  33.504  1.00  0.00     0.131 A 
ATOM     68  C   UNL A   1      47.860  28.273  31.664  1.00  0.00     0.055 A 
ATOM     69  C   UNL A   1      47.001  27.420  33.740  1.00  0.00     0.041 A 
ATOM     70  F   UNL A   1      44.813  27.942  34.397  1.00  0.00    -0.206 F 
ATOM     71  C   UNL A   1      48.033  27.493  32.809  1.00  0.00     0.022 A 
BRANCH  68  72
ATOM     72  S   UNL A   1      49.100  28.233  30.341  1.00  0.00     0.124 S 
ATOM     73  O   UNL A   1      49.811  26.993  30.643  1.00  0.00    -0.237 OA
ATOM     74  O   UNL A   1      48.277  28.222  29.137  1.00  0.00    -0.237 OA
ATOM     75  O   UNL A   1      49.873  29.454  30.559  1.00  0.00    -0.744 OA
ENDBRANCH  68  72
ENDBRANCH  51  65
BRANCH  52  76
ATOM     76  C   UNL A   1      36.563  32.844  31.108  1.00  0.00     0.023 A 
ATOM     77  C   UNL A   1      36.096  33.375  29.895  1.00  0.00     0.031 A 
ATOM     78  C   UNL A   1      35.710  32.874  32.223  1.00  0.00     0.131 A 
ATOM     79  C   UNL A   1      34.818  33.949  29.836  1.00  0.00     0.055 A 
ATOM     80  C   UNL A   1      34.426  33.414  32.149  1.00  0.00     0.041 A 
ATOM     81  F   UNL A   1      36.113  32.368  33.400  1.00  0.00    -0.206 F 
ATOM     82  C   UNL A   1      33.977  33.965  30.952  1.00  0.00     0.022 A 
BRANCH  79  83
ATOM     83  S   UNL A   1      34.289  34.729  28.287  1.00  0.00     0.124 S 
ATOM     84  O   UNL A   1      34.564  36.137  28.552  1.00  0.00    -0.237 OA
ATOM     85  O   UNL A   1      35.156  34.079  27.309  1.00  0.00    -0.237 OA
ATOM     86  O   UNL A   1      32.874  34.375  28.193  1.00  0.00    -0.744 OA
ENDBRANCH  79  83
ENDBRANCH  52  76
BRANCH  64  87
ATOM     87  C   UNL A   1      42.332  35.074  34.283  1.00  0.00     0.023 A 
ATOM     88  C   UNL A   1      42.764  36.225  33.601  1.00  0.00     0.031 A 
ATOM     89  C   UNL A   1      42.226  35.129  35.682  1.00  0.00     0.131 A 
ATOM     90  C   UNL A   1      43.117  37.373  34.327  1.00  0.00     0.055 A 
ATOM     91  C   UNL A   1      42.542  36.286  36.396  1.00  0.00     0.041 A 
ATOM     92  F   UNL A   1      41.819  34.056  36.379  1.00  0.00    -0.206 F 
ATOM     93  C   UNL A   1      43.001  37.413  35.719  1.00  0.00     0.022 A 
BRANCH  90  94
ATOM     94  S   UNL A   1      43.796  38.798  33.431  1.00  0.00     0.124 S 
ATOM     95  O   UNL A   1      43.956  38.263  32.083  1.00  0.00    -0.237 OA
ATOM     96  O   UNL A   1      42.748  39.799  33.599  1.00  0.00    -0.237 OA
ATOM     97  O   UNL A   1      45.044  39.084  34.137  1.00  0.00    -0.744 OA
ENDBRANCH  90  94
ENDBRANCH  64  87
ENDBRANCH  38  39
ENDBRANCH  30  33
ENDBRANCH  28  29
ENDBRANCH  27  28
ENDBRANCH  26  27
ENDBRANCH   1  26
TORSDOF 19
ENDMDL
