MODEL 1
REMARK VINA RESULT:     -12.7      0.000      0.000
REMARK SMILES CCc1ccc2[nH]c(C(=O)c3cc(C)ccn3)c(CC(=O)NCCCCNC(=O)c3ccc(-c4c5nc(c(-c6cc(S(=O)(=O)[O-])ccc6F)c6ccc([nH]6)c(-c6cc(S(=O)(=O)[O-])ccc6F)c6nc(c(-c7cc(S(=O)(=O)[O-])ccc7F)c7ccc4[nH]7)C=C6)C=C5)cc3)c2c1
REMARK SMILES IDX 24 1 23 2 22 3 20 4 21 5 19 7 18 8 3 9 4 10 94 11 5 12 93 13
REMARK SMILES IDX 6 14 7 15 8 16 2 18 1 19 9 20 10 21 11 22 12 23 17 24 13 25
REMARK SMILES IDX 16 26 14 27 15 28 25 29 26 30 27 31 28 32 29 34 30 35 31 36
REMARK SMILES IDX 92 37 32 38 91 39 33 40 34 41 35 42 85 43 36 44 90 45 84 46
REMARK SMILES IDX 86 47 37 48 89 49 83 50 82 51 38 53 70 54 50 55 69 56 51 57
REMARK SMILES IDX 54 58 68 59 87 60 52 61 53 62 67 64 88 65 55 66 39 67 40 68
REMARK SMILES IDX 48 69 41 70 47 71 49 72 46 73 42 74 43 75 44 76 45 77 71 78
REMARK SMILES IDX 72 79 80 80 73 81 79 82 81 83 78 84 74 85 75 86 76 87 77 88
REMARK SMILES IDX 56 89 57 90 65 91 58 92 64 93 66 94 63 95 59 96 60 97 61 98
REMARK SMILES IDX 62 99
REMARK H PARENT 22 6 7 17 27 33 86 52 54 63
REMARK Flexibility Score: inf
ROOT
ATOM      1  C   UNL A   1      31.763  30.732  26.548  1.00  0.00     0.023 C 
ENDROOT
BRANCH   1   2
ATOM      2  C   UNL A   1      33.199  30.253  26.752  1.00  0.00     0.116 C 
BRANCH   2   3
ATOM      3  N   UNL A   1      33.708  29.514  25.617  1.00  0.00    -0.356 N 
ATOM      4  C   UNL A   1      33.540  28.199  25.287  1.00  0.00     0.224 C 
ATOM      5  O   UNL A   1      33.905  27.853  24.160  1.00  0.00    -0.275 OA
ATOM      6  H   UNL A   1      34.256  30.036  24.988  1.00  0.00     0.163 HD
BRANCH   4   7
ATOM      7  C   UNL A   1      32.809  27.230  26.213  1.00  0.00     0.138 C 
BRANCH   7   8
ATOM      8  C   UNL A   1      31.586  26.579  25.624  1.00  0.00    -0.002 A 
ATOM      9  C   UNL A   1      29.401  28.887  23.447  1.00  0.00    -0.048 A 
ATOM     10  C   UNL A   1      28.388  27.945  23.247  1.00  0.00     0.006 A 
ATOM     11  C   UNL A   1      30.532  28.514  24.197  1.00  0.00     0.014 A 
ATOM     12  C   UNL A   1      28.466  26.654  23.787  1.00  0.00     0.027 A 
ATOM     13  C   UNL A   1      30.631  27.226  24.767  1.00  0.00     0.004 A 
ATOM     14  C   UNL A   1      29.598  26.327  24.540  1.00  0.00     0.046 A 
ATOM     15  N   UNL A   1      29.925  25.165  25.194  1.00  0.00    -0.352 N 
ATOM     16  C   UNL A   1      31.174  25.253  25.775  1.00  0.00     0.093 A 
ATOM     17  H   UNL A   1      29.344  24.372  25.242  1.00  0.00     0.167 HD
BRANCH   9  18
ATOM     18  C   UNL A   1      29.364  30.292  22.886  1.00  0.00     0.032 C 
ATOM     19  C   UNL A   1      28.274  31.217  23.412  1.00  0.00     0.009 C 
ENDBRANCH   9  18
BRANCH  16  20
ATOM     20  C   UNL A   1      31.874  24.156  26.434  1.00  0.00     0.227 C 
ATOM     21  O   UNL A   1      31.753  23.899  27.631  1.00  0.00    -0.285 OA
BRANCH  20  22
ATOM     22  C   UNL A   1      32.857  23.358  25.657  1.00  0.00     0.113 A 
ATOM     23  C   UNL A   1      34.205  23.406  26.001  1.00  0.00     0.036 A 
ATOM     24  N   UNL A   1      32.361  22.605  24.645  1.00  0.00    -0.253 NA
ATOM     25  C   UNL A   1      35.106  22.641  25.259  1.00  0.00    -0.047 A 
ATOM     26  C   UNL A   1      33.247  21.850  23.964  1.00  0.00     0.112 A 
ATOM     27  C   UNL A   1      36.572  22.650  25.568  1.00  0.00     0.044 C 
ATOM     28  C   UNL A   1      34.609  21.839  24.227  1.00  0.00     0.023 A 
ENDBRANCH  20  22
ENDBRANCH  16  20
ENDBRANCH   7   8
ENDBRANCH   4   7
ENDBRANCH   2   3
ENDBRANCH   1   2
BRANCH   1  29
ATOM     29  C   UNL A   1      31.525  32.211  26.859  1.00  0.00     0.023 C 
BRANCH  29  30
ATOM     30  C   UNL A   1      32.780  33.054  27.056  1.00  0.00     0.116 C 
BRANCH  30  31
ATOM     31  N   UNL A   1      32.536  34.285  27.792  1.00  0.00    -0.352 N 
ATOM     32  C   UNL A   1      33.174  34.757  28.914  1.00  0.00     0.251 C 
ATOM     33  H   UNL A   1      31.817  34.856  27.439  1.00  0.00     0.163 HD
ATOM     34  O   UNL A   1      32.757  35.770  29.471  1.00  0.00    -0.269 OA
BRANCH  32  35
ATOM     35  C   UNL A   1      34.330  34.020  29.470  1.00  0.00     0.039 A 
ATOM     36  C   UNL A   1      35.620  34.421  29.113  1.00  0.00     0.014 A 
ATOM     37  C   UNL A   1      34.147  32.955  30.357  1.00  0.00     0.014 A 
ATOM     38  C   UNL A   1      36.726  33.805  29.705  1.00  0.00     0.010 A 
ATOM     39  C   UNL A   1      35.248  32.389  30.995  1.00  0.00     0.010 A 
ATOM     40  C   UNL A   1      36.549  32.811  30.680  1.00  0.00    -0.014 A 
BRANCH  40  41
ATOM     41  C   UNL A   1      37.709  32.207  31.387  1.00  0.00     0.031 A 
ATOM     42  C   UNL A   1      38.476  31.079  30.755  1.00  0.00     0.074 A 
ATOM     43  C   UNL A   1      38.025  32.627  32.628  1.00  0.00     0.049 A 
ATOM     44  N   UNL A   1      39.462  30.371  31.242  1.00  0.00    -0.248 NA
ATOM     45  C   UNL A   1      38.052  30.675  29.406  1.00  0.00     0.031 C 
ATOM     46  C   UNL A   1      37.329  33.683  33.366  1.00  0.00     0.029 A 
ATOM     47  N   UNL A   1      39.005  32.210  33.494  1.00  0.00    -0.354 N 
ATOM     48  C   UNL A   1      39.769  29.427  30.268  1.00  0.00     0.074 A 
ATOM     49  C   UNL A   1      38.820  29.618  29.190  1.00  0.00     0.031 C 
ATOM     50  C   UNL A   1      37.918  33.846  34.562  1.00  0.00     0.029 A 
ATOM     51  C   UNL A   1      39.003  32.880  34.695  1.00  0.00     0.049 A 
ATOM     52  H   UNL A   1      39.650  31.499  33.275  1.00  0.00     0.167 HD
ATOM     53  C   UNL A   1      40.764  28.504  30.262  1.00  0.00     0.034 A 
ATOM     54  C   UNL A   1      39.779  32.725  35.786  1.00  0.00     0.034 A 
ATOM     55  C   UNL A   1      41.706  28.333  31.341  1.00  0.00     0.049 A 
ATOM     56  C   UNL A   1      40.862  31.678  35.769  1.00  0.00     0.074 A 
ATOM     57  C   UNL A   1      42.788  27.473  31.416  1.00  0.00     0.029 A 
ATOM     58  N   UNL A   1      41.672  29.028  32.545  1.00  0.00    -0.354 N 
ATOM     59  N   UNL A   1      41.176  30.828  34.819  1.00  0.00    -0.248 NA
ATOM     60  C   UNL A   1      41.701  31.574  36.971  1.00  0.00     0.031 C 
ATOM     61  C   UNL A   1      43.366  27.599  32.684  1.00  0.00     0.029 A 
ATOM     62  C   UNL A   1      42.692  28.592  33.378  1.00  0.00     0.049 A 
ATOM     63  H   UNL A   1      41.018  29.727  32.773  1.00  0.00     0.167 HD
ATOM     64  C   UNL A   1      42.267  30.109  35.298  1.00  0.00     0.074 A 
ATOM     65  C   UNL A   1      42.563  30.633  36.615  1.00  0.00     0.031 C 
ATOM     66  C   UNL A   1      42.966  29.110  34.699  1.00  0.00     0.034 A 
BRANCH  53  67
ATOM     67  C   UNL A   1      40.853  27.595  29.058  1.00  0.00     0.023 A 
ATOM     68  C   UNL A   1      41.812  27.798  28.049  1.00  0.00     0.031 A 
ATOM     69  C   UNL A   1      39.940  26.540  28.889  1.00  0.00     0.131 A 
ATOM     70  C   UNL A   1      41.778  27.023  26.880  1.00  0.00     0.055 A 
ATOM     71  C   UNL A   1      39.966  25.714  27.763  1.00  0.00     0.041 A 
ATOM     72  F   UNL A   1      38.989  26.305  29.807  1.00  0.00    -0.206 F 
ATOM     73  C   UNL A   1      40.877  25.966  26.741  1.00  0.00     0.022 A 
BRANCH  70  74
ATOM     74  S   UNL A   1      42.814  27.525  25.479  1.00  0.00     0.124 S 
ATOM     75  O   UNL A   1      42.788  26.325  24.646  1.00  0.00    -0.237 OA
ATOM     76  O   UNL A   1      42.097  28.682  24.956  1.00  0.00    -0.237 OA
ATOM     77  O   UNL A   1      44.106  27.817  26.095  1.00  0.00    -0.744 OA
ENDBRANCH  70  74
ENDBRANCH  53  67
BRANCH  54  78
ATOM     78  C   UNL A   1      39.563  33.577  36.989  1.00  0.00     0.023 A 
ATOM     79  C   UNL A   1      38.988  33.048  38.155  1.00  0.00     0.031 A 
ATOM     80  C   UNL A   1      39.907  34.941  36.981  1.00  0.00     0.131 A 
ATOM     81  C   UNL A   1      38.739  33.885  39.253  1.00  0.00     0.055 A 
ATOM     82  C   UNL A   1      39.699  35.759  38.092  1.00  0.00     0.041 A 
ATOM     83  F   UNL A   1      40.467  35.493  35.893  1.00  0.00    -0.206 F 
ATOM     84  C   UNL A   1      39.102  35.234  39.235  1.00  0.00     0.022 A 
BRANCH  81  85
ATOM     85  S   UNL A   1      37.876  33.198  40.693  1.00  0.00     0.124 S 
ATOM     86  O   UNL A   1      38.097  34.233  41.695  1.00  0.00    -0.237 OA
ATOM     87  O   UNL A   1      36.510  33.069  40.194  1.00  0.00    -0.237 OA
ATOM     88  O   UNL A   1      38.569  31.934  40.934  1.00  0.00    -0.744 OA
ENDBRANCH  81  85
ENDBRANCH  54  78
BRANCH  66  89
ATOM     89  C   UNL A   1      44.145  28.552  35.457  1.00  0.00     0.023 A 
ATOM     90  C   UNL A   1      44.002  27.506  36.385  1.00  0.00     0.031 A 
ATOM     91  C   UNL A   1      45.430  29.088  35.258  1.00  0.00     0.131 A 
ATOM     92  C   UNL A   1      45.114  27.064  37.118  1.00  0.00     0.055 A 
ATOM     93  C   UNL A   1      46.543  28.606  35.948  1.00  0.00     0.041 A 
ATOM     94  F   UNL A   1      45.624  30.091  34.386  1.00  0.00    -0.206 F 
ATOM     95  C   UNL A   1      46.387  27.597  36.893  1.00  0.00     0.022 A 
BRANCH  92  96
ATOM     96  S   UNL A   1      44.863  25.845  38.437  1.00  0.00     0.124 S 
ATOM     97  O   UNL A   1      44.046  24.838  37.768  1.00  0.00    -0.237 OA
ATOM     98  O   UNL A   1      46.230  25.446  38.759  1.00  0.00    -0.237 OA
ATOM     99  O   UNL A   1      44.178  26.604  39.482  1.00  0.00    -0.744 OA
ENDBRANCH  92  96
ENDBRANCH  66  89
ENDBRANCH  40  41
ENDBRANCH  32  35
ENDBRANCH  30  31
ENDBRANCH  29  30
ENDBRANCH   1  29
TORSDOF 18
ENDMDL
MODEL 2
REMARK VINA RESULT:     -12.5      5.627     11.717
REMARK SMILES CCc1ccc2[nH]c(C(=O)c3cc(C)ccn3)c(CC(=O)NCCCCNC(=O)c3ccc(-c4c5nc(c(-c6cc(S(=O)(=O)[O-])ccc6F)c6ccc([nH]6)c(-c6cc(S(=O)(=O)[O-])ccc6F)c6nc(c(-c7cc(S(=O)(=O)[O-])ccc7F)c7ccc4[nH]7)C=C6)C=C5)cc3)c2c1
REMARK SMILES IDX 24 1 23 2 22 3 20 4 21 5 19 7 18 8 3 9 4 10 94 11 5 12 93 13
REMARK SMILES IDX 6 14 7 15 8 16 2 18 1 19 9 20 10 21 11 22 12 23 17 24 13 25
REMARK SMILES IDX 16 26 14 27 15 28 25 29 26 30 27 31 28 32 29 34 30 35 31 36
REMARK SMILES IDX 92 37 32 38 91 39 33 40 34 41 35 42 85 43 36 44 90 45 84 46
REMARK SMILES IDX 86 47 37 48 89 49 83 50 82 51 38 53 70 54 50 55 69 56 51 57
REMARK SMILES IDX 54 58 68 59 87 60 52 61 53 62 67 64 88 65 55 66 39 67 40 68
REMARK SMILES IDX 48 69 41 70 47 71 49 72 46 73 42 74 43 75 44 76 45 77 71 78
REMARK SMILES IDX 72 79 80 80 73 81 79 82 81 83 78 84 74 85 75 86 76 87 77 88
REMARK SMILES IDX 56 89 57 90 65 91 58 92 64 93 66 94 63 95 59 96 60 97 61 98
REMARK SMILES IDX 62 99
REMARK H PARENT 22 6 7 17 27 33 86 52 54 63
REMARK Flexibility Score: inf
ROOT
ATOM      1  C   UNL A   1      37.256  21.593  24.911  1.00  0.00     0.023 C 
ENDROOT
BRANCH   1   2
ATOM      2  C   UNL A   1      37.488  22.713  25.923  1.00  0.00     0.116 C 
BRANCH   2   3
ATOM      3  N   UNL A   1      36.254  23.235  26.470  1.00  0.00    -0.356 N 
ATOM      4  C   UNL A   1      35.200  23.829  25.835  1.00  0.00     0.224 C 
ATOM      5  O   UNL A   1      34.173  24.003  26.496  1.00  0.00    -0.275 OA
ATOM      6  H   UNL A   1      36.158  23.147  27.446  1.00  0.00     0.163 HD
BRANCH   4   7
ATOM      7  C   UNL A   1      35.241  24.137  24.340  1.00  0.00     0.138 C 
BRANCH   7   8
ATOM      8  C   UNL A   1      34.064  23.629  23.549  1.00  0.00    -0.002 A 
ATOM      9  C   UNL A   1      33.254  19.897  24.048  1.00  0.00    -0.048 A 
ATOM     10  C   UNL A   1      32.246  19.859  23.079  1.00  0.00     0.006 A 
ATOM     11  C   UNL A   1      33.897  21.122  24.306  1.00  0.00     0.014 A 
ATOM     12  C   UNL A   1      31.877  21.001  22.355  1.00  0.00     0.027 A 
ATOM     13  C   UNL A   1      33.558  22.285  23.581  1.00  0.00     0.004 A 
ATOM     14  C   UNL A   1      32.551  22.195  22.630  1.00  0.00     0.046 A 
ATOM     15  N   UNL A   1      32.416  23.441  22.068  1.00  0.00    -0.352 N 
ATOM     16  C   UNL A   1      33.249  24.357  22.679  1.00  0.00     0.093 A 
ATOM     17  H   UNL A   1      31.804  23.653  21.328  1.00  0.00     0.167 HD
BRANCH   9  18
ATOM     18  C   UNL A   1      33.688  18.693  24.855  1.00  0.00     0.032 C 
ATOM     19  C   UNL A   1      32.645  18.062  25.768  1.00  0.00     0.009 C 
ENDBRANCH   9  18
BRANCH  16  20
ATOM     20  C   UNL A   1      33.262  25.791  22.411  1.00  0.00     0.227 C 
ATOM     21  O   UNL A   1      34.017  26.321  21.597  1.00  0.00    -0.285 OA
BRANCH  20  22
ATOM     22  C   UNL A   1      32.391  26.683  23.220  1.00  0.00     0.113 A 
ATOM     23  C   UNL A   1      32.382  26.560  24.606  1.00  0.00     0.036 A 
ATOM     24  N   UNL A   1      31.651  27.590  22.536  1.00  0.00    -0.253 NA
ATOM     25  C   UNL A   1      31.561  27.416  25.342  1.00  0.00    -0.047 A 
ATOM     26  C   UNL A   1      30.891  28.426  23.271  1.00  0.00     0.112 A 
ATOM     27  C   UNL A   1      31.497  27.335  26.837  1.00  0.00     0.044 C 
ATOM     28  C   UNL A   1      30.811  28.375  24.655  1.00  0.00     0.023 A 
ENDBRANCH  20  22
ENDBRANCH  16  20
ENDBRANCH   7   8
ENDBRANCH   4   7
ENDBRANCH   2   3
ENDBRANCH   1   2
BRANCH   1  29
ATOM     29  C   UNL A   1      38.159  20.369  25.084  1.00  0.00     0.023 C 
BRANCH  29  30
ATOM     30  C   UNL A   1      39.327  20.543  26.047  1.00  0.00     0.116 C 
BRANCH  30  31
ATOM     31  N   UNL A   1      40.273  19.439  26.009  1.00  0.00    -0.352 N 
ATOM     32  C   UNL A   1      41.643  19.475  26.120  1.00  0.00     0.251 C 
ATOM     33  H   UNL A   1      39.880  18.545  25.885  1.00  0.00     0.163 HD
ATOM     34  O   UNL A   1      42.296  18.448  25.950  1.00  0.00    -0.269 OA
BRANCH  32  35
ATOM     35  C   UNL A   1      42.326  20.758  26.401  1.00  0.00     0.039 A 
ATOM     36  C   UNL A   1      42.644  21.600  25.332  1.00  0.00     0.014 A 
ATOM     37  C   UNL A   1      42.628  21.142  27.711  1.00  0.00     0.014 A 
ATOM     38  C   UNL A   1      43.196  22.859  25.583  1.00  0.00     0.010 A 
ATOM     39  C   UNL A   1      43.115  22.422  27.962  1.00  0.00     0.010 A 
ATOM     40  C   UNL A   1      43.399  23.297  26.901  1.00  0.00    -0.014 A 
BRANCH  40  41
ATOM     41  C   UNL A   1      43.900  24.666  27.192  1.00  0.00     0.031 A 
ATOM     42  C   UNL A   1      42.965  25.714  27.729  1.00  0.00     0.074 A 
ATOM     43  C   UNL A   1      45.178  24.983  26.905  1.00  0.00     0.049 A 
ATOM     44  N   UNL A   1      43.190  26.980  27.970  1.00  0.00    -0.248 NA
ATOM     45  C   UNL A   1      41.585  25.285  27.998  1.00  0.00     0.031 C 
ATOM     46  C   UNL A   1      46.170  24.065  26.340  1.00  0.00     0.029 A 
ATOM     47  N   UNL A   1      45.860  26.166  27.038  1.00  0.00    -0.354 N 
ATOM     48  C   UNL A   1      41.978  27.504  28.406  1.00  0.00     0.074 A 
ATOM     49  C   UNL A   1      41.009  26.429  28.334  1.00  0.00     0.031 C 
ATOM     50  C   UNL A   1      47.337  24.714  26.197  1.00  0.00     0.029 A 
ATOM     51  C   UNL A   1      47.167  26.101  26.616  1.00  0.00     0.049 A 
ATOM     52  H   UNL A   1      45.452  26.986  27.401  1.00  0.00     0.167 HD
ATOM     53  C   UNL A   1      41.703  28.758  28.847  1.00  0.00     0.034 A 
ATOM     54  C   UNL A   1      48.120  27.053  26.562  1.00  0.00     0.034 A 
ATOM     55  C   UNL A   1      42.681  29.816  28.920  1.00  0.00     0.049 A 
ATOM     56  C   UNL A   1      47.788  28.445  27.033  1.00  0.00     0.074 A 
ATOM     57  C   UNL A   1      42.529  31.103  29.406  1.00  0.00     0.029 A 
ATOM     58  N   UNL A   1      43.997  29.714  28.481  1.00  0.00    -0.354 N 
ATOM     59  N   UNL A   1      46.651  28.913  27.494  1.00  0.00    -0.248 NA
ATOM     60  C   UNL A   1      48.871  29.436  26.984  1.00  0.00     0.031 C 
ATOM     61  C   UNL A   1      43.727  31.797  29.202  1.00  0.00     0.029 A 
ATOM     62  C   UNL A   1      44.655  30.923  28.656  1.00  0.00     0.049 A 
ATOM     63  H   UNL A   1      44.403  28.901  28.102  1.00  0.00     0.167 HD
ATOM     64  C   UNL A   1      46.891  30.246  27.816  1.00  0.00     0.074 A 
ATOM     65  C   UNL A   1      48.283  30.502  27.508  1.00  0.00     0.031 C 
ATOM     66  C   UNL A   1      46.040  31.172  28.327  1.00  0.00     0.034 A 
BRANCH  53  67
ATOM     67  C   UNL A   1      40.276  29.049  29.253  1.00  0.00     0.023 A 
ATOM     68  C   UNL A   1      39.874  29.032  30.601  1.00  0.00     0.031 A 
ATOM     69  C   UNL A   1      39.293  29.299  28.280  1.00  0.00     0.131 A 
ATOM     70  C   UNL A   1      38.518  29.167  30.932  1.00  0.00     0.055 A 
ATOM     71  C   UNL A   1      37.956  29.522  28.622  1.00  0.00     0.041 A 
ATOM     72  F   UNL A   1      39.608  29.311  26.976  1.00  0.00    -0.206 F 
ATOM     73  C   UNL A   1      37.559  29.436  29.954  1.00  0.00     0.022 A 
BRANCH  70  74
ATOM     74  S   UNL A   1      38.005  28.818  32.637  1.00  0.00     0.124 S 
ATOM     75  O   UNL A   1      36.689  29.452  32.685  1.00  0.00    -0.237 OA
ATOM     76  O   UNL A   1      38.014  27.360  32.676  1.00  0.00    -0.237 OA
ATOM     77  O   UNL A   1      39.032  29.471  33.445  1.00  0.00    -0.744 OA
ENDBRANCH  70  74
ENDBRANCH  53  67
BRANCH  54  78
ATOM     78  C   UNL A   1      49.477  26.730  26.040  1.00  0.00     0.023 A 
ATOM     79  C   UNL A   1      49.871  27.133  24.754  1.00  0.00     0.031 A 
ATOM     80  C   UNL A   1      50.392  25.991  26.811  1.00  0.00     0.131 A 
ATOM     81  C   UNL A   1      51.132  26.765  24.262  1.00  0.00     0.055 A 
ATOM     82  C   UNL A   1      51.663  25.666  26.334  1.00  0.00     0.041 A 
ATOM     83  F   UNL A   1      50.066  25.589  28.050  1.00  0.00    -0.206 F 
ATOM     84  C   UNL A   1      52.035  26.044  25.048  1.00  0.00     0.022 A 
BRANCH  81  85
ATOM     85  S   UNL A   1      51.557  27.190  22.551  1.00  0.00     0.124 S 
ATOM     86  O   UNL A   1      52.053  28.553  22.697  1.00  0.00    -0.237 OA
ATOM     87  O   UNL A   1      52.554  26.175  22.225  1.00  0.00    -0.237 OA
ATOM     88  O   UNL A   1      50.285  27.059  21.842  1.00  0.00    -0.744 OA
ENDBRANCH  81  85
ENDBRANCH  54  78
BRANCH  66  89
ATOM     89  C   UNL A   1      46.612  32.537  28.621  1.00  0.00     0.023 A 
ATOM     90  C   UNL A   1      46.650  33.550  27.647  1.00  0.00     0.031 A 
ATOM     91  C   UNL A   1      47.140  32.822  29.893  1.00  0.00     0.131 A 
ATOM     92  C   UNL A   1      47.253  34.782  27.943  1.00  0.00     0.055 A 
ATOM     93  C   UNL A   1      47.687  34.068  30.200  1.00  0.00     0.041 A 
ATOM     94  F   UNL A   1      47.133  31.890  30.860  1.00  0.00    -0.206 F 
ATOM     95  C   UNL A   1      47.758  35.053  29.219  1.00  0.00     0.022 A 
BRANCH  92  96
ATOM     96  S   UNL A   1      47.454  35.999  26.613  1.00  0.00     0.124 S 
ATOM     97  O   UNL A   1      47.264  37.259  27.323  1.00  0.00    -0.237 OA
ATOM     98  O   UNL A   1      48.809  35.728  26.144  1.00  0.00    -0.237 OA
ATOM     99  O   UNL A   1      46.392  35.654  25.668  1.00  0.00    -0.744 OA
ENDBRANCH  92  96
ENDBRANCH  66  89
ENDBRANCH  40  41
ENDBRANCH  32  35
ENDBRANCH  30  31
ENDBRANCH  29  30
ENDBRANCH   1  29
TORSDOF 18
ENDMDL
MODEL 3
REMARK VINA RESULT:     -12.3      5.386      9.925
REMARK SMILES CCc1ccc2[nH]c(C(=O)c3cc(C)ccn3)c(CC(=O)NCCCCNC(=O)c3ccc(-c4c5nc(c(-c6cc(S(=O)(=O)[O-])ccc6F)c6ccc([nH]6)c(-c6cc(S(=O)(=O)[O-])ccc6F)c6nc(c(-c7cc(S(=O)(=O)[O-])ccc7F)c7ccc4[nH]7)C=C6)C=C5)cc3)c2c1
REMARK SMILES IDX 24 1 23 2 22 3 20 4 21 5 19 7 18 8 3 9 4 10 94 11 5 12 93 13
REMARK SMILES IDX 6 14 7 15 8 16 2 18 1 19 9 20 10 21 11 22 12 23 17 24 13 25
REMARK SMILES IDX 16 26 14 27 15 28 25 29 26 30 27 31 28 32 29 34 30 35 31 36
REMARK SMILES IDX 92 37 32 38 91 39 33 40 34 41 35 42 85 43 36 44 90 45 84 46
REMARK SMILES IDX 86 47 37 48 89 49 83 50 82 51 38 53 70 54 50 55 69 56 51 57
REMARK SMILES IDX 54 58 68 59 87 60 52 61 53 62 67 64 88 65 55 66 39 67 40 68
REMARK SMILES IDX 48 69 41 70 47 71 49 72 46 73 42 74 43 75 44 76 45 77 71 78
REMARK SMILES IDX 72 79 80 80 73 81 79 82 81 83 78 84 74 85 75 86 76 87 77 88
REMARK SMILES IDX 56 89 57 90 65 91 58 92 64 93 66 94 63 95 59 96 60 97 61 98
REMARK SMILES IDX 62 99
REMARK H PARENT 22 6 7 17 27 33 86 52 54 63
REMARK Flexibility Score: inf
ROOT
ATOM      1  C   UNL A   1      34.897  24.546  25.129  1.00  0.00     0.023 C 
ENDROOT
BRANCH   1   2
ATOM      2  C   UNL A   1      34.020  25.113  24.014  1.00  0.00     0.116 C 
BRANCH   2   3
ATOM      3  N   UNL A   1      34.066  26.558  23.948  1.00  0.00    -0.356 N 
ATOM      4  C   UNL A   1      33.419  27.487  24.713  1.00  0.00     0.224 C 
ATOM      5  O   UNL A   1      33.781  28.661  24.594  1.00  0.00    -0.275 OA
ATOM      6  H   UNL A   1      34.652  26.927  23.249  1.00  0.00     0.163 HD
BRANCH   4   7
ATOM      7  C   UNL A   1      32.393  27.079  25.766  1.00  0.00     0.138 C 
BRANCH   7   8
ATOM      8  C   UNL A   1      31.050  26.664  25.225  1.00  0.00    -0.002 A 
ATOM      9  C   UNL A   1      29.242  29.340  23.126  1.00  0.00    -0.048 A 
ATOM     10  C   UNL A   1      28.067  28.598  22.967  1.00  0.00     0.006 A 
ATOM     11  C   UNL A   1      30.313  28.764  23.834  1.00  0.00     0.014 A 
ATOM     12  C   UNL A   1      27.929  27.312  23.507  1.00  0.00     0.027 A 
ATOM     13  C   UNL A   1      30.198  27.477  24.403  1.00  0.00     0.004 A 
ATOM     14  C   UNL A   1      29.010  26.782  24.217  1.00  0.00     0.046 A 
ATOM     15  N   UNL A   1      29.144  25.577  24.862  1.00  0.00    -0.352 N 
ATOM     16  C   UNL A   1      30.410  25.434  25.395  1.00  0.00     0.093 A 
ATOM     17  H   UNL A   1      28.431  24.903  24.934  1.00  0.00     0.167 HD
BRANCH   9  18
ATOM     18  C   UNL A   1      29.440  30.730  22.563  1.00  0.00     0.032 C 
ATOM     19  C   UNL A   1      28.696  31.067  21.277  1.00  0.00     0.009 C 
ENDBRANCH   9  18
BRANCH  16  20
ATOM     20  C   UNL A   1      30.922  24.225  26.031  1.00  0.00     0.227 C 
ATOM     21  O   UNL A   1      31.017  24.089  27.249  1.00  0.00    -0.285 OA
BRANCH  20  22
ATOM     22  C   UNL A   1      31.449  23.129  25.176  1.00  0.00     0.113 A 
ATOM     23  C   UNL A   1      32.048  22.023  25.771  1.00  0.00     0.036 A 
ATOM     24  N   UNL A   1      31.297  23.279  23.837  1.00  0.00    -0.253 NA
ATOM     25  C   UNL A   1      32.527  21.005  24.945  1.00  0.00    -0.047 A 
ATOM     26  C   UNL A   1      31.738  22.268  23.063  1.00  0.00     0.112 A 
ATOM     27  C   UNL A   1      33.190  19.788  25.516  1.00  0.00     0.044 C 
ATOM     28  C   UNL A   1      32.356  21.130  23.563  1.00  0.00     0.023 A 
ENDBRANCH  20  22
ENDBRANCH  16  20
ENDBRANCH   7   8
ENDBRANCH   4   7
ENDBRANCH   2   3
ENDBRANCH   1   2
BRANCH   1  29
ATOM     29  C   UNL A   1      35.520  23.181  24.829  1.00  0.00     0.023 C 
BRANCH  29  30
ATOM     30  C   UNL A   1      35.968  22.379  26.046  1.00  0.00     0.116 C 
BRANCH  30  31
ATOM     31  N   UNL A   1      36.945  21.350  25.728  1.00  0.00    -0.352 N 
ATOM     32  C   UNL A   1      38.317  21.417  25.791  1.00  0.00     0.251 C 
ATOM     33  H   UNL A   1      36.574  20.489  25.427  1.00  0.00     0.163 HD
ATOM     34  O   UNL A   1      38.992  20.479  25.373  1.00  0.00    -0.269 OA
BRANCH  32  35
ATOM     35  C   UNL A   1      38.972  22.634  26.319  1.00  0.00     0.039 A 
ATOM     36  C   UNL A   1      40.017  22.493  27.235  1.00  0.00     0.014 A 
ATOM     37  C   UNL A   1      38.578  23.906  25.895  1.00  0.00     0.014 A 
ATOM     38  C   UNL A   1      40.716  23.623  27.668  1.00  0.00     0.010 A 
ATOM     39  C   UNL A   1      39.318  25.023  26.275  1.00  0.00     0.010 A 
ATOM     40  C   UNL A   1      40.399  24.893  27.162  1.00  0.00    -0.014 A 
BRANCH  40  41
ATOM     41  C   UNL A   1      41.188  26.095  27.540  1.00  0.00     0.031 A 
ATOM     42  C   UNL A   1      40.528  27.234  28.266  1.00  0.00     0.074 A 
ATOM     43  C   UNL A   1      42.479  26.189  27.165  1.00  0.00     0.049 A 
ATOM     44  N   UNL A   1      41.023  28.395  28.611  1.00  0.00    -0.248 NA
ATOM     45  C   UNL A   1      39.114  27.052  28.621  1.00  0.00     0.031 C 
ATOM     46  C   UNL A   1      43.219  25.169  26.418  1.00  0.00     0.029 A 
ATOM     47  N   UNL A   1      43.396  27.193  27.350  1.00  0.00    -0.354 N 
ATOM     48  C   UNL A   1      39.979  29.089  29.211  1.00  0.00     0.074 A 
ATOM     49  C   UNL A   1      38.809  28.239  29.125  1.00  0.00     0.031 C 
ATOM     50  C   UNL A   1      44.480  25.591  26.230  1.00  0.00     0.029 A 
ATOM     51  C   UNL A   1      44.627  26.926  26.801  1.00  0.00     0.049 A 
ATOM     52  H   UNL A   1      43.191  28.028  27.831  1.00  0.00     0.167 HD
ATOM     53  C   UNL A   1      39.998  30.312  29.801  1.00  0.00     0.034 A 
ATOM     54  C   UNL A   1      45.747  27.674  26.752  1.00  0.00     0.034 A 
ATOM     55  C   UNL A   1      41.174  31.143  29.885  1.00  0.00     0.049 A 
ATOM     56  C   UNL A   1      45.741  29.039  27.390  1.00  0.00     0.074 A 
ATOM     57  C   UNL A   1      41.324  32.369  30.511  1.00  0.00     0.029 A 
ATOM     58  N   UNL A   1      42.406  30.840  29.315  1.00  0.00    -0.354 N 
ATOM     59  N   UNL A   1      44.760  29.661  28.002  1.00  0.00    -0.248 NA
ATOM     60  C   UNL A   1      46.997  29.799  27.338  1.00  0.00     0.031 C 
ATOM     61  C   UNL A   1      42.619  32.836  30.264  1.00  0.00     0.029 A 
ATOM     62  C   UNL A   1      43.307  31.870  29.547  1.00  0.00     0.049 A 
ATOM     63  H   UNL A   1      42.608  30.015  28.818  1.00  0.00     0.167 HD
ATOM     64  C   UNL A   1      45.290  30.874  28.432  1.00  0.00     0.074 A 
ATOM     65  C   UNL A   1      46.679  30.889  28.020  1.00  0.00     0.031 C 
ATOM     66  C   UNL A   1      44.685  31.882  29.113  1.00  0.00     0.034 A 
BRANCH  53  67
ATOM     67  C   UNL A   1      38.694  30.824  30.369  1.00  0.00     0.023 A 
ATOM     68  C   UNL A   1      37.710  31.406  29.550  1.00  0.00     0.031 A 
ATOM     69  C   UNL A   1      38.450  30.775  31.752  1.00  0.00     0.131 A 
ATOM     70  C   UNL A   1      36.575  31.996  30.126  1.00  0.00     0.055 A 
ATOM     71  C   UNL A   1      37.276  31.287  32.312  1.00  0.00     0.041 A 
ATOM     72  F   UNL A   1      39.357  30.249  32.590  1.00  0.00    -0.206 F 
ATOM     73  C   UNL A   1      36.339  31.919  31.500  1.00  0.00     0.022 A 
BRANCH  70  74
ATOM     74  S   UNL A   1      35.501  33.011  29.074  1.00  0.00     0.124 S 
ATOM     75  O   UNL A   1      34.193  32.793  29.690  1.00  0.00    -0.237 OA
ATOM     76  O   UNL A   1      36.070  34.344  29.236  1.00  0.00    -0.237 OA
ATOM     77  O   UNL A   1      35.661  32.420  27.748  1.00  0.00    -0.744 OA
ENDBRANCH  70  74
ENDBRANCH  53  67
BRANCH  54  78
ATOM     78  C   UNL A   1      46.968  27.157  26.072  1.00  0.00     0.023 A 
ATOM     79  C   UNL A   1      47.977  26.506  26.797  1.00  0.00     0.031 A 
ATOM     80  C   UNL A   1      47.153  27.330  24.688  1.00  0.00     0.131 A 
ATOM     81  C   UNL A   1      49.145  26.082  26.144  1.00  0.00     0.055 A 
ATOM     82  C   UNL A   1      48.296  26.865  24.035  1.00  0.00     0.041 A 
ATOM     83  F   UNL A   1      46.213  27.939  23.948  1.00  0.00    -0.206 F 
ATOM     84  C   UNL A   1      49.306  26.246  24.766  1.00  0.00     0.022 A 
BRANCH  81  85
ATOM     85  S   UNL A   1      50.483  25.363  27.135  1.00  0.00     0.124 S 
ATOM     86  O   UNL A   1      50.967  26.526  27.870  1.00  0.00    -0.237 OA
ATOM     87  O   UNL A   1      49.774  24.357  27.919  1.00  0.00    -0.237 OA
ATOM     88  O   UNL A   1      51.402  24.832  26.130  1.00  0.00    -0.744 OA
ENDBRANCH  81  85
ENDBRANCH  54  78
BRANCH  66  89
ATOM     89  C   UNL A   1      45.543  33.065  29.487  1.00  0.00     0.023 A 
ATOM     90  C   UNL A   1      45.713  34.160  28.622  1.00  0.00     0.031 A 
ATOM     91  C   UNL A   1      46.213  33.089  30.723  1.00  0.00     0.131 A 
ATOM     92  C   UNL A   1      46.574  35.208  28.981  1.00  0.00     0.055 A 
ATOM     93  C   UNL A   1      47.024  34.160  31.100  1.00  0.00     0.041 A 
ATOM     94  F   UNL A   1      46.091  32.067  31.586  1.00  0.00    -0.206 F 
ATOM     95  C   UNL A   1      47.218  35.223  30.222  1.00  0.00     0.022 A 
BRANCH  92  96
ATOM     96  S   UNL A   1      46.916  36.513  27.768  1.00  0.00     0.124 S 
ATOM     97  O   UNL A   1      48.098  37.153  28.336  1.00  0.00    -0.237 OA
ATOM     98  O   UNL A   1      47.131  35.750  26.542  1.00  0.00    -0.237 OA
ATOM     99  O   UNL A   1      45.702  37.326  27.786  1.00  0.00    -0.744 OA
ENDBRANCH  92  96
ENDBRANCH  66  89
ENDBRANCH  40  41
ENDBRANCH  32  35
ENDBRANCH  30  31
ENDBRANCH  29  30
ENDBRANCH   1  29
TORSDOF 18
ENDMDL
