MODEL 1
REMARK VINA RESULT:     -11.2      0.000      0.000
REMARK SMILES CC(C)[C@@H](C)C(=O)N[C@@](C)(C(=O)NCCCCNC(=O)c1ccc(-c2c3nc(c(-c4cc(S(=O)(=O)[O-])ccc4F)c4ccc([nH]4)c(-c4cc(S(=O)(=O)[O-])ccc4F)c4nc(c(-c5cc(S(=O)(=O)[O-])ccc5F)c5ccc2[nH]5)C=C4)C=C3)cc1)C(F)(F)F
REMARK SMILES IDX 15 1 14 2 13 3 11 4 12 5 9 7 10 8 8 9 6 10 7 11 4 13 5 14
REMARK SMILES IDX 2 15 1 16 3 17 84 18 85 19 86 20 87 21 16 22 17 23 18 24
REMARK SMILES IDX 19 25 20 27 21 28 22 29 83 30 23 31 82 32 24 33 25 34 26 35
REMARK SMILES IDX 76 36 27 37 81 38 75 39 77 40 28 41 80 42 74 43 73 44 29 46
REMARK SMILES IDX 61 47 41 48 60 49 42 50 45 51 59 52 78 53 43 54 44 55 58 57
REMARK SMILES IDX 79 58 46 59 30 60 31 61 39 62 32 63 38 64 40 65 37 66 33 67
REMARK SMILES IDX 34 68 35 69 36 70 62 71 63 72 71 73 64 74 70 75 72 76 69 77
REMARK SMILES IDX 65 78 66 79 67 80 68 81 47 82 48 83 56 84 49 85 55 86 57 87
REMARK SMILES IDX 54 88 50 89 51 90 52 91 53 92
REMARK H PARENT 13 6 8 12 18 26 77 45 45 56
REMARK Flexibility Score: inf
ROOT
ATOM      1  C   UNL A   1      34.985  22.949  26.457  1.00  0.00     0.023 C 
ENDROOT
BRANCH   1   2
ATOM      2  C   UNL A   1      35.184  24.071  25.440  1.00  0.00     0.116 C 
BRANCH   2   3
ATOM      3  N   UNL A   1      34.078  25.016  25.461  1.00  0.00    -0.354 N 
ATOM      4  C   UNL A   1      32.890  25.112  24.796  1.00  0.00     0.254 C 
ATOM      5  O   UNL A   1      32.225  26.114  25.075  1.00  0.00    -0.272 OA
ATOM      6  H   UNL A   1      34.218  25.752  26.099  1.00  0.00     0.163 HD
BRANCH   4   7
ATOM      7  C   UNL A   1      32.432  24.087  23.731  1.00  0.00     0.212 C 
ATOM      8  C   UNL A   1      31.145  24.549  23.018  1.00  0.00     0.056 C 
BRANCH   7   9
ATOM      9  N   UNL A   1      32.139  22.857  24.564  1.00  0.00    -0.334 N 
ATOM     10  C   UNL A   1      32.102  21.513  24.520  1.00  0.00     0.224 C 
ATOM     11  O   UNL A   1      31.671  20.970  25.546  1.00  0.00    -0.275 OA
ATOM     12  H   UNL A   1      31.880  23.147  25.468  1.00  0.00     0.164 HD
BRANCH  10  13
ATOM     13  C   UNL A   1      32.583  20.647  23.375  1.00  0.00     0.078 C 
ATOM     14  C   UNL A   1      31.847  21.074  22.104  1.00  0.00     0.018 C 
BRANCH  13  15
ATOM     15  C   UNL A   1      32.643  19.164  23.796  1.00  0.00    -0.005 C 
ATOM     16  C   UNL A   1      32.386  18.175  22.662  1.00  0.00     0.008 C 
ATOM     17  C   UNL A   1      33.997  18.852  24.455  1.00  0.00     0.008 C 
ENDBRANCH  13  15
ENDBRANCH  10  13
ENDBRANCH   7   9
BRANCH   7  18
ATOM     18  C   UNL A   1      33.549  24.128  22.648  1.00  0.00     0.420 C 
ATOM     19  F   UNL A   1      34.512  23.204  22.795  1.00  0.00    -0.168 F 
ATOM     20  F   UNL A   1      33.041  23.969  21.400  1.00  0.00    -0.168 F 
ATOM     21  F   UNL A   1      34.152  25.345  22.604  1.00  0.00    -0.168 F 
ENDBRANCH   7  18
ENDBRANCH   4   7
ENDBRANCH   2   3
ENDBRANCH   1   2
BRANCH   1  22
ATOM     22  C   UNL A   1      35.653  21.623  26.092  1.00  0.00     0.023 C 
BRANCH  22  23
ATOM     23  C   UNL A   1      36.898  21.745  25.220  1.00  0.00     0.116 C 
BRANCH  23  24
ATOM     24  N   UNL A   1      37.875  20.701  25.485  1.00  0.00    -0.352 N 
ATOM     25  C   UNL A   1      39.148  20.821  25.990  1.00  0.00     0.251 C 
ATOM     26  H   UNL A   1      37.585  19.784  25.275  1.00  0.00     0.163 HD
ATOM     27  O   UNL A   1      39.891  19.845  26.011  1.00  0.00    -0.269 OA
BRANCH  25  28
ATOM     28  C   UNL A   1      39.619  22.138  26.468  1.00  0.00     0.039 A 
ATOM     29  C   UNL A   1      40.700  22.190  27.349  1.00  0.00     0.014 A 
ATOM     30  C   UNL A   1      39.019  23.316  26.015  1.00  0.00     0.014 A 
ATOM     31  C   UNL A   1      41.225  23.429  27.724  1.00  0.00     0.010 A 
ATOM     32  C   UNL A   1      39.592  24.546  26.328  1.00  0.00     0.010 A 
ATOM     33  C   UNL A   1      40.700  24.616  27.185  1.00  0.00    -0.014 A 
BRANCH  33  34
ATOM     34  C   UNL A   1      41.292  25.940  27.512  1.00  0.00     0.031 A 
ATOM     35  C   UNL A   1      42.671  26.286  27.019  1.00  0.00     0.074 A 
ATOM     36  C   UNL A   1      40.618  26.799  28.301  1.00  0.00     0.049 A 
ATOM     37  N   UNL A   1      43.395  27.348  27.264  1.00  0.00    -0.248 NA
ATOM     38  C   UNL A   1      43.332  25.291  26.162  1.00  0.00     0.031 C 
ATOM     39  C   UNL A   1      39.289  26.561  28.870  1.00  0.00     0.029 A 
ATOM     40  N   UNL A   1      40.958  28.044  28.769  1.00  0.00    -0.354 N 
ATOM     41  C   UNL A   1      44.602  27.143  26.603  1.00  0.00     0.074 A 
ATOM     42  C   UNL A   1      44.533  25.826  26.005  1.00  0.00     0.031 C 
ATOM     43  C   UNL A   1      38.918  27.635  29.587  1.00  0.00     0.029 A 
ATOM     44  C   UNL A   1      39.998  28.615  29.572  1.00  0.00     0.049 A 
ATOM     45  H   UNL A   1      41.810  28.487  28.551  1.00  0.00     0.167 HD
ATOM     46  C   UNL A   1      45.658  27.985  26.482  1.00  0.00     0.034 A 
ATOM     47  C   UNL A   1      39.994  29.791  30.232  1.00  0.00     0.034 A 
ATOM     48  C   UNL A   1      45.707  29.299  27.077  1.00  0.00     0.049 A 
ATOM     49  C   UNL A   1      41.194  30.697  30.113  1.00  0.00     0.074 A 
ATOM     50  C   UNL A   1      46.704  30.253  26.981  1.00  0.00     0.029 A 
ATOM     51  N   UNL A   1      44.717  29.842  27.888  1.00  0.00    -0.354 N 
ATOM     52  N   UNL A   1      42.310  30.508  29.445  1.00  0.00    -0.248 NA
ATOM     53  C   UNL A   1      41.131  31.977  30.829  1.00  0.00     0.031 C 
ATOM     54  C   UNL A   1      46.353  31.340  27.787  1.00  0.00     0.029 A 
ATOM     55  C   UNL A   1      45.096  31.103  28.323  1.00  0.00     0.049 A 
ATOM     56  H   UNL A   1      43.871  29.397  28.120  1.00  0.00     0.167 HD
ATOM     57  C   UNL A   1      43.065  31.663  29.636  1.00  0.00     0.074 A 
ATOM     58  C   UNL A   1      42.271  32.544  30.467  1.00  0.00     0.031 C 
ATOM     59  C   UNL A   1      44.299  31.969  29.161  1.00  0.00     0.034 A 
BRANCH  46  60
ATOM     60  C   UNL A   1      46.852  27.493  25.697  1.00  0.00     0.023 A 
ATOM     61  C   UNL A   1      47.115  27.948  24.391  1.00  0.00     0.031 A 
ATOM     62  C   UNL A   1      47.719  26.531  26.242  1.00  0.00     0.131 A 
ATOM     63  C   UNL A   1      48.160  27.381  23.648  1.00  0.00     0.055 A 
ATOM     64  C   UNL A   1      48.813  26.035  25.529  1.00  0.00     0.041 A 
ATOM     65  F   UNL A   1      47.509  26.041  27.474  1.00  0.00    -0.206 F 
ATOM     66  C   UNL A   1      49.030  26.448  24.218  1.00  0.00     0.022 A 
BRANCH  63  67
ATOM     67  S   UNL A   1      48.270  27.766  21.880  1.00  0.00     0.124 S 
ATOM     68  O   UNL A   1      46.939  28.309  21.613  1.00  0.00    -0.237 OA
ATOM     69  O   UNL A   1      49.372  28.720  21.831  1.00  0.00    -0.237 OA
ATOM     70  O   UNL A   1      48.540  26.468  21.263  1.00  0.00    -0.744 OA
ENDBRANCH  63  67
ENDBRANCH  46  60
BRANCH  47  71
ATOM     71  C   UNL A   1      38.825  30.185  31.071  1.00  0.00     0.023 A 
ATOM     72  C   UNL A   1      37.769  30.936  30.532  1.00  0.00     0.031 A 
ATOM     73  C   UNL A   1      38.768  29.855  32.437  1.00  0.00     0.131 A 
ATOM     74  C   UNL A   1      36.727  31.376  31.362  1.00  0.00     0.055 A 
ATOM     75  C   UNL A   1      37.701  30.247  33.247  1.00  0.00     0.041 A 
ATOM     76  F   UNL A   1      39.749  29.134  33.003  1.00  0.00    -0.206 F 
ATOM     77  C   UNL A   1      36.678  31.025  32.713  1.00  0.00     0.022 A 
BRANCH  74  78
ATOM     78  S   UNL A   1      35.477  32.493  30.668  1.00  0.00     0.124 S 
ATOM     79  O   UNL A   1      35.304  31.949  29.326  1.00  0.00    -0.237 OA
ATOM     80  O   UNL A   1      34.359  32.305  31.587  1.00  0.00    -0.237 OA
ATOM     81  O   UNL A   1      36.119  33.804  30.733  1.00  0.00    -0.744 OA
ENDBRANCH  74  78
ENDBRANCH  47  71
BRANCH  59  82
ATOM     82  C   UNL A   1      44.842  33.338  29.492  1.00  0.00     0.023 A 
ATOM     83  C   UNL A   1      44.587  34.455  28.677  1.00  0.00     0.031 A 
ATOM     84  C   UNL A   1      45.636  33.524  30.638  1.00  0.00     0.131 A 
ATOM     85  C   UNL A   1      45.167  35.694  28.988  1.00  0.00     0.055 A 
ATOM     86  C   UNL A   1      46.158  34.773  30.977  1.00  0.00     0.041 A 
ATOM     87  F   UNL A   1      45.914  32.493  31.452  1.00  0.00    -0.206 F 
ATOM     88  C   UNL A   1      45.936  35.865  30.143  1.00  0.00     0.022 A 
BRANCH  85  89
ATOM     89  S   UNL A   1      44.983  37.063  27.813  1.00  0.00     0.124 S 
ATOM     90  O   UNL A   1      44.609  36.362  26.587  1.00  0.00    -0.237 OA
ATOM     91  O   UNL A   1      43.934  37.867  28.432  1.00  0.00    -0.237 OA
ATOM     92  O   UNL A   1      46.307  37.682  27.794  1.00  0.00    -0.744 OA
ENDBRANCH  85  89
ENDBRANCH  59  82
ENDBRANCH  33  34
ENDBRANCH  25  28
ENDBRANCH  23  24
ENDBRANCH  22  23
ENDBRANCH   1  22
TORSDOF 18
ENDMDL
MODEL 2
REMARK VINA RESULT:     -11.2      5.634      8.392
REMARK SMILES CC(C)[C@@H](C)C(=O)N[C@@](C)(C(=O)NCCCCNC(=O)c1ccc(-c2c3nc(c(-c4cc(S(=O)(=O)[O-])ccc4F)c4ccc([nH]4)c(-c4cc(S(=O)(=O)[O-])ccc4F)c4nc(c(-c5cc(S(=O)(=O)[O-])ccc5F)c5ccc2[nH]5)C=C4)C=C3)cc1)C(F)(F)F
REMARK SMILES IDX 15 1 14 2 13 3 11 4 12 5 9 7 10 8 8 9 6 10 7 11 4 13 5 14
REMARK SMILES IDX 2 15 1 16 3 17 84 18 85 19 86 20 87 21 16 22 17 23 18 24
REMARK SMILES IDX 19 25 20 27 21 28 22 29 83 30 23 31 82 32 24 33 25 34 26 35
REMARK SMILES IDX 76 36 27 37 81 38 75 39 77 40 28 41 80 42 74 43 73 44 29 46
REMARK SMILES IDX 61 47 41 48 60 49 42 50 45 51 59 52 78 53 43 54 44 55 58 57
REMARK SMILES IDX 79 58 46 59 30 60 31 61 39 62 32 63 38 64 40 65 37 66 33 67
REMARK SMILES IDX 34 68 35 69 36 70 62 71 63 72 71 73 64 74 70 75 72 76 69 77
REMARK SMILES IDX 65 78 66 79 67 80 68 81 47 82 48 83 56 84 49 85 55 86 57 87
REMARK SMILES IDX 54 88 50 89 51 90 52 91 53 92
REMARK H PARENT 13 6 8 12 18 26 77 45 45 56
REMARK Flexibility Score: inf
ROOT
ATOM      1  C   UNL A   1      31.470  30.692  25.820  1.00  0.00     0.023 C 
ENDROOT
BRANCH   1   2
ATOM      2  C   UNL A   1      32.853  30.045  25.778  1.00  0.00     0.116 C 
BRANCH   2   3
ATOM      3  N   UNL A   1      33.173  29.552  24.448  1.00  0.00    -0.354 N 
ATOM      4  C   UNL A   1      33.255  28.313  23.880  1.00  0.00     0.254 C 
ATOM      5  O   UNL A   1      33.607  28.312  22.697  1.00  0.00    -0.272 OA
ATOM      6  H   UNL A   1      33.376  30.275  23.812  1.00  0.00     0.163 HD
BRANCH   4   7
ATOM      7  C   UNL A   1      32.993  27.006  24.665  1.00  0.00     0.212 C 
ATOM      8  C   UNL A   1      33.576  27.074  26.091  1.00  0.00     0.056 C 
BRANCH   7   9
ATOM      9  N   UNL A   1      33.753  25.978  23.854  1.00  0.00    -0.334 N 
ATOM     10  C   UNL A   1      33.988  24.658  23.741  1.00  0.00     0.224 C 
ATOM     11  O   UNL A   1      34.833  24.350  22.889  1.00  0.00    -0.275 OA
ATOM     12  H   UNL A   1      34.262  26.446  23.154  1.00  0.00     0.164 HD
BRANCH  10  13
ATOM     13  C   UNL A   1      33.284  23.560  24.508  1.00  0.00     0.078 C 
ATOM     14  C   UNL A   1      33.727  23.630  25.970  1.00  0.00     0.018 C 
BRANCH  13  15
ATOM     15  C   UNL A   1      33.330  22.229  23.729  1.00  0.00    -0.005 C 
ATOM     16  C   UNL A   1      33.625  21.004  24.590  1.00  0.00     0.008 C 
ATOM     17  C   UNL A   1      32.015  22.015  22.962  1.00  0.00     0.008 C 
ENDBRANCH  13  15
ENDBRANCH  10  13
ENDBRANCH   7   9
BRANCH   7  18
ATOM     18  C   UNL A   1      31.447  26.965  24.846  1.00  0.00     0.420 C 
ATOM     19  F   UNL A   1      30.884  25.766  24.627  1.00  0.00    -0.168 F 
ATOM     20  F   UNL A   1      31.080  27.348  26.095  1.00  0.00    -0.168 F 
ATOM     21  F   UNL A   1      30.829  27.862  24.033  1.00  0.00    -0.168 F 
ENDBRANCH   7  18
ENDBRANCH   4   7
ENDBRANCH   2   3
ENDBRANCH   1   2
BRANCH   1  22
ATOM     22  C   UNL A   1      31.382  31.968  26.660  1.00  0.00     0.023 C 
BRANCH  22  23
ATOM     23  C   UNL A   1      32.714  32.485  27.190  1.00  0.00     0.116 C 
BRANCH  23  24
ATOM     24  N   UNL A   1      32.633  33.855  27.673  1.00  0.00    -0.352 N 
ATOM     25  C   UNL A   1      33.399  34.476  28.631  1.00  0.00     0.251 C 
ATOM     26  H   UNL A   1      31.936  34.412  27.258  1.00  0.00     0.163 HD
ATOM     27  O   UNL A   1      33.095  35.599  29.020  1.00  0.00    -0.269 OA
BRANCH  25  28
ATOM     28  C   UNL A   1      34.560  33.766  29.208  1.00  0.00     0.039 A 
ATOM     29  C   UNL A   1      35.846  34.195  28.878  1.00  0.00     0.014 A 
ATOM     30  C   UNL A   1      34.375  32.705  30.098  1.00  0.00     0.014 A 
ATOM     31  C   UNL A   1      36.950  33.604  29.498  1.00  0.00     0.010 A 
ATOM     32  C   UNL A   1      35.470  32.171  30.771  1.00  0.00     0.010 A 
ATOM     33  C   UNL A   1      36.769  32.615  30.479  1.00  0.00    -0.014 A 
BRANCH  33  34
ATOM     34  C   UNL A   1      37.925  32.027  31.205  1.00  0.00     0.031 A 
ATOM     35  C   UNL A   1      38.724  30.920  30.570  1.00  0.00     0.074 A 
ATOM     36  C   UNL A   1      38.215  32.441  32.453  1.00  0.00     0.049 A 
ATOM     37  N   UNL A   1      39.710  30.219  31.068  1.00  0.00    -0.248 NA
ATOM     38  C   UNL A   1      38.340  30.532  29.205  1.00  0.00     0.031 C 
ATOM     39  C   UNL A   1      37.491  33.481  33.188  1.00  0.00     0.029 A 
ATOM     40  N   UNL A   1      39.190  32.037  33.330  1.00  0.00    -0.354 N 
ATOM     41  C   UNL A   1      40.056  29.299  30.084  1.00  0.00     0.074 A 
ATOM     42  C   UNL A   1      39.127  29.490  28.989  1.00  0.00     0.031 C 
ATOM     43  C   UNL A   1      38.063  33.649  34.392  1.00  0.00     0.029 A 
ATOM     44  C   UNL A   1      39.160  32.699  34.536  1.00  0.00     0.049 A 
ATOM     45  H   UNL A   1      39.849  31.337  33.117  1.00  0.00     0.167 HD
ATOM     46  C   UNL A   1      41.069  28.399  30.081  1.00  0.00     0.034 A 
ATOM     47  C   UNL A   1      39.923  32.548  35.638  1.00  0.00     0.034 A 
ATOM     48  C   UNL A   1      41.992  28.228  31.178  1.00  0.00     0.049 A 
ATOM     49  C   UNL A   1      41.022  31.515  35.627  1.00  0.00     0.074 A 
ATOM     50  C   UNL A   1      43.082  27.381  31.264  1.00  0.00     0.029 A 
ATOM     51  N   UNL A   1      41.928  28.914  32.385  1.00  0.00    -0.354 N 
ATOM     52  N   UNL A   1      41.366  30.684  34.670  1.00  0.00    -0.248 NA
ATOM     53  C   UNL A   1      41.841  31.407  36.841  1.00  0.00     0.031 C 
ATOM     54  C   UNL A   1      43.633  27.501  32.544  1.00  0.00     0.029 A 
ATOM     55  C   UNL A   1      42.939  28.484  33.232  1.00  0.00     0.049 A 
ATOM     56  H   UNL A   1      41.261  29.603  32.608  1.00  0.00     0.167 HD
ATOM     57  C   UNL A   1      42.463  29.978  35.157  1.00  0.00     0.074 A 
ATOM     58  C   UNL A   1      42.730  30.493  36.484  1.00  0.00     0.031 C 
ATOM     59  C   UNL A   1      43.188  28.999  34.558  1.00  0.00     0.034 A 
BRANCH  46  60
ATOM     60  C   UNL A   1      41.210  27.516  28.863  1.00  0.00     0.023 A 
ATOM     61  C   UNL A   1      42.230  27.724  27.915  1.00  0.00     0.031 A 
ATOM     62  C   UNL A   1      40.295  26.477  28.623  1.00  0.00     0.131 A 
ATOM     63  C   UNL A   1      42.258  26.963  26.738  1.00  0.00     0.055 A 
ATOM     64  C   UNL A   1      40.383  25.664  27.491  1.00  0.00     0.041 A 
ATOM     65  F   UNL A   1      39.287  26.243  29.478  1.00  0.00    -0.206 F 
ATOM     66  C   UNL A   1      41.359  25.915  26.531  1.00  0.00     0.022 A 
BRANCH  63  67
ATOM     67  S   UNL A   1      43.389  27.466  25.412  1.00  0.00     0.124 S 
ATOM     68  O   UNL A   1      42.455  27.945  24.394  1.00  0.00    -0.237 OA
ATOM     69  O   UNL A   1      44.205  28.486  26.061  1.00  0.00    -0.237 OA
ATOM     70  O   UNL A   1      44.089  26.230  25.071  1.00  0.00    -0.744 OA
ENDBRANCH  63  67
ENDBRANCH  46  60
BRANCH  47  71
ATOM     71  C   UNL A   1      39.677  33.383  36.849  1.00  0.00     0.023 A 
ATOM     72  C   UNL A   1      38.962  32.874  37.945  1.00  0.00     0.031 A 
ATOM     73  C   UNL A   1      40.112  34.719  36.911  1.00  0.00     0.131 A 
ATOM     74  C   UNL A   1      38.660  33.707  39.033  1.00  0.00     0.055 A 
ATOM     75  C   UNL A   1      39.858  35.528  38.020  1.00  0.00     0.041 A 
ATOM     76  F   UNL A   1      40.804  35.255  35.893  1.00  0.00    -0.206 F 
ATOM     77  C   UNL A   1      39.115  35.027  39.085  1.00  0.00     0.022 A 
BRANCH  74  78
ATOM     78  S   UNL A   1      37.583  33.066  40.345  1.00  0.00     0.124 S 
ATOM     79  O   UNL A   1      38.330  31.897  40.797  1.00  0.00    -0.237 OA
ATOM     80  O   UNL A   1      37.531  34.192  41.271  1.00  0.00    -0.237 OA
ATOM     81  O   UNL A   1      36.332  32.777  39.647  1.00  0.00    -0.744 OA
ENDBRANCH  74  78
ENDBRANCH  47  71
BRANCH  59  82
ATOM     82  C   UNL A   1      44.373  28.458  35.323  1.00  0.00     0.023 A 
ATOM     83  C   UNL A   1      44.276  27.309  36.126  1.00  0.00     0.031 A 
ATOM     84  C   UNL A   1      45.616  29.112  35.252  1.00  0.00     0.131 A 
ATOM     85  C   UNL A   1      45.386  26.881  36.871  1.00  0.00     0.055 A 
ATOM     86  C   UNL A   1      46.733  28.645  35.945  1.00  0.00     0.041 A 
ATOM     87  F   UNL A   1      45.766  30.215  34.502  1.00  0.00    -0.206 F 
ATOM     88  C   UNL A   1      46.619  27.531  36.772  1.00  0.00     0.022 A 
BRANCH  85  89
ATOM     89  S   UNL A   1      45.174  25.517  38.048  1.00  0.00     0.124 S 
ATOM     90  O   UNL A   1      45.473  26.167  39.321  1.00  0.00    -0.237 OA
ATOM     91  O   UNL A   1      43.781  25.138  37.838  1.00  0.00    -0.237 OA
ATOM     92  O   UNL A   1      46.158  24.529  37.610  1.00  0.00    -0.744 OA
ENDBRANCH  85  89
ENDBRANCH  59  82
ENDBRANCH  33  34
ENDBRANCH  25  28
ENDBRANCH  23  24
ENDBRANCH  22  23
ENDBRANCH   1  22
TORSDOF 18
ENDMDL
MODEL 3
REMARK VINA RESULT:     -11.1      1.750      2.960
REMARK SMILES CC(C)[C@@H](C)C(=O)N[C@@](C)(C(=O)NCCCCNC(=O)c1ccc(-c2c3nc(c(-c4cc(S(=O)(=O)[O-])ccc4F)c4ccc([nH]4)c(-c4cc(S(=O)(=O)[O-])ccc4F)c4nc(c(-c5cc(S(=O)(=O)[O-])ccc5F)c5ccc2[nH]5)C=C4)C=C3)cc1)C(F)(F)F
REMARK SMILES IDX 15 1 14 2 13 3 11 4 12 5 9 7 10 8 8 9 6 10 7 11 4 13 5 14
REMARK SMILES IDX 2 15 1 16 3 17 84 18 85 19 86 20 87 21 16 22 17 23 18 24
REMARK SMILES IDX 19 25 20 27 21 28 22 29 83 30 23 31 82 32 24 33 25 34 26 35
REMARK SMILES IDX 76 36 27 37 81 38 75 39 77 40 28 41 80 42 74 43 73 44 29 46
REMARK SMILES IDX 61 47 41 48 60 49 42 50 45 51 59 52 78 53 43 54 44 55 58 57
REMARK SMILES IDX 79 58 46 59 30 60 31 61 39 62 32 63 38 64 40 65 37 66 33 67
REMARK SMILES IDX 34 68 35 69 36 70 62 71 63 72 71 73 64 74 70 75 72 76 69 77
REMARK SMILES IDX 65 78 66 79 67 80 68 81 47 82 48 83 56 84 49 85 55 86 57 87
REMARK SMILES IDX 54 88 50 89 51 90 52 91 53 92
REMARK H PARENT 13 6 8 12 18 26 77 45 45 56
REMARK Flexibility Score: inf
ROOT
ATOM      1  C   UNL A   1      35.940  22.968  23.479  1.00  0.00     0.023 C 
ENDROOT
BRANCH   1   2
ATOM      2  C   UNL A   1      34.523  23.078  22.920  1.00  0.00     0.116 C 
BRANCH   2   3
ATOM      3  N   UNL A   1      33.535  22.575  23.862  1.00  0.00    -0.354 N 
ATOM      4  C   UNL A   1      32.622  23.157  24.693  1.00  0.00     0.254 C 
ATOM      5  O   UNL A   1      31.977  22.364  25.384  1.00  0.00    -0.272 OA
ATOM      6  H   UNL A   1      33.522  21.592  23.912  1.00  0.00     0.163 HD
BRANCH   4   7
ATOM      7  C   UNL A   1      32.447  24.690  24.813  1.00  0.00     0.212 C 
ATOM      8  C   UNL A   1      31.169  25.054  25.598  1.00  0.00     0.056 C 
BRANCH   7   9
ATOM      9  N   UNL A   1      32.295  25.118  23.369  1.00  0.00    -0.334 N 
ATOM     10  C   UNL A   1      32.137  26.194  22.577  1.00  0.00     0.224 C 
ATOM     11  O   UNL A   1      31.963  25.938  21.378  1.00  0.00    -0.275 OA
ATOM     12  H   UNL A   1      32.320  24.314  22.801  1.00  0.00     0.164 HD
BRANCH  10  13
ATOM     13  C   UNL A   1      32.210  27.640  23.017  1.00  0.00     0.078 C 
ATOM     14  C   UNL A   1      33.664  27.969  23.358  1.00  0.00     0.018 C 
BRANCH  13  15
ATOM     15  C   UNL A   1      31.071  27.973  24.003  1.00  0.00    -0.005 C 
ATOM     16  C   UNL A   1      31.483  28.874  25.163  1.00  0.00     0.008 C 
ATOM     17  C   UNL A   1      29.888  28.608  23.254  1.00  0.00     0.008 C 
ENDBRANCH  13  15
ENDBRANCH  10  13
ENDBRANCH   7   9
BRANCH   7  18
ATOM     18  C   UNL A   1      33.634  25.148  25.710  1.00  0.00     0.420 C 
ATOM     19  F   UNL A   1      34.068  24.226  26.586  1.00  0.00    -0.168 F 
ATOM     20  F   UNL A   1      34.707  25.518  24.967  1.00  0.00    -0.168 F 
ATOM     21  F   UNL A   1      33.320  26.267  26.415  1.00  0.00    -0.168 F 
ENDBRANCH   7  18
ENDBRANCH   4   7
ENDBRANCH   2   3
ENDBRANCH   1   2
BRANCH   1  22
ATOM     22  C   UNL A   1      36.125  21.901  24.558  1.00  0.00     0.023 C 
BRANCH  22  23
ATOM     23  C   UNL A   1      37.052  22.292  25.703  1.00  0.00     0.116 C 
BRANCH  23  24
ATOM     24  N   UNL A   1      38.157  21.362  25.875  1.00  0.00    -0.352 N 
ATOM     25  C   UNL A   1      39.440  21.620  26.298  1.00  0.00     0.251 C 
ATOM     26  H   UNL A   1      37.961  20.423  25.659  1.00  0.00     0.163 HD
ATOM     27  O   UNL A   1      40.289  20.735  26.243  1.00  0.00    -0.269 OA
BRANCH  25  28
ATOM     28  C   UNL A   1      39.790  22.973  26.780  1.00  0.00     0.039 A 
ATOM     29  C   UNL A   1      40.610  23.099  27.902  1.00  0.00     0.014 A 
ATOM     30  C   UNL A   1      39.339  24.108  26.102  1.00  0.00     0.014 A 
ATOM     31  C   UNL A   1      41.037  24.367  28.304  1.00  0.00     0.010 A 
ATOM     32  C   UNL A   1      39.827  25.362  26.457  1.00  0.00     0.010 A 
ATOM     33  C   UNL A   1      40.681  25.505  27.562  1.00  0.00    -0.014 A 
BRANCH  33  34
ATOM     34  C   UNL A   1      41.185  26.855  27.928  1.00  0.00     0.031 A 
ATOM     35  C   UNL A   1      42.621  27.216  27.661  1.00  0.00     0.074 A 
ATOM     36  C   UNL A   1      40.372  27.727  28.555  1.00  0.00     0.049 A 
ATOM     37  N   UNL A   1      43.275  28.303  27.981  1.00  0.00    -0.248 NA
ATOM     38  C   UNL A   1      43.436  26.205  26.971  1.00  0.00     0.031 C 
ATOM     39  C   UNL A   1      38.970  27.478  28.901  1.00  0.00     0.029 A 
ATOM     40  N   UNL A   1      40.606  28.996  29.022  1.00  0.00    -0.354 N 
ATOM     41  C   UNL A   1      44.580  28.103  27.542  1.00  0.00     0.074 A 
ATOM     42  C   UNL A   1      44.636  26.763  26.997  1.00  0.00     0.031 C 
ATOM     43  C   UNL A   1      38.464  28.569  29.500  1.00  0.00     0.029 A 
ATOM     44  C   UNL A   1      39.513  29.575  29.627  1.00  0.00     0.049 A 
ATOM     45  H   UNL A   1      41.475  29.451  28.933  1.00  0.00     0.167 HD
ATOM     46  C   UNL A   1      45.626  28.965  27.567  1.00  0.00     0.034 A 
ATOM     47  C   UNL A   1      39.377  30.774  30.227  1.00  0.00     0.034 A 
ATOM     48  C   UNL A   1      45.550  30.301  28.107  1.00  0.00     0.049 A 
ATOM     49  C   UNL A   1      40.564  31.704  30.276  1.00  0.00     0.074 A 
ATOM     50  C   UNL A   1      46.533  31.275  28.141  1.00  0.00     0.029 A 
ATOM     51  N   UNL A   1      44.428  30.851  28.715  1.00  0.00    -0.354 N 
ATOM     52  N   UNL A   1      41.779  31.517  29.814  1.00  0.00    -0.248 NA
ATOM     53  C   UNL A   1      40.357  33.009  30.917  1.00  0.00     0.031 C 
ATOM     54  C   UNL A   1      46.030  32.383  28.830  1.00  0.00     0.029 A 
ATOM     55  C   UNL A   1      44.705  32.136  29.155  1.00  0.00     0.049 A 
ATOM     56  H   UNL A   1      43.562  30.394  28.819  1.00  0.00     0.167 HD
ATOM     57  C   UNL A   1      42.471  32.696  30.081  1.00  0.00     0.074 A 
ATOM     58  C   UNL A   1      41.532  33.589  30.729  1.00  0.00     0.031 C 
ATOM     59  C   UNL A   1      43.762  33.013  29.810  1.00  0.00     0.034 A 
BRANCH  46  60
ATOM     60  C   UNL A   1      46.944  28.472  27.016  1.00  0.00     0.023 A 
ATOM     61  C   UNL A   1      47.166  28.350  25.632  1.00  0.00     0.031 A 
ATOM     62  C   UNL A   1      47.981  28.084  27.882  1.00  0.00     0.131 A 
ATOM     63  C   UNL A   1      48.356  27.777  25.160  1.00  0.00     0.055 A 
ATOM     64  C   UNL A   1      49.199  27.598  27.403  1.00  0.00     0.041 A 
ATOM     65  F   UNL A   1      47.823  28.156  29.213  1.00  0.00    -0.206 F 
ATOM     66  C   UNL A   1      49.386  27.426  26.034  1.00  0.00     0.022 A 
BRANCH  63  67
ATOM     67  S   UNL A   1      48.472  27.354  23.400  1.00  0.00     0.124 S 
ATOM     68  O   UNL A   1      47.361  28.121  22.839  1.00  0.00    -0.237 OA
ATOM     69  O   UNL A   1      49.809  27.817  23.050  1.00  0.00    -0.237 OA
ATOM     70  O   UNL A   1      48.288  25.904  23.384  1.00  0.00    -0.744 OA
ENDBRANCH  63  67
ENDBRANCH  46  60
BRANCH  47  71
ATOM     71  C   UNL A   1      38.076  31.171  30.840  1.00  0.00     0.023 A 
ATOM     72  C   UNL A   1      37.098  31.842  30.088  1.00  0.00     0.031 A 
ATOM     73  C   UNL A   1      37.808  30.926  32.198  1.00  0.00     0.131 A 
ATOM     74  C   UNL A   1      35.921  32.290  30.708  1.00  0.00     0.055 A 
ATOM     75  C   UNL A   1      36.612  31.324  32.799  1.00  0.00     0.041 A 
ATOM     76  F   UNL A   1      38.706  30.284  32.962  1.00  0.00    -0.206 F 
ATOM     77  C   UNL A   1      35.665  32.023  32.056  1.00  0.00     0.022 A 
BRANCH  74  78
ATOM     78  S   UNL A   1      34.767  33.307  29.748  1.00  0.00     0.124 S 
ATOM     79  O   UNL A   1      35.670  34.257  29.108  1.00  0.00    -0.237 OA
ATOM     80  O   UNL A   1      34.148  32.318  28.872  1.00  0.00    -0.237 OA
ATOM     81  O   UNL A   1      33.884  33.872  30.767  1.00  0.00    -0.744 OA
ENDBRANCH  74  78
ENDBRANCH  47  71
BRANCH  59  82
ATOM     82  C   UNL A   1      44.217  34.407  30.171  1.00  0.00     0.023 A 
ATOM     83  C   UNL A   1      44.113  35.479  29.267  1.00  0.00     0.031 A 
ATOM     84  C   UNL A   1      44.772  34.662  31.438  1.00  0.00     0.131 A 
ATOM     85  C   UNL A   1      44.609  36.743  29.622  1.00  0.00     0.055 A 
ATOM     86  C   UNL A   1      45.206  35.936  31.808  1.00  0.00     0.041 A 
ATOM     87  F   UNL A   1      44.899  33.676  32.340  1.00  0.00    -0.206 F 
ATOM     88  C   UNL A   1      45.139  36.982  30.893  1.00  0.00     0.022 A 
BRANCH  85  89
ATOM     89  S   UNL A   1      44.642  38.051  28.366  1.00  0.00     0.124 S 
ATOM     90  O   UNL A   1      45.986  37.907  27.813  1.00  0.00    -0.237 OA
ATOM     91  O   UNL A   1      43.545  37.666  27.485  1.00  0.00    -0.237 OA
ATOM     92  O   UNL A   1      44.418  39.273  29.137  1.00  0.00    -0.744 OA
ENDBRANCH  85  89
ENDBRANCH  59  82
ENDBRANCH  33  34
ENDBRANCH  25  28
ENDBRANCH  23  24
ENDBRANCH  22  23
ENDBRANCH   1  22
TORSDOF 18
ENDMDL
