MODEL 1
REMARK VINA RESULT:     -12.3      0.000      0.000
REMARK SMILES COc1cc(/C=C2/C(=O)NN(c3ccc(Cl)c(Cl)c3)C2=O)ccc1OCC(=O)NCCCCNC(=O)c1ccc(-c2c3nc(c(-c4cc(S(=O)(=O)[O-])ccc4F)c4ccc([nH]4)c(-c4cc(S(=O)(=O)[O-])ccc4F)c4nc(c(-c5cc(S(=O)(=O)[O-])ccc5F)c5ccc2[nH]5)C=C4)C=C3)cc1
REMARK SMILES IDX 31 1 30 2 29 3 27 4 28 5 26 7 25 8 24 9 3 10 4 11 5 12 23 13
REMARK SMILES IDX 22 14 2 15 1 16 6 17 7 18 8 19 20 20 9 21 10 22 11 23 21 24
REMARK SMILES IDX 12 26 13 27 19 28 14 29 17 30 15 31 18 32 16 33 32 34 33 35
REMARK SMILES IDX 34 36 35 37 36 39 37 40 38 41 99 42 39 43 98 44 40 45 41 46
REMARK SMILES IDX 42 47 92 48 43 49 97 50 91 51 93 52 44 53 96 54 90 55 89 56
REMARK SMILES IDX 45 58 77 59 57 60 76 61 58 62 61 63 75 64 94 65 59 66 60 67
REMARK SMILES IDX 74 69 95 70 62 71 46 72 47 73 55 74 48 75 54 76 56 77 53 78
REMARK SMILES IDX 49 79 50 80 51 81 52 82 78 83 79 84 87 85 80 86 86 87 88 88
REMARK SMILES IDX 85 89 81 90 82 91 83 92 84 93 63 94 64 95 72 96 65 97 71 98
REMARK SMILES IDX 73 99 70 100 66 101 67 102 68 103 69 104
REMARK H PARENT 29 6 10 25 34 38 93 57 61 68
REMARK Flexibility Score: inf
ROOT
ATOM      1  C   UNL A   1      35.417  21.449  26.121  1.00  0.00     0.023 C 
ENDROOT
BRANCH   1   2
ATOM      2  C   UNL A   1      34.982  20.508  25.002  1.00  0.00     0.116 C 
BRANCH   2   3
ATOM      3  N   UNL A   1      33.723  19.844  25.273  1.00  0.00    -0.353 N 
ATOM      4  C   UNL A   1      32.633  19.739  24.457  1.00  0.00     0.257 C 
ATOM      5  O   UNL A   1      31.773  18.905  24.748  1.00  0.00    -0.271 OA
ATOM      6  H   UNL A   1      33.644  19.415  26.156  1.00  0.00     0.163 HD
BRANCH   4   7
ATOM      7  C   UNL A   1      32.546  20.584  23.180  1.00  0.00     0.329 C 
BRANCH   7   8
ATOM      8  O   UNL A   1      31.831  21.803  23.249  1.00  0.00    -0.480 OA
BRANCH   8   9
ATOM      9  C   UNL A   1      32.249  22.808  24.074  1.00  0.00     0.161 A 
ATOM     10  C   UNL A   1      31.644  23.295  25.238  1.00  0.00     0.161 A 
ATOM     11  C   UNL A   1      32.176  24.421  25.892  1.00  0.00     0.058 A 
ATOM     12  C   UNL A   1      33.310  25.065  25.382  1.00  0.00    -0.021 A 
ATOM     13  C   UNL A   1      33.408  23.436  23.602  1.00  0.00     0.051 A 
ATOM     14  C   UNL A   1      33.947  24.543  24.253  1.00  0.00     0.012 A 
BRANCH  10  15
ATOM     15  O   UNL A   1      30.424  22.820  25.638  1.00  0.00    -0.493 OA
ATOM     16  C   UNL A   1      30.365  22.561  27.041  1.00  0.00     0.278 C 
ENDBRANCH  10  15
BRANCH  12  17
ATOM     17  C   UNL A   1      33.721  26.387  25.867  1.00  0.00     0.028 C 
ATOM     18  C   UNL A   1      33.139  27.506  25.406  1.00  0.00     0.109 C 
ATOM     19  C   UNL A   1      33.599  28.877  25.722  1.00  0.00     0.275 C 
ATOM     20  C   UNL A   1      31.987  27.613  24.469  1.00  0.00     0.282 C 
ATOM     21  O   UNL A   1      34.448  29.211  26.528  1.00  0.00    -0.267 OA
ATOM     22  N   UNL A   1      32.845  29.701  24.910  1.00  0.00    -0.256 N 
ATOM     23  N   UNL A   1      31.872  28.982  24.219  1.00  0.00    -0.217 N 
ATOM     24  O   UNL A   1      31.318  26.702  24.011  1.00  0.00    -0.267 OA
ATOM     25  H   UNL A   1      32.979  30.672  24.828  1.00  0.00     0.192 HD
BRANCH  23  26
ATOM     26  C   UNL A   1      30.881  29.578  23.418  1.00  0.00     0.068 A 
ATOM     27  C   UNL A   1      30.980  29.556  22.023  1.00  0.00     0.030 A 
ATOM     28  C   UNL A   1      29.769  30.191  24.014  1.00  0.00     0.050 A 
ATOM     29  C   UNL A   1      29.960  30.110  21.240  1.00  0.00     0.024 A 
ATOM     30  C   UNL A   1      28.776  30.790  23.234  1.00  0.00     0.061 A 
ATOM     31  C   UNL A   1      28.863  30.736  21.842  1.00  0.00     0.059 A 
ATOM     32  Cl  UNL A   1      27.487  31.596  24.055  1.00  0.00    -0.083 Cl
ATOM     33  Cl  UNL A   1      27.657  31.419  20.812  1.00  0.00    -0.083 Cl
ENDBRANCH  23  26
ENDBRANCH  12  17
ENDBRANCH   8   9
ENDBRANCH   7   8
ENDBRANCH   4   7
ENDBRANCH   2   3
ENDBRANCH   1   2
BRANCH   1  34
ATOM     34  C   UNL A   1      36.424  22.528  25.722  1.00  0.00     0.023 C 
BRANCH  34  35
ATOM     35  C   UNL A   1      37.618  22.045  24.910  1.00  0.00     0.116 C 
BRANCH  35  36
ATOM     36  N   UNL A   1      38.405  21.036  25.602  1.00  0.00    -0.352 N 
ATOM     37  C   UNL A   1      39.468  21.203  26.455  1.00  0.00     0.251 C 
ATOM     38  H   UNL A   1      38.137  20.103  25.436  1.00  0.00     0.163 HD
ATOM     39  O   UNL A   1      40.100  20.224  26.843  1.00  0.00    -0.269 OA
BRANCH  37  40
ATOM     40  C   UNL A   1      39.868  22.566  26.864  1.00  0.00     0.039 A 
ATOM     41  C   UNL A   1      40.856  22.717  27.839  1.00  0.00     0.014 A 
ATOM     42  C   UNL A   1      39.299  23.689  26.258  1.00  0.00     0.014 A 
ATOM     43  C   UNL A   1      41.326  23.994  28.152  1.00  0.00     0.010 A 
ATOM     44  C   UNL A   1      39.826  24.951  26.510  1.00  0.00     0.010 A 
ATOM     45  C   UNL A   1      40.848  25.119  27.459  1.00  0.00    -0.014 A 
BRANCH  45  46
ATOM     46  C   UNL A   1      41.394  26.478  27.714  1.00  0.00     0.031 A 
ATOM     47  C   UNL A   1      42.790  26.821  27.265  1.00  0.00     0.074 A 
ATOM     48  C   UNL A   1      40.664  27.379  28.404  1.00  0.00     0.049 A 
ATOM     49  N   UNL A   1      43.485  27.908  27.480  1.00  0.00    -0.248 NA
ATOM     50  C   UNL A   1      43.507  25.792  26.496  1.00  0.00     0.031 C 
ATOM     51  C   UNL A   1      39.311  27.155  28.917  1.00  0.00     0.029 A 
ATOM     52  N   UNL A   1      40.959  28.659  28.805  1.00  0.00    -0.354 N 
ATOM     53  C   UNL A   1      44.724  27.689  26.886  1.00  0.00     0.074 A 
ATOM     54  C   UNL A   1      44.704  26.342  26.356  1.00  0.00     0.031 C 
ATOM     55  C   UNL A   1      38.886  28.265  29.541  1.00  0.00     0.029 A 
ATOM     56  C   UNL A   1      39.953  29.260  29.530  1.00  0.00     0.049 A 
ATOM     57  H   UNL A   1      41.810  29.107  28.594  1.00  0.00     0.167 HD
ATOM     58  C   UNL A   1      45.773  28.540  26.777  1.00  0.00     0.034 A 
ATOM     59  C   UNL A   1      39.906  30.464  30.136  1.00  0.00     0.034 A 
ATOM     60  C   UNL A   1      45.772  29.884  27.301  1.00  0.00     0.049 A 
ATOM     61  C   UNL A   1      41.106  31.376  30.038  1.00  0.00     0.074 A 
ATOM     62  C   UNL A   1      46.761  30.846  27.199  1.00  0.00     0.029 A 
ATOM     63  N   UNL A   1      44.738  30.454  28.032  1.00  0.00    -0.354 N 
ATOM     64  N   UNL A   1      42.253  31.169  29.432  1.00  0.00    -0.248 NA
ATOM     65  C   UNL A   1      41.003  32.685  30.696  1.00  0.00     0.031 C 
ATOM     66  C   UNL A   1      46.363  31.963  27.937  1.00  0.00     0.029 A 
ATOM     67  C   UNL A   1      45.084  31.740  28.419  1.00  0.00     0.049 A 
ATOM     68  H   UNL A   1      43.886  30.010  28.246  1.00  0.00     0.167 HD
ATOM     69  C   UNL A   1      42.989  32.340  29.601  1.00  0.00     0.074 A 
ATOM     70  C   UNL A   1      42.153  33.251  30.355  1.00  0.00     0.031 C 
ATOM     71  C   UNL A   1      44.239  32.640  29.168  1.00  0.00     0.034 A 
BRANCH  58  72
ATOM     72  C   UNL A   1      47.019  28.035  26.091  1.00  0.00     0.023 A 
ATOM     73  C   UNL A   1      47.216  28.182  24.707  1.00  0.00     0.031 A 
ATOM     74  C   UNL A   1      48.030  27.400  26.835  1.00  0.00     0.131 A 
ATOM     75  C   UNL A   1      48.362  27.648  24.102  1.00  0.00     0.055 A 
ATOM     76  C   UNL A   1      49.207  26.943  26.238  1.00  0.00     0.041 A 
ATOM     77  F   UNL A   1      47.889  27.208  28.156  1.00  0.00    -0.206 F 
ATOM     78  C   UNL A   1      49.373  27.055  24.861  1.00  0.00     0.022 A 
BRANCH  75  79
ATOM     79  S   UNL A   1      48.453  27.620  22.290  1.00  0.00     0.124 S 
ATOM     80  O   UNL A   1      49.626  28.455  22.042  1.00  0.00    -0.237 OA
ATOM     81  O   UNL A   1      48.609  26.198  22.004  1.00  0.00    -0.237 OA
ATOM     82  O   UNL A   1      47.181  28.205  21.874  1.00  0.00    -0.744 OA
ENDBRANCH  75  79
ENDBRANCH  58  72
BRANCH  59  83
ATOM     83  C   UNL A   1      38.701  30.881  30.916  1.00  0.00     0.023 A 
ATOM     84  C   UNL A   1      37.590  31.460  30.280  1.00  0.00     0.031 A 
ATOM     85  C   UNL A   1      38.673  30.778  32.319  1.00  0.00     0.131 A 
ATOM     86  C   UNL A   1      36.532  31.972  31.047  1.00  0.00     0.055 A 
ATOM     87  C   UNL A   1      37.586  31.225  33.072  1.00  0.00     0.041 A 
ATOM     88  F   UNL A   1      39.707  30.236  32.982  1.00  0.00    -0.206 F 
ATOM     89  C   UNL A   1      36.514  31.845  32.437  1.00  0.00     0.022 A 
BRANCH  86  90
ATOM     90  S   UNL A   1      35.237  32.926  30.207  1.00  0.00     0.124 S 
ATOM     91  O   UNL A   1      34.340  33.241  31.314  1.00  0.00    -0.237 OA
ATOM     92  O   UNL A   1      35.994  34.045  29.656  1.00  0.00    -0.237 OA
ATOM     93  O   UNL A   1      34.708  31.987  29.221  1.00  0.00    -0.744 OA
ENDBRANCH  86  90
ENDBRANCH  59  83
BRANCH  71  94
ATOM     94  C   UNL A   1      44.755  34.033  29.439  1.00  0.00     0.023 A 
ATOM     95  C   UNL A   1      44.629  35.072  28.501  1.00  0.00     0.031 A 
ATOM     96  C   UNL A   1      45.377  34.323  30.668  1.00  0.00     0.131 A 
ATOM     97  C   UNL A   1      45.163  36.338  28.787  1.00  0.00     0.055 A 
ATOM     98  C   UNL A   1      45.844  35.602  30.973  1.00  0.00     0.041 A 
ATOM     99  F   UNL A   1      45.529  33.369  31.600  1.00  0.00    -0.206 F 
ATOM    100  C   UNL A   1      45.750  36.615  30.025  1.00  0.00     0.022 A 
BRANCH  97 101
ATOM    101  S   UNL A   1      45.164  37.599  27.482  1.00  0.00     0.124 S 
ATOM    102  O   UNL A   1      43.760  37.627  27.087  1.00  0.00    -0.237 OA
ATOM    103  O   UNL A   1      45.652  38.780  28.189  1.00  0.00    -0.237 OA
ATOM    104  O   UNL A   1      46.080  37.056  26.481  1.00  0.00    -0.744 OA
ENDBRANCH  97 101
ENDBRANCH  71  94
ENDBRANCH  45  46
ENDBRANCH  37  40
ENDBRANCH  35  36
ENDBRANCH  34  35
ENDBRANCH   1  34
TORSDOF 19
ENDMDL
MODEL 2
REMARK VINA RESULT:     -12.2      2.760      3.603
REMARK SMILES COc1cc(/C=C2/C(=O)NN(c3ccc(Cl)c(Cl)c3)C2=O)ccc1OCC(=O)NCCCCNC(=O)c1ccc(-c2c3nc(c(-c4cc(S(=O)(=O)[O-])ccc4F)c4ccc([nH]4)c(-c4cc(S(=O)(=O)[O-])ccc4F)c4nc(c(-c5cc(S(=O)(=O)[O-])ccc5F)c5ccc2[nH]5)C=C4)C=C3)cc1
REMARK SMILES IDX 31 1 30 2 29 3 27 4 28 5 26 7 25 8 24 9 3 10 4 11 5 12 23 13
REMARK SMILES IDX 22 14 2 15 1 16 6 17 7 18 8 19 20 20 9 21 10 22 11 23 21 24
REMARK SMILES IDX 12 26 13 27 19 28 14 29 17 30 15 31 18 32 16 33 32 34 33 35
REMARK SMILES IDX 34 36 35 37 36 39 37 40 38 41 99 42 39 43 98 44 40 45 41 46
REMARK SMILES IDX 42 47 92 48 43 49 97 50 91 51 93 52 44 53 96 54 90 55 89 56
REMARK SMILES IDX 45 58 77 59 57 60 76 61 58 62 61 63 75 64 94 65 59 66 60 67
REMARK SMILES IDX 74 69 95 70 62 71 46 72 47 73 55 74 48 75 54 76 56 77 53 78
REMARK SMILES IDX 49 79 50 80 51 81 52 82 78 83 79 84 87 85 80 86 86 87 88 88
REMARK SMILES IDX 85 89 81 90 82 91 83 92 84 93 63 94 64 95 72 96 65 97 71 98
REMARK SMILES IDX 73 99 70 100 66 101 67 102 68 103 69 104
REMARK H PARENT 29 6 10 25 34 38 93 57 61 68
REMARK Flexibility Score: inf
ROOT
ATOM      1  C   UNL A   1      35.210  21.794  26.111  1.00  0.00     0.023 C 
ENDROOT
BRANCH   1   2
ATOM      2  C   UNL A   1      35.142  20.839  24.923  1.00  0.00     0.116 C 
BRANCH   2   3
ATOM      3  N   UNL A   1      34.384  19.637  25.200  1.00  0.00    -0.353 N 
ATOM      4  C   UNL A   1      33.060  19.402  24.967  1.00  0.00     0.257 C 
ATOM      5  O   UNL A   1      32.664  18.235  25.008  1.00  0.00    -0.271 OA
ATOM      6  H   UNL A   1      34.889  18.895  25.607  1.00  0.00     0.163 HD
BRANCH   4   7
ATOM      7  C   UNL A   1      32.130  20.562  24.588  1.00  0.00     0.329 C 
BRANCH   7   8
ATOM      8  O   UNL A   1      31.533  21.295  25.640  1.00  0.00    -0.480 OA
BRANCH   8   9
ATOM      9  C   UNL A   1      31.388  22.649  25.548  1.00  0.00     0.161 A 
ATOM     10  C   UNL A   1      30.768  23.528  26.443  1.00  0.00     0.161 A 
ATOM     11  C   UNL A   1      30.622  24.887  26.113  1.00  0.00     0.058 A 
ATOM     12  C   UNL A   1      31.089  25.370  24.884  1.00  0.00    -0.021 A 
ATOM     13  C   UNL A   1      31.890  23.157  24.343  1.00  0.00     0.051 A 
ATOM     14  C   UNL A   1      31.760  24.505  24.016  1.00  0.00     0.012 A 
BRANCH  10  15
ATOM     15  O   UNL A   1      30.118  23.049  27.549  1.00  0.00    -0.493 OA
ATOM     16  C   UNL A   1      28.867  22.438  27.234  1.00  0.00     0.278 C 
ENDBRANCH  10  15
BRANCH  12  17
ATOM     17  C   UNL A   1      30.709  26.698  24.391  1.00  0.00     0.028 C 
ATOM     18  C   UNL A   1      31.345  27.803  24.815  1.00  0.00     0.109 C 
ATOM     19  C   UNL A   1      30.922  29.184  24.492  1.00  0.00     0.275 C 
ATOM     20  C   UNL A   1      32.530  27.883  25.713  1.00  0.00     0.282 C 
ATOM     21  O   UNL A   1      30.060  29.537  23.708  1.00  0.00    -0.267 OA
ATOM     22  N   UNL A   1      31.731  29.993  25.267  1.00  0.00    -0.256 N 
ATOM     23  N   UNL A   1      32.700  29.251  25.937  1.00  0.00    -0.217 N 
ATOM     24  O   UNL A   1      33.180  26.956  26.165  1.00  0.00    -0.267 OA
ATOM     25  H   UNL A   1      31.634  30.970  25.337  1.00  0.00     0.192 HD
BRANCH  23  26
ATOM     26  C   UNL A   1      33.737  29.823  26.697  1.00  0.00     0.068 A 
ATOM     27  C   UNL A   1      34.959  29.161  26.852  1.00  0.00     0.030 A 
ATOM     28  C   UNL A   1      33.558  31.077  27.299  1.00  0.00     0.050 A 
ATOM     29  C   UNL A   1      35.998  29.767  27.571  1.00  0.00     0.024 A 
ATOM     30  C   UNL A   1      34.575  31.659  28.060  1.00  0.00     0.061 A 
ATOM     31  C   UNL A   1      35.806  31.010  28.183  1.00  0.00     0.059 A 
ATOM     32  Cl  UNL A   1      34.237  33.166  28.835  1.00  0.00    -0.083 Cl
ATOM     33  Cl  UNL A   1      37.122  31.684  29.074  1.00  0.00    -0.083 Cl
ENDBRANCH  23  26
ENDBRANCH  12  17
ENDBRANCH   8   9
ENDBRANCH   7   8
ENDBRANCH   4   7
ENDBRANCH   2   3
ENDBRANCH   1   2
BRANCH   1  34
ATOM     34  C   UNL A   1      35.564  23.243  25.775  1.00  0.00     0.023 C 
BRANCH  34  35
ATOM     35  C   UNL A   1      37.005  23.649  26.055  1.00  0.00     0.116 C 
BRANCH  35  36
ATOM     36  N   UNL A   1      37.891  22.511  26.235  1.00  0.00    -0.352 N 
ATOM     37  C   UNL A   1      39.214  22.493  26.605  1.00  0.00     0.251 C 
ATOM     38  H   UNL A   1      37.487  21.628  26.069  1.00  0.00     0.163 HD
ATOM     39  O   UNL A   1      39.844  21.440  26.575  1.00  0.00    -0.269 OA
BRANCH  37  40
ATOM     40  C   UNL A   1      39.878  23.755  26.997  1.00  0.00     0.039 A 
ATOM     41  C   UNL A   1      40.727  23.757  28.105  1.00  0.00     0.014 A 
ATOM     42  C   UNL A   1      39.695  24.921  26.247  1.00  0.00     0.014 A 
ATOM     43  C   UNL A   1      41.450  24.910  28.417  1.00  0.00     0.010 A 
ATOM     44  C   UNL A   1      40.478  26.040  26.510  1.00  0.00     0.010 A 
ATOM     45  C   UNL A   1      41.367  26.047  27.597  1.00  0.00    -0.014 A 
BRANCH  45  46
ATOM     46  C   UNL A   1      42.192  27.256  27.860  1.00  0.00     0.031 A 
ATOM     47  C   UNL A   1      43.617  27.311  27.376  1.00  0.00     0.074 A 
ATOM     48  C   UNL A   1      41.683  28.274  28.586  1.00  0.00     0.049 A 
ATOM     49  N   UNL A   1      44.529  28.223  27.590  1.00  0.00    -0.248 NA
ATOM     50  C   UNL A   1      44.084  26.172  26.569  1.00  0.00     0.031 C 
ATOM     51  C   UNL A   1      40.326  28.326  29.133  1.00  0.00     0.029 A 
ATOM     52  N   UNL A   1      42.250  29.454  29.000  1.00  0.00    -0.354 N 
ATOM     53  C   UNL A   1      45.679  27.764  26.957  1.00  0.00     0.074 A 
ATOM     54  C   UNL A   1      45.365  26.463  26.404  1.00  0.00     0.031 C 
ATOM     55  C   UNL A   1      40.159  29.485  29.789  1.00  0.00     0.029 A 
ATOM     56  C   UNL A   1      41.410  30.235  29.764  1.00  0.00     0.049 A 
ATOM     57  H   UNL A   1      43.170  29.719  28.773  1.00  0.00     0.167 HD
ATOM     58  C   UNL A   1      46.881  28.379  26.833  1.00  0.00     0.034 A 
ATOM     59  C   UNL A   1      41.631  31.408  30.392  1.00  0.00     0.034 A 
ATOM     60  C   UNL A   1      47.174  29.681  27.379  1.00  0.00     0.049 A 
ATOM     61  C   UNL A   1      42.993  32.052  30.276  1.00  0.00     0.074 A 
ATOM     62  C   UNL A   1      48.340  30.418  27.266  1.00  0.00     0.029 A 
ATOM     63  N   UNL A   1      46.301  30.438  28.150  1.00  0.00    -0.354 N 
ATOM     64  N   UNL A   1      44.056  31.624  29.633  1.00  0.00    -0.248 NA
ATOM     65  C   UNL A   1      43.183  33.338  30.959  1.00  0.00     0.031 C 
ATOM     66  C   UNL A   1      48.203  31.576  28.034  1.00  0.00     0.029 A 
ATOM     67  C   UNL A   1      46.918  31.614  28.549  1.00  0.00     0.049 A 
ATOM     68  H   UNL A   1      45.380  30.177  28.380  1.00  0.00     0.167 HD
ATOM     69  C   UNL A   1      45.024  32.611  29.801  1.00  0.00     0.074 A 
ATOM     70  C   UNL A   1      44.416  33.659  30.595  1.00  0.00     0.031 C 
ATOM     71  C   UNL A   1      46.299  32.653  29.337  1.00  0.00     0.034 A 
BRANCH  58  72
ATOM     72  C   UNL A   1      47.977  27.641  26.102  1.00  0.00     0.023 A 
ATOM     73  C   UNL A   1      48.940  26.878  26.785  1.00  0.00     0.031 A 
ATOM     74  C   UNL A   1      48.057  27.698  24.699  1.00  0.00     0.131 A 
ATOM     75  C   UNL A   1      49.974  26.255  26.071  1.00  0.00     0.055 A 
ATOM     76  C   UNL A   1      49.040  27.007  23.989  1.00  0.00     0.041 A 
ATOM     77  F   UNL A   1      47.180  28.431  23.994  1.00  0.00    -0.206 F 
ATOM     78  C   UNL A   1      50.015  26.290  24.676  1.00  0.00     0.022 A 
BRANCH  75  79
ATOM     79  S   UNL A   1      51.341  25.508  27.001  1.00  0.00     0.124 S 
ATOM     80  O   UNL A   1      50.623  24.730  28.006  1.00  0.00    -0.237 OA
ATOM     81  O   UNL A   1      52.037  24.740  25.975  1.00  0.00    -0.237 OA
ATOM     82  O   UNL A   1      52.073  26.661  27.521  1.00  0.00    -0.744 OA
ENDBRANCH  75  79
ENDBRANCH  58  72
BRANCH  59  83
ATOM     83  C   UNL A   1      40.560  32.050  31.213  1.00  0.00     0.023 A 
ATOM     84  C   UNL A   1      40.217  31.546  32.479  1.00  0.00     0.031 A 
ATOM     85  C   UNL A   1      39.809  33.129  30.713  1.00  0.00     0.131 A 
ATOM     86  C   UNL A   1      39.115  32.075  33.169  1.00  0.00     0.055 A 
ATOM     87  C   UNL A   1      38.759  33.698  31.435  1.00  0.00     0.041 A 
ATOM     88  F   UNL A   1      40.089  33.652  29.508  1.00  0.00    -0.206 F 
ATOM     89  C   UNL A   1      38.394  33.158  32.664  1.00  0.00     0.022 A 
BRANCH  86  90
ATOM     90  S   UNL A   1      38.557  31.240  34.680  1.00  0.00     0.124 S 
ATOM     91  O   UNL A   1      39.590  31.633  35.632  1.00  0.00    -0.237 OA
ATOM     92  O   UNL A   1      37.238  31.831  34.883  1.00  0.00    -0.237 OA
ATOM     93  O   UNL A   1      38.556  29.827  34.307  1.00  0.00    -0.744 OA
ENDBRANCH  86  90
ENDBRANCH  59  83
BRANCH  71  94
ATOM     94  C   UNL A   1      47.101  33.901  29.617  1.00  0.00     0.023 A 
ATOM     95  C   UNL A   1      47.103  35.001  28.742  1.00  0.00     0.031 A 
ATOM     96  C   UNL A   1      47.872  33.990  30.792  1.00  0.00     0.131 A 
ATOM     97  C   UNL A   1      47.900  36.120  29.029  1.00  0.00     0.055 A 
ATOM     98  C   UNL A   1      48.608  35.133  31.106  1.00  0.00     0.041 A 
ATOM     99  F   UNL A   1      47.912  32.968  31.662  1.00  0.00    -0.206 F 
ATOM    100  C   UNL A   1      48.634  36.202  30.216  1.00  0.00     0.022 A 
BRANCH  97 101
ATOM    101  S   UNL A   1      48.037  37.435  27.787  1.00  0.00     0.124 S 
ATOM    102  O   UNL A   1      49.099  36.927  26.925  1.00  0.00    -0.237 OA
ATOM    103  O   UNL A   1      46.698  37.456  27.205  1.00  0.00    -0.237 OA
ATOM    104  O   UNL A   1      48.388  38.615  28.574  1.00  0.00    -0.744 OA
ENDBRANCH  97 101
ENDBRANCH  71  94
ENDBRANCH  45  46
ENDBRANCH  37  40
ENDBRANCH  35  36
ENDBRANCH  34  35
ENDBRANCH   1  34
TORSDOF 19
ENDMDL
MODEL 3
REMARK VINA RESULT:     -12.2      2.213      2.926
REMARK SMILES COc1cc(/C=C2/C(=O)NN(c3ccc(Cl)c(Cl)c3)C2=O)ccc1OCC(=O)NCCCCNC(=O)c1ccc(-c2c3nc(c(-c4cc(S(=O)(=O)[O-])ccc4F)c4ccc([nH]4)c(-c4cc(S(=O)(=O)[O-])ccc4F)c4nc(c(-c5cc(S(=O)(=O)[O-])ccc5F)c5ccc2[nH]5)C=C4)C=C3)cc1
REMARK SMILES IDX 31 1 30 2 29 3 27 4 28 5 26 7 25 8 24 9 3 10 4 11 5 12 23 13
REMARK SMILES IDX 22 14 2 15 1 16 6 17 7 18 8 19 20 20 9 21 10 22 11 23 21 24
REMARK SMILES IDX 12 26 13 27 19 28 14 29 17 30 15 31 18 32 16 33 32 34 33 35
REMARK SMILES IDX 34 36 35 37 36 39 37 40 38 41 99 42 39 43 98 44 40 45 41 46
REMARK SMILES IDX 42 47 92 48 43 49 97 50 91 51 93 52 44 53 96 54 90 55 89 56
REMARK SMILES IDX 45 58 77 59 57 60 76 61 58 62 61 63 75 64 94 65 59 66 60 67
REMARK SMILES IDX 74 69 95 70 62 71 46 72 47 73 55 74 48 75 54 76 56 77 53 78
REMARK SMILES IDX 49 79 50 80 51 81 52 82 78 83 79 84 87 85 80 86 86 87 88 88
REMARK SMILES IDX 85 89 81 90 82 91 83 92 84 93 63 94 64 95 72 96 65 97 71 98
REMARK SMILES IDX 73 99 70 100 66 101 67 102 68 103 69 104
REMARK H PARENT 29 6 10 25 34 38 93 57 61 68
REMARK Flexibility Score: inf
ROOT
ATOM      1  C   UNL A   1      35.379  21.405  26.095  1.00  0.00     0.023 C 
ENDROOT
BRANCH   1   2
ATOM      2  C   UNL A   1      35.189  20.404  24.959  1.00  0.00     0.116 C 
BRANCH   2   3
ATOM      3  N   UNL A   1      34.316  19.303  25.308  1.00  0.00    -0.353 N 
ATOM      4  C   UNL A   1      32.952  19.258  25.252  1.00  0.00     0.257 C 
ATOM      5  O   UNL A   1      32.408  18.154  25.319  1.00  0.00    -0.271 OA
ATOM      6  H   UNL A   1      34.762  18.484  25.626  1.00  0.00     0.163 HD
BRANCH   4   7
ATOM      7  C   UNL A   1      32.150  20.547  25.029  1.00  0.00     0.329 C 
BRANCH   7   8
ATOM      8  O   UNL A   1      32.412  21.287  23.853  1.00  0.00    -0.480 OA
BRANCH   8   9
ATOM      9  C   UNL A   1      32.051  22.600  23.764  1.00  0.00     0.161 A 
ATOM     10  C   UNL A   1      31.133  23.312  24.544  1.00  0.00     0.161 A 
ATOM     11  C   UNL A   1      30.814  24.643  24.222  1.00  0.00     0.058 A 
ATOM     12  C   UNL A   1      31.406  25.264  23.115  1.00  0.00    -0.021 A 
ATOM     13  C   UNL A   1      32.668  23.251  22.688  1.00  0.00     0.051 A 
ATOM     14  C   UNL A   1      32.366  24.572  22.371  1.00  0.00     0.012 A 
BRANCH  10  15
ATOM     15  O   UNL A   1      30.386  22.671  25.496  1.00  0.00    -0.493 OA
ATOM     16  C   UNL A   1      30.288  23.411  26.713  1.00  0.00     0.278 C 
ENDBRANCH  10  15
BRANCH  12  17
ATOM     17  C   UNL A   1      30.895  26.534  22.588  1.00  0.00     0.028 C 
ATOM     18  C   UNL A   1      31.156  27.696  23.209  1.00  0.00     0.109 C 
ATOM     19  C   UNL A   1      30.551  28.995  22.836  1.00  0.00     0.275 C 
ATOM     20  C   UNL A   1      32.027  27.920  24.395  1.00  0.00     0.282 C 
ATOM     21  O   UNL A   1      29.863  29.246  21.862  1.00  0.00    -0.267 OA
ATOM     22  N   UNL A   1      30.946  29.869  23.829  1.00  0.00    -0.256 N 
ATOM     23  N   UNL A   1      31.845  29.269  24.708  1.00  0.00    -0.217 N 
ATOM     24  O   UNL A   1      32.720  27.098  24.970  1.00  0.00    -0.267 OA
ATOM     25  H   UNL A   1      30.632  30.799  23.907  1.00  0.00     0.192 HD
BRANCH  23  26
ATOM     26  C   UNL A   1      32.509  29.957  25.739  1.00  0.00     0.068 A 
ATOM     27  C   UNL A   1      31.954  31.110  26.303  1.00  0.00     0.030 A 
ATOM     28  C   UNL A   1      33.736  29.482  26.225  1.00  0.00     0.050 A 
ATOM     29  C   UNL A   1      32.605  31.755  27.363  1.00  0.00     0.024 A 
ATOM     30  C   UNL A   1      34.412  30.154  27.247  1.00  0.00     0.061 A 
ATOM     31  C   UNL A   1      33.837  31.285  27.830  1.00  0.00     0.059 A 
ATOM     32  Cl  UNL A   1      35.958  29.546  27.723  1.00  0.00    -0.083 Cl
ATOM     33  Cl  UNL A   1      34.592  32.146  29.121  1.00  0.00    -0.083 Cl
ENDBRANCH  23  26
ENDBRANCH  12  17
ENDBRANCH   8   9
ENDBRANCH   7   8
ENDBRANCH   4   7
ENDBRANCH   2   3
ENDBRANCH   1   2
BRANCH   1  34
ATOM     34  C   UNL A   1      35.890  22.785  25.681  1.00  0.00     0.023 C 
BRANCH  34  35
ATOM     35  C   UNL A   1      37.361  22.851  25.291  1.00  0.00     0.116 C 
BRANCH  35  36
ATOM     36  N   UNL A   1      38.161  21.808  25.914  1.00  0.00    -0.352 N 
ATOM     37  C   UNL A   1      39.315  21.925  26.649  1.00  0.00     0.251 C 
ATOM     38  H   UNL A   1      37.828  20.889  25.792  1.00  0.00     0.163 HD
ATOM     39  O   UNL A   1      39.931  20.918  26.985  1.00  0.00    -0.269 OA
BRANCH  37  40
ATOM     40  C   UNL A   1      39.828  23.268  26.992  1.00  0.00     0.039 A 
ATOM     41  C   UNL A   1      40.767  23.392  28.018  1.00  0.00     0.014 A 
ATOM     42  C   UNL A   1      39.414  24.395  26.276  1.00  0.00     0.014 A 
ATOM     43  C   UNL A   1      41.346  24.636  28.275  1.00  0.00     0.010 A 
ATOM     44  C   UNL A   1      40.052  25.614  26.479  1.00  0.00     0.010 A 
ATOM     45  C   UNL A   1      41.028  25.749  27.480  1.00  0.00    -0.014 A 
BRANCH  45  46
ATOM     46  C   UNL A   1      41.695  27.063  27.679  1.00  0.00     0.031 A 
ATOM     47  C   UNL A   1      43.075  27.295  27.123  1.00  0.00     0.074 A 
ATOM     48  C   UNL A   1      41.090  28.021  28.413  1.00  0.00     0.049 A 
ATOM     49  N   UNL A   1      43.866  28.325  27.274  1.00  0.00    -0.248 NA
ATOM     50  C   UNL A   1      43.650  26.210  26.312  1.00  0.00     0.031 C 
ATOM     51  C   UNL A   1      39.767  27.904  29.029  1.00  0.00     0.029 A 
ATOM     52  N   UNL A   1      41.513  29.275  28.778  1.00  0.00    -0.354 N 
ATOM     53  C   UNL A   1      45.035  28.009  26.591  1.00  0.00     0.074 A 
ATOM     54  C   UNL A   1      44.872  26.666  26.077  1.00  0.00     0.031 C 
ATOM     55  C   UNL A   1      39.477  29.046  29.672  1.00  0.00     0.029 A 
ATOM     56  C   UNL A   1      40.614  29.955  29.571  1.00  0.00     0.049 A 
ATOM     57  H   UNL A   1      42.377  29.655  28.500  1.00  0.00     0.167 HD
ATOM     58  C   UNL A   1      46.136  28.776  26.395  1.00  0.00     0.034 A 
ATOM     59  C   UNL A   1      40.705  31.162  30.167  1.00  0.00     0.034 A 
ATOM     60  C   UNL A   1      46.278  30.118  26.904  1.00  0.00     0.049 A 
ATOM     61  C   UNL A   1      41.961  31.978  29.970  1.00  0.00     0.074 A 
ATOM     62  C   UNL A   1      47.327  31.000  26.718  1.00  0.00     0.029 A 
ATOM     63  N   UNL A   1      45.350  30.769  27.705  1.00  0.00    -0.354 N 
ATOM     64  N   UNL A   1      43.040  31.680  29.281  1.00  0.00    -0.248 NA
ATOM     65  C   UNL A   1      42.010  33.294  30.621  1.00  0.00     0.031 C 
ATOM     66  C   UNL A   1      47.074  32.148  27.473  1.00  0.00     0.029 A 
ATOM     67  C   UNL A   1      45.821  32.026  28.053  1.00  0.00     0.049 A 
ATOM     68  H   UNL A   1      44.484  30.394  27.987  1.00  0.00     0.167 HD
ATOM     69  C   UNL A   1      43.874  32.792  29.383  1.00  0.00     0.074 A 
ATOM     70  C   UNL A   1      43.170  33.767  30.189  1.00  0.00     0.031 C 
ATOM     71  C   UNL A   1      45.108  32.992  28.854  1.00  0.00     0.034 A 
BRANCH  58  72
ATOM     72  C   UNL A   1      47.284  28.173  25.622  1.00  0.00     0.023 A 
ATOM     73  C   UNL A   1      47.408  28.335  24.231  1.00  0.00     0.031 A 
ATOM     74  C   UNL A   1      48.274  27.428  26.288  1.00  0.00     0.131 A 
ATOM     75  C   UNL A   1      48.459  27.710  23.545  1.00  0.00     0.055 A 
ATOM     76  C   UNL A   1      49.363  26.878  25.610  1.00  0.00     0.041 A 
ATOM     77  F   UNL A   1      48.196  27.218  27.612  1.00  0.00    -0.206 F 
ATOM     78  C   UNL A   1      49.454  27.007  24.228  1.00  0.00     0.022 A 
BRANCH  75  79
ATOM     79  S   UNL A   1      48.436  27.718  21.731  1.00  0.00     0.124 S 
ATOM     80  O   UNL A   1      48.663  26.307  21.428  1.00  0.00    -0.237 OA
ATOM     81  O   UNL A   1      47.102  28.228  21.435  1.00  0.00    -0.237 OA
ATOM     82  O   UNL A   1      49.538  28.609  21.377  1.00  0.00    -0.744 OA
ENDBRANCH  75  79
ENDBRANCH  58  72
BRANCH  59  83
ATOM     83  C   UNL A   1      39.599  31.674  31.031  1.00  0.00     0.023 A 
ATOM     84  C   UNL A   1      39.611  31.471  32.421  1.00  0.00     0.031 A 
ATOM     85  C   UNL A   1      38.474  32.307  30.471  1.00  0.00     0.131 A 
ATOM     86  C   UNL A   1      38.496  31.835  33.192  1.00  0.00     0.055 A 
ATOM     87  C   UNL A   1      37.398  32.731  31.253  1.00  0.00     0.041 A 
ATOM     88  F   UNL A   1      38.405  32.526  29.148  1.00  0.00    -0.206 F 
ATOM     89  C   UNL A   1      37.396  32.478  32.621  1.00  0.00     0.022 A 
BRANCH  86  90
ATOM     90  S   UNL A   1      38.449  31.335  34.936  1.00  0.00     0.124 S 
ATOM     91  O   UNL A   1      37.316  32.108  35.432  1.00  0.00    -0.237 OA
ATOM     92  O   UNL A   1      38.247  29.894  34.833  1.00  0.00    -0.237 OA
ATOM     93  O   UNL A   1      39.756  31.746  35.442  1.00  0.00    -0.744 OA
ENDBRANCH  86  90
ENDBRANCH  59  83
BRANCH  71  94
ATOM     94  C   UNL A   1      45.747  34.342  29.072  1.00  0.00     0.023 A 
ATOM     95  C   UNL A   1      45.512  35.429  28.212  1.00  0.00     0.031 A 
ATOM     96  C   UNL A   1      46.605  34.542  30.170  1.00  0.00     0.131 A 
ATOM     97  C   UNL A   1      46.165  36.650  28.436  1.00  0.00     0.055 A 
ATOM     98  C   UNL A   1      47.197  35.779  30.426  1.00  0.00     0.041 A 
ATOM     99  F   UNL A   1      46.871  33.539  31.021  1.00  0.00    -0.206 F 
ATOM    100  C   UNL A   1      46.988  36.839  29.549  1.00  0.00     0.022 A 
BRANCH  97 101
ATOM    101  S   UNL A   1      45.998  37.968  27.200  1.00  0.00     0.124 S 
ATOM    102  O   UNL A   1      46.530  39.123  27.915  1.00  0.00    -0.237 OA
ATOM    103  O   UNL A   1      46.813  37.468  26.098  1.00  0.00    -0.237 OA
ATOM    104  O   UNL A   1      44.561  38.010  26.937  1.00  0.00    -0.744 OA
ENDBRANCH  97 101
ENDBRANCH  71  94
ENDBRANCH  45  46
ENDBRANCH  37  40
ENDBRANCH  35  36
ENDBRANCH  34  35
ENDBRANCH   1  34
TORSDOF 19
ENDMDL
