MODEL 1
REMARK VINA RESULT:     -12.2      0.000      0.000
REMARK SMILES Cc1csc2nc(C(=O)NCCCCNC(=O)c3ccc(-c4c5nc(c(-c6cc(S(=O)(=O)[O-])ccc6F)c6ccc([nH]6)c(-c6cc(S(=O)(=O)[O-])ccc6F)c6nc(c(-c7cc(S(=O)(=O)[O-])ccc7F)c7ccc4[nH]7)C=C6)C=C5)cc3)cn12
REMARK SMILES IDX 14 1 13 2 12 3 11 4 10 5 8 6 9 7 7 9 1 10 2 11 3 12 82 13
REMARK SMILES IDX 4 14 5 15 81 16 6 17 15 18 16 19 17 21 18 22 19 23 80 24
REMARK SMILES IDX 20 25 79 26 21 27 22 28 23 29 73 30 24 31 78 32 72 33 74 34
REMARK SMILES IDX 25 35 77 36 71 37 70 38 26 40 58 41 38 42 57 43 39 44 42 45
REMARK SMILES IDX 56 46 75 47 40 48 41 49 55 51 76 52 43 53 27 54 28 55 36 56
REMARK SMILES IDX 29 57 35 58 37 59 34 60 30 61 31 62 32 63 33 64 59 65 60 66
REMARK SMILES IDX 68 67 61 68 67 69 69 70 66 71 62 72 63 73 64 74 65 75 44 76
REMARK SMILES IDX 45 77 53 78 46 79 52 80 54 81 51 82 47 83 48 84 49 85 50 86
REMARK H PARENT 10 8 15 20 74 39 42 50
REMARK Flexibility Score: inf
ROOT
ATOM      1  C   UNL A   1      35.367  29.321  27.388  1.00  0.00     0.116 C 
ENDROOT
BRANCH   1   2
ATOM      2  C   UNL A   1      33.995  28.742  27.056  1.00  0.00     0.023 C 
BRANCH   2   3
ATOM      3  C   UNL A   1      33.710  28.532  25.558  1.00  0.00     0.023 C 
BRANCH   3   4
ATOM      4  C   UNL A   1      33.584  27.075  25.100  1.00  0.00     0.116 C 
BRANCH   4   5
ATOM      5  N   UNL A   1      33.678  26.934  23.656  1.00  0.00    -0.351 N 
ATOM      6  C   UNL A   1      33.734  25.806  22.870  1.00  0.00     0.271 C 
ATOM      7  O   UNL A   1      33.766  25.957  21.647  1.00  0.00    -0.267 OA
ATOM      8  H   UNL A   1      33.706  27.784  23.160  1.00  0.00     0.163 HD
BRANCH   6   9
ATOM      9  C   UNL A   1      33.749  24.464  23.471  1.00  0.00     0.148 A 
ATOM     10  C   UNL A   1      36.472  21.131  24.860  1.00  0.00     0.066 C 
ATOM     11  C   UNL A   1      35.010  21.363  24.736  1.00  0.00     0.032 A 
ATOM     12  C   UNL A   1      34.039  20.504  25.109  1.00  0.00     0.090 A 
ATOM     13  N   UNL A   1      34.466  22.542  24.252  1.00  0.00    -0.294 N 
ATOM     14  S   UNL A   1      32.405  21.139  24.872  1.00  0.00    -0.105 S 
ATOM     15  C   UNL A   1      33.106  22.604  24.266  1.00  0.00     0.194 A 
ATOM     16  C   UNL A   1      34.906  23.729  23.748  1.00  0.00     0.128 A 
ATOM     17  N   UNL A   1      32.623  23.740  23.856  1.00  0.00    -0.214 NA
ENDBRANCH   6   9
ENDBRANCH   4   5
ENDBRANCH   3   4
ENDBRANCH   2   3
ENDBRANCH   1   2
BRANCH   1  18
ATOM     18  N   UNL A   1      35.487  29.812  28.767  1.00  0.00    -0.352 N 
ATOM     19  C   UNL A   1      36.435  29.472  29.729  1.00  0.00     0.251 C 
ATOM     20  H   UNL A   1      34.808  30.467  29.048  1.00  0.00     0.163 HD
ATOM     21  O   UNL A   1      36.190  29.591  30.918  1.00  0.00    -0.269 OA
BRANCH  19  22
ATOM     22  C   UNL A   1      37.754  28.985  29.272  1.00  0.00     0.039 A 
ATOM     23  C   UNL A   1      38.401  29.456  28.125  1.00  0.00     0.014 A 
ATOM     24  C   UNL A   1      38.360  28.031  30.075  1.00  0.00     0.014 A 
ATOM     25  C   UNL A   1      39.690  28.992  27.847  1.00  0.00     0.010 A 
ATOM     26  C   UNL A   1      39.696  27.796  29.956  1.00  0.00     0.010 A 
ATOM     27  C   UNL A   1      40.330  28.162  28.782  1.00  0.00    -0.014 A 
BRANCH  27  28
ATOM     28  C   UNL A   1      41.710  27.716  28.655  1.00  0.00     0.031 A 
ATOM     29  C   UNL A   1      41.859  26.476  27.861  1.00  0.00     0.074 A 
ATOM     30  C   UNL A   1      42.758  28.522  28.956  1.00  0.00     0.049 A 
ATOM     31  N   UNL A   1      42.130  25.296  28.304  1.00  0.00    -0.248 NA
ATOM     32  C   UNL A   1      41.451  26.493  26.444  1.00  0.00     0.031 C 
ATOM     33  C   UNL A   1      42.731  29.911  29.433  1.00  0.00     0.029 A 
ATOM     34  N   UNL A   1      44.087  28.310  28.774  1.00  0.00    -0.354 N 
ATOM     35  C   UNL A   1      42.227  24.489  27.178  1.00  0.00     0.074 A 
ATOM     36  C   UNL A   1      41.529  25.196  26.139  1.00  0.00     0.031 C 
ATOM     37  C   UNL A   1      43.947  30.477  29.258  1.00  0.00     0.029 A 
ATOM     38  C   UNL A   1      44.877  29.460  28.798  1.00  0.00     0.049 A 
ATOM     39  H   UNL A   1      44.465  27.412  28.635  1.00  0.00     0.167 HD
ATOM     40  C   UNL A   1      43.129  23.469  27.127  1.00  0.00     0.034 A 
ATOM     41  C   UNL A   1      46.184  29.569  28.420  1.00  0.00     0.034 A 
ATOM     42  C   UNL A   1      43.680  23.213  28.446  1.00  0.00     0.049 A 
ATOM     43  C   UNL A   1      46.747  28.191  28.485  1.00  0.00     0.074 A 
ATOM     44  C   UNL A   1      43.124  22.935  29.682  1.00  0.00     0.029 A 
ATOM     45  N   UNL A   1      44.958  23.662  28.713  1.00  0.00    -0.354 N 
ATOM     46  N   UNL A   1      46.855  27.519  29.602  1.00  0.00    -0.248 NA
ATOM     47  C   UNL A   1      46.667  27.371  27.282  1.00  0.00     0.031 C 
ATOM     48  C   UNL A   1      43.868  23.734  30.600  1.00  0.00     0.029 A 
ATOM     49  C   UNL A   1      44.913  24.347  29.904  1.00  0.00     0.049 A 
ATOM     50  H   UNL A   1      45.755  23.519  28.152  1.00  0.00     0.167 HD
ATOM     51  C   UNL A   1      46.406  26.241  29.302  1.00  0.00     0.074 A 
ATOM     52  C   UNL A   1      46.385  26.186  27.837  1.00  0.00     0.031 C 
ATOM     53  C   UNL A   1      45.793  25.455  30.239  1.00  0.00     0.034 A 
BRANCH  40  54
ATOM     54  C   UNL A   1      43.815  22.966  25.872  1.00  0.00     0.023 A 
ATOM     55  C   UNL A   1      43.864  21.571  25.699  1.00  0.00     0.031 A 
ATOM     56  C   UNL A   1      44.642  23.717  25.006  1.00  0.00     0.131 A 
ATOM     57  C   UNL A   1      44.782  20.981  24.815  1.00  0.00     0.055 A 
ATOM     58  C   UNL A   1      45.502  23.128  24.075  1.00  0.00     0.041 A 
ATOM     59  F   UNL A   1      44.741  25.049  25.059  1.00  0.00    -0.206 F 
ATOM     60  C   UNL A   1      45.606  21.751  24.002  1.00  0.00     0.022 A 
BRANCH  57  61
ATOM     61  S   UNL A   1      45.009  19.188  24.896  1.00  0.00     0.124 S 
ATOM     62  O   UNL A   1      44.981  18.828  23.483  1.00  0.00    -0.237 OA
ATOM     63  O   UNL A   1      46.303  19.080  25.562  1.00  0.00    -0.237 OA
ATOM     64  O   UNL A   1      43.864  18.737  25.681  1.00  0.00    -0.744 OA
ENDBRANCH  57  61
ENDBRANCH  40  54
BRANCH  41  65
ATOM     65  C   UNL A   1      46.829  30.708  27.684  1.00  0.00     0.023 A 
ATOM     66  C   UNL A   1      46.102  31.713  26.998  1.00  0.00     0.031 A 
ATOM     67  C   UNL A   1      48.213  30.952  27.851  1.00  0.00     0.131 A 
ATOM     68  C   UNL A   1      46.760  32.879  26.519  1.00  0.00     0.055 A 
ATOM     69  C   UNL A   1      48.853  32.100  27.378  1.00  0.00     0.041 A 
ATOM     70  F   UNL A   1      48.987  30.118  28.562  1.00  0.00    -0.206 F 
ATOM     71  C   UNL A   1      48.128  33.075  26.718  1.00  0.00     0.022 A 
BRANCH  68  72
ATOM     72  S   UNL A   1      45.832  34.225  25.701  1.00  0.00     0.124 S 
ATOM     73  O   UNL A   1      46.866  34.876  24.904  1.00  0.00    -0.237 OA
ATOM     74  O   UNL A   1      44.803  33.500  24.964  1.00  0.00    -0.237 OA
ATOM     75  O   UNL A   1      45.328  35.024  26.820  1.00  0.00    -0.744 OA
ENDBRANCH  68  72
ENDBRANCH  41  65
BRANCH  53  76
ATOM     76  C   UNL A   1      45.851  25.860  31.704  1.00  0.00     0.023 A 
ATOM     77  C   UNL A   1      44.747  26.263  32.493  1.00  0.00     0.031 A 
ATOM     78  C   UNL A   1      47.084  25.689  32.361  1.00  0.00     0.131 A 
ATOM     79  C   UNL A   1      44.911  26.488  33.877  1.00  0.00     0.055 A 
ATOM     80  C   UNL A   1      47.235  25.884  33.733  1.00  0.00     0.041 A 
ATOM     81  F   UNL A   1      48.170  25.288  31.678  1.00  0.00    -0.206 F 
ATOM     82  C   UNL A   1      46.149  26.290  34.496  1.00  0.00     0.022 A 
BRANCH  79  83
ATOM     83  S   UNL A   1      43.525  27.073  34.908  1.00  0.00     0.124 S 
ATOM     84  O   UNL A   1      43.117  25.881  35.642  1.00  0.00    -0.237 OA
ATOM     85  O   UNL A   1      44.144  28.132  35.699  1.00  0.00    -0.237 OA
ATOM     86  O   UNL A   1      42.547  27.544  33.924  1.00  0.00    -0.744 OA
ENDBRANCH  79  83
ENDBRANCH  53  76
ENDBRANCH  27  28
ENDBRANCH  19  22
ENDBRANCH   1  18
TORSDOF 14
ENDMDL
MODEL 2
REMARK VINA RESULT:     -12.1      4.615      6.025
REMARK SMILES Cc1csc2nc(C(=O)NCCCCNC(=O)c3ccc(-c4c5nc(c(-c6cc(S(=O)(=O)[O-])ccc6F)c6ccc([nH]6)c(-c6cc(S(=O)(=O)[O-])ccc6F)c6nc(c(-c7cc(S(=O)(=O)[O-])ccc7F)c7ccc4[nH]7)C=C6)C=C5)cc3)cn12
REMARK SMILES IDX 14 1 13 2 12 3 11 4 10 5 8 6 9 7 7 9 1 10 2 11 3 12 82 13
REMARK SMILES IDX 4 14 5 15 81 16 6 17 15 18 16 19 17 21 18 22 19 23 80 24
REMARK SMILES IDX 20 25 79 26 21 27 22 28 23 29 73 30 24 31 78 32 72 33 74 34
REMARK SMILES IDX 25 35 77 36 71 37 70 38 26 40 58 41 38 42 57 43 39 44 42 45
REMARK SMILES IDX 56 46 75 47 40 48 41 49 55 51 76 52 43 53 27 54 28 55 36 56
REMARK SMILES IDX 29 57 35 58 37 59 34 60 30 61 31 62 32 63 33 64 59 65 60 66
REMARK SMILES IDX 68 67 61 68 67 69 69 70 66 71 62 72 63 73 64 74 65 75 44 76
REMARK SMILES IDX 45 77 53 78 46 79 52 80 54 81 51 82 47 83 48 84 49 85 50 86
REMARK H PARENT 10 8 15 20 74 39 42 50
REMARK Flexibility Score: inf
ROOT
ATOM      1  C   UNL A   1      32.593  32.236  27.027  1.00  0.00     0.116 C 
ENDROOT
BRANCH   1   2
ATOM      2  C   UNL A   1      31.330  31.616  26.436  1.00  0.00     0.023 C 
BRANCH   2   3
ATOM      3  C   UNL A   1      31.519  30.248  25.756  1.00  0.00     0.023 C 
BRANCH   3   4
ATOM      4  C   UNL A   1      32.942  29.678  25.787  1.00  0.00     0.116 C 
BRANCH   4   5
ATOM      5  N   UNL A   1      33.541  29.603  24.464  1.00  0.00    -0.351 N 
ATOM      6  C   UNL A   1      33.773  28.518  23.649  1.00  0.00     0.271 C 
ATOM      7  O   UNL A   1      34.262  28.728  22.537  1.00  0.00    -0.267 OA
ATOM      8  H   UNL A   1      33.826  30.468  24.091  1.00  0.00     0.163 HD
BRANCH   6   9
ATOM      9  C   UNL A   1      33.443  27.154  24.090  1.00  0.00     0.148 A 
ATOM     10  C   UNL A   1      30.697  23.645  23.317  1.00  0.00     0.066 C 
ATOM     11  C   UNL A   1      31.761  24.002  24.291  1.00  0.00     0.032 A 
ATOM     12  C   UNL A   1      32.227  23.210  25.278  1.00  0.00     0.090 A 
ATOM     13  N   UNL A   1      32.443  25.208  24.262  1.00  0.00    -0.294 N 
ATOM     14  S   UNL A   1      33.542  23.941  26.208  1.00  0.00    -0.105 S 
ATOM     15  C   UNL A   1      33.429  25.341  25.192  1.00  0.00     0.194 A 
ATOM     16  C   UNL A   1      32.434  26.360  23.536  1.00  0.00     0.128 A 
ATOM     17  N   UNL A   1      34.088  26.458  25.110  1.00  0.00    -0.214 NA
ENDBRANCH   6   9
ENDBRANCH   4   5
ENDBRANCH   3   4
ENDBRANCH   2   3
ENDBRANCH   1   2
BRANCH   1  18
ATOM     18  N   UNL A   1      32.451  33.656  27.374  1.00  0.00    -0.352 N 
ATOM     19  C   UNL A   1      33.040  34.355  28.425  1.00  0.00     0.251 C 
ATOM     20  H   UNL A   1      31.861  34.182  26.787  1.00  0.00     0.163 HD
ATOM     21  O   UNL A   1      32.529  35.371  28.865  1.00  0.00    -0.269 OA
BRANCH  19  22
ATOM     22  C   UNL A   1      34.313  33.846  28.979  1.00  0.00     0.039 A 
ATOM     23  C   UNL A   1      34.405  33.101  30.159  1.00  0.00     0.014 A 
ATOM     24  C   UNL A   1      35.450  34.120  28.234  1.00  0.00     0.014 A 
ATOM     25  C   UNL A   1      35.651  32.590  30.530  1.00  0.00     0.010 A 
ATOM     26  C   UNL A   1      36.588  33.402  28.447  1.00  0.00     0.010 A 
ATOM     27  C   UNL A   1      36.738  32.744  29.655  1.00  0.00    -0.014 A 
BRANCH  27  28
ATOM     28  C   UNL A   1      38.049  32.153  29.882  1.00  0.00     0.031 A 
ATOM     29  C   UNL A   1      38.157  30.756  29.404  1.00  0.00     0.074 A 
ATOM     30  C   UNL A   1      39.132  32.904  30.201  1.00  0.00     0.049 A 
ATOM     31  N   UNL A   1      38.195  29.688  30.124  1.00  0.00    -0.248 NA
ATOM     32  C   UNL A   1      37.989  30.490  27.964  1.00  0.00     0.031 C 
ATOM     33  C   UNL A   1      39.214  34.361  30.366  1.00  0.00     0.029 A 
ATOM     34  N   UNL A   1      40.433  32.532  30.317  1.00  0.00    -0.354 N 
ATOM     35  C   UNL A   1      38.363  28.641  29.227  1.00  0.00     0.074 A 
ATOM     36  C   UNL A   1      37.942  29.156  27.953  1.00  0.00     0.031 C 
ATOM     37  C   UNL A   1      40.506  34.755  30.308  1.00  0.00     0.029 A 
ATOM     38  C   UNL A   1      41.355  33.577  30.249  1.00  0.00     0.049 A 
ATOM     39  H   UNL A   1      40.706  31.594  30.439  1.00  0.00     0.167 HD
ATOM     40  C   UNL A   1      39.119  27.556  29.557  1.00  0.00     0.034 A 
ATOM     41  C   UNL A   1      42.708  33.474  30.106  1.00  0.00     0.034 A 
ATOM     42  C   UNL A   1      39.411  27.554  30.979  1.00  0.00     0.049 A 
ATOM     43  C   UNL A   1      43.065  32.100  30.559  1.00  0.00     0.074 A 
ATOM     44  C   UNL A   1      38.631  27.618  32.120  1.00  0.00     0.029 A 
ATOM     45  N   UNL A   1      40.677  27.931  31.381  1.00  0.00    -0.354 N 
ATOM     46  N   UNL A   1      42.902  31.692  31.790  1.00  0.00    -0.248 NA
ATOM     47  C   UNL A   1      43.072  31.040  29.558  1.00  0.00     0.031 C 
ATOM     48  C   UNL A   1      39.318  28.530  32.976  1.00  0.00     0.029 A 
ATOM     49  C   UNL A   1      40.534  28.868  32.375  1.00  0.00     0.049 A 
ATOM     50  H   UNL A   1      41.528  27.590  31.020  1.00  0.00     0.167 HD
ATOM     51  C   UNL A   1      42.342  30.427  31.682  1.00  0.00     0.074 A 
ATOM     52  C   UNL A   1      42.549  30.043  30.283  1.00  0.00     0.031 C 
ATOM     53  C   UNL A   1      41.487  29.936  32.632  1.00  0.00     0.034 A 
BRANCH  40  54
ATOM     54  C   UNL A   1      39.924  26.719  28.583  1.00  0.00     0.023 A 
ATOM     55  C   UNL A   1      41.038  27.342  27.991  1.00  0.00     0.031 A 
ATOM     56  C   UNL A   1      39.531  25.493  27.999  1.00  0.00     0.131 A 
ATOM     57  C   UNL A   1      41.616  26.833  26.817  1.00  0.00     0.055 A 
ATOM     58  C   UNL A   1      40.156  24.952  26.873  1.00  0.00     0.041 A 
ATOM     59  F   UNL A   1      38.474  24.789  28.417  1.00  0.00    -0.206 F 
ATOM     60  C   UNL A   1      41.180  25.641  26.250  1.00  0.00     0.022 A 
BRANCH  57  61
ATOM     61  S   UNL A   1      42.817  27.865  25.943  1.00  0.00     0.124 S 
ATOM     62  O   UNL A   1      42.294  27.831  24.581  1.00  0.00    -0.237 OA
ATOM     63  O   UNL A   1      42.692  29.135  26.650  1.00  0.00    -0.237 OA
ATOM     64  O   UNL A   1      44.080  27.160  26.146  1.00  0.00    -0.744 OA
ENDBRANCH  57  61
ENDBRANCH  40  54
BRANCH  41  65
ATOM     65  C   UNL A   1      43.609  34.350  29.284  1.00  0.00     0.023 A 
ATOM     66  C   UNL A   1      44.155  33.962  28.035  1.00  0.00     0.031 A 
ATOM     67  C   UNL A   1      43.757  35.715  29.626  1.00  0.00     0.131 A 
ATOM     68  C   UNL A   1      44.810  34.916  27.207  1.00  0.00     0.055 A 
ATOM     69  C   UNL A   1      44.401  36.647  28.807  1.00  0.00     0.041 A 
ATOM     70  F   UNL A   1      43.202  36.219  30.739  1.00  0.00    -0.206 F 
ATOM     71  C   UNL A   1      44.922  36.254  27.588  1.00  0.00     0.022 A 
BRANCH  68  72
ATOM     72  S   UNL A   1      45.455  34.458  25.558  1.00  0.00     0.124 S 
ATOM     73  O   UNL A   1      46.516  35.437  25.357  1.00  0.00    -0.237 OA
ATOM     74  O   UNL A   1      45.874  33.075  25.753  1.00  0.00    -0.237 OA
ATOM     75  O   UNL A   1      44.295  34.623  24.678  1.00  0.00    -0.744 OA
ENDBRANCH  68  72
ENDBRANCH  41  65
BRANCH  53  76
ATOM     76  C   UNL A   1      41.362  30.655  33.966  1.00  0.00     0.023 A 
ATOM     77  C   UNL A   1      40.415  31.661  34.275  1.00  0.00     0.031 A 
ATOM     78  C   UNL A   1      42.168  30.183  35.019  1.00  0.00     0.131 A 
ATOM     79  C   UNL A   1      40.317  32.158  35.592  1.00  0.00     0.055 A 
ATOM     80  C   UNL A   1      42.047  30.656  36.324  1.00  0.00     0.041 A 
ATOM     81  F   UNL A   1      43.073  29.214  34.802  1.00  0.00    -0.206 F 
ATOM     82  C   UNL A   1      41.125  31.651  36.615  1.00  0.00     0.022 A 
BRANCH  79  83
ATOM     83  S   UNL A   1      39.156  33.502  36.008  1.00  0.00     0.124 S 
ATOM     84  O   UNL A   1      38.568  33.857  34.722  1.00  0.00    -0.237 OA
ATOM     85  O   UNL A   1      38.260  32.861  36.967  1.00  0.00    -0.237 OA
ATOM     86  O   UNL A   1      40.024  34.533  36.584  1.00  0.00    -0.744 OA
ENDBRANCH  79  83
ENDBRANCH  53  76
ENDBRANCH  27  28
ENDBRANCH  19  22
ENDBRANCH   1  18
TORSDOF 14
ENDMDL
MODEL 3
REMARK VINA RESULT:     -12.1      2.439      3.425
REMARK SMILES Cc1csc2nc(C(=O)NCCCCNC(=O)c3ccc(-c4c5nc(c(-c6cc(S(=O)(=O)[O-])ccc6F)c6ccc([nH]6)c(-c6cc(S(=O)(=O)[O-])ccc6F)c6nc(c(-c7cc(S(=O)(=O)[O-])ccc7F)c7ccc4[nH]7)C=C6)C=C5)cc3)cn12
REMARK SMILES IDX 14 1 13 2 12 3 11 4 10 5 8 6 9 7 7 9 1 10 2 11 3 12 82 13
REMARK SMILES IDX 4 14 5 15 81 16 6 17 15 18 16 19 17 21 18 22 19 23 80 24
REMARK SMILES IDX 20 25 79 26 21 27 22 28 23 29 73 30 24 31 78 32 72 33 74 34
REMARK SMILES IDX 25 35 77 36 71 37 70 38 26 40 58 41 38 42 57 43 39 44 42 45
REMARK SMILES IDX 56 46 75 47 40 48 41 49 55 51 76 52 43 53 27 54 28 55 36 56
REMARK SMILES IDX 29 57 35 58 37 59 34 60 30 61 31 62 32 63 33 64 59 65 60 66
REMARK SMILES IDX 68 67 61 68 67 69 69 70 66 71 62 72 63 73 64 74 65 75 44 76
REMARK SMILES IDX 45 77 53 78 46 79 52 80 54 81 51 82 47 83 48 84 49 85 50 86
REMARK H PARENT 10 8 15 20 74 39 42 50
REMARK Flexibility Score: inf
ROOT
ATOM      1  C   UNL A   1      35.107  29.044  27.378  1.00  0.00     0.116 C 
ENDROOT
BRANCH   1   2
ATOM      2  C   UNL A   1      33.685  28.519  27.202  1.00  0.00     0.023 C 
BRANCH   2   3
ATOM      3  C   UNL A   1      33.467  27.589  25.996  1.00  0.00     0.023 C 
BRANCH   3   4
ATOM      4  C   UNL A   1      33.499  28.263  24.619  1.00  0.00     0.116 C 
BRANCH   4   5
ATOM      5  N   UNL A   1      33.400  27.307  23.528  1.00  0.00    -0.351 N 
ATOM      6  C   UNL A   1      32.432  27.151  22.562  1.00  0.00     0.271 C 
ATOM      7  O   UNL A   1      32.605  26.278  21.709  1.00  0.00    -0.267 OA
ATOM      8  H   UNL A   1      34.147  26.668  23.471  1.00  0.00     0.163 HD
BRANCH   6   9
ATOM      9  C   UNL A   1      31.233  28.002  22.547  1.00  0.00     0.148 A 
ATOM     10  C   UNL A   1      26.840  28.117  23.619  1.00  0.00     0.066 C 
ATOM     11  C   UNL A   1      27.824  29.012  22.957  1.00  0.00     0.032 A 
ATOM     12  C   UNL A   1      27.578  30.257  22.502  1.00  0.00     0.090 A 
ATOM     13  N   UNL A   1      29.155  28.672  22.770  1.00  0.00    -0.294 N 
ATOM     14  S   UNL A   1      29.004  31.057  21.825  1.00  0.00    -0.105 S 
ATOM     15  C   UNL A   1      29.927  29.639  22.201  1.00  0.00     0.194 A 
ATOM     16  C   UNL A   1      29.972  27.609  23.007  1.00  0.00     0.128 A 
ATOM     17  N   UNL A   1      31.181  29.315  22.085  1.00  0.00    -0.214 NA
ENDBRANCH   6   9
ENDBRANCH   4   5
ENDBRANCH   3   4
ENDBRANCH   2   3
ENDBRANCH   1   2
BRANCH   1  18
ATOM     18  N   UNL A   1      35.305  29.825  28.606  1.00  0.00    -0.352 N 
ATOM     19  C   UNL A   1      36.325  29.715  29.549  1.00  0.00     0.251 C 
ATOM     20  H   UNL A   1      34.627  30.516  28.786  1.00  0.00     0.163 HD
ATOM     21  O   UNL A   1      36.156  30.087  30.698  1.00  0.00    -0.269 OA
BRANCH  19  22
ATOM     22  C   UNL A   1      37.624  29.159  29.115  1.00  0.00     0.039 A 
ATOM     23  C   UNL A   1      38.273  29.533  27.934  1.00  0.00     0.014 A 
ATOM     24  C   UNL A   1      38.207  28.240  29.974  1.00  0.00     0.014 A 
ATOM     25  C   UNL A   1      39.544  29.012  27.678  1.00  0.00     0.010 A 
ATOM     26  C   UNL A   1      39.534  27.956  29.860  1.00  0.00     0.010 A 
ATOM     27  C   UNL A   1      40.168  28.225  28.660  1.00  0.00    -0.014 A 
BRANCH  27  28
ATOM     28  C   UNL A   1      41.532  27.729  28.552  1.00  0.00     0.031 A 
ATOM     29  C   UNL A   1      41.650  26.499  27.737  1.00  0.00     0.074 A 
ATOM     30  C   UNL A   1      42.603  28.488  28.890  1.00  0.00     0.049 A 
ATOM     31  N   UNL A   1      41.867  25.301  28.163  1.00  0.00    -0.248 NA
ATOM     32  C   UNL A   1      41.273  26.558  26.313  1.00  0.00     0.031 C 
ATOM     33  C   UNL A   1      42.620  29.868  29.393  1.00  0.00     0.029 A 
ATOM     34  N   UNL A   1      43.927  28.229  28.731  1.00  0.00    -0.354 N 
ATOM     35  C   UNL A   1      41.956  24.512  27.023  1.00  0.00     0.074 A 
ATOM     36  C   UNL A   1      41.308  25.265  25.985  1.00  0.00     0.031 C 
ATOM     37  C   UNL A   1      43.860  30.389  29.254  1.00  0.00     0.029 A 
ATOM     38  C   UNL A   1      44.760  29.347  28.793  1.00  0.00     0.049 A 
ATOM     39  H   UNL A   1      44.274  27.320  28.582  1.00  0.00     0.167 HD
ATOM     40  C   UNL A   1      42.820  23.459  26.971  1.00  0.00     0.034 A 
ATOM     41  C   UNL A   1      46.077  29.412  28.443  1.00  0.00     0.034 A 
ATOM     42  C   UNL A   1      43.333  23.157  28.295  1.00  0.00     0.049 A 
ATOM     43  C   UNL A   1      46.586  28.012  28.493  1.00  0.00     0.074 A 
ATOM     44  C   UNL A   1      42.741  22.878  29.514  1.00  0.00     0.029 A 
ATOM     45  N   UNL A   1      44.621  23.553  28.597  1.00  0.00    -0.354 N 
ATOM     46  N   UNL A   1      46.645  27.316  29.599  1.00  0.00    -0.248 NA
ATOM     47  C   UNL A   1      46.500  27.219  27.273  1.00  0.00     0.031 C 
ATOM     48  C   UNL A   1      43.496  23.631  30.462  1.00  0.00     0.029 A 
ATOM     49  C   UNL A   1      44.578  24.216  29.800  1.00  0.00     0.049 A 
ATOM     50  H   UNL A   1      45.423  23.390  28.050  1.00  0.00     0.167 HD
ATOM     51  C   UNL A   1      46.154  26.062  29.264  1.00  0.00     0.074 A 
ATOM     52  C   UNL A   1      46.161  26.035  27.799  1.00  0.00     0.031 C 
ATOM     53  C   UNL A   1      45.492  25.283  30.174  1.00  0.00     0.034 A 
BRANCH  40  54
ATOM     54  C   UNL A   1      43.512  22.954  25.721  1.00  0.00     0.023 A 
ATOM     55  C   UNL A   1      43.564  21.558  25.552  1.00  0.00     0.031 A 
ATOM     56  C   UNL A   1      44.342  23.704  24.856  1.00  0.00     0.131 A 
ATOM     57  C   UNL A   1      44.487  20.967  24.674  1.00  0.00     0.055 A 
ATOM     58  C   UNL A   1      45.207  23.113  23.931  1.00  0.00     0.041 A 
ATOM     59  F   UNL A   1      44.440  25.036  24.906  1.00  0.00    -0.206 F 
ATOM     60  C   UNL A   1      45.313  21.736  23.862  1.00  0.00     0.022 A 
BRANCH  57  61
ATOM     61  S   UNL A   1      44.716  19.175  24.761  1.00  0.00     0.124 S 
ATOM     62  O   UNL A   1      43.437  18.745  25.316  1.00  0.00    -0.237 OA
ATOM     63  O   UNL A   1      44.958  18.836  23.362  1.00  0.00    -0.237 OA
ATOM     64  O   UNL A   1      45.866  19.023  25.647  1.00  0.00    -0.744 OA
ENDBRANCH  57  61
ENDBRANCH  40  54
BRANCH  41  65
ATOM     65  C   UNL A   1      46.781  30.539  27.743  1.00  0.00     0.023 A 
ATOM     66  C   UNL A   1      46.107  31.575  27.049  1.00  0.00     0.031 A 
ATOM     67  C   UNL A   1      48.165  30.736  27.956  1.00  0.00     0.131 A 
ATOM     68  C   UNL A   1      46.816  32.725  26.605  1.00  0.00     0.055 A 
ATOM     69  C   UNL A   1      48.856  31.870  27.518  1.00  0.00     0.041 A 
ATOM     70  F   UNL A   1      48.891  29.870  28.679  1.00  0.00    -0.206 F 
ATOM     71  C   UNL A   1      48.182  32.875  26.849  1.00  0.00     0.022 A 
BRANCH  68  72
ATOM     72  S   UNL A   1      45.957  34.110  25.777  1.00  0.00     0.124 S 
ATOM     73  O   UNL A   1      45.464  34.890  26.906  1.00  0.00    -0.237 OA
ATOM     74  O   UNL A   1      47.019  34.715  24.983  1.00  0.00    -0.237 OA
ATOM     75  O   UNL A   1      44.914  33.445  24.991  1.00  0.00    -0.744 OA
ENDBRANCH  68  72
ENDBRANCH  41  65
BRANCH  53  76
ATOM     76  C   UNL A   1      45.535  25.658  31.648  1.00  0.00     0.023 A 
ATOM     77  C   UNL A   1      46.590  25.364  32.544  1.00  0.00     0.031 A 
ATOM     78  C   UNL A   1      44.496  26.482  32.123  1.00  0.00     0.131 A 
ATOM     79  C   UNL A   1      46.568  25.881  33.857  1.00  0.00     0.055 A 
ATOM     80  C   UNL A   1      44.493  27.014  33.411  1.00  0.00     0.041 A 
ATOM     81  F   UNL A   1      43.472  26.818  31.320  1.00  0.00    -0.206 F 
ATOM     82  C   UNL A   1      45.526  26.710  34.285  1.00  0.00     0.022 A 
BRANCH  79  83
ATOM     83  S   UNL A   1      47.878  25.465  35.056  1.00  0.00     0.124 S 
ATOM     84  O   UNL A   1      48.663  26.691  35.144  1.00  0.00    -0.237 OA
ATOM     85  O   UNL A   1      47.114  25.108  36.248  1.00  0.00    -0.237 OA
ATOM     86  O   UNL A   1      48.574  24.343  34.422  1.00  0.00    -0.744 OA
ENDBRANCH  79  83
ENDBRANCH  53  76
ENDBRANCH  27  28
ENDBRANCH  19  22
ENDBRANCH   1  18
TORSDOF 14
ENDMDL
