MODEL 1
REMARK VINA RESULT:     -12.8      0.000      0.000
REMARK SMILES CC(C)[C@H](NC(=O)[C@H](Cc1ccccc1)n1c(=O)[nH]c2ccccc2c1=O)C(=O)NCCCCNC(=O)c1ccc(-c2c3nc(c(-c4cc(S(=O)(=O)[O-])ccc4F)c4ccc([nH]4)c(-c4cc(S(=O)(=O)[O-])ccc4F)c4nc(c(-c5cc(S(=O)(=O)[O-])ccc5F)c5ccc2[nH]5)C=C4)C=C3)cc1
REMARK SMILES IDX 32 1 31 2 30 3 28 4 29 5 4 7 2 8 1 9 3 10 5 11 6 12 7 14
REMARK SMILES IDX 8 15 16 16 17 17 26 18 18 19 19 20 25 21 27 22 20 23 24 25
REMARK SMILES IDX 21 26 23 27 22 28 9 29 10 30 11 31 15 32 12 33 14 34 13 35
REMARK SMILES IDX 33 36 34 37 35 38 36 39 37 41 38 42 39 43 100 44 40 45 99 46
REMARK SMILES IDX 41 47 42 48 43 49 93 50 44 51 98 52 92 53 94 54 45 55 97 56
REMARK SMILES IDX 91 57 90 58 46 60 78 61 58 62 77 63 59 64 62 65 76 66 95 67
REMARK SMILES IDX 60 68 61 69 75 71 96 72 63 73 47 74 48 75 56 76 49 77 55 78
REMARK SMILES IDX 57 79 54 80 50 81 51 82 52 83 53 84 79 85 80 86 88 87 81 88
REMARK SMILES IDX 87 89 89 90 86 91 82 92 83 93 84 94 85 95 64 96 65 97 73 98
REMARK SMILES IDX 66 99 72 100 74 101 71 102 67 103 68 104 69 105 70 106
REMARK H PARENT 30 6 5 13 19 24 35 40 94 59 62 70
REMARK Flexibility Score: inf
ROOT
ATOM      1  C   UNL A   1      31.579  27.814  26.894  1.00  0.00     0.023 C 
ENDROOT
BRANCH   1   2
ATOM      2  C   UNL A   1      31.368  28.094  25.395  1.00  0.00     0.116 C 
BRANCH   2   3
ATOM      3  N   UNL A   1      31.770  26.902  24.660  1.00  0.00    -0.354 N 
ATOM      4  C   UNL A   1      33.058  26.389  24.602  1.00  0.00     0.242 C 
ATOM      5  O   UNL A   1      33.916  26.555  25.458  1.00  0.00    -0.273 OA
ATOM      6  H   UNL A   1      31.069  26.420  24.164  1.00  0.00     0.163 HD
BRANCH   4   7
ATOM      7  C   UNL A   1      33.229  25.448  23.381  1.00  0.00     0.173 C 
BRANCH   7   8
ATOM      8  C   UNL A   1      33.386  26.097  21.980  1.00  0.00     0.015 C 
ATOM      9  C   UNL A   1      32.120  25.886  21.133  1.00  0.00     0.010 C 
ATOM     10  C   UNL A   1      33.717  27.583  21.976  1.00  0.00     0.010 C 
ENDBRANCH   7   8
BRANCH   7  11
ATOM     11  N   UNL A   1      32.322  24.281  23.393  1.00  0.00    -0.342 N 
ATOM     12  C   UNL A   1      32.207  23.281  24.330  1.00  0.00     0.244 C 
ATOM     13  H   UNL A   1      31.715  24.210  22.621  1.00  0.00     0.164 HD
ATOM     14  O   UNL A   1      31.055  23.068  24.709  1.00  0.00    -0.273 OA
BRANCH  12  15
ATOM     15  C   UNL A   1      33.444  22.488  24.822  1.00  0.00     0.189 C 
BRANCH  15  16
ATOM     16  N   UNL A   1      33.242  21.058  25.109  1.00  0.00    -0.247 N 
ATOM     17  C   UNL A   1      33.240  20.591  26.409  1.00  0.00     0.329 A 
ATOM     18  C   UNL A   1      32.841  20.245  24.050  1.00  0.00     0.264 A 
ATOM     19  O   UNL A   1      33.443  21.274  27.405  1.00  0.00    -0.248 OA
ATOM     20  N   UNL A   1      33.008  19.252  26.588  1.00  0.00    -0.307 N 
ATOM     21  C   UNL A   1      32.980  18.797  24.242  1.00  0.00     0.064 A 
ATOM     22  O   UNL A   1      32.350  20.655  23.004  1.00  0.00    -0.268 OA
ATOM     23  C   UNL A   1      32.977  18.331  25.546  1.00  0.00     0.055 A 
ATOM     24  H   UNL A   1      32.854  18.925  27.504  1.00  0.00     0.171 HD
ATOM     25  C   UNL A   1      33.156  17.921  23.169  1.00  0.00     0.016 A 
ATOM     26  C   UNL A   1      33.028  16.963  25.799  1.00  0.00     0.027 A 
ATOM     27  C   UNL A   1      33.289  16.556  23.420  1.00  0.00     0.001 A 
ATOM     28  C   UNL A   1      33.194  16.076  24.731  1.00  0.00     0.002 A 
ENDBRANCH  15  16
BRANCH  15  29
ATOM     29  C   UNL A   1      34.756  22.808  24.065  1.00  0.00     0.071 C 
BRANCH  29  30
ATOM     30  C   UNL A   1      36.101  22.723  24.734  1.00  0.00    -0.045 A 
ATOM     31  C   UNL A   1      36.633  23.825  25.412  1.00  0.00     0.004 A 
ATOM     32  C   UNL A   1      36.868  21.551  24.645  1.00  0.00     0.004 A 
ATOM     33  C   UNL A   1      37.872  23.737  26.045  1.00  0.00     0.000 A 
ATOM     34  C   UNL A   1      38.111  21.466  25.271  1.00  0.00     0.000 A 
ATOM     35  C   UNL A   1      38.607  22.555  25.982  1.00  0.00     0.000 A 
ENDBRANCH  29  30
ENDBRANCH  15  29
ENDBRANCH  12  15
ENDBRANCH   7  11
ENDBRANCH   4   7
ENDBRANCH   2   3
ENDBRANCH   1   2
BRANCH   1  36
ATOM     36  C   UNL A   1      32.482  28.780  27.659  1.00  0.00     0.023 C 
BRANCH  36  37
ATOM     37  C   UNL A   1      33.278  29.773  26.811  1.00  0.00     0.116 C 
BRANCH  37  38
ATOM     38  N   UNL A   1      33.638  31.007  27.501  1.00  0.00    -0.352 N 
ATOM     39  C   UNL A   1      34.829  31.421  28.066  1.00  0.00     0.251 C 
ATOM     40  H   UNL A   1      32.904  31.659  27.578  1.00  0.00     0.163 HD
ATOM     41  O   UNL A   1      34.954  32.571  28.445  1.00  0.00    -0.269 OA
BRANCH  39  42
ATOM     42  C   UNL A   1      35.891  30.429  28.346  1.00  0.00     0.039 A 
ATOM     43  C   UNL A   1      36.965  30.378  27.449  1.00  0.00     0.014 A 
ATOM     44  C   UNL A   1      35.914  29.671  29.513  1.00  0.00     0.014 A 
ATOM     45  C   UNL A   1      38.127  29.696  27.802  1.00  0.00     0.010 A 
ATOM     46  C   UNL A   1      37.107  29.070  29.907  1.00  0.00     0.010 A 
ATOM     47  C   UNL A   1      38.236  29.114  29.074  1.00  0.00    -0.014 A 
BRANCH  47  48
ATOM     48  C   UNL A   1      39.546  28.616  29.570  1.00  0.00     0.031 A 
ATOM     49  C   UNL A   1      40.268  29.346  30.664  1.00  0.00     0.074 A 
ATOM     50  C   UNL A   1      40.116  27.551  28.967  1.00  0.00     0.049 A 
ATOM     51  N   UNL A   1      41.452  29.119  31.169  1.00  0.00    -0.248 NA
ATOM     52  C   UNL A   1      39.579  30.510  31.240  1.00  0.00     0.031 C 
ATOM     53  C   UNL A   1      39.537  26.799  27.849  1.00  0.00     0.029 A 
ATOM     54  N   UNL A   1      41.311  26.917  29.201  1.00  0.00    -0.354 N 
ATOM     55  C   UNL A   1      41.661  30.122  32.108  1.00  0.00     0.074 A 
ATOM     56  C   UNL A   1      40.504  30.991  32.054  1.00  0.00     0.031 C 
ATOM     57  C   UNL A   1      40.359  25.792  27.519  1.00  0.00     0.029 A 
ATOM     58  C   UNL A   1      41.544  25.848  28.367  1.00  0.00     0.049 A 
ATOM     59  H   UNL A   1      41.942  27.201  29.901  1.00  0.00     0.167 HD
ATOM     60  C   UNL A   1      42.709  30.287  32.952  1.00  0.00     0.034 A 
ATOM     61  C   UNL A   1      42.598  25.010  28.289  1.00  0.00     0.034 A 
ATOM     62  C   UNL A   1      43.845  29.397  33.000  1.00  0.00     0.049 A 
ATOM     63  C   UNL A   1      43.745  25.204  29.248  1.00  0.00     0.074 A 
ATOM     64  C   UNL A   1      44.939  29.437  33.846  1.00  0.00     0.029 A 
ATOM     65  N   UNL A   1      44.033  28.305  32.161  1.00  0.00    -0.354 N 
ATOM     66  N   UNL A   1      43.903  26.128  30.167  1.00  0.00    -0.248 NA
ATOM     67  C   UNL A   1      44.845  24.235  29.167  1.00  0.00     0.031 C 
ATOM     68  C   UNL A   1      45.812  28.403  33.486  1.00  0.00     0.029 A 
ATOM     69  C   UNL A   1      45.234  27.677  32.457  1.00  0.00     0.049 A 
ATOM     70  H   UNL A   1      43.406  28.020  31.457  1.00  0.00     0.167 HD
ATOM     71  C   UNL A   1      45.111  25.835  30.794  1.00  0.00     0.074 A 
ATOM     72  C   UNL A   1      45.627  24.639  30.158  1.00  0.00     0.031 C 
ATOM     73  C   UNL A   1      45.735  26.491  31.804  1.00  0.00     0.034 A 
BRANCH  60  74
ATOM     74  C   UNL A   1      42.674  31.489  33.865  1.00  0.00     0.023 A 
ATOM     75  C   UNL A   1      42.173  31.403  35.176  1.00  0.00     0.031 A 
ATOM     76  C   UNL A   1      43.095  32.749  33.405  1.00  0.00     0.131 A 
ATOM     77  C   UNL A   1      42.018  32.566  35.947  1.00  0.00     0.055 A 
ATOM     78  C   UNL A   1      43.020  33.890  34.209  1.00  0.00     0.041 A 
ATOM     79  F   UNL A   1      43.564  32.901  32.156  1.00  0.00    -0.206 F 
ATOM     80  C   UNL A   1      42.462  33.804  35.481  1.00  0.00     0.022 A 
BRANCH  77  81
ATOM     81  S   UNL A   1      41.083  32.457  37.497  1.00  0.00     0.124 S 
ATOM     82  O   UNL A   1      40.987  33.864  37.881  1.00  0.00    -0.237 OA
ATOM     83  O   UNL A   1      39.840  31.824  37.073  1.00  0.00    -0.237 OA
ATOM     84  O   UNL A   1      41.939  31.640  38.356  1.00  0.00    -0.744 OA
ENDBRANCH  77  81
ENDBRANCH  60  74
BRANCH  61  85
ATOM     85  C   UNL A   1      42.627  23.917  27.276  1.00  0.00     0.023 A 
ATOM     86  C   UNL A   1      42.059  22.662  27.551  1.00  0.00     0.031 A 
ATOM     87  C   UNL A   1      43.255  24.097  26.031  1.00  0.00     0.131 A 
ATOM     88  C   UNL A   1      42.173  21.622  26.615  1.00  0.00     0.055 A 
ATOM     89  C   UNL A   1      43.322  23.074  25.083  1.00  0.00     0.041 A 
ATOM     90  F   UNL A   1      43.805  25.280  25.712  1.00  0.00    -0.206 F 
ATOM     91  C   UNL A   1      42.789  21.823  25.379  1.00  0.00     0.022 A 
BRANCH  88  92
ATOM     92  S   UNL A   1      41.566  19.973  27.070  1.00  0.00     0.124 S 
ATOM     93  O   UNL A   1      40.510  20.298  28.023  1.00  0.00    -0.237 OA
ATOM     94  O   UNL A   1      41.129  19.445  25.782  1.00  0.00    -0.237 OA
ATOM     95  O   UNL A   1      42.744  19.324  27.641  1.00  0.00    -0.744 OA
ENDBRANCH  88  92
ENDBRANCH  61  85
BRANCH  73  96
ATOM     96  C   UNL A   1      47.026  25.893  32.305  1.00  0.00     0.023 A 
ATOM     97  C   UNL A   1      48.247  26.113  31.645  1.00  0.00     0.031 A 
ATOM     98  C   UNL A   1      47.027  25.078  33.450  1.00  0.00     0.131 A 
ATOM     99  C   UNL A   1      49.412  25.479  32.103  1.00  0.00     0.055 A 
ATOM    100  C   UNL A   1      48.199  24.494  33.934  1.00  0.00     0.041 A 
ATOM    101  F   UNL A   1      45.887  24.834  34.117  1.00  0.00    -0.206 F 
ATOM    102  C   UNL A   1      49.398  24.684  33.252  1.00  0.00     0.022 A 
BRANCH  99 103
ATOM    103  S   UNL A   1      50.931  25.636  31.125  1.00  0.00     0.124 S 
ATOM    104  O   UNL A   1      51.855  24.777  31.858  1.00  0.00    -0.237 OA
ATOM    105  O   UNL A   1      50.509  25.148  29.815  1.00  0.00    -0.237 OA
ATOM    106  O   UNL A   1      51.232  27.065  31.184  1.00  0.00    -0.744 OA
ENDBRANCH  99 103
ENDBRANCH  73  96
ENDBRANCH  47  48
ENDBRANCH  39  42
ENDBRANCH  37  38
ENDBRANCH  36  37
ENDBRANCH   1  36
TORSDOF 20
ENDMDL
MODEL 2
REMARK VINA RESULT:     -12.6      2.922      3.849
REMARK SMILES CC(C)[C@H](NC(=O)[C@H](Cc1ccccc1)n1c(=O)[nH]c2ccccc2c1=O)C(=O)NCCCCNC(=O)c1ccc(-c2c3nc(c(-c4cc(S(=O)(=O)[O-])ccc4F)c4ccc([nH]4)c(-c4cc(S(=O)(=O)[O-])ccc4F)c4nc(c(-c5cc(S(=O)(=O)[O-])ccc5F)c5ccc2[nH]5)C=C4)C=C3)cc1
REMARK SMILES IDX 32 1 31 2 30 3 28 4 29 5 4 7 2 8 1 9 3 10 5 11 6 12 7 14
REMARK SMILES IDX 8 15 16 16 17 17 26 18 18 19 19 20 25 21 27 22 20 23 24 25
REMARK SMILES IDX 21 26 23 27 22 28 9 29 10 30 11 31 15 32 12 33 14 34 13 35
REMARK SMILES IDX 33 36 34 37 35 38 36 39 37 41 38 42 39 43 100 44 40 45 99 46
REMARK SMILES IDX 41 47 42 48 43 49 93 50 44 51 98 52 92 53 94 54 45 55 97 56
REMARK SMILES IDX 91 57 90 58 46 60 78 61 58 62 77 63 59 64 62 65 76 66 95 67
REMARK SMILES IDX 60 68 61 69 75 71 96 72 63 73 47 74 48 75 56 76 49 77 55 78
REMARK SMILES IDX 57 79 54 80 50 81 51 82 52 83 53 84 79 85 80 86 88 87 81 88
REMARK SMILES IDX 87 89 89 90 86 91 82 92 83 93 84 94 85 95 64 96 65 97 73 98
REMARK SMILES IDX 66 99 72 100 74 101 71 102 67 103 68 104 69 105 70 106
REMARK H PARENT 30 6 5 13 19 24 35 40 94 59 62 70
REMARK Flexibility Score: inf
ROOT
ATOM      1  C   UNL A   1      31.417  30.480  27.145  1.00  0.00     0.023 C 
ENDROOT
BRANCH   1   2
ATOM      2  C   UNL A   1      32.584  29.697  26.517  1.00  0.00     0.116 C 
BRANCH   2   3
ATOM      3  N   UNL A   1      32.014  28.618  25.718  1.00  0.00    -0.354 N 
ATOM      4  C   UNL A   1      31.515  27.424  26.218  1.00  0.00     0.242 C 
ATOM      5  O   UNL A   1      31.069  27.272  27.347  1.00  0.00    -0.273 OA
ATOM      6  H   UNL A   1      31.980  28.749  24.743  1.00  0.00     0.163 HD
BRANCH   4   7
ATOM      7  C   UNL A   1      31.453  26.339  25.113  1.00  0.00     0.173 C 
BRANCH   7   8
ATOM      8  C   UNL A   1      31.046  26.782  23.682  1.00  0.00     0.015 C 
ATOM      9  C   UNL A   1      31.307  25.658  22.665  1.00  0.00     0.010 C 
ATOM     10  C   UNL A   1      29.604  27.241  23.521  1.00  0.00     0.010 C 
ENDBRANCH   7   8
BRANCH   7  11
ATOM     11  N   UNL A   1      30.813  25.079  25.546  1.00  0.00    -0.342 N 
ATOM     12  C   UNL A   1      31.274  24.130  26.426  1.00  0.00     0.244 C 
ATOM     13  H   UNL A   1      29.932  24.894  25.146  1.00  0.00     0.164 HD
ATOM     14  O   UNL A   1      30.468  23.809  27.299  1.00  0.00    -0.273 OA
BRANCH  12  15
ATOM     15  C   UNL A   1      32.689  23.513  26.283  1.00  0.00     0.189 C 
BRANCH  15  16
ATOM     16  N   UNL A   1      32.756  22.068  26.007  1.00  0.00    -0.247 N 
ATOM     17  C   UNL A   1      33.346  21.203  26.906  1.00  0.00     0.329 A 
ATOM     18  C   UNL A   1      32.019  21.591  24.923  1.00  0.00     0.264 A 
ATOM     19  O   UNL A   1      33.890  21.534  27.953  1.00  0.00    -0.248 OA
ATOM     20  N   UNL A   1      33.332  19.870  26.587  1.00  0.00    -0.307 N 
ATOM     21  C   UNL A   1      32.355  20.247  24.439  1.00  0.00     0.064 A 
ATOM     22  O   UNL A   1      31.096  22.196  24.387  1.00  0.00    -0.268 OA
ATOM     23  C   UNL A   1      32.945  19.380  25.343  1.00  0.00     0.055 A 
ATOM     24  H   UNL A   1      33.610  19.224  27.276  1.00  0.00     0.171 HD
ATOM     25  C   UNL A   1      32.137  19.861  23.115  1.00  0.00     0.016 A 
ATOM     26  C   UNL A   1      33.221  18.067  24.974  1.00  0.00     0.027 A 
ATOM     27  C   UNL A   1      32.485  18.571  22.717  1.00  0.00     0.001 A 
ATOM     28  C   UNL A   1      32.998  17.667  23.653  1.00  0.00     0.002 A 
ENDBRANCH  15  16
BRANCH  15  29
ATOM     29  C   UNL A   1      33.682  24.368  25.458  1.00  0.00     0.071 C 
BRANCH  29  30
ATOM     30  C   UNL A   1      34.986  23.809  24.957  1.00  0.00    -0.045 A 
ATOM     31  C   UNL A   1      35.112  23.362  23.638  1.00  0.00     0.004 A 
ATOM     32  C   UNL A   1      36.084  23.679  25.821  1.00  0.00     0.004 A 
ATOM     33  C   UNL A   1      36.327  22.861  23.173  1.00  0.00     0.000 A 
ATOM     34  C   UNL A   1      37.297  23.170  25.358  1.00  0.00     0.000 A 
ATOM     35  C   UNL A   1      37.422  22.772  24.029  1.00  0.00     0.000 A 
ENDBRANCH  29  30
ENDBRANCH  15  29
ENDBRANCH  12  15
ENDBRANCH   7  11
ENDBRANCH   4   7
ENDBRANCH   2   3
ENDBRANCH   1   2
BRANCH   1  36
ATOM     36  C   UNL A   1      31.054  31.817  26.501  1.00  0.00     0.023 C 
BRANCH  36  37
ATOM     37  C   UNL A   1      32.201  32.816  26.329  1.00  0.00     0.116 C 
BRANCH  37  38
ATOM     38  N   UNL A   1      32.282  33.830  27.374  1.00  0.00    -0.352 N 
ATOM     39  C   UNL A   1      33.316  34.185  28.220  1.00  0.00     0.251 C 
ATOM     40  H   UNL A   1      31.458  34.353  27.498  1.00  0.00     0.163 HD
ATOM     41  O   UNL A   1      33.221  35.184  28.908  1.00  0.00    -0.269 OA
BRANCH  39  42
ATOM     42  C   UNL A   1      34.465  33.269  28.398  1.00  0.00     0.039 A 
ATOM     43  C   UNL A   1      35.744  33.828  28.297  1.00  0.00     0.014 A 
ATOM     44  C   UNL A   1      34.307  31.942  28.788  1.00  0.00     0.014 A 
ATOM     45  C   UNL A   1      36.849  33.107  28.742  1.00  0.00     0.010 A 
ATOM     46  C   UNL A   1      35.396  31.258  29.321  1.00  0.00     0.010 A 
ATOM     47  C   UNL A   1      36.669  31.851  29.341  1.00  0.00    -0.014 A 
BRANCH  47  48
ATOM     48  C   UNL A   1      37.788  31.185  30.057  1.00  0.00     0.031 A 
ATOM     49  C   UNL A   1      38.078  31.523  31.489  1.00  0.00     0.074 A 
ATOM     50  C   UNL A   1      38.591  30.338  29.379  1.00  0.00     0.049 A 
ATOM     51  N   UNL A   1      39.056  31.116  32.254  1.00  0.00    -0.248 NA
ATOM     52  C   UNL A   1      37.164  32.477  32.135  1.00  0.00     0.031 C 
ATOM     53  C   UNL A   1      38.445  29.981  27.964  1.00  0.00     0.029 A 
ATOM     54  N   UNL A   1      39.693  29.625  29.782  1.00  0.00    -0.354 N 
ATOM     55  C   UNL A   1      38.891  31.778  33.465  1.00  0.00     0.074 A 
ATOM     56  C   UNL A   1      37.752  32.658  33.306  1.00  0.00     0.031 C 
ATOM     57  C   UNL A   1      39.398  29.098  27.629  1.00  0.00     0.029 A 
ATOM     58  C   UNL A   1      40.250  28.855  28.786  1.00  0.00     0.049 A 
ATOM     59  H   UNL A   1      40.051  29.662  30.698  1.00  0.00     0.167 HD
ATOM     60  C   UNL A   1      39.607  31.644  34.608  1.00  0.00     0.034 A 
ATOM     61  C   UNL A   1      41.330  28.048  28.803  1.00  0.00     0.034 A 
ATOM     62  C   UNL A   1      40.729  30.747  34.748  1.00  0.00     0.049 A 
ATOM     63  C   UNL A   1      42.102  27.904  30.090  1.00  0.00     0.074 A 
ATOM     64  C   UNL A   1      41.497  30.492  35.871  1.00  0.00     0.029 A 
ATOM     65  N   UNL A   1      41.247  29.958  33.728  1.00  0.00    -0.354 N 
ATOM     66  N   UNL A   1      41.899  28.498  31.243  1.00  0.00    -0.248 NA
ATOM     67  C   UNL A   1      43.236  26.972  30.079  1.00  0.00     0.031 C 
ATOM     68  C   UNL A   1      42.508  29.591  35.517  1.00  0.00     0.029 A 
ATOM     69  C   UNL A   1      42.334  29.232  34.190  1.00  0.00     0.049 A 
ATOM     70  H   UNL A   1      40.893  29.920  32.809  1.00  0.00     0.167 HD
ATOM     71  C   UNL A   1      42.867  27.990  32.105  1.00  0.00     0.074 A 
ATOM     72  C   UNL A   1      43.639  27.030  31.341  1.00  0.00     0.031 C 
ATOM     73  C   UNL A   1      43.096  28.286  33.409  1.00  0.00     0.034 A 
BRANCH  60  74
ATOM     74  C   UNL A   1      39.204  32.511  35.778  1.00  0.00     0.023 A 
ATOM     75  C   UNL A   1      39.589  33.861  35.860  1.00  0.00     0.031 A 
ATOM     76  C   UNL A   1      38.475  31.970  36.851  1.00  0.00     0.131 A 
ATOM     77  C   UNL A   1      39.326  34.597  37.025  1.00  0.00     0.055 A 
ATOM     78  C   UNL A   1      38.138  32.734  37.972  1.00  0.00     0.041 A 
ATOM     79  F   UNL A   1      38.095  30.682  36.841  1.00  0.00    -0.206 F 
ATOM     80  C   UNL A   1      38.581  34.049  38.071  1.00  0.00     0.022 A 
BRANCH  77  81
ATOM     81  S   UNL A   1      40.108  36.222  37.217  1.00  0.00     0.124 S 
ATOM     82  O   UNL A   1      39.302  36.811  38.284  1.00  0.00    -0.237 OA
ATOM     83  O   UNL A   1      41.479  35.872  37.570  1.00  0.00    -0.237 OA
ATOM     84  O   UNL A   1      39.939  36.840  35.904  1.00  0.00    -0.744 OA
ENDBRANCH  77  81
ENDBRANCH  60  74
BRANCH  61  85
ATOM     85  C   UNL A   1      41.751  27.316  27.575  1.00  0.00     0.023 A 
ATOM     86  C   UNL A   1      41.630  25.919  27.489  1.00  0.00     0.031 A 
ATOM     87  C   UNL A   1      42.316  27.996  26.481  1.00  0.00     0.131 A 
ATOM     88  C   UNL A   1      42.110  25.243  26.356  1.00  0.00     0.055 A 
ATOM     89  C   UNL A   1      42.747  27.323  25.336  1.00  0.00     0.041 A 
ATOM     90  F   UNL A   1      42.446  29.333  26.507  1.00  0.00    -0.206 F 
ATOM     91  C   UNL A   1      42.657  25.937  25.275  1.00  0.00     0.022 A 
BRANCH  88  92
ATOM     92  S   UNL A   1      42.079  23.429  26.349  1.00  0.00     0.124 S 
ATOM     93  O   UNL A   1      42.707  23.126  25.068  1.00  0.00    -0.237 OA
ATOM     94  O   UNL A   1      42.860  23.108  27.539  1.00  0.00    -0.237 OA
ATOM     95  O   UNL A   1      40.655  23.113  26.437  1.00  0.00    -0.744 OA
ENDBRANCH  88  92
ENDBRANCH  61  85
BRANCH  73  96
ATOM     96  C   UNL A   1      44.203  27.524  34.094  1.00  0.00     0.023 A 
ATOM     97  C   UNL A   1      43.979  26.267  34.681  1.00  0.00     0.031 A 
ATOM     98  C   UNL A   1      45.494  28.074  34.172  1.00  0.00     0.131 A 
ATOM     99  C   UNL A   1      45.019  25.624  35.371  1.00  0.00     0.055 A 
ATOM    100  C   UNL A   1      46.539  27.405  34.811  1.00  0.00     0.041 A 
ATOM    101  F   UNL A   1      45.760  29.272  33.628  1.00  0.00    -0.206 F 
ATOM    102  C   UNL A   1      46.301  26.179  35.426  1.00  0.00     0.022 A 
BRANCH  99 103
ATOM    103  S   UNL A   1      44.651  24.095  36.274  1.00  0.00     0.124 S 
ATOM    104  O   UNL A   1      45.846  23.299  36.023  1.00  0.00    -0.237 OA
ATOM    105  O   UNL A   1      44.479  24.575  37.642  1.00  0.00    -0.237 OA
ATOM    106  O   UNL A   1      43.432  23.604  35.634  1.00  0.00    -0.744 OA
ENDBRANCH  99 103
ENDBRANCH  73  96
ENDBRANCH  47  48
ENDBRANCH  39  42
ENDBRANCH  37  38
ENDBRANCH  36  37
ENDBRANCH   1  36
TORSDOF 20
ENDMDL
MODEL 3
REMARK VINA RESULT:     -12.4      2.660      3.331
REMARK SMILES CC(C)[C@H](NC(=O)[C@H](Cc1ccccc1)n1c(=O)[nH]c2ccccc2c1=O)C(=O)NCCCCNC(=O)c1ccc(-c2c3nc(c(-c4cc(S(=O)(=O)[O-])ccc4F)c4ccc([nH]4)c(-c4cc(S(=O)(=O)[O-])ccc4F)c4nc(c(-c5cc(S(=O)(=O)[O-])ccc5F)c5ccc2[nH]5)C=C4)C=C3)cc1
REMARK SMILES IDX 32 1 31 2 30 3 28 4 29 5 4 7 2 8 1 9 3 10 5 11 6 12 7 14
REMARK SMILES IDX 8 15 16 16 17 17 26 18 18 19 19 20 25 21 27 22 20 23 24 25
REMARK SMILES IDX 21 26 23 27 22 28 9 29 10 30 11 31 15 32 12 33 14 34 13 35
REMARK SMILES IDX 33 36 34 37 35 38 36 39 37 41 38 42 39 43 100 44 40 45 99 46
REMARK SMILES IDX 41 47 42 48 43 49 93 50 44 51 98 52 92 53 94 54 45 55 97 56
REMARK SMILES IDX 91 57 90 58 46 60 78 61 58 62 77 63 59 64 62 65 76 66 95 67
REMARK SMILES IDX 60 68 61 69 75 71 96 72 63 73 47 74 48 75 56 76 49 77 55 78
REMARK SMILES IDX 57 79 54 80 50 81 51 82 52 83 53 84 79 85 80 86 88 87 81 88
REMARK SMILES IDX 87 89 89 90 86 91 82 92 83 93 84 94 85 95 64 96 65 97 73 98
REMARK SMILES IDX 66 99 72 100 74 101 71 102 67 103 68 104 69 105 70 106
REMARK H PARENT 30 6 5 13 19 24 35 40 94 59 62 70
REMARK Flexibility Score: inf
ROOT
ATOM      1  C   UNL A   1      33.103  29.734  25.498  1.00  0.00     0.023 C 
ENDROOT
BRANCH   1   2
ATOM      2  C   UNL A   1      33.046  28.351  26.170  1.00  0.00     0.116 C 
BRANCH   2   3
ATOM      3  N   UNL A   1      32.156  27.509  25.379  1.00  0.00    -0.354 N 
ATOM      4  C   UNL A   1      31.181  26.665  25.890  1.00  0.00     0.242 C 
ATOM      5  O   UNL A   1      30.623  26.814  26.968  1.00  0.00    -0.273 OA
ATOM      6  H   UNL A   1      32.256  27.544  24.399  1.00  0.00     0.163 HD
BRANCH   4   7
ATOM      7  C   UNL A   1      30.777  25.587  24.852  1.00  0.00     0.173 C 
BRANCH   7   8
ATOM      8  C   UNL A   1      29.961  26.041  23.612  1.00  0.00     0.015 C 
ATOM      9  C   UNL A   1      28.659  26.740  24.039  1.00  0.00     0.010 C 
ATOM     10  C   UNL A   1      30.693  26.956  22.641  1.00  0.00     0.010 C 
ENDBRANCH   7   8
BRANCH   7  11
ATOM     11  N   UNL A   1      30.285  24.330  25.454  1.00  0.00    -0.342 N 
ATOM     12  C   UNL A   1      30.914  23.489  26.342  1.00  0.00     0.244 C 
ATOM     13  H   UNL A   1      29.380  24.057  25.181  1.00  0.00     0.164 HD
ATOM     14  O   UNL A   1      30.240  23.194  27.329  1.00  0.00    -0.273 OA
BRANCH  12  15
ATOM     15  C   UNL A   1      32.344  22.953  26.074  1.00  0.00     0.189 C 
BRANCH  15  16
ATOM     16  N   UNL A   1      32.451  21.744  25.241  1.00  0.00    -0.247 N 
ATOM     17  C   UNL A   1      32.146  21.783  23.894  1.00  0.00     0.329 A 
ATOM     18  C   UNL A   1      33.070  20.631  25.809  1.00  0.00     0.264 A 
ATOM     19  O   UNL A   1      31.732  22.765  23.292  1.00  0.00    -0.248 OA
ATOM     20  N   UNL A   1      32.308  20.620  23.186  1.00  0.00    -0.307 N 
ATOM     21  C   UNL A   1      32.867  19.346  25.130  1.00  0.00     0.064 A 
ATOM     22  O   UNL A   1      33.796  20.666  26.797  1.00  0.00    -0.268 OA
ATOM     23  C   UNL A   1      32.563  19.387  23.780  1.00  0.00     0.055 A 
ATOM     24  H   UNL A   1      32.242  20.660  22.205  1.00  0.00     0.171 HD
ATOM     25  C   UNL A   1      32.927  18.130  25.813  1.00  0.00     0.016 A 
ATOM     26  C   UNL A   1      32.432  18.205  23.057  1.00  0.00     0.027 A 
ATOM     27  C   UNL A   1      32.717  16.944  25.110  1.00  0.00     0.001 A 
ATOM     28  C   UNL A   1      32.500  16.981  23.729  1.00  0.00     0.002 A 
ENDBRANCH  15  16
BRANCH  15  29
ATOM     29  C   UNL A   1      33.390  24.048  25.750  1.00  0.00     0.071 C 
BRANCH  29  30
ATOM     30  C   UNL A   1      34.790  23.705  25.316  1.00  0.00    -0.045 A 
ATOM     31  C   UNL A   1      35.812  23.553  26.258  1.00  0.00     0.004 A 
ATOM     32  C   UNL A   1      35.103  23.583  23.953  1.00  0.00     0.004 A 
ATOM     33  C   UNL A   1      37.104  23.219  25.854  1.00  0.00     0.000 A 
ATOM     34  C   UNL A   1      36.398  23.257  23.549  1.00  0.00     0.000 A 
ATOM     35  C   UNL A   1      37.395  23.062  24.501  1.00  0.00     0.000 A 
ENDBRANCH  29  30
ENDBRANCH  15  29
ENDBRANCH  12  15
ENDBRANCH   7  11
ENDBRANCH   4   7
ENDBRANCH   2   3
ENDBRANCH   1   2
BRANCH   1  36
ATOM     36  C   UNL A   1      32.125  30.792  26.005  1.00  0.00     0.023 C 
BRANCH  36  37
ATOM     37  C   UNL A   1      32.248  31.171  27.482  1.00  0.00     0.116 C 
BRANCH  37  38
ATOM     38  N   UNL A   1      32.611  32.564  27.721  1.00  0.00    -0.352 N 
ATOM     39  C   UNL A   1      33.843  33.183  27.806  1.00  0.00     0.251 C 
ATOM     40  H   UNL A   1      31.844  33.169  27.843  1.00  0.00     0.163 HD
ATOM     41  O   UNL A   1      33.911  34.397  27.844  1.00  0.00    -0.269 OA
BRANCH  39  42
ATOM     42  C   UNL A   1      35.061  32.366  28.005  1.00  0.00     0.039 A 
ATOM     43  C   UNL A   1      36.276  33.053  28.105  1.00  0.00     0.014 A 
ATOM     44  C   UNL A   1      35.010  30.992  28.226  1.00  0.00     0.014 A 
ATOM     45  C   UNL A   1      37.405  32.392  28.584  1.00  0.00     0.010 A 
ATOM     46  C   UNL A   1      36.111  30.356  28.794  1.00  0.00     0.010 A 
ATOM     47  C   UNL A   1      37.304  31.061  29.017  1.00  0.00    -0.014 A 
BRANCH  47  48
ATOM     48  C   UNL A   1      38.415  30.423  29.771  1.00  0.00     0.031 A 
ATOM     49  C   UNL A   1      38.690  30.819  31.192  1.00  0.00     0.074 A 
ATOM     50  C   UNL A   1      39.222  29.547  29.136  1.00  0.00     0.049 A 
ATOM     51  N   UNL A   1      39.660  30.441  31.982  1.00  0.00    -0.248 NA
ATOM     52  C   UNL A   1      37.772  31.799  31.788  1.00  0.00     0.031 C 
ATOM     53  C   UNL A   1      39.091  29.133  27.736  1.00  0.00     0.029 A 
ATOM     54  N   UNL A   1      40.319  28.850  29.580  1.00  0.00    -0.354 N 
ATOM     55  C   UNL A   1      39.483  31.152  33.163  1.00  0.00     0.074 A 
ATOM     56  C   UNL A   1      38.347  32.027  32.957  1.00  0.00     0.031 C 
ATOM     57  C   UNL A   1      40.045  28.235  27.447  1.00  0.00     0.029 A 
ATOM     58  C   UNL A   1      40.885  28.038  28.623  1.00  0.00     0.049 A 
ATOM     59  H   UNL A   1      40.668  28.924  30.497  1.00  0.00     0.167 HD
ATOM     60  C   UNL A   1      40.187  31.064  34.319  1.00  0.00     0.034 A 
ATOM     61  C   UNL A   1      41.963  27.232  28.684  1.00  0.00     0.034 A 
ATOM     62  C   UNL A   1      41.306  30.172  34.507  1.00  0.00     0.049 A 
ATOM     63  C   UNL A   1      42.721  27.139  29.983  1.00  0.00     0.074 A 
ATOM     64  C   UNL A   1      42.062  29.962  35.647  1.00  0.00     0.029 A 
ATOM     65  N   UNL A   1      41.833  29.341  33.525  1.00  0.00    -0.354 N 
ATOM     66  N   UNL A   1      42.508  27.780  31.109  1.00  0.00    -0.248 NA
ATOM     67  C   UNL A   1      43.853  26.205  30.023  1.00  0.00     0.031 C 
ATOM     68  C   UNL A   1      43.075  29.045  35.341  1.00  0.00     0.029 A 
ATOM     69  C   UNL A   1      42.914  28.633  34.028  1.00  0.00     0.049 A 
ATOM     70  H   UNL A   1      41.488  29.266  32.605  1.00  0.00     0.167 HD
ATOM     71  C   UNL A   1      43.465  27.306  32.001  1.00  0.00     0.074 A 
ATOM     72  C   UNL A   1      44.243  26.314  31.285  1.00  0.00     0.031 C 
ATOM     73  C   UNL A   1      43.682  27.655  33.294  1.00  0.00     0.034 A 
BRANCH  60  74
ATOM     74  C   UNL A   1      39.774  31.979  35.448  1.00  0.00     0.023 A 
ATOM     75  C   UNL A   1      38.990  31.516  36.519  1.00  0.00     0.031 A 
ATOM     76  C   UNL A   1      40.120  33.341  35.427  1.00  0.00     0.131 A 
ATOM     77  C   UNL A   1      38.500  32.422  37.473  1.00  0.00     0.055 A 
ATOM     78  C   UNL A   1      39.703  34.222  36.429  1.00  0.00     0.041 A 
ATOM     79  F   UNL A   1      40.851  33.847  34.421  1.00  0.00    -0.206 F 
ATOM     80  C   UNL A   1      38.873  33.767  37.449  1.00  0.00     0.022 A 
BRANCH  77  81
ATOM     81  S   UNL A   1      37.245  31.845  38.648  1.00  0.00     0.124 S 
ATOM     82  O   UNL A   1      37.946  31.994  39.922  1.00  0.00    -0.237 OA
ATOM     83  O   UNL A   1      36.144  32.771  38.413  1.00  0.00    -0.237 OA
ATOM     84  O   UNL A   1      37.000  30.464  38.237  1.00  0.00    -0.744 OA
ENDBRANCH  77  81
ENDBRANCH  60  74
BRANCH  61  85
ATOM     85  C   UNL A   1      42.395  26.449  27.490  1.00  0.00     0.023 A 
ATOM     86  C   UNL A   1      42.039  25.098  27.345  1.00  0.00     0.031 A 
ATOM     87  C   UNL A   1      43.202  27.028  26.495  1.00  0.00     0.131 A 
ATOM     88  C   UNL A   1      42.527  24.359  26.256  1.00  0.00     0.055 A 
ATOM     89  C   UNL A   1      43.644  26.301  25.388  1.00  0.00     0.041 A 
ATOM     90  F   UNL A   1      43.563  28.319  26.580  1.00  0.00    -0.206 F 
ATOM     91  C   UNL A   1      43.317  24.954  25.271  1.00  0.00     0.022 A 
BRANCH  88  92
ATOM     92  S   UNL A   1      42.176  22.580  26.186  1.00  0.00     0.124 S 
ATOM     93  O   UNL A   1      40.717  22.565  26.187  1.00  0.00    -0.237 OA
ATOM     94  O   UNL A   1      42.821  22.193  24.936  1.00  0.00    -0.237 OA
ATOM     95  O   UNL A   1      42.806  22.061  27.397  1.00  0.00    -0.744 OA
ENDBRANCH  88  92
ENDBRANCH  61  85
BRANCH  73  96
ATOM     96  C   UNL A   1      44.780  26.919  34.021  1.00  0.00     0.023 A 
ATOM     97  C   UNL A   1      44.573  25.644  34.574  1.00  0.00     0.031 A 
ATOM     98  C   UNL A   1      46.044  27.513  34.174  1.00  0.00     0.131 A 
ATOM     99  C   UNL A   1      45.599  25.026  35.305  1.00  0.00     0.055 A 
ATOM    100  C   UNL A   1      47.079  26.870  34.854  1.00  0.00     0.041 A 
ATOM    101  F   UNL A   1      46.294  28.730  33.666  1.00  0.00    -0.206 F 
ATOM    102  C   UNL A   1      46.856  25.625  35.435  1.00  0.00     0.022 A 
BRANCH  99 103
ATOM    103  S   UNL A   1      45.242  23.467  36.160  1.00  0.00     0.124 S 
ATOM    104  O   UNL A   1      46.402  22.655  35.809  1.00  0.00    -0.237 OA
ATOM    105  O   UNL A   1      45.158  23.890  37.555  1.00  0.00    -0.237 OA
ATOM    106  O   UNL A   1      43.978  23.033  35.569  1.00  0.00    -0.744 OA
ENDBRANCH  99 103
ENDBRANCH  73  96
ENDBRANCH  47  48
ENDBRANCH  39  42
ENDBRANCH  37  38
ENDBRANCH  36  37
ENDBRANCH   1  36
TORSDOF 20
ENDMDL
