MODEL 1
REMARK VINA RESULT:     -12.2      0.000      0.000
REMARK SMILES Cc1nc(-c2ccco2)nc(S)c1C(=O)NCCCCNC(=O)c1ccc(-c2c3nc(c(-c4cc(S(=O)(=O)[O-])ccc4F)c4ccc([nH]4)c(-c4cc(S(=O)(=O)[O-])ccc4F)c4nc(c(-c5cc(S(=O)(=O)[O-])ccc5F)c5ccc2[nH]5)C=C4)C=C3)cc1
REMARK SMILES IDX 19 1 18 2 17 3 16 4 14 5 15 6 13 8 1 9 2 10 3 11 4 12 11 13
REMARK SMILES IDX 10 14 5 15 6 16 9 17 7 18 8 19 12 20 20 22 21 23 22 24 23 26
REMARK SMILES IDX 24 27 25 28 86 29 26 30 85 31 27 32 28 33 29 34 79 35 30 36
REMARK SMILES IDX 84 37 78 38 80 39 31 40 83 41 77 42 76 43 32 45 64 46 44 47
REMARK SMILES IDX 63 48 45 49 48 50 62 51 81 52 46 53 47 54 61 56 82 57 49 58
REMARK SMILES IDX 33 59 34 60 42 61 35 62 41 63 43 64 40 65 36 66 37 67 38 68
REMARK SMILES IDX 39 69 65 70 66 71 74 72 67 73 73 74 75 75 72 76 68 77 69 78
REMARK SMILES IDX 70 79 71 80 50 81 51 82 59 83 52 84 58 85 60 86 57 87 53 88
REMARK SMILES IDX 54 89 55 90 56 91
REMARK H PARENT 16 7 12 21 21 25 80 44 48 55
REMARK Flexibility Score: inf
ROOT
ATOM      1  C   UNL A   1      36.510  22.248  23.870  1.00  0.00     0.023 C 
ENDROOT
BRANCH   1   2
ATOM      2  C   UNL A   1      35.824  23.608  23.748  1.00  0.00     0.023 C 
BRANCH   2   3
ATOM      3  C   UNL A   1      35.323  24.238  25.044  1.00  0.00     0.116 C 
BRANCH   3   4
ATOM      4  N   UNL A   1      33.919  24.611  25.040  1.00  0.00    -0.352 N 
ATOM      5  C   UNL A   1      32.803  23.816  25.129  1.00  0.00     0.255 C 
ATOM      6  O   UNL A   1      31.695  24.336  25.245  1.00  0.00    -0.269 OA
ATOM      7  H   UNL A   1      33.742  25.576  24.963  1.00  0.00     0.163 HD
BRANCH   5   8
ATOM      8  C   UNL A   1      32.880  22.347  25.040  1.00  0.00     0.093 A 
ATOM      9  C   UNL A   1      32.518  22.262  22.515  1.00  0.00     0.068 C 
ATOM     10  C   UNL A   1      32.767  21.640  23.853  1.00  0.00     0.055 A 
ATOM     11  N   UNL A   1      32.862  20.290  23.812  1.00  0.00    -0.230 NA
ATOM     12  C   UNL A   1      33.118  19.649  24.963  1.00  0.00     0.196 A 
ATOM     13  C   UNL A   1      33.199  21.590  26.166  1.00  0.00     0.110 A 
ATOM     14  N   UNL A   1      33.287  20.239  26.151  1.00  0.00    -0.218 NA
BRANCH  12  15
ATOM     15  C   UNL A   1      33.177  18.198  24.923  1.00  0.00     0.171 A 
ATOM     16  C   UNL A   1      33.950  17.288  24.226  1.00  0.00     0.054 A 
ATOM     17  O   UNL A   1      32.300  17.523  25.729  1.00  0.00    -0.461 OA
ATOM     18  C   UNL A   1      33.536  15.998  24.644  1.00  0.00     0.043 A 
ATOM     19  C   UNL A   1      32.522  16.197  25.548  1.00  0.00     0.196 A 
ENDBRANCH  12  15
BRANCH  13  20
ATOM     20  S   UNL A   1      33.506  22.287  27.785  1.00  0.00    -0.123 SA
ATOM     21  H   UNL A   1      33.478  23.645  27.706  1.00  0.00     0.110 HD
ENDBRANCH  13  20
ENDBRANCH   5   8
ENDBRANCH   3   4
ENDBRANCH   2   3
ENDBRANCH   1   2
BRANCH   1  22
ATOM     22  C   UNL A   1      36.827  21.756  25.280  1.00  0.00     0.116 C 
BRANCH  22  23
ATOM     23  N   UNL A   1      37.954  20.837  25.361  1.00  0.00    -0.352 N 
ATOM     24  C   UNL A   1      39.201  20.995  25.929  1.00  0.00     0.251 C 
ATOM     25  H   UNL A   1      37.802  19.960  24.940  1.00  0.00     0.163 HD
ATOM     26  O   UNL A   1      40.026  20.090  25.835  1.00  0.00    -0.269 OA
BRANCH  24  27
ATOM     27  C   UNL A   1      39.566  22.269  26.589  1.00  0.00     0.039 A 
ATOM     28  C   UNL A   1      39.007  23.478  26.179  1.00  0.00     0.014 A 
ATOM     29  C   UNL A   1      40.537  22.258  27.595  1.00  0.00     0.014 A 
ATOM     30  C   UNL A   1      39.593  24.673  26.579  1.00  0.00     0.010 A 
ATOM     31  C   UNL A   1      41.050  23.467  28.080  1.00  0.00     0.010 A 
ATOM     32  C   UNL A   1      40.642  24.685  27.515  1.00  0.00    -0.014 A 
BRANCH  32  33
ATOM     33  C   UNL A   1      41.318  25.971  27.846  1.00  0.00     0.031 A 
ATOM     34  C   UNL A   1      42.686  26.289  27.290  1.00  0.00     0.074 A 
ATOM     35  C   UNL A   1      40.668  26.892  28.583  1.00  0.00     0.049 A 
ATOM     36  N   UNL A   1      43.406  27.372  27.445  1.00  0.00    -0.248 NA
ATOM     37  C   UNL A   1      43.334  25.263  26.457  1.00  0.00     0.031 C 
ATOM     38  C   UNL A   1      39.339  26.704  29.166  1.00  0.00     0.029 A 
ATOM     39  N   UNL A   1      41.011  28.171  28.946  1.00  0.00    -0.354 N 
ATOM     40  C   UNL A   1      44.592  27.149  26.754  1.00  0.00     0.074 A 
ATOM     41  C   UNL A   1      44.513  25.816  26.203  1.00  0.00     0.031 C 
ATOM     42  C   UNL A   1      38.952  27.845  29.753  1.00  0.00     0.029 A 
ATOM     43  C   UNL A   1      40.034  28.822  29.665  1.00  0.00     0.049 A 
ATOM     44  H   UNL A   1      41.875  28.583  28.714  1.00  0.00     0.167 HD
ATOM     45  C   UNL A   1      45.644  27.986  26.583  1.00  0.00     0.034 A 
ATOM     46  C   UNL A   1      40.008  30.058  30.205  1.00  0.00     0.034 A 
ATOM     47  C   UNL A   1      45.698  29.328  27.104  1.00  0.00     0.049 A 
ATOM     48  C   UNL A   1      41.197  30.963  30.011  1.00  0.00     0.074 A 
ATOM     49  C   UNL A   1      46.712  30.259  26.958  1.00  0.00     0.029 A 
ATOM     50  N   UNL A   1      44.702  29.938  27.852  1.00  0.00    -0.354 N 
ATOM     51  N   UNL A   1      42.297  30.741  29.330  1.00  0.00    -0.248 NA
ATOM     52  C   UNL A   1      41.148  32.282  30.655  1.00  0.00     0.031 C 
ATOM     53  C   UNL A   1      46.354  31.409  27.661  1.00  0.00     0.029 A 
ATOM     54  C   UNL A   1      45.088  31.224  28.193  1.00  0.00     0.049 A 
ATOM     55  H   UNL A   1      43.848  29.518  28.104  1.00  0.00     0.167 HD
ATOM     56  C   UNL A   1      43.064  31.896  29.455  1.00  0.00     0.074 A 
ATOM     57  C   UNL A   1      42.288  32.826  30.248  1.00  0.00     0.031 C 
ATOM     58  C   UNL A   1      44.302  32.154  28.967  1.00  0.00     0.034 A 
BRANCH  45  59
ATOM     59  C   UNL A   1      46.834  27.509  25.786  1.00  0.00     0.023 A 
ATOM     60  C   UNL A   1      46.998  27.926  24.451  1.00  0.00     0.031 A 
ATOM     61  C   UNL A   1      47.711  26.533  26.292  1.00  0.00     0.131 A 
ATOM     62  C   UNL A   1      47.989  27.337  23.655  1.00  0.00     0.055 A 
ATOM     63  C   UNL A   1      48.722  25.978  25.504  1.00  0.00     0.041 A 
ATOM     64  F   UNL A   1      47.597  26.105  27.559  1.00  0.00    -0.206 F 
ATOM     65  C   UNL A   1      48.854  26.370  24.175  1.00  0.00     0.022 A 
BRANCH  62  66
ATOM     66  S   UNL A   1      48.152  27.756  21.897  1.00  0.00     0.124 S 
ATOM     67  O   UNL A   1      49.290  28.672  21.911  1.00  0.00    -0.237 OA
ATOM     68  O   UNL A   1      48.408  26.450  21.295  1.00  0.00    -0.237 OA
ATOM     69  O   UNL A   1      46.870  28.366  21.561  1.00  0.00    -0.744 OA
ENDBRANCH  62  66
ENDBRANCH  45  59
BRANCH  46  70
ATOM     70  C   UNL A   1      38.791  30.501  30.947  1.00  0.00     0.023 A 
ATOM     71  C   UNL A   1      37.698  31.068  30.264  1.00  0.00     0.031 A 
ATOM     72  C   UNL A   1      38.748  30.474  32.350  1.00  0.00     0.131 A 
ATOM     73  C   UNL A   1      36.652  31.656  30.984  1.00  0.00     0.055 A 
ATOM     74  C   UNL A   1      37.664  30.991  33.064  1.00  0.00     0.041 A 
ATOM     75  F   UNL A   1      39.770  29.955  33.048  1.00  0.00    -0.206 F 
ATOM     76  C   UNL A   1      36.620  31.606  32.381  1.00  0.00     0.022 A 
BRANCH  73  77
ATOM     77  S   UNL A   1      35.389  32.648  30.139  1.00  0.00     0.124 S 
ATOM     78  O   UNL A   1      36.105  33.892  29.878  1.00  0.00    -0.237 OA
ATOM     79  O   UNL A   1      35.099  31.828  28.965  1.00  0.00    -0.237 OA
ATOM     80  O   UNL A   1      34.308  32.731  31.115  1.00  0.00    -0.744 OA
ENDBRANCH  73  77
ENDBRANCH  46  70
BRANCH  58  81
ATOM     81  C   UNL A   1      44.930  33.495  29.259  1.00  0.00     0.023 A 
ATOM     82  C   UNL A   1      44.811  34.547  28.330  1.00  0.00     0.031 A 
ATOM     83  C   UNL A   1      45.771  33.678  30.371  1.00  0.00     0.131 A 
ATOM     84  C   UNL A   1      45.553  35.720  28.510  1.00  0.00     0.055 A 
ATOM     85  C   UNL A   1      46.474  34.867  30.567  1.00  0.00     0.041 A 
ATOM     86  F   UNL A   1      45.924  32.700  31.278  1.00  0.00    -0.206 F 
ATOM     87  C   UNL A   1      46.378  35.889  29.626  1.00  0.00     0.022 A 
BRANCH  84  88
ATOM     88  S   UNL A   1      45.547  37.032  27.257  1.00  0.00     0.124 S 
ATOM     89  O   UNL A   1      46.237  38.116  27.953  1.00  0.00    -0.237 OA
ATOM     90  O   UNL A   1      46.295  36.418  26.162  1.00  0.00    -0.237 OA
ATOM     91  O   UNL A   1      44.130  37.264  26.996  1.00  0.00    -0.744 OA
ENDBRANCH  84  88
ENDBRANCH  58  81
ENDBRANCH  32  33
ENDBRANCH  24  27
ENDBRANCH  22  23
ENDBRANCH   1  22
TORSDOF 16
ENDMDL
MODEL 2
REMARK VINA RESULT:     -12.1      5.723     10.835
REMARK SMILES Cc1nc(-c2ccco2)nc(S)c1C(=O)NCCCCNC(=O)c1ccc(-c2c3nc(c(-c4cc(S(=O)(=O)[O-])ccc4F)c4ccc([nH]4)c(-c4cc(S(=O)(=O)[O-])ccc4F)c4nc(c(-c5cc(S(=O)(=O)[O-])ccc5F)c5ccc2[nH]5)C=C4)C=C3)cc1
REMARK SMILES IDX 19 1 18 2 17 3 16 4 14 5 15 6 13 8 1 9 2 10 3 11 4 12 11 13
REMARK SMILES IDX 10 14 5 15 6 16 9 17 7 18 8 19 12 20 20 22 21 23 22 24 23 26
REMARK SMILES IDX 24 27 25 28 86 29 26 30 85 31 27 32 28 33 29 34 79 35 30 36
REMARK SMILES IDX 84 37 78 38 80 39 31 40 83 41 77 42 76 43 32 45 64 46 44 47
REMARK SMILES IDX 63 48 45 49 48 50 62 51 81 52 46 53 47 54 61 56 82 57 49 58
REMARK SMILES IDX 33 59 34 60 42 61 35 62 41 63 43 64 40 65 36 66 37 67 38 68
REMARK SMILES IDX 39 69 65 70 66 71 74 72 67 73 73 74 75 75 72 76 68 77 69 78
REMARK SMILES IDX 70 79 71 80 50 81 51 82 59 83 52 84 58 85 60 86 57 87 53 88
REMARK SMILES IDX 54 89 55 90 56 91
REMARK H PARENT 16 7 12 21 21 25 80 44 48 55
REMARK Flexibility Score: inf
ROOT
ATOM      1  C   UNL A   1      31.695  29.146  27.138  1.00  0.00     0.023 C 
ENDROOT
BRANCH   1   2
ATOM      2  C   UNL A   1      32.365  27.781  27.298  1.00  0.00     0.023 C 
BRANCH   2   3
ATOM      3  C   UNL A   1      33.620  27.535  26.466  1.00  0.00     0.116 C 
BRANCH   3   4
ATOM      4  N   UNL A   1      33.544  26.400  25.563  1.00  0.00    -0.352 N 
ATOM      5  C   UNL A   1      32.931  26.296  24.338  1.00  0.00     0.255 C 
ATOM      6  O   UNL A   1      33.094  25.283  23.663  1.00  0.00    -0.269 OA
ATOM      7  H   UNL A   1      33.999  25.586  25.875  1.00  0.00     0.163 HD
BRANCH   5   8
ATOM      8  C   UNL A   1      32.035  27.345  23.822  1.00  0.00     0.093 A 
ATOM      9  C   UNL A   1      33.863  28.590  22.548  1.00  0.00     0.068 C 
ATOM     10  C   UNL A   1      32.451  28.379  22.997  1.00  0.00     0.055 A 
ATOM     11  N   UNL A   1      31.590  29.313  22.529  1.00  0.00    -0.230 NA
ATOM     12  C   UNL A   1      30.295  29.184  22.855  1.00  0.00     0.196 A 
ATOM     13  C   UNL A   1      30.662  27.273  24.054  1.00  0.00     0.110 A 
ATOM     14  N   UNL A   1      29.784  28.204  23.607  1.00  0.00    -0.218 NA
BRANCH  12  15
ATOM     15  C   UNL A   1      29.382  30.212  22.387  1.00  0.00     0.171 A 
ATOM     16  C   UNL A   1      28.901  31.390  22.931  1.00  0.00     0.054 A 
ATOM     17  O   UNL A   1      28.842  30.036  21.141  1.00  0.00    -0.461 OA
ATOM     18  C   UNL A   1      28.044  31.967  21.960  1.00  0.00     0.043 A 
ATOM     19  C   UNL A   1      28.032  31.097  20.897  1.00  0.00     0.196 A 
ENDBRANCH  12  15
BRANCH  13  20
ATOM     20  S   UNL A   1      29.873  25.970  24.991  1.00  0.00    -0.123 SA
ATOM     21  H   UNL A   1      30.220  26.080  26.302  1.00  0.00     0.110 HD
ENDBRANCH  13  20
ENDBRANCH   5   8
ENDBRANCH   3   4
ENDBRANCH   2   3
ENDBRANCH   1   2
BRANCH   1  22
ATOM     22  C   UNL A   1      32.430  30.183  26.293  1.00  0.00     0.116 C 
BRANCH  22  23
ATOM     23  N   UNL A   1      32.301  31.553  26.771  1.00  0.00    -0.352 N 
ATOM     24  C   UNL A   1      33.198  32.356  27.442  1.00  0.00     0.251 C 
ATOM     25  H   UNL A   1      31.430  31.974  26.584  1.00  0.00     0.163 HD
ATOM     26  O   UNL A   1      32.853  33.481  27.796  1.00  0.00    -0.269 OA
BRANCH  24  27
ATOM     27  C   UNL A   1      34.542  31.846  27.793  1.00  0.00     0.039 A 
ATOM     28  C   UNL A   1      34.747  30.498  28.081  1.00  0.00     0.014 A 
ATOM     29  C   UNL A   1      35.605  32.749  27.899  1.00  0.00     0.014 A 
ATOM     30  C   UNL A   1      35.921  30.105  28.714  1.00  0.00     0.010 A 
ATOM     31  C   UNL A   1      36.826  32.325  28.435  1.00  0.00     0.010 A 
ATOM     32  C   UNL A   1      36.968  31.018  28.926  1.00  0.00    -0.014 A 
BRANCH  32  33
ATOM     33  C   UNL A   1      38.170  30.594  29.698  1.00  0.00     0.031 A 
ATOM     34  C   UNL A   1      38.370  31.047  31.126  1.00  0.00     0.074 A 
ATOM     35  C   UNL A   1      39.045  29.734  29.143  1.00  0.00     0.049 A 
ATOM     36  N   UNL A   1      39.336  30.747  31.956  1.00  0.00    -0.248 NA
ATOM     37  C   UNL A   1      37.361  31.956  31.695  1.00  0.00     0.031 C 
ATOM     38  C   UNL A   1      38.952  29.217  27.777  1.00  0.00     0.029 A 
ATOM     39  N   UNL A   1      40.160  29.118  29.656  1.00  0.00    -0.354 N 
ATOM     40  C   UNL A   1      39.067  31.443  33.130  1.00  0.00     0.074 A 
ATOM     41  C   UNL A   1      37.863  32.208  32.897  1.00  0.00     0.031 C 
ATOM     42  C   UNL A   1      39.924  28.315  27.582  1.00  0.00     0.029 A 
ATOM     43  C   UNL A   1      40.762  28.246  28.776  1.00  0.00     0.049 A 
ATOM     44  H   UNL A   1      40.497  29.283  30.565  1.00  0.00     0.167 HD
ATOM     45  C   UNL A   1      39.753  31.434  34.297  1.00  0.00     0.034 A 
ATOM     46  C   UNL A   1      41.869  27.485  28.903  1.00  0.00     0.034 A 
ATOM     47  C   UNL A   1      40.931  30.639  34.533  1.00  0.00     0.049 A 
ATOM     48  C   UNL A   1      42.620  27.504  30.209  1.00  0.00     0.074 A 
ATOM     49  C   UNL A   1      41.678  30.544  35.695  1.00  0.00     0.029 A 
ATOM     50  N   UNL A   1      41.525  29.794  33.607  1.00  0.00    -0.354 N 
ATOM     51  N   UNL A   1      42.332  28.149  31.314  1.00  0.00    -0.248 NA
ATOM     52  C   UNL A   1      43.846  26.697  30.289  1.00  0.00     0.031 C 
ATOM     53  C   UNL A   1      42.752  29.688  35.455  1.00  0.00     0.029 A 
ATOM     54  C   UNL A   1      42.642  29.193  34.166  1.00  0.00     0.049 A 
ATOM     55  H   UNL A   1      41.203  29.645  32.689  1.00  0.00     0.167 HD
ATOM     56  C   UNL A   1      43.332  27.817  32.224  1.00  0.00     0.074 A 
ATOM     57  C   UNL A   1      44.214  26.887  31.550  1.00  0.00     0.031 C 
ATOM     58  C   UNL A   1      43.507  28.253  33.495  1.00  0.00     0.034 A 
BRANCH  45  59
ATOM     59  C   UNL A   1      39.260  32.287  35.441  1.00  0.00     0.023 A 
ATOM     60  C   UNL A   1      39.711  33.615  35.572  1.00  0.00     0.031 A 
ATOM     61  C   UNL A   1      38.474  31.746  36.474  1.00  0.00     0.131 A 
ATOM     62  C   UNL A   1      39.408  34.342  36.730  1.00  0.00     0.055 A 
ATOM     63  C   UNL A   1      38.143  32.488  37.609  1.00  0.00     0.041 A 
ATOM     64  F   UNL A   1      38.018  30.486  36.394  1.00  0.00    -0.206 F 
ATOM     65  C   UNL A   1      38.623  33.789  37.747  1.00  0.00     0.022 A 
BRANCH  62  66
ATOM     66  S   UNL A   1      40.073  36.009  36.993  1.00  0.00     0.124 S 
ATOM     67  O   UNL A   1      39.274  36.476  38.123  1.00  0.00    -0.237 OA
ATOM     68  O   UNL A   1      41.476  35.734  37.291  1.00  0.00    -0.237 OA
ATOM     69  O   UNL A   1      39.817  36.693  35.730  1.00  0.00    -0.744 OA
ENDBRANCH  62  66
ENDBRANCH  45  59
BRANCH  46  70
ATOM     70  C   UNL A   1      42.293  26.623  27.760  1.00  0.00     0.023 A 
ATOM     71  C   UNL A   1      41.759  25.331  27.596  1.00  0.00     0.031 A 
ATOM     72  C   UNL A   1      43.316  27.028  26.888  1.00  0.00     0.131 A 
ATOM     73  C   UNL A   1      42.305  24.464  26.641  1.00  0.00     0.055 A 
ATOM     74  C   UNL A   1      43.804  26.189  25.885  1.00  0.00     0.041 A 
ATOM     75  F   UNL A   1      43.866  28.247  27.011  1.00  0.00    -0.206 F 
ATOM     76  C   UNL A   1      43.314  24.891  25.773  1.00  0.00     0.022 A 
BRANCH  73  77
ATOM     77  S   UNL A   1      41.841  22.711  26.611  1.00  0.00     0.124 S 
ATOM     78  O   UNL A   1      42.519  22.197  27.796  1.00  0.00    -0.237 OA
ATOM     79  O   UNL A   1      40.384  22.783  26.698  1.00  0.00    -0.237 OA
ATOM     80  O   UNL A   1      42.359  22.241  25.330  1.00  0.00    -0.744 OA
ENDBRANCH  73  77
ENDBRANCH  46  70
BRANCH  58  81
ATOM     81  C   UNL A   1      44.696  27.747  34.276  1.00  0.00     0.023 A 
ATOM     82  C   UNL A   1      44.557  26.636  35.130  1.00  0.00     0.031 A 
ATOM     83  C   UNL A   1      45.909  28.457  34.296  1.00  0.00     0.131 A 
ATOM     84  C   UNL A   1      45.602  26.290  35.996  1.00  0.00     0.055 A 
ATOM     85  C   UNL A   1      46.962  28.081  35.130  1.00  0.00     0.041 A 
ATOM     86  F   UNL A   1      46.083  29.530  33.508  1.00  0.00    -0.206 F 
ATOM     87  C   UNL A   1      46.805  27.002  35.996  1.00  0.00     0.022 A 
BRANCH  84  88
ATOM     88  S   UNL A   1      45.404  24.963  37.217  1.00  0.00     0.124 S 
ATOM     89  O   UNL A   1      46.190  25.469  38.341  1.00  0.00    -0.237 OA
ATOM     90  O   UNL A   1      43.958  24.948  37.425  1.00  0.00    -0.237 OA
ATOM     91  O   UNL A   1      45.954  23.787  36.553  1.00  0.00    -0.744 OA
ENDBRANCH  84  88
ENDBRANCH  58  81
ENDBRANCH  32  33
ENDBRANCH  24  27
ENDBRANCH  22  23
ENDBRANCH   1  22
TORSDOF 16
ENDMDL
MODEL 3
REMARK VINA RESULT:     -12.1      1.636      1.997
REMARK SMILES Cc1nc(-c2ccco2)nc(S)c1C(=O)NCCCCNC(=O)c1ccc(-c2c3nc(c(-c4cc(S(=O)(=O)[O-])ccc4F)c4ccc([nH]4)c(-c4cc(S(=O)(=O)[O-])ccc4F)c4nc(c(-c5cc(S(=O)(=O)[O-])ccc5F)c5ccc2[nH]5)C=C4)C=C3)cc1
REMARK SMILES IDX 19 1 18 2 17 3 16 4 14 5 15 6 13 8 1 9 2 10 3 11 4 12 11 13
REMARK SMILES IDX 10 14 5 15 6 16 9 17 7 18 8 19 12 20 20 22 21 23 22 24 23 26
REMARK SMILES IDX 24 27 25 28 86 29 26 30 85 31 27 32 28 33 29 34 79 35 30 36
REMARK SMILES IDX 84 37 78 38 80 39 31 40 83 41 77 42 76 43 32 45 64 46 44 47
REMARK SMILES IDX 63 48 45 49 48 50 62 51 81 52 46 53 47 54 61 56 82 57 49 58
REMARK SMILES IDX 33 59 34 60 42 61 35 62 41 63 43 64 40 65 36 66 37 67 38 68
REMARK SMILES IDX 39 69 65 70 66 71 74 72 67 73 73 74 75 75 72 76 68 77 69 78
REMARK SMILES IDX 70 79 71 80 50 81 51 82 59 83 52 84 58 85 60 86 57 87 53 88
REMARK SMILES IDX 54 89 55 90 56 91
REMARK H PARENT 16 7 12 21 21 25 80 44 48 55
REMARK Flexibility Score: inf
ROOT
ATOM      1  C   UNL A   1      36.668  22.087  23.910  1.00  0.00     0.023 C 
ENDROOT
BRANCH   1   2
ATOM      2  C   UNL A   1      36.278  23.565  23.876  1.00  0.00     0.023 C 
BRANCH   2   3
ATOM      3  C   UNL A   1      35.778  24.170  25.184  1.00  0.00     0.116 C 
BRANCH   3   4
ATOM      4  N   UNL A   1      34.401  24.628  25.160  1.00  0.00    -0.352 N 
ATOM      5  C   UNL A   1      33.237  23.905  25.261  1.00  0.00     0.255 C 
ATOM      6  O   UNL A   1      32.163  24.495  25.354  1.00  0.00    -0.269 OA
ATOM      7  H   UNL A   1      34.283  25.599  25.057  1.00  0.00     0.163 HD
BRANCH   5   8
ATOM      8  C   UNL A   1      33.224  22.433  25.210  1.00  0.00     0.093 A 
ATOM      9  C   UNL A   1      33.444  22.124  27.734  1.00  0.00     0.068 C 
ATOM     10  C   UNL A   1      33.303  21.621  26.332  1.00  0.00     0.055 A 
ATOM     11  N   UNL A   1      33.270  20.271  26.242  1.00  0.00    -0.230 NA
ATOM     12  C   UNL A   1      33.113  19.732  25.024  1.00  0.00     0.196 A 
ATOM     13  C   UNL A   1      33.009  21.773  24.001  1.00  0.00     0.110 A 
ATOM     14  N   UNL A   1      32.985  20.424  23.887  1.00  0.00    -0.218 NA
BRANCH  12  15
ATOM     15  C   UNL A   1      33.121  18.283  24.927  1.00  0.00     0.171 A 
ATOM     16  C   UNL A   1      33.761  17.380  24.097  1.00  0.00     0.054 A 
ATOM     17  O   UNL A   1      32.346  17.600  25.826  1.00  0.00    -0.461 OA
ATOM     18  C   UNL A   1      33.371  16.086  24.524  1.00  0.00     0.043 A 
ATOM     19  C   UNL A   1      32.500  16.276  25.570  1.00  0.00     0.196 A 
ENDBRANCH  12  15
BRANCH  13  20
ATOM     20  S   UNL A   1      32.763  22.606  22.438  1.00  0.00    -0.123 SA
ATOM     21  H   UNL A   1      33.338  23.838  22.485  1.00  0.00     0.110 HD
ENDBRANCH  13  20
ENDBRANCH   5   8
ENDBRANCH   3   4
ENDBRANCH   2   3
ENDBRANCH   1   2
BRANCH   1  22
ATOM     22  C   UNL A   1      36.895  21.464  25.285  1.00  0.00     0.116 C 
BRANCH  22  23
ATOM     23  N   UNL A   1      38.020  20.540  25.350  1.00  0.00    -0.352 N 
ATOM     24  C   UNL A   1      39.265  20.683  25.926  1.00  0.00     0.251 C 
ATOM     25  H   UNL A   1      37.866  19.672  24.912  1.00  0.00     0.163 HD
ATOM     26  O   UNL A   1      40.088  19.777  25.817  1.00  0.00    -0.269 OA
BRANCH  24  27
ATOM     27  C   UNL A   1      39.631  21.942  26.613  1.00  0.00     0.039 A 
ATOM     28  C   UNL A   1      39.047  23.154  26.252  1.00  0.00     0.014 A 
ATOM     29  C   UNL A   1      40.628  21.915  27.594  1.00  0.00     0.014 A 
ATOM     30  C   UNL A   1      39.629  24.345  26.672  1.00  0.00     0.010 A 
ATOM     31  C   UNL A   1      41.138  23.116  28.100  1.00  0.00     0.010 A 
ATOM     32  C   UNL A   1      40.701  24.344  27.581  1.00  0.00    -0.014 A 
BRANCH  32  33
ATOM     33  C   UNL A   1      41.370  25.629  27.931  1.00  0.00     0.031 A 
ATOM     34  C   UNL A   1      42.767  25.931  27.441  1.00  0.00     0.074 A 
ATOM     35  C   UNL A   1      40.691  26.562  28.625  1.00  0.00     0.049 A 
ATOM     36  N   UNL A   1      43.486  27.010  27.620  1.00  0.00    -0.248 NA
ATOM     37  C   UNL A   1      43.447  24.891  26.652  1.00  0.00     0.031 C 
ATOM     38  C   UNL A   1      39.333  26.391  29.143  1.00  0.00     0.029 A 
ATOM     39  N   UNL A   1      41.026  27.843  28.991  1.00  0.00    -0.354 N 
ATOM     40  C   UNL A   1      44.704  26.771  26.992  1.00  0.00     0.074 A 
ATOM     41  C   UNL A   1      44.642  25.432  26.452  1.00  0.00     0.031 C 
ATOM     42  C   UNL A   1      38.927  27.541  29.697  1.00  0.00     0.029 A 
ATOM     43  C   UNL A   1      40.019  28.509  29.652  1.00  0.00     0.049 A 
ATOM     44  H   UNL A   1      41.903  28.246  28.798  1.00  0.00     0.167 HD
ATOM     45  C   UNL A   1      45.769  27.598  26.865  1.00  0.00     0.034 A 
ATOM     46  C   UNL A   1      39.977  29.751  30.178  1.00  0.00     0.034 A 
ATOM     47  C   UNL A   1      45.808  28.945  27.373  1.00  0.00     0.049 A 
ATOM     48  C   UNL A   1      41.181  30.645  30.033  1.00  0.00     0.074 A 
ATOM     49  C   UNL A   1      46.835  29.867  27.268  1.00  0.00     0.029 A 
ATOM     50  N   UNL A   1      44.781  29.571  28.063  1.00  0.00    -0.354 N 
ATOM     51  N   UNL A   1      42.311  30.408  29.411  1.00  0.00    -0.248 NA
ATOM     52  C   UNL A   1      41.110  31.972  30.660  1.00  0.00     0.031 C 
ATOM     53  C   UNL A   1      46.452  31.027  27.940  1.00  0.00     0.029 A 
ATOM     54  C   UNL A   1      45.159  30.858  28.409  1.00  0.00     0.049 A 
ATOM     55  H   UNL A   1      43.912  29.160  28.278  1.00  0.00     0.167 HD
ATOM     56  C   UNL A   1      43.080  31.558  29.562  1.00  0.00     0.074 A 
ATOM     57  C   UNL A   1      42.273  32.503  30.305  1.00  0.00     0.031 C 
ATOM     58  C   UNL A   1      44.343  31.801  29.134  1.00  0.00     0.034 A 
BRANCH  45  59
ATOM     59  C   UNL A   1      46.994  27.104  26.133  1.00  0.00     0.023 A 
ATOM     60  C   UNL A   1      48.011  26.434  26.840  1.00  0.00     0.031 A 
ATOM     61  C   UNL A   1      47.223  27.427  24.784  1.00  0.00     0.131 A 
ATOM     62  C   UNL A   1      49.227  26.147  26.206  1.00  0.00     0.055 A 
ATOM     63  C   UNL A   1      48.422  27.104  24.146  1.00  0.00     0.041 A 
ATOM     64  F   UNL A   1      46.283  28.063  24.067  1.00  0.00    -0.206 F 
ATOM     65  C   UNL A   1      49.436  26.473  24.862  1.00  0.00     0.022 A 
BRANCH  62  66
ATOM     66  S   UNL A   1      50.607  25.397  27.115  1.00  0.00     0.124 S 
ATOM     67  O   UNL A   1      49.941  24.307  27.824  1.00  0.00    -0.237 OA
ATOM     68  O   UNL A   1      51.498  24.988  26.033  1.00  0.00    -0.237 OA
ATOM     69  O   UNL A   1      51.097  26.479  27.963  1.00  0.00    -0.744 OA
ENDBRANCH  62  66
ENDBRANCH  45  59
BRANCH  46  70
ATOM     70  C   UNL A   1      38.727  30.212  30.853  1.00  0.00     0.023 A 
ATOM     71  C   UNL A   1      37.687  30.806  30.114  1.00  0.00     0.031 A 
ATOM     72  C   UNL A   1      38.602  30.171  32.251  1.00  0.00     0.131 A 
ATOM     73  C   UNL A   1      36.612  31.409  30.780  1.00  0.00     0.055 A 
ATOM     74  C   UNL A   1      37.490  30.703  32.907  1.00  0.00     0.041 A 
ATOM     75  F   UNL A   1      39.572  29.625  33.001  1.00  0.00    -0.206 F 
ATOM     76  C   UNL A   1      36.499  31.345  32.171  1.00  0.00     0.022 A 
BRANCH  73  77
ATOM     77  S   UNL A   1      35.420  32.433  29.873  1.00  0.00     0.124 S 
ATOM     78  O   UNL A   1      35.010  31.540  28.796  1.00  0.00    -0.237 OA
ATOM     79  O   UNL A   1      34.410  32.696  30.895  1.00  0.00    -0.237 OA
ATOM     80  O   UNL A   1      36.205  33.595  29.469  1.00  0.00    -0.744 OA
ENDBRANCH  73  77
ENDBRANCH  46  70
BRANCH  58  81
ATOM     81  C   UNL A   1      44.966  33.142  29.443  1.00  0.00     0.023 A 
ATOM     82  C   UNL A   1      44.883  34.190  28.506  1.00  0.00     0.031 A 
ATOM     83  C   UNL A   1      45.769  33.325  30.582  1.00  0.00     0.131 A 
ATOM     84  C   UNL A   1      45.623  35.361  28.707  1.00  0.00     0.055 A 
ATOM     85  C   UNL A   1      46.470  34.512  30.798  1.00  0.00     0.041 A 
ATOM     86  F   UNL A   1      45.888  32.350  31.496  1.00  0.00    -0.206 F 
ATOM     87  C   UNL A   1      46.411  35.531  29.850  1.00  0.00     0.022 A 
BRANCH  84  88
ATOM     88  S   UNL A   1      45.665  36.669  27.451  1.00  0.00     0.124 S 
ATOM     89  O   UNL A   1      46.534  37.663  28.078  1.00  0.00    -0.237 OA
ATOM     90  O   UNL A   1      46.241  35.975  26.301  1.00  0.00    -0.237 OA
ATOM     91  O   UNL A   1      44.268  37.066  27.308  1.00  0.00    -0.744 OA
ENDBRANCH  84  88
ENDBRANCH  58  81
ENDBRANCH  32  33
ENDBRANCH  24  27
ENDBRANCH  22  23
ENDBRANCH   1  22
TORSDOF 16
ENDMDL
