MODEL 1
REMARK VINA RESULT:     -14.6      0.000      0.000
REMARK SMILES Cc1ccc(-c2cc(C(=O)NCCCCNC(=O)c3ccc(-c4c5nc(c(-c6cc(S(=O)(=O)[O-])ccc6F)c6ccc([nH]6)c(-c6cc(S(=O)(=O)[O-])ccc6F)c6nc(c(-c7cc(S(=O)(=O)[O-])ccc7F)c7ccc4[nH]7)C=C6)C=C5)cc3)c3c(-c4cccc([N+](=O)[O-])c4)[nH]nc3n2)cc1
REMARK SMILES IDX 14 1 13 2 12 3 11 4 9 5 10 6 8 8 6 9 7 10 96 11 95 12 82 13
REMARK SMILES IDX 94 14 83 15 93 16 5 18 1 19 2 20 3 21 98 22 4 23 97 24 84 25
REMARK SMILES IDX 85 26 92 27 86 28 88 29 87 30 89 31 90 32 91 33 15 34 16 35
REMARK SMILES IDX 17 36 18 38 19 39 20 40 81 41 21 42 80 43 22 44 23 45 24 46
REMARK SMILES IDX 74 47 25 48 79 49 73 50 75 51 26 52 78 53 72 54 71 55 27 57
REMARK SMILES IDX 59 58 39 59 58 60 40 61 43 62 57 63 76 64 41 65 42 66 56 68
REMARK SMILES IDX 77 69 44 70 28 71 29 72 37 73 30 74 36 75 38 76 35 77 31 78
REMARK SMILES IDX 32 79 33 80 34 81 60 82 61 83 69 84 62 85 68 86 70 87 67 88
REMARK SMILES IDX 63 89 64 90 65 91 66 92 45 93 46 94 54 95 47 96 53 97 55 98
REMARK SMILES IDX 52 99 48 100 49 101 50 102 51 103
REMARK H PARENT 11 7 93 17 16 37 75 56 43 67
REMARK Flexibility Score: inf
ROOT
ATOM      1  C   UNL A   1      32.888  30.831  26.953  1.00  0.00     0.023 C 
ENDROOT
BRANCH   1   2
ATOM      2  C   UNL A   1      31.943  29.731  26.458  1.00  0.00     0.023 C 
BRANCH   2   3
ATOM      3  C   UNL A   1      32.171  28.352  27.097  1.00  0.00     0.116 C 
BRANCH   3   4
ATOM      4  N   UNL A   1      31.131  27.388  26.741  1.00  0.00    -0.352 N 
ATOM      5  C   UNL A   1      31.014  26.341  25.861  1.00  0.00     0.252 C 
ATOM      6  O   UNL A   1      29.963  25.714  25.971  1.00  0.00    -0.269 OA
ATOM      7  H   UNL A   1      30.307  27.525  27.262  1.00  0.00     0.163 HD
BRANCH   5   8
ATOM      8  C   UNL A   1      32.036  25.934  24.859  1.00  0.00     0.055 A 
ATOM      9  C   UNL A   1      34.114  24.690  24.242  1.00  0.00     0.074 A 
ATOM     10  C   UNL A   1      33.189  25.210  25.183  1.00  0.00     0.043 A 
ATOM     11  N   UNL A   1      34.074  24.892  22.903  1.00  0.00    -0.226 NA
ATOM     12  C   UNL A   1      33.001  25.630  22.525  1.00  0.00     0.182 A 
ATOM     13  C   UNL A   1      32.014  26.140  23.458  1.00  0.00     0.059 A 
ATOM     14  N   UNL A   1      32.725  25.967  21.264  1.00  0.00    -0.154 NA
ATOM     15  C   UNL A   1      31.127  26.843  22.651  1.00  0.00     0.076 A 
ATOM     16  N   UNL A   1      31.588  26.660  21.370  1.00  0.00    -0.275 N 
ATOM     17  H   UNL A   1      31.114  27.015  20.583  1.00  0.00     0.190 HD
BRANCH   9  18
ATOM     18  C   UNL A   1      35.183  23.822  24.762  1.00  0.00     0.000 A 
ATOM     19  C   UNL A   1      38.826  21.729  25.761  1.00  0.00     0.044 C 
ATOM     20  C   UNL A   1      37.515  22.402  25.483  1.00  0.00    -0.051 A 
ATOM     21  C   UNL A   1      36.597  21.852  24.580  1.00  0.00     0.004 A 
ATOM     22  C   UNL A   1      37.239  23.640  26.061  1.00  0.00     0.004 A 
ATOM     23  C   UNL A   1      35.435  22.552  24.227  1.00  0.00     0.010 A 
ATOM     24  C   UNL A   1      36.083  24.333  25.715  1.00  0.00     0.010 A 
ENDBRANCH   9  18
BRANCH  15  25
ATOM     25  C   UNL A   1      29.955  27.675  22.879  1.00  0.00     0.007 A 
ATOM     26  C   UNL A   1      28.736  27.094  23.256  1.00  0.00     0.011 A 
ATOM     27  C   UNL A   1      30.053  29.067  22.764  1.00  0.00     0.096 A 
ATOM     28  C   UNL A   1      27.634  27.895  23.566  1.00  0.00     0.008 A 
ATOM     29  C   UNL A   1      28.956  29.865  23.111  1.00  0.00     0.270 A 
ATOM     30  C   UNL A   1      27.743  29.286  23.507  1.00  0.00     0.085 A 
BRANCH  29  31
ATOM     31  N   UNL A   1      29.091  31.325  23.089  1.00  0.00     0.062 N 
ATOM     32  O   UNL A   1      29.040  31.896  21.989  1.00  0.00    -0.258 OA
ATOM     33  O   UNL A   1      29.288  31.907  24.168  1.00  0.00    -0.258 OA
ENDBRANCH  29  31
ENDBRANCH  15  25
ENDBRANCH   5   8
ENDBRANCH   3   4
ENDBRANCH   2   3
ENDBRANCH   1   2
BRANCH   1  34
ATOM     34  C   UNL A   1      34.083  30.316  27.747  1.00  0.00     0.116 C 
BRANCH  34  35
ATOM     35  N   UNL A   1      34.858  31.323  28.458  1.00  0.00    -0.352 N 
ATOM     36  C   UNL A   1      36.074  31.166  29.116  1.00  0.00     0.251 C 
ATOM     37  H   UNL A   1      34.473  32.228  28.476  1.00  0.00     0.163 HD
ATOM     38  O   UNL A   1      36.551  32.041  29.804  1.00  0.00    -0.269 OA
BRANCH  36  39
ATOM     39  C   UNL A   1      36.851  29.925  28.848  1.00  0.00     0.039 A 
ATOM     40  C   UNL A   1      37.055  29.063  29.931  1.00  0.00     0.014 A 
ATOM     41  C   UNL A   1      37.579  29.769  27.670  1.00  0.00     0.014 A 
ATOM     42  C   UNL A   1      38.161  28.217  29.928  1.00  0.00     0.010 A 
ATOM     43  C   UNL A   1      38.726  28.998  27.703  1.00  0.00     0.010 A 
ATOM     44  C   UNL A   1      39.057  28.285  28.863  1.00  0.00    -0.014 A 
BRANCH  44  45
ATOM     45  C   UNL A   1      40.422  27.771  28.942  1.00  0.00     0.031 A 
ATOM     46  C   UNL A   1      40.725  26.375  28.572  1.00  0.00     0.074 A 
ATOM     47  C   UNL A   1      41.423  28.582  29.353  1.00  0.00     0.049 A 
ATOM     48  N   UNL A   1      41.791  25.742  28.930  1.00  0.00    -0.248 NA
ATOM     49  C   UNL A   1      39.781  25.537  27.843  1.00  0.00     0.031 C 
ATOM     50  C   UNL A   1      42.861  28.338  29.262  1.00  0.00     0.029 A 
ATOM     51  N   UNL A   1      41.311  29.674  30.210  1.00  0.00    -0.354 N 
ATOM     52  C   UNL A   1      41.817  24.544  28.259  1.00  0.00     0.074 A 
ATOM     53  C   UNL A   1      40.489  24.412  27.716  1.00  0.00     0.031 C 
ATOM     54  C   UNL A   1      43.484  29.055  30.210  1.00  0.00     0.029 A 
ATOM     55  C   UNL A   1      42.457  29.675  31.026  1.00  0.00     0.049 A 
ATOM     56  H   UNL A   1      40.571  30.322  30.240  1.00  0.00     0.167 HD
ATOM     57  C   UNL A   1      43.006  23.887  28.136  1.00  0.00     0.034 A 
ATOM     58  C   UNL A   1      42.362  29.577  32.382  1.00  0.00     0.034 A 
ATOM     59  C   UNL A   1      44.003  24.429  29.071  1.00  0.00     0.049 A 
ATOM     60  C   UNL A   1      43.090  28.386  32.957  1.00  0.00     0.074 A 
ATOM     61  C   UNL A   1      45.131  25.219  28.923  1.00  0.00     0.029 A 
ATOM     62  N   UNL A   1      43.750  24.368  30.442  1.00  0.00    -0.354 N 
ATOM     63  N   UNL A   1      43.484  27.357  32.257  1.00  0.00    -0.248 NA
ATOM     64  C   UNL A   1      43.422  28.260  34.370  1.00  0.00     0.031 C 
ATOM     65  C   UNL A   1      45.509  25.691  30.211  1.00  0.00     0.029 A 
ATOM     66  C   UNL A   1      44.641  25.155  31.148  1.00  0.00     0.049 A 
ATOM     67  H   UNL A   1      43.033  23.834  30.853  1.00  0.00     0.167 HD
ATOM     68  C   UNL A   1      44.093  26.442  33.081  1.00  0.00     0.074 A 
ATOM     69  C   UNL A   1      44.050  27.072  34.391  1.00  0.00     0.031 C 
ATOM     70  C   UNL A   1      44.564  25.247  32.606  1.00  0.00     0.034 A 
BRANCH  57  71
ATOM     71  C   UNL A   1      43.362  22.915  27.013  1.00  0.00     0.023 A 
ATOM     72  C   UNL A   1      42.769  21.629  27.008  1.00  0.00     0.031 A 
ATOM     73  C   UNL A   1      44.338  23.109  26.009  1.00  0.00     0.131 A 
ATOM     74  C   UNL A   1      43.178  20.624  26.103  1.00  0.00     0.055 A 
ATOM     75  C   UNL A   1      44.729  22.117  25.097  1.00  0.00     0.041 A 
ATOM     76  F   UNL A   1      44.998  24.255  25.844  1.00  0.00    -0.206 F 
ATOM     77  C   UNL A   1      44.157  20.863  25.148  1.00  0.00     0.022 A 
BRANCH  74  78
ATOM     78  S   UNL A   1      42.453  18.963  26.217  1.00  0.00     0.124 S 
ATOM     79  O   UNL A   1      42.551  18.683  27.646  1.00  0.00    -0.237 OA
ATOM     80  O   UNL A   1      41.112  19.172  25.686  1.00  0.00    -0.237 OA
ATOM     81  O   UNL A   1      43.330  18.153  25.372  1.00  0.00    -0.744 OA
ENDBRANCH  74  78
ENDBRANCH  57  71
BRANCH  58  82
ATOM     82  C   UNL A   1      41.129  30.205  32.934  1.00  0.00     0.023 A 
ATOM     83  C   UNL A   1      41.118  31.614  32.991  1.00  0.00     0.031 A 
ATOM     84  C   UNL A   1      39.901  29.536  32.991  1.00  0.00     0.131 A 
ATOM     85  C   UNL A   1      39.911  32.315  32.887  1.00  0.00     0.055 A 
ATOM     86  C   UNL A   1      38.691  30.245  32.984  1.00  0.00     0.041 A 
ATOM     87  F   UNL A   1      39.846  28.199  32.917  1.00  0.00    -0.206 F 
ATOM     88  C   UNL A   1      38.691  31.638  32.877  1.00  0.00     0.022 A 
BRANCH  85  89
ATOM     89  S   UNL A   1      39.983  34.077  32.444  1.00  0.00     0.124 S 
ATOM     90  O   UNL A   1      40.574  34.030  31.113  1.00  0.00    -0.237 OA
ATOM     91  O   UNL A   1      38.577  34.479  32.504  1.00  0.00    -0.237 OA
ATOM     92  O   UNL A   1      40.813  34.660  33.493  1.00  0.00    -0.744 OA
ENDBRANCH  85  89
ENDBRANCH  58  82
BRANCH  70  93
ATOM     93  C   UNL A   1      45.074  24.082  33.445  1.00  0.00     0.023 A 
ATOM     94  C   UNL A   1      46.393  23.963  33.908  1.00  0.00     0.031 A 
ATOM     95  C   UNL A   1      44.197  23.049  33.867  1.00  0.00     0.131 A 
ATOM     96  C   UNL A   1      46.816  22.848  34.659  1.00  0.00     0.055 A 
ATOM     97  C   UNL A   1      44.601  21.978  34.674  1.00  0.00     0.041 A 
ATOM     98  F   UNL A   1      42.900  23.038  33.528  1.00  0.00    -0.206 F 
ATOM     99  C   UNL A   1      45.924  21.861  35.062  1.00  0.00     0.022 A 
BRANCH  96 100
ATOM    100  S   UNL A   1      48.581  22.696  35.051  1.00  0.00     0.124 S 
ATOM    101  O   UNL A   1      49.169  23.718  34.189  1.00  0.00    -0.237 OA
ATOM    102  O   UNL A   1      48.611  22.984  36.481  1.00  0.00    -0.237 OA
ATOM    103  O   UNL A   1      48.900  21.317  34.687  1.00  0.00    -0.744 OA
ENDBRANCH  96 100
ENDBRANCH  70  93
ENDBRANCH  44  45
ENDBRANCH  36  39
ENDBRANCH  34  35
ENDBRANCH   1  34
TORSDOF 17
ENDMDL
MODEL 2
REMARK VINA RESULT:     -14.5      4.267     10.641
REMARK SMILES Cc1ccc(-c2cc(C(=O)NCCCCNC(=O)c3ccc(-c4c5nc(c(-c6cc(S(=O)(=O)[O-])ccc6F)c6ccc([nH]6)c(-c6cc(S(=O)(=O)[O-])ccc6F)c6nc(c(-c7cc(S(=O)(=O)[O-])ccc7F)c7ccc4[nH]7)C=C6)C=C5)cc3)c3c(-c4cccc([N+](=O)[O-])c4)[nH]nc3n2)cc1
REMARK SMILES IDX 14 1 13 2 12 3 11 4 9 5 10 6 8 8 6 9 7 10 96 11 95 12 82 13
REMARK SMILES IDX 94 14 83 15 93 16 5 18 1 19 2 20 3 21 98 22 4 23 97 24 84 25
REMARK SMILES IDX 85 26 92 27 86 28 88 29 87 30 89 31 90 32 91 33 15 34 16 35
REMARK SMILES IDX 17 36 18 38 19 39 20 40 81 41 21 42 80 43 22 44 23 45 24 46
REMARK SMILES IDX 74 47 25 48 79 49 73 50 75 51 26 52 78 53 72 54 71 55 27 57
REMARK SMILES IDX 59 58 39 59 58 60 40 61 43 62 57 63 76 64 41 65 42 66 56 68
REMARK SMILES IDX 77 69 44 70 28 71 29 72 37 73 30 74 36 75 38 76 35 77 31 78
REMARK SMILES IDX 32 79 33 80 34 81 60 82 61 83 69 84 62 85 68 86 70 87 67 88
REMARK SMILES IDX 63 89 64 90 65 91 66 92 45 93 46 94 54 95 47 96 53 97 55 98
REMARK SMILES IDX 52 99 48 100 49 101 50 102 51 103
REMARK H PARENT 11 7 93 17 16 37 75 56 43 67
REMARK Flexibility Score: inf
ROOT
ATOM      1  C   UNL A   1      38.550  21.313  25.697  1.00  0.00     0.023 C 
ENDROOT
BRANCH   1   2
ATOM      2  C   UNL A   1      37.102  21.269  25.198  1.00  0.00     0.023 C 
BRANCH   2   3
ATOM      3  C   UNL A   1      36.342  22.600  25.313  1.00  0.00     0.116 C 
BRANCH   3   4
ATOM      4  N   UNL A   1      35.510  22.875  24.143  1.00  0.00    -0.352 N 
ATOM      5  C   UNL A   1      34.332  23.538  23.902  1.00  0.00     0.252 C 
ATOM      6  O   UNL A   1      34.040  23.616  22.711  1.00  0.00    -0.269 OA
ATOM      7  H   UNL A   1      35.889  22.487  23.321  1.00  0.00     0.163 HD
BRANCH   5   8
ATOM      8  C   UNL A   1      33.456  24.148  24.938  1.00  0.00     0.055 A 
ATOM      9  C   UNL A   1      32.646  26.138  26.215  1.00  0.00     0.074 A 
ATOM     10  C   UNL A   1      33.547  25.487  25.334  1.00  0.00     0.043 A 
ATOM     11  N   UNL A   1      31.623  25.545  26.877  1.00  0.00    -0.226 NA
ATOM     12  C   UNL A   1      31.507  24.229  26.571  1.00  0.00     0.182 A 
ATOM     13  C   UNL A   1      32.386  23.544  25.641  1.00  0.00     0.059 A 
ATOM     14  N   UNL A   1      30.580  23.417  27.080  1.00  0.00    -0.154 NA
ATOM     15  C   UNL A   1      31.924  22.233  25.654  1.00  0.00     0.076 A 
ATOM     16  N   UNL A   1      30.835  22.245  26.491  1.00  0.00    -0.275 N 
ATOM     17  H   UNL A   1      30.280  21.447  26.645  1.00  0.00     0.190 HD
BRANCH   9  18
ATOM     18  C   UNL A   1      32.813  27.590  26.393  1.00  0.00     0.000 A 
ATOM     19  C   UNL A   1      33.642  31.630  27.673  1.00  0.00     0.044 C 
ATOM     20  C   UNL A   1      33.323  30.264  27.141  1.00  0.00    -0.051 A 
ATOM     21  C   UNL A   1      32.035  29.728  27.251  1.00  0.00     0.004 A 
ATOM     22  C   UNL A   1      34.344  29.476  26.610  1.00  0.00     0.004 A 
ATOM     23  C   UNL A   1      31.778  28.403  26.874  1.00  0.00     0.010 A 
ATOM     24  C   UNL A   1      34.087  28.162  26.229  1.00  0.00     0.010 A 
ENDBRANCH   9  18
BRANCH  15  25
ATOM     25  C   UNL A   1      32.348  20.980  25.047  1.00  0.00     0.007 A 
ATOM     26  C   UNL A   1      32.914  19.967  25.834  1.00  0.00     0.011 A 
ATOM     27  C   UNL A   1      32.153  20.765  23.677  1.00  0.00     0.096 A 
ATOM     28  C   UNL A   1      33.237  18.729  25.273  1.00  0.00     0.008 A 
ATOM     29  C   UNL A   1      32.445  19.510  23.129  1.00  0.00     0.270 A 
ATOM     30  C   UNL A   1      32.992  18.491  23.920  1.00  0.00     0.085 A 
BRANCH  29  31
ATOM     31  N   UNL A   1      32.144  19.252  21.717  1.00  0.00     0.062 N 
ATOM     32  O   UNL A   1      31.832  20.219  21.005  1.00  0.00    -0.258 OA
ATOM     33  O   UNL A   1      32.179  18.077  21.320  1.00  0.00    -0.258 OA
ENDBRANCH  29  31
ENDBRANCH  15  25
ENDBRANCH   5   8
ENDBRANCH   3   4
ENDBRANCH   2   3
ENDBRANCH   1   2
BRANCH   1  34
ATOM     34  C   UNL A   1      39.022  22.697  26.126  1.00  0.00     0.116 C 
BRANCH  34  35
ATOM     35  N   UNL A   1      40.443  22.828  26.411  1.00  0.00    -0.352 N 
ATOM     36  C   UNL A   1      41.160  23.986  26.695  1.00  0.00     0.251 C 
ATOM     37  H   UNL A   1      40.962  21.992  26.401  1.00  0.00     0.163 HD
ATOM     38  O   UNL A   1      42.369  23.993  26.766  1.00  0.00    -0.269 OA
BRANCH  36  39
ATOM     39  C   UNL A   1      40.389  25.210  27.043  1.00  0.00     0.039 A 
ATOM     40  C   UNL A   1      40.677  26.366  26.310  1.00  0.00     0.014 A 
ATOM     41  C   UNL A   1      39.639  25.282  28.215  1.00  0.00     0.014 A 
ATOM     42  C   UNL A   1      40.439  27.613  26.883  1.00  0.00     0.010 A 
ATOM     43  C   UNL A   1      39.484  26.514  28.823  1.00  0.00     0.010 A 
ATOM     44  C   UNL A   1      39.958  27.671  28.190  1.00  0.00    -0.014 A 
BRANCH  44  45
ATOM     45  C   UNL A   1      40.060  28.870  29.018  1.00  0.00     0.031 A 
ATOM     46  C   UNL A   1      39.026  29.920  28.955  1.00  0.00     0.074 A 
ATOM     47  C   UNL A   1      41.109  29.019  29.859  1.00  0.00     0.049 A 
ATOM     48  N   UNL A   1      39.194  31.133  29.363  1.00  0.00    -0.248 NA
ATOM     49  C   UNL A   1      37.732  29.708  28.318  1.00  0.00     0.031 C 
ATOM     50  C   UNL A   1      41.259  30.002  30.929  1.00  0.00     0.029 A 
ATOM     51  N   UNL A   1      42.383  28.478  29.703  1.00  0.00    -0.354 N 
ATOM     52  C   UNL A   1      37.978  31.769  29.316  1.00  0.00     0.074 A 
ATOM     53  C   UNL A   1      37.148  30.889  28.533  1.00  0.00     0.031 C 
ATOM     54  C   UNL A   1      42.567  30.196  31.159  1.00  0.00     0.029 A 
ATOM     55  C   UNL A   1      43.297  29.447  30.154  1.00  0.00     0.049 A 
ATOM     56  H   UNL A   1      42.602  27.588  29.346  1.00  0.00     0.167 HD
ATOM     57  C   UNL A   1      37.797  32.894  30.065  1.00  0.00     0.034 A 
ATOM     58  C   UNL A   1      44.252  29.961  29.328  1.00  0.00     0.034 A 
ATOM     59  C   UNL A   1      39.085  33.428  30.529  1.00  0.00     0.049 A 
ATOM     60  C   UNL A   1      44.170  31.459  29.163  1.00  0.00     0.074 A 
ATOM     61  C   UNL A   1      39.726  33.460  31.757  1.00  0.00     0.029 A 
ATOM     62  N   UNL A   1      40.032  33.828  29.586  1.00  0.00    -0.354 N 
ATOM     63  N   UNL A   1      43.124  32.177  29.475  1.00  0.00    -0.248 NA
ATOM     64  C   UNL A   1      45.259  32.263  28.626  1.00  0.00     0.031 C 
ATOM     65  C   UNL A   1      41.087  33.813  31.532  1.00  0.00     0.029 A 
ATOM     66  C   UNL A   1      41.264  34.038  30.176  1.00  0.00     0.049 A 
ATOM     67  H   UNL A   1      39.848  33.946  28.627  1.00  0.00     0.167 HD
ATOM     68  C   UNL A   1      43.366  33.497  29.184  1.00  0.00     0.074 A 
ATOM     69  C   UNL A   1      44.730  33.497  28.680  1.00  0.00     0.031 C 
ATOM     70  C   UNL A   1      42.414  34.463  29.377  1.00  0.00     0.034 A 
BRANCH  57  71
ATOM     71  C   UNL A   1      36.452  33.393  30.592  1.00  0.00     0.023 A 
ATOM     72  C   UNL A   1      35.586  34.083  29.710  1.00  0.00     0.031 A 
ATOM     73  C   UNL A   1      36.004  33.351  31.932  1.00  0.00     0.131 A 
ATOM     74  C   UNL A   1      34.409  34.718  30.166  1.00  0.00     0.055 A 
ATOM     75  C   UNL A   1      34.825  33.964  32.381  1.00  0.00     0.041 A 
ATOM     76  F   UNL A   1      36.674  32.737  32.907  1.00  0.00    -0.206 F 
ATOM     77  C   UNL A   1      34.026  34.662  31.500  1.00  0.00     0.022 A 
BRANCH  74  78
ATOM     78  S   UNL A   1      33.396  35.677  29.004  1.00  0.00     0.124 S 
ATOM     79  O   UNL A   1      32.717  36.615  29.891  1.00  0.00    -0.237 OA
ATOM     80  O   UNL A   1      34.399  36.239  28.108  1.00  0.00    -0.237 OA
ATOM     81  O   UNL A   1      32.528  34.667  28.398  1.00  0.00    -0.744 OA
ENDBRANCH  74  78
ENDBRANCH  57  71
BRANCH  58  82
ATOM     82  C   UNL A   1      44.733  28.989  28.307  1.00  0.00     0.023 A 
ATOM     83  C   UNL A   1      45.539  27.933  28.781  1.00  0.00     0.031 A 
ATOM     84  C   UNL A   1      44.115  28.834  27.060  1.00  0.00     0.131 A 
ATOM     85  C   UNL A   1      45.538  26.696  28.126  1.00  0.00     0.055 A 
ATOM     86  C   UNL A   1      44.196  27.622  26.358  1.00  0.00     0.041 A 
ATOM     87  F   UNL A   1      43.318  29.793  26.568  1.00  0.00    -0.206 F 
ATOM     88  C   UNL A   1      44.864  26.529  26.916  1.00  0.00     0.022 A 
BRANCH  85  89
ATOM     89  S   UNL A   1      46.154  25.248  29.037  1.00  0.00     0.124 S 
ATOM     90  O   UNL A   1      45.935  24.173  28.078  1.00  0.00    -0.237 OA
ATOM     91  O   UNL A   1      47.552  25.601  29.291  1.00  0.00    -0.237 OA
ATOM     92  O   UNL A   1      45.321  25.218  30.235  1.00  0.00    -0.744 OA
ENDBRANCH  85  89
ENDBRANCH  58  82
BRANCH  70  93
ATOM     93  C   UNL A   1      42.493  35.912  28.914  1.00  0.00     0.023 A 
ATOM     94  C   UNL A   1      43.252  36.903  29.555  1.00  0.00     0.031 A 
ATOM     95  C   UNL A   1      41.829  36.337  27.734  1.00  0.00     0.131 A 
ATOM     96  C   UNL A   1      43.267  38.236  29.097  1.00  0.00     0.055 A 
ATOM     97  C   UNL A   1      41.903  37.645  27.238  1.00  0.00     0.041 A 
ATOM     98  F   UNL A   1      41.088  35.499  26.996  1.00  0.00    -0.206 F 
ATOM     99  C   UNL A   1      42.611  38.611  27.930  1.00  0.00     0.022 A 
BRANCH  96 100
ATOM    100  S   UNL A   1      44.126  39.479  30.101  1.00  0.00     0.124 S 
ATOM    101  O   UNL A   1      43.029  40.047  30.879  1.00  0.00    -0.237 OA
ATOM    102  O   UNL A   1      45.081  38.671  30.852  1.00  0.00    -0.237 OA
ATOM    103  O   UNL A   1      44.715  40.378  29.110  1.00  0.00    -0.744 OA
ENDBRANCH  96 100
ENDBRANCH  70  93
ENDBRANCH  44  45
ENDBRANCH  36  39
ENDBRANCH  34  35
ENDBRANCH   1  34
TORSDOF 17
ENDMDL
MODEL 3
REMARK VINA RESULT:     -14.0      1.488      2.101
REMARK SMILES Cc1ccc(-c2cc(C(=O)NCCCCNC(=O)c3ccc(-c4c5nc(c(-c6cc(S(=O)(=O)[O-])ccc6F)c6ccc([nH]6)c(-c6cc(S(=O)(=O)[O-])ccc6F)c6nc(c(-c7cc(S(=O)(=O)[O-])ccc7F)c7ccc4[nH]7)C=C6)C=C5)cc3)c3c(-c4cccc([N+](=O)[O-])c4)[nH]nc3n2)cc1
REMARK SMILES IDX 14 1 13 2 12 3 11 4 9 5 10 6 8 8 6 9 7 10 96 11 95 12 82 13
REMARK SMILES IDX 94 14 83 15 93 16 5 18 1 19 2 20 3 21 98 22 4 23 97 24 84 25
REMARK SMILES IDX 85 26 92 27 86 28 88 29 87 30 89 31 90 32 91 33 15 34 16 35
REMARK SMILES IDX 17 36 18 38 19 39 20 40 81 41 21 42 80 43 22 44 23 45 24 46
REMARK SMILES IDX 74 47 25 48 79 49 73 50 75 51 26 52 78 53 72 54 71 55 27 57
REMARK SMILES IDX 59 58 39 59 58 60 40 61 43 62 57 63 76 64 41 65 42 66 56 68
REMARK SMILES IDX 77 69 44 70 28 71 29 72 37 73 30 74 36 75 38 76 35 77 31 78
REMARK SMILES IDX 32 79 33 80 34 81 60 82 61 83 69 84 62 85 68 86 70 87 67 88
REMARK SMILES IDX 63 89 64 90 65 91 66 92 45 93 46 94 54 95 47 96 53 97 55 98
REMARK SMILES IDX 52 99 48 100 49 101 50 102 51 103
REMARK H PARENT 11 7 93 17 16 37 75 56 43 67
REMARK Flexibility Score: inf
ROOT
ATOM      1  C   UNL A   1      33.095  31.286  27.260  1.00  0.00     0.023 C 
ENDROOT
BRANCH   1   2
ATOM      2  C   UNL A   1      32.263  30.262  26.480  1.00  0.00     0.023 C 
BRANCH   2   3
ATOM      3  C   UNL A   1      33.083  29.296  25.610  1.00  0.00     0.116 C 
BRANCH   3   4
ATOM      4  N   UNL A   1      32.912  29.545  24.180  1.00  0.00    -0.352 N 
ATOM      5  C   UNL A   1      32.253  28.934  23.142  1.00  0.00     0.252 C 
ATOM      6  O   UNL A   1      32.292  29.565  22.088  1.00  0.00    -0.269 OA
ATOM      7  H   UNL A   1      33.391  30.355  23.887  1.00  0.00     0.163 HD
BRANCH   5   8
ATOM      8  C   UNL A   1      31.522  27.642  23.224  1.00  0.00     0.055 A 
ATOM      9  C   UNL A   1      31.508  25.151  23.437  1.00  0.00     0.074 A 
ATOM     10  C   UNL A   1      32.157  26.395  23.225  1.00  0.00     0.043 A 
ATOM     11  N   UNL A   1      30.171  24.973  23.576  1.00  0.00    -0.226 NA
ATOM     12  C   UNL A   1      29.489  26.143  23.537  1.00  0.00     0.182 A 
ATOM     13  C   UNL A   1      30.128  27.436  23.365  1.00  0.00     0.059 A 
ATOM     14  N   UNL A   1      28.165  26.247  23.656  1.00  0.00    -0.154 NA
ATOM     15  C   UNL A   1      29.066  28.332  23.361  1.00  0.00     0.076 A 
ATOM     16  N   UNL A   1      27.948  27.564  23.579  1.00  0.00    -0.275 N 
ATOM     17  H   UNL A   1      27.049  27.955  23.673  1.00  0.00     0.190 HD
BRANCH   9  18
ATOM     18  C   UNL A   1      32.363  23.960  23.558  1.00  0.00     0.000 A 
ATOM     19  C   UNL A   1      34.838  20.629  24.756  1.00  0.00     0.044 C 
ATOM     20  C   UNL A   1      33.985  21.753  24.247  1.00  0.00    -0.051 A 
ATOM     21  C   UNL A   1      34.558  22.933  23.759  1.00  0.00     0.004 A 
ATOM     22  C   UNL A   1      32.597  21.662  24.342  1.00  0.00     0.004 A 
ATOM     23  C   UNL A   1      33.755  24.027  23.410  1.00  0.00     0.010 A 
ATOM     24  C   UNL A   1      31.798  22.746  23.990  1.00  0.00     0.010 A 
ENDBRANCH   9  18
BRANCH  15  25
ATOM     25  C   UNL A   1      28.921  29.766  23.156  1.00  0.00     0.007 A 
ATOM     26  C   UNL A   1      29.421  30.671  24.103  1.00  0.00     0.011 A 
ATOM     27  C   UNL A   1      28.317  30.247  21.988  1.00  0.00     0.096 A 
ATOM     28  C   UNL A   1      29.368  32.047  23.866  1.00  0.00     0.008 A 
ATOM     29  C   UNL A   1      28.299  31.625  21.741  1.00  0.00     0.270 A 
ATOM     30  C   UNL A   1      28.818  32.530  22.677  1.00  0.00     0.085 A 
BRANCH  29  31
ATOM     31  N   UNL A   1      27.760  32.123  20.471  1.00  0.00     0.062 N 
ATOM     32  O   UNL A   1      27.587  33.346  20.354  1.00  0.00    -0.258 OA
ATOM     33  O   UNL A   1      27.470  31.291  19.597  1.00  0.00    -0.258 OA
ENDBRANCH  29  31
ENDBRANCH  15  25
ENDBRANCH   5   8
ENDBRANCH   3   4
ENDBRANCH   2   3
ENDBRANCH   1   2
BRANCH   1  34
ATOM     34  C   UNL A   1      34.437  30.755  27.752  1.00  0.00     0.116 C 
BRANCH  34  35
ATOM     35  N   UNL A   1      35.179  31.629  28.648  1.00  0.00    -0.352 N 
ATOM     36  C   UNL A   1      36.317  31.332  29.392  1.00  0.00     0.251 C 
ATOM     37  H   UNL A   1      34.832  32.545  28.740  1.00  0.00     0.163 HD
ATOM     38  O   UNL A   1      36.761  32.094  30.222  1.00  0.00    -0.269 OA
BRANCH  36  39
ATOM     39  C   UNL A   1      37.064  30.092  29.048  1.00  0.00     0.039 A 
ATOM     40  C   UNL A   1      37.226  29.150  30.070  1.00  0.00     0.014 A 
ATOM     41  C   UNL A   1      37.809  29.998  27.874  1.00  0.00     0.014 A 
ATOM     42  C   UNL A   1      38.309  28.275  30.025  1.00  0.00     0.010 A 
ATOM     43  C   UNL A   1      38.933  29.194  27.870  1.00  0.00     0.010 A 
ATOM     44  C   UNL A   1      39.225  28.393  28.981  1.00  0.00    -0.014 A 
BRANCH  44  45
ATOM     45  C   UNL A   1      40.573  27.836  29.045  1.00  0.00     0.031 A 
ATOM     46  C   UNL A   1      40.830  26.436  28.655  1.00  0.00     0.074 A 
ATOM     47  C   UNL A   1      41.602  28.610  29.459  1.00  0.00     0.049 A 
ATOM     48  N   UNL A   1      41.878  25.765  28.998  1.00  0.00    -0.248 NA
ATOM     49  C   UNL A   1      39.856  25.636  27.922  1.00  0.00     0.031 C 
ATOM     50  C   UNL A   1      43.030  28.323  29.355  1.00  0.00     0.029 A 
ATOM     51  N   UNL A   1      41.529  29.694  30.331  1.00  0.00    -0.354 N 
ATOM     52  C   UNL A   1      41.863  24.576  28.312  1.00  0.00     0.074 A 
ATOM     53  C   UNL A   1      40.528  24.492  27.776  1.00  0.00     0.031 C 
ATOM     54  C   UNL A   1      43.681  29.008  30.308  1.00  0.00     0.029 A 
ATOM     55  C   UNL A   1      42.679  29.649  31.138  1.00  0.00     0.049 A 
ATOM     56  H   UNL A   1      40.810  30.364  30.374  1.00  0.00     0.167 HD
ATOM     57  C   UNL A   1      43.030  23.884  28.173  1.00  0.00     0.034 A 
ATOM     58  C   UNL A   1      42.590  29.536  32.494  1.00  0.00     0.034 A 
ATOM     59  C   UNL A   1      44.049  24.382  29.108  1.00  0.00     0.049 A 
ATOM     60  C   UNL A   1      43.285  28.316  33.049  1.00  0.00     0.074 A 
ATOM     61  C   UNL A   1      45.200  25.139  28.961  1.00  0.00     0.029 A 
ATOM     62  N   UNL A   1      43.804  24.312  30.479  1.00  0.00    -0.354 N 
ATOM     63  N   UNL A   1      43.642  27.284  32.333  1.00  0.00    -0.248 NA
ATOM     64  C   UNL A   1      43.622  28.162  34.458  1.00  0.00     0.031 C 
ATOM     65  C   UNL A   1      45.601  25.583  30.253  1.00  0.00     0.029 A 
ATOM     66  C   UNL A   1      44.722  25.062  31.189  1.00  0.00     0.049 A 
ATOM     67  H   UNL A   1      43.073  23.795  30.888  1.00  0.00     0.167 HD
ATOM     68  C   UNL A   1      44.228  26.341  33.142  1.00  0.00     0.074 A 
ATOM     69  C   UNL A   1      44.213  26.955  34.460  1.00  0.00     0.031 C 
ATOM     70  C   UNL A   1      44.658  25.137  32.649  1.00  0.00     0.034 A 
BRANCH  57  71
ATOM     71  C   UNL A   1      43.349  22.915  27.035  1.00  0.00     0.023 A 
ATOM     72  C   UNL A   1      42.745  21.635  27.038  1.00  0.00     0.031 A 
ATOM     73  C   UNL A   1      44.300  23.107  26.007  1.00  0.00     0.131 A 
ATOM     74  C   UNL A   1      43.121  20.632  26.116  1.00  0.00     0.055 A 
ATOM     75  C   UNL A   1      44.658  22.118  25.080  1.00  0.00     0.041 A 
ATOM     76  F   UNL A   1      44.966  24.248  25.832  1.00  0.00    -0.206 F 
ATOM     77  C   UNL A   1      44.078  20.868  25.138  1.00  0.00     0.022 A 
BRANCH  74  78
ATOM     78  S   UNL A   1      42.385  18.977  26.240  1.00  0.00     0.124 S 
ATOM     79  O   UNL A   1      43.242  18.193  25.357  1.00  0.00    -0.237 OA
ATOM     80  O   UNL A   1      42.491  18.695  27.666  1.00  0.00    -0.237 OA
ATOM     81  O   UNL A   1      41.020  19.176  25.752  1.00  0.00    -0.744 OA
ENDBRANCH  74  78
ENDBRANCH  57  71
BRANCH  58  82
ATOM     82  C   UNL A   1      41.381  30.195  33.062  1.00  0.00     0.023 A 
ATOM     83  C   UNL A   1      41.401  31.605  33.106  1.00  0.00     0.031 A 
ATOM     84  C   UNL A   1      40.140  29.553  33.147  1.00  0.00     0.131 A 
ATOM     85  C   UNL A   1      40.207  32.330  33.017  1.00  0.00     0.055 A 
ATOM     86  C   UNL A   1      38.945  30.287  33.155  1.00  0.00     0.041 A 
ATOM     87  F   UNL A   1      40.055  28.217  33.086  1.00  0.00    -0.206 F 
ATOM     88  C   UNL A   1      38.973  31.679  33.035  1.00  0.00     0.022 A 
BRANCH  85  89
ATOM     89  S   UNL A   1      40.308  34.086  32.558  1.00  0.00     0.124 S 
ATOM     90  O   UNL A   1      39.456  34.710  33.561  1.00  0.00    -0.237 OA
ATOM     91  O   UNL A   1      41.741  34.365  32.673  1.00  0.00    -0.237 OA
ATOM     92  O   UNL A   1      39.807  34.110  31.187  1.00  0.00    -0.744 OA
ENDBRANCH  85  89
ENDBRANCH  58  82
BRANCH  70  93
ATOM     93  C   UNL A   1      45.137  23.947  33.469  1.00  0.00     0.023 A 
ATOM     94  C   UNL A   1      46.453  23.786  33.930  1.00  0.00     0.031 A 
ATOM     95  C   UNL A   1      44.233  22.931  33.876  1.00  0.00     0.131 A 
ATOM     96  C   UNL A   1      46.846  22.648  34.664  1.00  0.00     0.055 A 
ATOM     97  C   UNL A   1      44.608  21.838  34.666  1.00  0.00     0.041 A 
ATOM     98  F   UNL A   1      42.936  22.959  33.537  1.00  0.00    -0.206 F 
ATOM     99  C   UNL A   1      45.928  21.680  35.052  1.00  0.00     0.022 A 
BRANCH  96 100
ATOM    100  S   UNL A   1      48.606  22.444  35.053  1.00  0.00     0.124 S 
ATOM    101  O   UNL A   1      49.226  23.421  34.162  1.00  0.00    -0.237 OA
ATOM    102  O   UNL A   1      48.653  22.768  36.475  1.00  0.00    -0.237 OA
ATOM    103  O   UNL A   1      48.873  21.046  34.724  1.00  0.00    -0.744 OA
ENDBRANCH  96 100
ENDBRANCH  70  93
ENDBRANCH  44  45
ENDBRANCH  36  39
ENDBRANCH  34  35
ENDBRANCH   1  34
TORSDOF 17
ENDMDL
