MODEL 1
REMARK VINA RESULT:     -12.8      0.000      0.000
REMARK SMILES Cc1cc(NC(=O)[C@@H]2CCC[C@@H](C(=O)NCCCCNC(=O)c3ccc(-c4c5nc(c(-c6cc(S(=O)(=O)[O-])ccc6F)c6ccc([nH]6)c(-c6cc(S(=O)(=O)[O-])ccc6F)c6nc(c(-c7cc(S(=O)(=O)[O-])ccc7F)c7ccc4[nH]7)C=C6)C=C5)cc3)C2)ncc1Br
REMARK SMILES IDX 18 1 17 2 16 3 15 4 13 5 14 6 12 8 8 9 9 10 86 11 10 12
REMARK SMILES IDX 11 13 6 14 5 15 7 17 4 18 1 19 2 20 3 21 89 22 88 23 90 24
REMARK SMILES IDX 87 25 19 26 20 27 21 28 22 30 23 31 24 32 85 33 25 34 84 35
REMARK SMILES IDX 26 36 27 37 28 38 78 39 29 40 83 41 77 42 79 43 30 44 82 45
REMARK SMILES IDX 76 46 75 47 31 49 63 50 43 51 62 52 44 53 47 54 61 55 80 56
REMARK SMILES IDX 45 57 46 58 60 60 81 61 48 62 32 63 33 64 41 65 34 66 40 67
REMARK SMILES IDX 42 68 39 69 35 70 36 71 37 72 38 73 64 74 65 75 73 76 66 77
REMARK SMILES IDX 72 78 74 79 71 80 67 81 68 82 69 83 70 84 49 85 50 86 58 87
REMARK SMILES IDX 51 88 57 89 59 90 56 91 52 92 53 93 54 94 55 95
REMARK H PARENT 15 7 5 16 20 29 79 48 47 59
REMARK Flexibility Score: inf
ROOT
ATOM      1  C   UNL A   1      32.258  29.712  25.420  1.00  0.00     0.023 C 
ENDROOT
BRANCH   1   2
ATOM      2  C   UNL A   1      31.024  30.017  24.574  1.00  0.00     0.023 C 
BRANCH   2   3
ATOM      3  C   UNL A   1      30.853  29.155  23.327  1.00  0.00     0.116 C 
BRANCH   3   4
ATOM      4  N   UNL A   1      29.770  28.196  23.449  1.00  0.00    -0.356 N 
ATOM      5  C   UNL A   1      29.771  26.937  23.973  1.00  0.00     0.223 C 
ATOM      6  O   UNL A   1      28.706  26.323  23.987  1.00  0.00    -0.275 OA
ATOM      7  H   UNL A   1      28.902  28.501  23.099  1.00  0.00     0.163 HD
BRANCH   5   8
ATOM      8  C   UNL A   1      31.080  26.341  24.489  1.00  0.00     0.079 C 
ATOM      9  C   UNL A   1      30.441  24.071  25.557  1.00  0.00     0.079 C 
ATOM     10  C   UNL A   1      31.028  23.321  24.358  1.00  0.00     0.013 C 
ATOM     11  C   UNL A   1      30.876  25.525  25.771  1.00  0.00     0.027 C 
ATOM     12  C   UNL A   1      31.182  24.184  23.115  1.00  0.00     0.002 C 
ATOM     13  C   UNL A   1      31.816  25.540  23.408  1.00  0.00     0.013 C 
BRANCH   9  14
ATOM     14  C   UNL A   1      30.553  23.273  26.856  1.00  0.00     0.228 C 
ATOM     15  N   UNL A   1      31.653  22.578  27.252  1.00  0.00    -0.310 N 
ATOM     16  H   UNL A   1      31.531  22.103  28.105  1.00  0.00     0.171 HD
ATOM     17  O   UNL A   1      29.585  23.235  27.626  1.00  0.00    -0.274 OA
BRANCH  15  18
ATOM     18  C   UNL A   1      32.919  22.405  26.692  1.00  0.00     0.132 A 
ATOM     19  C   UNL A   1      34.604  19.707  24.626  1.00  0.00     0.046 C 
ATOM     20  C   UNL A   1      34.396  20.979  25.393  1.00  0.00    -0.032 A 
ATOM     21  C   UNL A   1      33.165  21.200  26.036  1.00  0.00     0.051 A 
ATOM     22  C   UNL A   1      35.350  21.996  25.441  1.00  0.00     0.039 A 
ATOM     23  C   UNL A   1      35.040  23.147  26.143  1.00  0.00     0.129 A 
ATOM     24  Br  UNL A   1      37.027  21.887  24.574  1.00  0.00    -0.049 Br
ATOM     25  N   UNL A   1      33.854  23.361  26.762  1.00  0.00    -0.238 NA
ENDBRANCH  15  18
ENDBRANCH   9  14
ENDBRANCH   5   8
ENDBRANCH   3   4
ENDBRANCH   2   3
ENDBRANCH   1   2
BRANCH   1  26
ATOM     26  C   UNL A   1      32.203  30.195  26.863  1.00  0.00     0.116 C 
BRANCH  26  27
ATOM     27  N   UNL A   1      32.130  31.644  26.982  1.00  0.00    -0.352 N 
ATOM     28  C   UNL A   1      33.067  32.516  27.491  1.00  0.00     0.251 C 
ATOM     29  H   UNL A   1      31.299  32.056  26.654  1.00  0.00     0.163 HD
ATOM     30  O   UNL A   1      32.792  33.705  27.626  1.00  0.00    -0.269 OA
BRANCH  28  31
ATOM     31  C   UNL A   1      34.385  31.995  27.920  1.00  0.00     0.039 A 
ATOM     32  C   UNL A   1      34.541  30.646  28.242  1.00  0.00     0.014 A 
ATOM     33  C   UNL A   1      35.455  32.882  28.067  1.00  0.00     0.014 A 
ATOM     34  C   UNL A   1      35.698  30.225  28.887  1.00  0.00     0.010 A 
ATOM     35  C   UNL A   1      36.653  32.434  28.633  1.00  0.00     0.010 A 
ATOM     36  C   UNL A   1      36.765  31.116  29.101  1.00  0.00    -0.014 A 
BRANCH  36  37
ATOM     37  C   UNL A   1      37.981  30.638  29.813  1.00  0.00     0.031 A 
ATOM     38  C   UNL A   1      38.244  31.021  31.246  1.00  0.00     0.074 A 
ATOM     39  C   UNL A   1      38.822  29.800  29.175  1.00  0.00     0.049 A 
ATOM     40  N   UNL A   1      39.223  30.645  32.029  1.00  0.00    -0.248 NA
ATOM     41  C   UNL A   1      37.293  31.945  31.883  1.00  0.00     0.031 C 
ATOM     42  C   UNL A   1      38.666  29.362  27.788  1.00  0.00     0.029 A 
ATOM     43  N   UNL A   1      39.947  29.145  29.607  1.00  0.00    -0.354 N 
ATOM     44  C   UNL A   1      39.017  31.296  33.241  1.00  0.00     0.074 A 
ATOM     45  C   UNL A   1      37.839  32.117  33.080  1.00  0.00     0.031 C 
ATOM     46  C   UNL A   1      39.619  28.465  27.502  1.00  0.00     0.029 A 
ATOM     47  C   UNL A   1      40.498  28.314  28.659  1.00  0.00     0.049 A 
ATOM     48  H   UNL A   1      40.325  29.258  30.509  1.00  0.00     0.167 HD
ATOM     49  C   UNL A   1      39.736  31.202  34.386  1.00  0.00     0.034 A 
ATOM     50  C   UNL A   1      41.589  27.524  28.705  1.00  0.00     0.034 A 
ATOM     51  C   UNL A   1      40.895  30.358  34.541  1.00  0.00     0.049 A 
ATOM     52  C   UNL A   1      42.381  27.450  29.984  1.00  0.00     0.074 A 
ATOM     53  C   UNL A   1      41.668  30.170  35.673  1.00  0.00     0.029 A 
ATOM     54  N   UNL A   1      41.446  29.562  33.546  1.00  0.00    -0.354 N 
ATOM     55  N   UNL A   1      42.144  28.037  31.133  1.00  0.00    -0.248 NA
ATOM     56  C   UNL A   1      43.589  26.614  29.976  1.00  0.00     0.031 C 
ATOM     57  C   UNL A   1      42.714  29.304  35.350  1.00  0.00     0.029 A 
ATOM     58  C   UNL A   1      42.563  28.902  34.033  1.00  0.00     0.049 A 
ATOM     59  H   UNL A   1      41.094  29.479  32.630  1.00  0.00     0.167 HD
ATOM     60  C   UNL A   1      43.166  27.634  31.987  1.00  0.00     0.074 A 
ATOM     61  C   UNL A   1      44.005  26.728  31.232  1.00  0.00     0.031 C 
ATOM     62  C   UNL A   1      43.392  27.996  33.275  1.00  0.00     0.034 A 
BRANCH  49  63
ATOM     63  C   UNL A   1      39.300  32.009  35.584  1.00  0.00     0.023 A 
ATOM     64  C   UNL A   1      38.563  31.397  36.615  1.00  0.00     0.031 A 
ATOM     65  C   UNL A   1      39.498  33.399  35.641  1.00  0.00     0.131 A 
ATOM     66  C   UNL A   1      38.024  32.180  37.645  1.00  0.00     0.055 A 
ATOM     67  C   UNL A   1      38.988  34.170  36.688  1.00  0.00     0.041 A 
ATOM     68  F   UNL A   1      40.194  34.029  34.681  1.00  0.00    -0.206 F 
ATOM     69  C   UNL A   1      38.237  33.562  37.690  1.00  0.00     0.022 A 
BRANCH  66  70
ATOM     70  S   UNL A   1      36.978  31.448  38.934  1.00  0.00     0.124 S 
ATOM     71  O   UNL A   1      35.792  32.301  38.876  1.00  0.00    -0.237 OA
ATOM     72  O   UNL A   1      36.791  30.087  38.441  1.00  0.00    -0.237 OA
ATOM     73  O   UNL A   1      37.775  31.576  40.148  1.00  0.00    -0.744 OA
ENDBRANCH  66  70
ENDBRANCH  49  63
BRANCH  50  74
ATOM     74  C   UNL A   1      41.944  26.713  27.504  1.00  0.00     0.023 A 
ATOM     75  C   UNL A   1      41.618  25.345  27.434  1.00  0.00     0.031 A 
ATOM     76  C   UNL A   1      42.723  27.259  26.472  1.00  0.00     0.131 A 
ATOM     77  C   UNL A   1      42.138  24.556  26.402  1.00  0.00     0.055 A 
ATOM     78  C   UNL A   1      43.177  26.484  25.403  1.00  0.00     0.041 A 
ATOM     79  F   UNL A   1      43.069  28.555  26.499  1.00  0.00    -0.206 F 
ATOM     80  C   UNL A   1      42.903  25.120  25.377  1.00  0.00     0.022 A 
BRANCH  77  81
ATOM     81  S   UNL A   1      41.971  22.749  26.442  1.00  0.00     0.124 S 
ATOM     82  O   UNL A   1      40.540  22.581  26.667  1.00  0.00    -0.237 OA
ATOM     83  O   UNL A   1      42.449  22.375  25.113  1.00  0.00    -0.237 OA
ATOM     84  O   UNL A   1      42.837  22.347  27.546  1.00  0.00    -0.744 OA
ENDBRANCH  77  81
ENDBRANCH  50  74
BRANCH  62  85
ATOM     85  C   UNL A   1      44.605  27.432  33.975  1.00  0.00     0.023 A 
ATOM     86  C   UNL A   1      44.493  26.268  34.760  1.00  0.00     0.031 A 
ATOM     87  C   UNL A   1      45.827  28.126  33.984  1.00  0.00     0.131 A 
ATOM     88  C   UNL A   1      45.572  25.856  35.551  1.00  0.00     0.055 A 
ATOM     89  C   UNL A   1      46.914  27.687  34.740  1.00  0.00     0.041 A 
ATOM     90  F   UNL A   1      45.979  29.246  33.259  1.00  0.00    -0.206 F 
ATOM     91  C   UNL A   1      46.784  26.555  35.540  1.00  0.00     0.022 A 
BRANCH  88  92
ATOM     92  S   UNL A   1      45.419  24.450  36.688  1.00  0.00     0.124 S 
ATOM     93  O   UNL A   1      45.074  23.361  35.778  1.00  0.00    -0.237 OA
ATOM     94  O   UNL A   1      46.756  24.377  37.270  1.00  0.00    -0.237 OA
ATOM     95  O   UNL A   1      44.358  24.853  37.605  1.00  0.00    -0.744 OA
ENDBRANCH  88  92
ENDBRANCH  62  85
ENDBRANCH  36  37
ENDBRANCH  28  31
ENDBRANCH  26  27
ENDBRANCH   1  26
TORSDOF 16
ENDMDL
MODEL 2
REMARK VINA RESULT:     -12.8      5.118     10.344
REMARK SMILES Cc1cc(NC(=O)[C@@H]2CCC[C@@H](C(=O)NCCCCNC(=O)c3ccc(-c4c5nc(c(-c6cc(S(=O)(=O)[O-])ccc6F)c6ccc([nH]6)c(-c6cc(S(=O)(=O)[O-])ccc6F)c6nc(c(-c7cc(S(=O)(=O)[O-])ccc7F)c7ccc4[nH]7)C=C6)C=C5)cc3)C2)ncc1Br
REMARK SMILES IDX 18 1 17 2 16 3 15 4 13 5 14 6 12 8 8 9 9 10 86 11 10 12
REMARK SMILES IDX 11 13 6 14 5 15 7 17 4 18 1 19 2 20 3 21 89 22 88 23 90 24
REMARK SMILES IDX 87 25 19 26 20 27 21 28 22 30 23 31 24 32 85 33 25 34 84 35
REMARK SMILES IDX 26 36 27 37 28 38 78 39 29 40 83 41 77 42 79 43 30 44 82 45
REMARK SMILES IDX 76 46 75 47 31 49 63 50 43 51 62 52 44 53 47 54 61 55 80 56
REMARK SMILES IDX 45 57 46 58 60 60 81 61 48 62 32 63 33 64 41 65 34 66 40 67
REMARK SMILES IDX 42 68 39 69 35 70 36 71 37 72 38 73 64 74 65 75 73 76 66 77
REMARK SMILES IDX 72 78 74 79 71 80 67 81 68 82 69 83 70 84 49 85 50 86 58 87
REMARK SMILES IDX 51 88 57 89 59 90 56 91 52 92 53 93 54 94 55 95
REMARK H PARENT 15 7 5 16 20 29 79 48 47 59
REMARK Flexibility Score: inf
ROOT
ATOM      1  C   UNL A   1      36.234  21.578  24.539  1.00  0.00     0.023 C 
ENDROOT
BRANCH   1   2
ATOM      2  C   UNL A   1      35.480  20.349  25.045  1.00  0.00     0.023 C 
BRANCH   2   3
ATOM      3  C   UNL A   1      34.006  20.572  25.369  1.00  0.00     0.116 C 
BRANCH   3   4
ATOM      4  N   UNL A   1      33.171  20.629  24.183  1.00  0.00    -0.356 N 
ATOM      5  C   UNL A   1      32.689  21.710  23.505  1.00  0.00     0.223 C 
ATOM      6  O   UNL A   1      32.015  21.498  22.498  1.00  0.00    -0.275 OA
ATOM      7  H   UNL A   1      32.913  19.755  23.812  1.00  0.00     0.163 HD
BRANCH   5   8
ATOM      8  C   UNL A   1      32.978  23.115  24.030  1.00  0.00     0.079 C 
ATOM      9  C   UNL A   1      32.325  24.727  22.113  1.00  0.00     0.079 C 
ATOM     10  C   UNL A   1      31.053  25.132  22.862  1.00  0.00     0.013 C 
ATOM     11  C   UNL A   1      33.446  24.062  22.919  1.00  0.00     0.027 C 
ATOM     12  C   UNL A   1      30.634  24.138  23.934  1.00  0.00     0.002 C 
ATOM     13  C   UNL A   1      31.795  23.693  24.817  1.00  0.00     0.013 C 
BRANCH   9  14
ATOM     14  C   UNL A   1      32.876  25.858  21.245  1.00  0.00     0.228 C 
ATOM     15  N   UNL A   1      32.977  27.158  21.629  1.00  0.00    -0.310 N 
ATOM     16  H   UNL A   1      33.331  27.750  20.926  1.00  0.00     0.171 HD
ATOM     17  O   UNL A   1      33.267  25.603  20.098  1.00  0.00    -0.274 OA
BRANCH  15  18
ATOM     18  C   UNL A   1      32.680  27.822  22.820  1.00  0.00     0.132 A 
ATOM     19  C   UNL A   1      34.406  28.240  26.172  1.00  0.00     0.046 C 
ATOM     20  C   UNL A   1      33.380  28.358  25.084  1.00  0.00    -0.032 A 
ATOM     21  C   UNL A   1      33.580  27.669  23.874  1.00  0.00     0.051 A 
ATOM     22  C   UNL A   1      32.260  29.183  25.190  1.00  0.00     0.039 A 
ATOM     23  C   UNL A   1      31.398  29.251  24.109  1.00  0.00     0.129 A 
ATOM     24  Br  UNL A   1      31.880  30.228  26.719  1.00  0.00    -0.049 Br
ATOM     25  N   UNL A   1      31.590  28.588  22.943  1.00  0.00    -0.238 NA
ENDBRANCH  15  18
ENDBRANCH   9  14
ENDBRANCH   5   8
ENDBRANCH   3   4
ENDBRANCH   2   3
ENDBRANCH   1   2
BRANCH   1  26
ATOM     26  C   UNL A   1      37.329  22.102  25.458  1.00  0.00     0.116 C 
BRANCH  26  27
ATOM     27  N   UNL A   1      38.405  21.145  25.676  1.00  0.00    -0.352 N 
ATOM     28  C   UNL A   1      39.637  21.349  26.257  1.00  0.00     0.251 C 
ATOM     29  H   UNL A   1      38.227  20.229  25.365  1.00  0.00     0.163 HD
ATOM     30  O   UNL A   1      40.475  20.453  26.253  1.00  0.00    -0.269 OA
BRANCH  28  31
ATOM     31  C   UNL A   1      39.954  22.673  26.838  1.00  0.00     0.039 A 
ATOM     32  C   UNL A   1      39.464  23.840  26.249  1.00  0.00     0.014 A 
ATOM     33  C   UNL A   1      40.806  22.748  27.943  1.00  0.00     0.014 A 
ATOM     34  C   UNL A   1      39.975  25.072  26.640  1.00  0.00     0.010 A 
ATOM     35  C   UNL A   1      41.248  23.996  28.394  1.00  0.00     0.010 A 
ATOM     36  C   UNL A   1      40.883  25.165  27.710  1.00  0.00    -0.014 A 
BRANCH  36  37
ATOM     37  C   UNL A   1      41.427  26.497  28.088  1.00  0.00     0.031 A 
ATOM     38  C   UNL A   1      42.822  26.908  27.696  1.00  0.00     0.074 A 
ATOM     39  C   UNL A   1      40.628  27.366  28.739  1.00  0.00     0.049 A 
ATOM     40  N   UNL A   1      43.428  28.051  27.896  1.00  0.00    -0.248 NA
ATOM     41  C   UNL A   1      43.646  25.911  26.994  1.00  0.00     0.031 C 
ATOM     42  C   UNL A   1      39.260  27.076  29.169  1.00  0.00     0.029 A 
ATOM     43  N   UNL A   1      40.830  28.667  29.126  1.00  0.00    -0.354 N 
ATOM     44  C   UNL A   1      44.704  27.908  27.362  1.00  0.00     0.074 A 
ATOM     45  C   UNL A   1      44.798  26.556  26.859  1.00  0.00     0.031 C 
ATOM     46  C   UNL A   1      38.724  28.182  29.702  1.00  0.00     0.029 A 
ATOM     47  C   UNL A   1      39.729  29.241  29.718  1.00  0.00     0.049 A 
ATOM     48  H   UNL A   1      41.681  29.143  28.992  1.00  0.00     0.167 HD
ATOM     49  C   UNL A   1      45.697  28.826  27.284  1.00  0.00     0.034 A 
ATOM     50  C   UNL A   1      39.545  30.477  30.226  1.00  0.00     0.034 A 
ATOM     51  C   UNL A   1      45.581  30.180  27.767  1.00  0.00     0.049 A 
ATOM     52  C   UNL A   1      40.671  31.473  30.143  1.00  0.00     0.074 A 
ATOM     53  C   UNL A   1      46.521  31.193  27.700  1.00  0.00     0.029 A 
ATOM     54  N   UNL A   1      44.465  30.713  28.396  1.00  0.00    -0.354 N 
ATOM     55  N   UNL A   1      41.854  31.334  29.593  1.00  0.00    -0.248 NA
ATOM     56  C   UNL A   1      40.443  32.792  30.750  1.00  0.00     0.031 C 
ATOM     57  C   UNL A   1      45.996  32.320  28.336  1.00  0.00     0.029 A 
ATOM     58  C   UNL A   1      44.704  32.032  28.746  1.00  0.00     0.049 A 
ATOM     59  H   UNL A   1      43.627  30.225  28.569  1.00  0.00     0.167 HD
ATOM     60  C   UNL A   1      42.508  32.548  29.778  1.00  0.00     0.074 A 
ATOM     61  C   UNL A   1      41.577  33.421  30.462  1.00  0.00     0.031 C 
ATOM     62  C   UNL A   1      43.770  32.898  29.425  1.00  0.00     0.034 A 
BRANCH  49  63
ATOM     63  C   UNL A   1      47.003  28.429  26.641  1.00  0.00     0.023 A 
ATOM     64  C   UNL A   1      47.088  28.291  25.243  1.00  0.00     0.031 A 
ATOM     65  C   UNL A   1      48.117  28.060  27.415  1.00  0.00     0.131 A 
ATOM     66  C   UNL A   1      48.251  27.770  24.662  1.00  0.00     0.055 A 
ATOM     67  C   UNL A   1      49.288  27.573  26.829  1.00  0.00     0.041 A 
ATOM     68  F   UNL A   1      48.086  28.173  28.752  1.00  0.00    -0.206 F 
ATOM     69  C   UNL A   1      49.354  27.415  25.447  1.00  0.00     0.022 A 
BRANCH  66  70
ATOM     70  S   UNL A   1      48.362  27.475  22.876  1.00  0.00     0.124 S 
ATOM     71  O   UNL A   1      47.199  28.210  22.380  1.00  0.00    -0.237 OA
ATOM     72  O   UNL A   1      49.657  28.064  22.549  1.00  0.00    -0.237 OA
ATOM     73  O   UNL A   1      48.278  26.025  22.753  1.00  0.00    -0.744 OA
ENDBRANCH  66  70
ENDBRANCH  49  63
BRANCH  50  74
ATOM     74  C   UNL A   1      38.216  30.827  30.807  1.00  0.00     0.023 A 
ATOM     75  C   UNL A   1      37.226  31.448  30.022  1.00  0.00     0.031 A 
ATOM     76  C   UNL A   1      37.966  30.665  32.179  1.00  0.00     0.131 A 
ATOM     77  C   UNL A   1      36.072  31.956  30.630  1.00  0.00     0.055 A 
ATOM     78  C   UNL A   1      36.779  31.106  32.767  1.00  0.00     0.041 A 
ATOM     79  F   UNL A   1      38.883  30.089  32.971  1.00  0.00    -0.206 F 
ATOM     80  C   UNL A   1      35.834  31.775  31.995  1.00  0.00     0.022 A 
BRANCH  77  81
ATOM     81  S   UNL A   1      34.918  33.003  29.698  1.00  0.00     0.124 S 
ATOM     82  O   UNL A   1      34.321  32.048  28.772  1.00  0.00    -0.237 OA
ATOM     83  O   UNL A   1      34.038  33.493  30.756  1.00  0.00    -0.237 OA
ATOM     84  O   UNL A   1      35.781  34.014  29.094  1.00  0.00    -0.744 OA
ENDBRANCH  77  81
ENDBRANCH  50  74
BRANCH  62  85
ATOM     85  C   UNL A   1      44.253  34.285  29.774  1.00  0.00     0.023 A 
ATOM     86  C   UNL A   1      44.088  35.344  28.861  1.00  0.00     0.031 A 
ATOM     87  C   UNL A   1      45.002  34.521  30.939  1.00  0.00     0.131 A 
ATOM     88  C   UNL A   1      44.699  36.579  29.110  1.00  0.00     0.055 A 
ATOM     89  C   UNL A   1      45.572  35.767  31.205  1.00  0.00     0.041 A 
ATOM     90  F   UNL A   1      45.194  33.539  31.836  1.00  0.00    -0.206 F 
ATOM     91  C   UNL A   1      45.433  36.799  30.281  1.00  0.00     0.022 A 
BRANCH  88  92
ATOM     92  S   UNL A   1      44.636  37.921  27.890  1.00  0.00     0.124 S 
ATOM     93  O   UNL A   1      43.279  37.787  27.364  1.00  0.00    -0.237 OA
ATOM     94  O   UNL A   1      44.871  39.101  28.716  1.00  0.00    -0.237 OA
ATOM     95  O   UNL A   1      45.702  37.591  26.949  1.00  0.00    -0.744 OA
ENDBRANCH  88  92
ENDBRANCH  62  85
ENDBRANCH  36  37
ENDBRANCH  28  31
ENDBRANCH  26  27
ENDBRANCH   1  26
TORSDOF 16
ENDMDL
MODEL 3
REMARK VINA RESULT:     -12.5      5.935      9.196
REMARK SMILES Cc1cc(NC(=O)[C@@H]2CCC[C@@H](C(=O)NCCCCNC(=O)c3ccc(-c4c5nc(c(-c6cc(S(=O)(=O)[O-])ccc6F)c6ccc([nH]6)c(-c6cc(S(=O)(=O)[O-])ccc6F)c6nc(c(-c7cc(S(=O)(=O)[O-])ccc7F)c7ccc4[nH]7)C=C6)C=C5)cc3)C2)ncc1Br
REMARK SMILES IDX 18 1 17 2 16 3 15 4 13 5 14 6 12 8 8 9 9 10 86 11 10 12
REMARK SMILES IDX 11 13 6 14 5 15 7 17 4 18 1 19 2 20 3 21 89 22 88 23 90 24
REMARK SMILES IDX 87 25 19 26 20 27 21 28 22 30 23 31 24 32 85 33 25 34 84 35
REMARK SMILES IDX 26 36 27 37 28 38 78 39 29 40 83 41 77 42 79 43 30 44 82 45
REMARK SMILES IDX 76 46 75 47 31 49 63 50 43 51 62 52 44 53 47 54 61 55 80 56
REMARK SMILES IDX 45 57 46 58 60 60 81 61 48 62 32 63 33 64 41 65 34 66 40 67
REMARK SMILES IDX 42 68 39 69 35 70 36 71 37 72 38 73 64 74 65 75 73 76 66 77
REMARK SMILES IDX 72 78 74 79 71 80 67 81 68 82 69 83 70 84 49 85 50 86 58 87
REMARK SMILES IDX 51 88 57 89 59 90 56 91 52 92 53 93 54 94 55 95
REMARK H PARENT 15 7 5 16 20 29 79 48 47 59
REMARK Flexibility Score: inf
ROOT
ATOM      1  C   UNL A   1      39.558  21.370  26.208  1.00  0.00     0.023 C 
ENDROOT
BRANCH   1   2
ATOM      2  C   UNL A   1      39.738  22.865  26.460  1.00  0.00     0.023 C 
BRANCH   2   3
ATOM      3  C   UNL A   1      38.448  23.660  26.639  1.00  0.00     0.116 C 
BRANCH   3   4
ATOM      4  N   UNL A   1      37.710  23.823  25.400  1.00  0.00    -0.356 N 
ATOM      5  C   UNL A   1      36.550  23.236  24.990  1.00  0.00     0.223 C 
ATOM      6  O   UNL A   1      36.101  23.562  23.892  1.00  0.00    -0.275 OA
ATOM      7  H   UNL A   1      38.108  24.454  24.758  1.00  0.00     0.163 HD
BRANCH   5   8
ATOM      8  C   UNL A   1      35.879  22.194  25.884  1.00  0.00     0.079 C 
ATOM      9  C   UNL A   1      33.410  22.941  26.098  1.00  0.00     0.079 C 
ATOM     10  C   UNL A   1      32.972  21.829  25.141  1.00  0.00     0.013 C 
ATOM     11  C   UNL A   1      34.784  22.808  26.764  1.00  0.00     0.027 C 
ATOM     12  C   UNL A   1      34.103  21.282  24.284  1.00  0.00     0.002 C 
ATOM     13  C   UNL A   1      35.367  20.990  25.085  1.00  0.00     0.013 C 
BRANCH   9  14
ATOM     14  C   UNL A   1      32.335  23.278  27.131  1.00  0.00     0.228 C 
ATOM     15  N   UNL A   1      31.416  24.272  27.005  1.00  0.00    -0.310 N 
ATOM     16  H   UNL A   1      30.820  24.358  27.784  1.00  0.00     0.171 HD
ATOM     17  O   UNL A   1      32.273  22.616  28.175  1.00  0.00    -0.274 OA
BRANCH  15  18
ATOM     18  C   UNL A   1      31.147  25.193  25.991  1.00  0.00     0.132 A 
ATOM     19  C   UNL A   1      31.705  28.915  25.517  1.00  0.00     0.046 C 
ATOM     20  C   UNL A   1      31.279  27.502  25.247  1.00  0.00    -0.032 A 
ATOM     21  C   UNL A   1      31.464  26.527  26.244  1.00  0.00     0.051 A 
ATOM     22  C   UNL A   1      30.770  27.090  24.016  1.00  0.00     0.039 A 
ATOM     23  C   UNL A   1      30.448  25.753  23.859  1.00  0.00     0.129 A 
ATOM     24  Br  UNL A   1      30.525  28.259  22.550  1.00  0.00    -0.049 Br
ATOM     25  N   UNL A   1      30.626  24.813  24.818  1.00  0.00    -0.238 NA
ENDBRANCH  15  18
ENDBRANCH   9  14
ENDBRANCH   5   8
ENDBRANCH   3   4
ENDBRANCH   2   3
ENDBRANCH   1   2
BRANCH   1  26
ATOM     26  C   UNL A   1      40.408  20.450  27.075  1.00  0.00     0.116 C 
BRANCH  26  27
ATOM     27  N   UNL A   1      41.285  19.580  26.305  1.00  0.00    -0.352 N 
ATOM     28  C   UNL A   1      42.494  19.876  25.717  1.00  0.00     0.251 C 
ATOM     29  H   UNL A   1      40.970  18.655  26.188  1.00  0.00     0.163 HD
ATOM     30  O   UNL A   1      43.049  19.050  24.998  1.00  0.00    -0.269 OA
BRANCH  28  31
ATOM     31  C   UNL A   1      43.090  21.216  25.920  1.00  0.00     0.039 A 
ATOM     32  C   UNL A   1      43.611  21.577  27.164  1.00  0.00     0.014 A 
ATOM     33  C   UNL A   1      43.063  22.142  24.874  1.00  0.00     0.014 A 
ATOM     34  C   UNL A   1      43.924  22.908  27.416  1.00  0.00     0.010 A 
ATOM     35  C   UNL A   1      43.466  23.462  25.106  1.00  0.00     0.010 A 
ATOM     36  C   UNL A   1      43.844  23.870  26.394  1.00  0.00    -0.014 A 
BRANCH  36  37
ATOM     37  C   UNL A   1      44.166  25.289  26.703  1.00  0.00     0.031 A 
ATOM     38  C   UNL A   1      43.132  26.211  27.294  1.00  0.00     0.074 A 
ATOM     39  C   UNL A   1      45.424  25.730  26.505  1.00  0.00     0.049 A 
ATOM     40  N   UNL A   1      43.262  27.456  27.674  1.00  0.00    -0.248 NA
ATOM     41  C   UNL A   1      41.775  25.671  27.477  1.00  0.00     0.031 C 
ATOM     42  C   UNL A   1      46.508  24.926  25.939  1.00  0.00     0.029 A 
ATOM     43  N   UNL A   1      46.014  26.937  26.780  1.00  0.00    -0.354 N 
ATOM     44  C   UNL A   1      42.009  27.854  28.127  1.00  0.00     0.074 A 
ATOM     45  C   UNL A   1      41.121  26.728  27.941  1.00  0.00     0.031 C 
ATOM     46  C   UNL A   1      47.642  25.638  25.966  1.00  0.00     0.029 A 
ATOM     47  C   UNL A   1      47.358  26.973  26.485  1.00  0.00     0.049 A 
ATOM     48  H   UNL A   1      45.524  27.705  27.153  1.00  0.00     0.167 HD
ATOM     49  C   UNL A   1      41.640  29.042  28.662  1.00  0.00     0.034 A 
ATOM     50  C   UNL A   1      48.262  27.966  26.608  1.00  0.00     0.034 A 
ATOM     51  C   UNL A   1      42.543  30.148  28.865  1.00  0.00     0.049 A 
ATOM     52  C   UNL A   1      47.822  29.283  27.190  1.00  0.00     0.074 A 
ATOM     53  C   UNL A   1      42.269  31.380  29.433  1.00  0.00     0.029 A 
ATOM     54  N   UNL A   1      43.885  30.160  28.517  1.00  0.00    -0.354 N 
ATOM     55  N   UNL A   1      46.644  29.624  27.654  1.00  0.00    -0.248 NA
ATOM     56  C   UNL A   1      48.828  30.351  27.263  1.00  0.00     0.031 C 
ATOM     57  C   UNL A   1      43.429  32.154  29.380  1.00  0.00     0.029 A 
ATOM     58  C   UNL A   1      44.446  31.387  28.835  1.00  0.00     0.049 A 
ATOM     59  H   UNL A   1      44.370  29.408  28.105  1.00  0.00     0.167 HD
ATOM     60  C   UNL A   1      46.768  30.942  28.083  1.00  0.00     0.074 A 
ATOM     61  C   UNL A   1      48.145  31.325  27.853  1.00  0.00     0.031 C 
ATOM     62  C   UNL A   1      45.822  31.761  28.606  1.00  0.00     0.034 A 
BRANCH  49  63
ATOM     63  C   UNL A   1      40.206  29.230  29.092  1.00  0.00     0.023 A 
ATOM     64  C   UNL A   1      39.858  29.124  30.452  1.00  0.00     0.031 A 
ATOM     65  C   UNL A   1      39.173  29.378  28.151  1.00  0.00     0.131 A 
ATOM     66  C   UNL A   1      38.509  29.139  30.830  1.00  0.00     0.055 A 
ATOM     67  C   UNL A   1      37.831  29.428  28.536  1.00  0.00     0.041 A 
ATOM     68  F   UNL A   1      39.453  29.483  26.842  1.00  0.00    -0.206 F 
ATOM     69  C   UNL A   1      37.494  29.296  29.880  1.00  0.00     0.022 A 
BRANCH  66  70
ATOM     70  S   UNL A   1      38.013  28.899  32.558  1.00  0.00     0.124 S 
ATOM     71  O   UNL A   1      36.645  29.415  32.550  1.00  0.00    -0.237 OA
ATOM     72  O   UNL A   1      38.132  27.452  32.712  1.00  0.00    -0.237 OA
ATOM     73  O   UNL A   1      38.972  29.695  33.314  1.00  0.00    -0.744 OA
ENDBRANCH  66  70
ENDBRANCH  49  63
BRANCH  50  74
ATOM     74  C   UNL A   1      49.677  27.707  26.210  1.00  0.00     0.023 A 
ATOM     75  C   UNL A   1      50.095  27.883  24.877  1.00  0.00     0.031 A 
ATOM     76  C   UNL A   1      50.592  27.159  27.122  1.00  0.00     0.131 A 
ATOM     77  C   UNL A   1      51.361  27.438  24.479  1.00  0.00     0.055 A 
ATOM     78  C   UNL A   1      51.882  26.787  26.737  1.00  0.00     0.041 A 
ATOM     79  F   UNL A   1      50.236  26.962  28.401  1.00  0.00    -0.206 F 
ATOM     80  C   UNL A   1      52.264  26.906  25.404  1.00  0.00     0.022 A 
BRANCH  77  81
ATOM     81  S   UNL A   1      51.818  27.393  22.723  1.00  0.00     0.124 S 
ATOM     82  O   UNL A   1      52.856  26.368  22.706  1.00  0.00    -0.237 OA
ATOM     83  O   UNL A   1      50.553  27.022  22.095  1.00  0.00    -0.237 OA
ATOM     84  O   UNL A   1      52.268  28.754  22.450  1.00  0.00    -0.744 OA
ENDBRANCH  77  81
ENDBRANCH  50  74
BRANCH  62  85
ATOM     85  C   UNL A   1      46.214  33.174  28.965  1.00  0.00     0.023 A 
ATOM     86  C   UNL A   1      46.112  34.202  28.008  1.00  0.00     0.031 A 
ATOM     87  C   UNL A   1      46.824  33.469  30.196  1.00  0.00     0.131 A 
ATOM     88  C   UNL A   1      46.646  35.466  28.284  1.00  0.00     0.055 A 
ATOM     89  C   UNL A   1      47.317  34.742  30.484  1.00  0.00     0.041 A 
ATOM     90  F   UNL A   1      46.953  32.519  31.136  1.00  0.00    -0.206 F 
ATOM     91  C   UNL A   1      47.242  35.744  29.520  1.00  0.00     0.022 A 
BRANCH  88  92
ATOM     92  S   UNL A   1      46.668  36.772  27.024  1.00  0.00     0.124 S 
ATOM     93  O   UNL A   1      47.169  36.055  25.855  1.00  0.00    -0.237 OA
ATOM     94  O   UNL A   1      45.262  37.163  26.962  1.00  0.00    -0.237 OA
ATOM     95  O   UNL A   1      47.574  37.776  27.573  1.00  0.00    -0.744 OA
ENDBRANCH  88  92
ENDBRANCH  62  85
ENDBRANCH  36  37
ENDBRANCH  28  31
ENDBRANCH  26  27
ENDBRANCH   1  26
TORSDOF 16
ENDMDL
