MODEL 1
REMARK VINA RESULT:     -12.5      0.000      0.000
REMARK SMILES CC1(C)C(NC(=O)[C@@H]2CCC[C@@H](C(=O)NCCCCNC(=O)c3ccc(-c4c5nc(c(-c6cc(S(=O)(=O)[O-])ccc6F)c6ccc([nH]6)c(-c6cc(S(=O)(=O)[O-])ccc6F)c6nc(c(-c7cc(S(=O)(=O)[O-])ccc7F)c7ccc4[nH]7)C=C6)C=C5)cc3)C2)C1(C)C
REMARK SMILES IDX 18 1 17 2 16 3 15 4 13 5 14 6 12 8 8 9 9 10 86 11 10 12
REMARK SMILES IDX 11 13 6 14 5 15 7 17 4 18 1 19 2 20 3 21 87 22 88 23 89 24
REMARK SMILES IDX 19 25 20 26 21 27 22 29 23 30 24 31 85 32 25 33 84 34 26 35
REMARK SMILES IDX 27 36 28 37 78 38 29 39 83 40 77 41 79 42 30 43 82 44 76 45
REMARK SMILES IDX 75 46 31 48 63 49 43 50 62 51 44 52 47 53 61 54 80 55 45 56
REMARK SMILES IDX 46 57 60 59 81 60 48 61 32 62 33 63 41 64 34 65 40 66 42 67
REMARK SMILES IDX 39 68 35 69 36 70 37 71 38 72 64 73 65 74 73 75 66 76 72 77
REMARK SMILES IDX 74 78 71 79 67 80 68 81 69 82 70 83 49 84 50 85 58 86 51 87
REMARK SMILES IDX 57 88 59 89 56 90 52 91 53 92 54 93 55 94
REMARK H PARENT 15 7 5 16 20 28 79 47 47 58
REMARK Flexibility Score: inf
ROOT
ATOM      1  C   UNL A   1      31.542  31.946  26.956  1.00  0.00     0.023 C 
ENDROOT
BRANCH   1   2
ATOM      2  C   UNL A   1      31.823  30.620  26.246  1.00  0.00     0.023 C 
BRANCH   2   3
ATOM      3  C   UNL A   1      32.739  29.670  27.012  1.00  0.00     0.116 C 
BRANCH   3   4
ATOM      4  N   UNL A   1      32.089  28.396  27.265  1.00  0.00    -0.356 N 
ATOM      5  C   UNL A   1      31.651  27.449  26.391  1.00  0.00     0.223 C 
ATOM      6  O   UNL A   1      31.056  26.468  26.830  1.00  0.00    -0.275 OA
ATOM      7  H   UNL A   1      31.944  28.184  28.216  1.00  0.00     0.163 HD
BRANCH   5   8
ATOM      8  C   UNL A   1      31.898  27.650  24.903  1.00  0.00     0.079 C 
ATOM      9  C   UNL A   1      32.511  25.389  23.732  1.00  0.00     0.079 C 
ATOM     10  C   UNL A   1      31.131  25.421  23.065  1.00  0.00     0.013 C 
ATOM     11  C   UNL A   1      32.983  26.681  24.414  1.00  0.00     0.027 C 
ATOM     12  C   UNL A   1      30.102  26.180  23.885  1.00  0.00     0.002 C 
ATOM     13  C   UNL A   1      30.574  27.603  24.138  1.00  0.00     0.013 C 
BRANCH   9  14
ATOM     14  C   UNL A   1      33.537  24.844  22.735  1.00  0.00     0.223 C 
ATOM     15  N   UNL A   1      34.282  23.728  23.025  1.00  0.00    -0.352 N 
ATOM     16  H   UNL A   1      34.983  23.510  22.369  1.00  0.00     0.163 HD
ATOM     17  O   UNL A   1      33.758  25.428  21.672  1.00  0.00    -0.275 OA
BRANCH  15  18
ATOM     18  C   UNL A   1      34.191  22.839  24.140  1.00  0.00     0.094 C 
ATOM     19  C   UNL A   1      35.123  20.539  24.923  1.00  0.00     0.014 C 
ATOM     20  C   UNL A   1      35.384  21.988  24.559  1.00  0.00    -0.007 C 
ATOM     21  C   UNL A   1      36.710  22.160  23.847  1.00  0.00     0.014 C 
ATOM     22  C   UNL A   1      34.842  23.100  25.480  1.00  0.00    -0.007 C 
ATOM     23  C   UNL A   1      34.011  22.728  26.693  1.00  0.00     0.014 C 
ATOM     24  C   UNL A   1      35.607  24.385  25.693  1.00  0.00     0.014 C 
ENDBRANCH  15  18
ENDBRANCH   9  14
ENDBRANCH   5   8
ENDBRANCH   3   4
ENDBRANCH   2   3
ENDBRANCH   1   2
BRANCH   1  25
ATOM     25  C   UNL A   1      32.777  32.684  27.460  1.00  0.00     0.116 C 
BRANCH  25  26
ATOM     26  N   UNL A   1      32.521  34.091  27.714  1.00  0.00    -0.352 N 
ATOM     27  C   UNL A   1      33.111  34.925  28.637  1.00  0.00     0.251 C 
ATOM     28  H   UNL A   1      31.831  34.506  27.148  1.00  0.00     0.163 HD
ATOM     29  O   UNL A   1      32.655  36.042  28.825  1.00  0.00    -0.269 OA
BRANCH  27  30
ATOM     30  C   UNL A   1      34.270  34.438  29.418  1.00  0.00     0.039 A 
ATOM     31  C   UNL A   1      34.037  33.777  30.626  1.00  0.00     0.014 A 
ATOM     32  C   UNL A   1      35.576  34.610  28.948  1.00  0.00     0.014 A 
ATOM     33  C   UNL A   1      35.112  33.228  31.329  1.00  0.00     0.010 A 
ATOM     34  C   UNL A   1      36.635  33.995  29.611  1.00  0.00     0.010 A 
ATOM     35  C   UNL A   1      36.416  33.298  30.809  1.00  0.00    -0.014 A 
BRANCH  35  36
ATOM     36  C   UNL A   1      37.556  32.648  31.507  1.00  0.00     0.031 A 
ATOM     37  C   UNL A   1      38.274  31.493  30.864  1.00  0.00     0.074 A 
ATOM     38  C   UNL A   1      37.912  33.065  32.738  1.00  0.00     0.049 A 
ATOM     39  N   UNL A   1      39.254  30.762  31.332  1.00  0.00    -0.248 NA
ATOM     40  C   UNL A   1      37.809  31.087  29.529  1.00  0.00     0.031 C 
ATOM     41  C   UNL A   1      37.264  34.149  33.483  1.00  0.00     0.029 A 
ATOM     42  N   UNL A   1      38.899  32.629  33.586  1.00  0.00    -0.354 N 
ATOM     43  C   UNL A   1      39.518  29.809  30.355  1.00  0.00     0.074 A 
ATOM     44  C   UNL A   1      38.549  30.012  29.300  1.00  0.00     0.031 C 
ATOM     45  C   UNL A   1      37.890  34.311  34.659  1.00  0.00     0.029 A 
ATOM     46  C   UNL A   1      38.953  33.317  34.777  1.00  0.00     0.049 A 
ATOM     47  H   UNL A   1      39.513  31.893  33.361  1.00  0.00     0.167 HD
ATOM     48  C   UNL A   1      40.494  28.868  30.328  1.00  0.00     0.034 A 
ATOM     49  C   UNL A   1      39.757  33.157  35.846  1.00  0.00     0.034 A 
ATOM     50  C   UNL A   1      41.459  28.682  31.386  1.00  0.00     0.049 A 
ATOM     51  C   UNL A   1      40.814  32.082  35.807  1.00  0.00     0.074 A 
ATOM     52  C   UNL A   1      42.519  27.794  31.441  1.00  0.00     0.029 A 
ATOM     53  N   UNL A   1      41.475  29.391  32.581  1.00  0.00    -0.354 N 
ATOM     54  N   UNL A   1      41.085  31.223  34.851  1.00  0.00    -0.248 NA
ATOM     55  C   UNL A   1      41.681  31.962  36.987  1.00  0.00     0.031 C 
ATOM     56  C   UNL A   1      43.131  27.916  32.692  1.00  0.00     0.029 A 
ATOM     57  C   UNL A   1      42.507  28.937  33.390  1.00  0.00     0.049 A 
ATOM     58  H   UNL A   1      40.848  30.111  32.819  1.00  0.00     0.167 HD
ATOM     59  C   UNL A   1      42.175  30.484  35.303  1.00  0.00     0.074 A 
ATOM     60  C   UNL A   1      42.520  31.010  36.607  1.00  0.00     0.031 C 
ATOM     61  C   UNL A   1      42.834  29.465  34.694  1.00  0.00     0.034 A 
BRANCH  48  62
ATOM     62  C   UNL A   1      40.550  27.957  29.124  1.00  0.00     0.023 A 
ATOM     63  C   UNL A   1      41.507  28.133  28.109  1.00  0.00     0.031 A 
ATOM     64  C   UNL A   1      39.619  26.913  28.975  1.00  0.00     0.131 A 
ATOM     65  C   UNL A   1      41.465  27.333  26.958  1.00  0.00     0.055 A 
ATOM     66  C   UNL A   1      39.637  26.064  27.866  1.00  0.00     0.041 A 
ATOM     67  F   UNL A   1      38.668  26.708  29.899  1.00  0.00    -0.206 F 
ATOM     68  C   UNL A   1      40.554  26.281  26.841  1.00  0.00     0.022 A 
BRANCH  65  69
ATOM     69  S   UNL A   1      42.523  27.778  25.554  1.00  0.00     0.124 S 
ATOM     70  O   UNL A   1      43.798  28.037  26.218  1.00  0.00    -0.237 OA
ATOM     71  O   UNL A   1      42.466  26.582  24.723  1.00  0.00    -0.237 OA
ATOM     72  O   UNL A   1      41.870  28.961  24.994  1.00  0.00    -0.744 OA
ENDBRANCH  65  69
ENDBRANCH  48  62
BRANCH  49  73
ATOM     73  C   UNL A   1      39.600  34.023  37.052  1.00  0.00     0.023 A 
ATOM     74  C   UNL A   1      39.053  33.515  38.241  1.00  0.00     0.031 A 
ATOM     75  C   UNL A   1      39.944  35.386  37.016  1.00  0.00     0.131 A 
ATOM     76  C   UNL A   1      38.817  34.374  39.326  1.00  0.00     0.055 A 
ATOM     77  C   UNL A   1      39.762  36.223  38.118  1.00  0.00     0.041 A 
ATOM     78  F   UNL A   1      40.475  35.923  35.906  1.00  0.00    -0.206 F 
ATOM     79  C   UNL A   1      39.180  35.721  39.277  1.00  0.00     0.022 A 
BRANCH  76  80
ATOM     80  S   UNL A   1      37.935  33.722  40.772  1.00  0.00     0.124 S 
ATOM     81  O   UNL A   1      38.824  32.649  41.202  1.00  0.00    -0.237 OA
ATOM     82  O   UNL A   1      37.873  34.891  41.641  1.00  0.00    -0.237 OA
ATOM     83  O   UNL A   1      36.653  33.288  40.220  1.00  0.00    -0.744 OA
ENDBRANCH  76  80
ENDBRANCH  49  73
BRANCH  61  84
ATOM     84  C   UNL A   1      44.027  28.889  35.419  1.00  0.00     0.023 A 
ATOM     85  C   UNL A   1      43.900  27.827  36.330  1.00  0.00     0.031 A 
ATOM     86  C   UNL A   1      45.310  29.422  35.201  1.00  0.00     0.131 A 
ATOM     87  C   UNL A   1      45.025  27.371  37.035  1.00  0.00     0.055 A 
ATOM     88  C   UNL A   1      46.436  28.922  35.856  1.00  0.00     0.041 A 
ATOM     89  F   UNL A   1      45.492  30.440  34.343  1.00  0.00    -0.206 F 
ATOM     90  C   UNL A   1      46.296  27.899  36.789  1.00  0.00     0.022 A 
BRANCH  87  91
ATOM     91  S   UNL A   1      44.792  26.141  38.348  1.00  0.00     0.124 S 
ATOM     92  O   UNL A   1      43.476  26.499  38.868  1.00  0.00    -0.237 OA
ATOM     93  O   UNL A   1      44.867  24.883  37.614  1.00  0.00    -0.237 OA
ATOM     94  O   UNL A   1      45.908  26.395  39.257  1.00  0.00    -0.744 OA
ENDBRANCH  87  91
ENDBRANCH  61  84
ENDBRANCH  35  36
ENDBRANCH  27  30
ENDBRANCH  25  26
ENDBRANCH   1  25
TORSDOF 16
ENDMDL
MODEL 2
REMARK VINA RESULT:     -12.5      1.155      1.953
REMARK SMILES CC1(C)C(NC(=O)[C@@H]2CCC[C@@H](C(=O)NCCCCNC(=O)c3ccc(-c4c5nc(c(-c6cc(S(=O)(=O)[O-])ccc6F)c6ccc([nH]6)c(-c6cc(S(=O)(=O)[O-])ccc6F)c6nc(c(-c7cc(S(=O)(=O)[O-])ccc7F)c7ccc4[nH]7)C=C6)C=C5)cc3)C2)C1(C)C
REMARK SMILES IDX 18 1 17 2 16 3 15 4 13 5 14 6 12 8 8 9 9 10 86 11 10 12
REMARK SMILES IDX 11 13 6 14 5 15 7 17 4 18 1 19 2 20 3 21 87 22 88 23 89 24
REMARK SMILES IDX 19 25 20 26 21 27 22 29 23 30 24 31 85 32 25 33 84 34 26 35
REMARK SMILES IDX 27 36 28 37 78 38 29 39 83 40 77 41 79 42 30 43 82 44 76 45
REMARK SMILES IDX 75 46 31 48 63 49 43 50 62 51 44 52 47 53 61 54 80 55 45 56
REMARK SMILES IDX 46 57 60 59 81 60 48 61 32 62 33 63 41 64 34 65 40 66 42 67
REMARK SMILES IDX 39 68 35 69 36 70 37 71 38 72 64 73 65 74 73 75 66 76 72 77
REMARK SMILES IDX 74 78 71 79 67 80 68 81 69 82 70 83 49 84 50 85 58 86 51 87
REMARK SMILES IDX 57 88 59 89 56 90 52 91 53 92 54 93 55 94
REMARK H PARENT 15 7 5 16 20 28 79 47 47 58
REMARK Flexibility Score: inf
ROOT
ATOM      1  C   UNL A   1      31.555  32.872  26.660  1.00  0.00     0.023 C 
ENDROOT
BRANCH   1   2
ATOM      2  C   UNL A   1      31.295  31.364  26.688  1.00  0.00     0.023 C 
BRANCH   2   3
ATOM      3  C   UNL A   1      32.273  30.535  25.859  1.00  0.00     0.116 C 
BRANCH   3   4
ATOM      4  N   UNL A   1      31.577  29.701  24.896  1.00  0.00    -0.356 N 
ATOM      5  C   UNL A   1      31.237  28.385  24.963  1.00  0.00     0.223 C 
ATOM      6  O   UNL A   1      30.708  27.859  23.986  1.00  0.00    -0.275 OA
ATOM      7  H   UNL A   1      31.309  30.158  24.066  1.00  0.00     0.163 HD
BRANCH   5   8
ATOM      8  C   UNL A   1      31.541  27.610  26.237  1.00  0.00     0.079 C 
ATOM      9  C   UNL A   1      31.952  25.074  25.729  1.00  0.00     0.079 C 
ATOM     10  C   UNL A   1      33.436  25.308  26.033  1.00  0.00     0.013 C 
ATOM     11  C   UNL A   1      30.976  26.187  26.136  1.00  0.00     0.027 C 
ATOM     12  C   UNL A   1      33.872  26.737  25.760  1.00  0.00     0.002 C 
ATOM     13  C   UNL A   1      33.031  27.709  26.572  1.00  0.00     0.013 C 
BRANCH   9  14
ATOM     14  C   UNL A   1      31.539  23.703  26.271  1.00  0.00     0.223 C 
ATOM     15  N   UNL A   1      31.518  22.598  25.459  1.00  0.00    -0.352 N 
ATOM     16  H   UNL A   1      31.147  21.783  25.868  1.00  0.00     0.163 HD
ATOM     17  O   UNL A   1      31.159  23.573  27.437  1.00  0.00    -0.275 OA
BRANCH  15  18
ATOM     18  C   UNL A   1      31.957  22.455  24.105  1.00  0.00     0.094 C 
ATOM     19  C   UNL A   1      34.004  23.045  22.612  1.00  0.00     0.014 C 
ATOM     20  C   UNL A   1      33.433  22.263  23.780  1.00  0.00    -0.007 C 
ATOM     21  C   UNL A   1      34.434  22.123  24.907  1.00  0.00     0.014 C 
ATOM     22  C   UNL A   1      32.408  21.145  23.500  1.00  0.00    -0.007 C 
ATOM     23  C   UNL A   1      31.947  20.890  22.078  1.00  0.00     0.014 C 
ATOM     24  C   UNL A   1      32.368  19.890  24.340  1.00  0.00     0.014 C 
ENDBRANCH  15  18
ENDBRANCH   9  14
ENDBRANCH   5   8
ENDBRANCH   3   4
ENDBRANCH   2   3
ENDBRANCH   1   2
BRANCH   1  25
ATOM     25  C   UNL A   1      32.847  33.317  27.337  1.00  0.00     0.116 C 
BRANCH  25  26
ATOM     26  N   UNL A   1      32.713  34.600  28.005  1.00  0.00    -0.352 N 
ATOM     27  C   UNL A   1      33.374  35.070  29.117  1.00  0.00     0.251 C 
ATOM     28  H   UNL A   1      32.058  35.219  27.607  1.00  0.00     0.163 HD
ATOM     29  O   UNL A   1      33.017  36.113  29.641  1.00  0.00    -0.269 OA
BRANCH  27  30
ATOM     30  C   UNL A   1      34.490  34.280  29.685  1.00  0.00     0.039 A 
ATOM     31  C   UNL A   1      35.784  34.506  29.211  1.00  0.00     0.014 A 
ATOM     32  C   UNL A   1      34.263  33.341  30.697  1.00  0.00     0.014 A 
ATOM     33  C   UNL A   1      36.859  33.839  29.801  1.00  0.00     0.010 A 
ATOM     34  C   UNL A   1      35.343  32.737  31.334  1.00  0.00     0.010 A 
ATOM     35  C   UNL A   1      36.654  32.977  30.892  1.00  0.00    -0.014 A 
BRANCH  35  36
ATOM     36  C   UNL A   1      37.799  32.324  31.580  1.00  0.00     0.031 A 
ATOM     37  C   UNL A   1      38.521  31.180  30.921  1.00  0.00     0.074 A 
ATOM     38  C   UNL A   1      38.154  32.727  32.816  1.00  0.00     0.049 A 
ATOM     39  N   UNL A   1      39.505  30.449  31.379  1.00  0.00    -0.248 NA
ATOM     40  C   UNL A   1      38.056  30.790  29.582  1.00  0.00     0.031 C 
ATOM     41  C   UNL A   1      37.503  33.798  33.575  1.00  0.00     0.029 A 
ATOM     42  N   UNL A   1      39.145  32.285  33.656  1.00  0.00    -0.354 N 
ATOM     43  C   UNL A   1      39.772  29.509  30.389  1.00  0.00     0.074 A 
ATOM     44  C   UNL A   1      38.800  29.721  29.338  1.00  0.00     0.031 C 
ATOM     45  C   UNL A   1      38.130  33.949  34.752  1.00  0.00     0.029 A 
ATOM     46  C   UNL A   1      39.197  32.958  34.856  1.00  0.00     0.049 A 
ATOM     47  H   UNL A   1      39.763  31.555  33.421  1.00  0.00     0.167 HD
ATOM     48  C   UNL A   1      40.753  28.573  30.349  1.00  0.00     0.034 A 
ATOM     49  C   UNL A   1      40.005  32.789  35.922  1.00  0.00     0.034 A 
ATOM     50  C   UNL A   1      41.720  28.379  31.402  1.00  0.00     0.049 A 
ATOM     51  C   UNL A   1      41.066  31.719  35.867  1.00  0.00     0.074 A 
ATOM     52  C   UNL A   1      42.785  27.495  31.444  1.00  0.00     0.029 A 
ATOM     53  N   UNL A   1      41.735  29.073  32.606  1.00  0.00    -0.354 N 
ATOM     54  N   UNL A   1      41.340  30.874  34.900  1.00  0.00    -0.248 NA
ATOM     55  C   UNL A   1      41.936  31.589  37.044  1.00  0.00     0.031 C 
ATOM     56  C   UNL A   1      43.398  27.605  32.696  1.00  0.00     0.029 A 
ATOM     57  C   UNL A   1      42.771  28.614  33.408  1.00  0.00     0.049 A 
ATOM     58  H   UNL A   1      41.105  29.787  32.854  1.00  0.00     0.167 HD
ATOM     59  C   UNL A   1      42.435  30.135  35.341  1.00  0.00     0.074 A 
ATOM     60  C   UNL A   1      42.779  30.646  36.651  1.00  0.00     0.031 C 
ATOM     61  C   UNL A   1      43.098  29.127  34.718  1.00  0.00     0.034 A 
BRANCH  48  62
ATOM     62  C   UNL A   1      40.811  27.679  29.133  1.00  0.00     0.023 A 
ATOM     63  C   UNL A   1      41.748  27.889  28.105  1.00  0.00     0.031 A 
ATOM     64  C   UNL A   1      39.903  26.614  28.985  1.00  0.00     0.131 A 
ATOM     65  C   UNL A   1      41.707  27.101  26.946  1.00  0.00     0.055 A 
ATOM     66  C   UNL A   1      39.923  25.779  27.866  1.00  0.00     0.041 A 
ATOM     67  F   UNL A   1      38.972  26.376  29.921  1.00  0.00    -0.206 F 
ATOM     68  C   UNL A   1      40.819  26.029  26.830  1.00  0.00     0.022 A 
BRANCH  65  69
ATOM     69  S   UNL A   1      42.732  27.588  25.531  1.00  0.00     0.124 S 
ATOM     70  O   UNL A   1      44.012  27.867  26.178  1.00  0.00    -0.237 OA
ATOM     71  O   UNL A   1      42.689  26.401  24.686  1.00  0.00    -0.237 OA
ATOM     72  O   UNL A   1      42.044  28.762  24.996  1.00  0.00    -0.744 OA
ENDBRANCH  65  69
ENDBRANCH  48  62
BRANCH  49  73
ATOM     73  C   UNL A   1      39.845  33.639  37.138  1.00  0.00     0.023 A 
ATOM     74  C   UNL A   1      39.120  33.181  38.250  1.00  0.00     0.031 A 
ATOM     75  C   UNL A   1      40.369  34.943  37.186  1.00  0.00     0.131 A 
ATOM     76  C   UNL A   1      38.895  34.037  39.340  1.00  0.00     0.055 A 
ATOM     77  C   UNL A   1      40.191  35.770  38.296  1.00  0.00     0.041 A 
ATOM     78  F   UNL A   1      41.073  35.430  36.152  1.00  0.00    -0.206 F 
ATOM     79  C   UNL A   1      39.436  35.323  39.375  1.00  0.00     0.022 A 
BRANCH  76  80
ATOM     80  S   UNL A   1      37.795  33.476  40.670  1.00  0.00     0.124 S 
ATOM     81  O   UNL A   1      37.578  34.710  41.416  1.00  0.00    -0.237 OA
ATOM     82  O   UNL A   1      36.651  32.967  39.922  1.00  0.00    -0.237 OA
ATOM     83  O   UNL A   1      38.588  32.461  41.360  1.00  0.00    -0.744 OA
ENDBRANCH  76  80
ENDBRANCH  49  73
BRANCH  61  84
ATOM     84  C   UNL A   1      44.295  28.548  35.434  1.00  0.00     0.023 A 
ATOM     85  C   UNL A   1      44.164  27.527  36.391  1.00  0.00     0.031 A 
ATOM     86  C   UNL A   1      45.585  29.035  35.159  1.00  0.00     0.131 A 
ATOM     87  C   UNL A   1      45.297  27.070  37.083  1.00  0.00     0.055 A 
ATOM     88  C   UNL A   1      46.715  28.530  35.803  1.00  0.00     0.041 A 
ATOM     89  F   UNL A   1      45.769  30.012  34.255  1.00  0.00    -0.206 F 
ATOM     90  C   UNL A   1      46.573  27.551  36.782  1.00  0.00     0.022 A 
BRANCH  87  91
ATOM     91  S   UNL A   1      45.068  25.901  38.452  1.00  0.00     0.124 S 
ATOM     92  O   UNL A   1      46.378  25.927  39.095  1.00  0.00    -0.237 OA
ATOM     93  O   UNL A   1      43.977  26.511  39.204  1.00  0.00    -0.237 OA
ATOM     94  O   UNL A   1      44.731  24.647  37.780  1.00  0.00    -0.744 OA
ENDBRANCH  87  91
ENDBRANCH  61  84
ENDBRANCH  35  36
ENDBRANCH  27  30
ENDBRANCH  25  26
ENDBRANCH   1  25
TORSDOF 16
ENDMDL
MODEL 3
REMARK VINA RESULT:     -12.4      1.661      7.782
REMARK SMILES CC1(C)C(NC(=O)[C@@H]2CCC[C@@H](C(=O)NCCCCNC(=O)c3ccc(-c4c5nc(c(-c6cc(S(=O)(=O)[O-])ccc6F)c6ccc([nH]6)c(-c6cc(S(=O)(=O)[O-])ccc6F)c6nc(c(-c7cc(S(=O)(=O)[O-])ccc7F)c7ccc4[nH]7)C=C6)C=C5)cc3)C2)C1(C)C
REMARK SMILES IDX 18 1 17 2 16 3 15 4 13 5 14 6 12 8 8 9 9 10 86 11 10 12
REMARK SMILES IDX 11 13 6 14 5 15 7 17 4 18 1 19 2 20 3 21 87 22 88 23 89 24
REMARK SMILES IDX 19 25 20 26 21 27 22 29 23 30 24 31 85 32 25 33 84 34 26 35
REMARK SMILES IDX 27 36 28 37 78 38 29 39 83 40 77 41 79 42 30 43 82 44 76 45
REMARK SMILES IDX 75 46 31 48 63 49 43 50 62 51 44 52 47 53 61 54 80 55 45 56
REMARK SMILES IDX 46 57 60 59 81 60 48 61 32 62 33 63 41 64 34 65 40 66 42 67
REMARK SMILES IDX 39 68 35 69 36 70 37 71 38 72 64 73 65 74 73 75 66 76 72 77
REMARK SMILES IDX 74 78 71 79 67 80 68 81 69 82 70 83 49 84 50 85 58 86 51 87
REMARK SMILES IDX 57 88 59 89 56 90 52 91 53 92 54 93 55 94
REMARK H PARENT 15 7 5 16 20 28 79 47 47 58
REMARK Flexibility Score: inf
ROOT
ATOM      1  C   UNL A   1      31.356  32.380  26.617  1.00  0.00     0.023 C 
ENDROOT
BRANCH   1   2
ATOM      2  C   UNL A   1      31.302  30.893  26.260  1.00  0.00     0.023 C 
BRANCH   2   3
ATOM      3  C   UNL A   1      32.334  30.029  26.978  1.00  0.00     0.116 C 
BRANCH   3   4
ATOM      4  N   UNL A   1      31.825  28.693  27.229  1.00  0.00    -0.356 N 
ATOM      5  C   UNL A   1      31.527  27.692  26.356  1.00  0.00     0.223 C 
ATOM      6  O   UNL A   1      31.032  26.654  26.791  1.00  0.00    -0.275 OA
ATOM      7  H   UNL A   1      31.672  28.477  28.177  1.00  0.00     0.163 HD
BRANCH   5   8
ATOM      8  C   UNL A   1      31.800  27.901  24.874  1.00  0.00     0.079 C 
ATOM      9  C   UNL A   1      32.422  25.646  23.698  1.00  0.00     0.079 C 
ATOM     10  C   UNL A   1      31.054  25.690  23.008  1.00  0.00     0.013 C 
ATOM     11  C   UNL A   1      32.889  26.930  24.397  1.00  0.00     0.027 C 
ATOM     12  C   UNL A   1      30.015  26.448  23.815  1.00  0.00     0.002 C 
ATOM     13  C   UNL A   1      30.489  27.866  24.086  1.00  0.00     0.013 C 
BRANCH   9  14
ATOM     14  C   UNL A   1      33.462  25.101  22.714  1.00  0.00     0.223 C 
ATOM     15  N   UNL A   1      34.169  23.958  22.993  1.00  0.00    -0.352 N 
ATOM     16  H   UNL A   1      34.883  23.740  22.351  1.00  0.00     0.163 HD
ATOM     17  O   UNL A   1      33.729  25.710  21.676  1.00  0.00    -0.275 OA
BRANCH  15  18
ATOM     18  C   UNL A   1      34.021  23.040  24.078  1.00  0.00     0.094 C 
ATOM     19  C   UNL A   1      34.875  20.697  24.822  1.00  0.00     0.014 C 
ATOM     20  C   UNL A   1      35.181  22.149  24.509  1.00  0.00    -0.007 C 
ATOM     21  C   UNL A   1      36.532  22.310  23.845  1.00  0.00     0.014 C 
ATOM     22  C   UNL A   1      34.634  23.247  25.445  1.00  0.00    -0.007 C 
ATOM     23  C   UNL A   1      33.756  22.860  26.619  1.00  0.00     0.014 C 
ATOM     24  C   UNL A   1      35.421  24.506  25.719  1.00  0.00     0.014 C 
ENDBRANCH  15  18
ENDBRANCH   9  14
ENDBRANCH   5   8
ENDBRANCH   3   4
ENDBRANCH   2   3
ENDBRANCH   1   2
BRANCH   1  25
ATOM     25  C   UNL A   1      32.737  32.903  26.996  1.00  0.00     0.116 C 
BRANCH  25  26
ATOM     26  N   UNL A   1      32.677  34.148  27.742  1.00  0.00    -0.352 N 
ATOM     27  C   UNL A   1      33.429  34.546  28.824  1.00  0.00     0.251 C 
ATOM     28  H   UNL A   1      32.005  34.797  27.430  1.00  0.00     0.163 HD
ATOM     29  O   UNL A   1      33.130  35.563  29.431  1.00  0.00    -0.269 OA
BRANCH  27  30
ATOM     30  C   UNL A   1      34.571  33.711  29.260  1.00  0.00     0.039 A 
ATOM     31  C   UNL A   1      35.865  34.115  28.927  1.00  0.00     0.014 A 
ATOM     32  C   UNL A   1      34.366  32.552  30.015  1.00  0.00     0.014 A 
ATOM     33  C   UNL A   1      36.958  33.392  29.410  1.00  0.00     0.010 A 
ATOM     34  C   UNL A   1      35.457  31.879  30.558  1.00  0.00     0.010 A 
ATOM     35  C   UNL A   1      36.765  32.290  30.261  1.00  0.00    -0.014 A 
BRANCH  35  36
ATOM     36  C   UNL A   1      37.922  31.562  30.847  1.00  0.00     0.031 A 
ATOM     37  C   UNL A   1      38.385  31.881  32.242  1.00  0.00     0.074 A 
ATOM     38  C   UNL A   1      38.582  30.650  30.105  1.00  0.00     0.049 A 
ATOM     39  N   UNL A   1      39.402  31.395  32.908  1.00  0.00    -0.248 NA
ATOM     40  C   UNL A   1      37.622  32.903  32.974  1.00  0.00     0.031 C 
ATOM     41  C   UNL A   1      38.252  30.285  28.726  1.00  0.00     0.029 A 
ATOM     42  N   UNL A   1      39.670  29.867  30.401  1.00  0.00    -0.354 N 
ATOM     43  C   UNL A   1      39.404  32.055  34.132  1.00  0.00     0.074 A 
ATOM     44  C   UNL A   1      38.330  33.024  34.087  1.00  0.00     0.031 C 
ATOM     45  C   UNL A   1      39.098  29.330  28.308  1.00  0.00     0.029 A 
ATOM     46  C   UNL A   1      40.060  29.046  29.369  1.00  0.00     0.049 A 
ATOM     47  H   UNL A   1      40.127  29.891  31.273  1.00  0.00     0.167 HD
ATOM     48  C   UNL A   1      40.211  31.854  35.204  1.00  0.00     0.034 A 
ATOM     49  C   UNL A   1      41.083  28.173  29.281  1.00  0.00     0.034 A 
ATOM     50  C   UNL A   1      41.274  30.878  35.236  1.00  0.00     0.049 A 
ATOM     51  C   UNL A   1      41.988  27.991  30.475  1.00  0.00     0.074 A 
ATOM     52  C   UNL A   1      42.119  30.557  36.284  1.00  0.00     0.029 A 
ATOM     53  N   UNL A   1      41.646  30.071  34.167  1.00  0.00    -0.354 N 
ATOM     54  N   UNL A   1      41.942  28.585  31.645  1.00  0.00    -0.248 NA
ATOM     55  C   UNL A   1      43.074  27.012  30.339  1.00  0.00     0.031 C 
ATOM     56  C   UNL A   1      43.043  29.611  35.830  1.00  0.00     0.029 A 
ATOM     57  C   UNL A   1      42.727  29.278  34.524  1.00  0.00     0.049 A 
ATOM     58  H   UNL A   1      41.206  30.063  33.287  1.00  0.00     0.167 HD
ATOM     59  C   UNL A   1      42.974  28.026  32.394  1.00  0.00     0.074 A 
ATOM     60  C   UNL A   1      43.611  27.037  31.550  1.00  0.00     0.031 C 
ATOM     61  C   UNL A   1      43.359  28.302  33.667  1.00  0.00     0.034 A 
BRANCH  48  62
ATOM     62  C   UNL A   1      39.982  32.723  36.419  1.00  0.00     0.023 A 
ATOM     63  C   UNL A   1      39.124  32.326  37.460  1.00  0.00     0.031 A 
ATOM     64  C   UNL A   1      40.612  33.976  36.529  1.00  0.00     0.131 A 
ATOM     65  C   UNL A   1      38.859  33.201  38.523  1.00  0.00     0.055 A 
ATOM     66  C   UNL A   1      40.410  34.807  37.633  1.00  0.00     0.041 A 
ATOM     67  F   UNL A   1      41.426  34.420  35.558  1.00  0.00    -0.206 F 
ATOM     68  C   UNL A   1      39.517  34.429  38.631  1.00  0.00     0.022 A 
BRANCH  65  69
ATOM     69  S   UNL A   1      37.533  32.775  39.685  1.00  0.00     0.124 S 
ATOM     70  O   UNL A   1      37.982  31.476  40.179  1.00  0.00    -0.237 OA
ATOM     71  O   UNL A   1      37.585  33.875  40.641  1.00  0.00    -0.237 OA
ATOM     72  O   UNL A   1      36.338  32.734  38.843  1.00  0.00    -0.744 OA
ENDBRANCH  65  69
ENDBRANCH  48  62
BRANCH  49  73
ATOM     73  C   UNL A   1      41.322  27.406  28.024  1.00  0.00     0.023 A 
ATOM     74  C   UNL A   1      41.019  26.037  27.943  1.00  0.00     0.031 A 
ATOM     75  C   UNL A   1      41.908  28.017  26.901  1.00  0.00     0.131 A 
ATOM     76  C   UNL A   1      41.350  25.313  26.786  1.00  0.00     0.055 A 
ATOM     77  C   UNL A   1      42.181  27.305  25.732  1.00  0.00     0.041 A 
ATOM     78  F   UNL A   1      42.215  29.324  26.922  1.00  0.00    -0.206 F 
ATOM     79  C   UNL A   1      41.917  25.941  25.676  1.00  0.00     0.022 A 
BRANCH  76  80
ATOM     80  S   UNL A   1      41.118  23.514  26.793  1.00  0.00     0.124 S 
ATOM     81  O   UNL A   1      41.512  23.169  28.155  1.00  0.00    -0.237 OA
ATOM     82  O   UNL A   1      39.698  23.391  26.486  1.00  0.00    -0.237 OA
ATOM     83  O   UNL A   1      42.024  23.050  25.745  1.00  0.00    -0.744 OA
ENDBRANCH  76  80
ENDBRANCH  49  73
BRANCH  61  84
ATOM     84  C   UNL A   1      44.494  27.483  34.233  1.00  0.00     0.023 A 
ATOM     85  C   UNL A   1      44.271  26.261  34.890  1.00  0.00     0.031 A 
ATOM     86  C   UNL A   1      45.819  27.940  34.121  1.00  0.00     0.131 A 
ATOM     87  C   UNL A   1      45.350  25.568  35.463  1.00  0.00     0.055 A 
ATOM     88  C   UNL A   1      46.894  27.215  34.635  1.00  0.00     0.041 A 
ATOM     89  F   UNL A   1      46.091  29.103  33.505  1.00  0.00    -0.206 F 
ATOM     90  C   UNL A   1      46.662  26.028  35.323  1.00  0.00     0.022 A 
BRANCH  87  91
ATOM     91  S   UNL A   1      45.005  24.104  36.477  1.00  0.00     0.124 S 
ATOM     92  O   UNL A   1      46.301  23.431  36.488  1.00  0.00    -0.237 OA
ATOM     93  O   UNL A   1      44.582  24.693  37.743  1.00  0.00    -0.237 OA
ATOM     94  O   UNL A   1      43.953  23.412  35.733  1.00  0.00    -0.744 OA
ENDBRANCH  87  91
ENDBRANCH  61  84
ENDBRANCH  35  36
ENDBRANCH  27  30
ENDBRANCH  25  26
ENDBRANCH   1  25
TORSDOF 16
ENDMDL
