MODEL 1
REMARK VINA RESULT:     -12.3      0.000      0.000
REMARK SMILES O=C(NCCCCNC(=O)c1ccccc1NC(=O)c1ccncc1)c1ccc(-c2c3nc(c(-c4cc(S(=O)(=O)[O-])ccc4F)c4ccc([nH]4)c(-c4cc(S(=O)(=O)[O-])ccc4F)c4nc(c(-c5cc(S(=O)(=O)[O-])ccc5F)c5ccc2[nH]5)C=C4)C=C3)cc1
REMARK SMILES IDX 5 1 4 2 3 3 1 4 2 5 26 7 27 8 88 9 28 10 87 11 29 12 30 13
REMARK SMILES IDX 31 14 81 15 32 16 86 17 80 18 82 19 33 20 85 21 79 22 78 23
REMARK SMILES IDX 34 25 66 26 46 27 65 28 47 29 50 30 64 31 83 32 48 33 49 34
REMARK SMILES IDX 63 36 84 37 51 38 35 39 36 40 44 41 37 42 43 43 45 44 42 45
REMARK SMILES IDX 38 46 39 47 40 48 41 49 67 50 68 51 76 52 69 53 75 54 77 55
REMARK SMILES IDX 74 56 70 57 71 58 72 59 73 60 52 61 53 62 61 63 54 64 60 65
REMARK SMILES IDX 62 66 59 67 55 68 56 69 57 70 58 71 6 72 7 73 8 74 9 75
REMARK SMILES IDX 10 77 11 78 12 79 16 80 13 81 15 82 14 83 17 84 18 85 19 87
REMARK SMILES IDX 20 88 21 89 25 90 22 91 24 92 23 93
REMARK H PARENT 3 6 82 24 50 35 8 76 17 86
REMARK Flexibility Score: inf
ROOT
ATOM      1  C   UNL A   1      35.063  23.123  24.998  1.00  0.00     0.023 C 
ENDROOT
BRANCH   1   2
ATOM      2  C   UNL A   1      35.927  22.702  26.180  1.00  0.00     0.116 C 
BRANCH   2   3
ATOM      3  N   UNL A   1      36.856  21.628  25.864  1.00  0.00    -0.352 N 
ATOM      4  O   UNL A   1      38.863  20.663  25.491  1.00  0.00    -0.269 OA
ATOM      5  C   UNL A   1      38.233  21.630  25.911  1.00  0.00     0.251 C 
ATOM      6  H   UNL A   1      36.444  20.781  25.574  1.00  0.00     0.163 HD
BRANCH   5   7
ATOM      7  C   UNL A   1      38.947  22.814  26.441  1.00  0.00     0.039 A 
ATOM      8  C   UNL A   1      38.546  24.100  26.079  1.00  0.00     0.014 A 
ATOM      9  C   UNL A   1      40.049  22.635  27.283  1.00  0.00     0.014 A 
ATOM     10  C   UNL A   1      39.347  25.187  26.406  1.00  0.00     0.010 A 
ATOM     11  C   UNL A   1      40.795  23.744  27.699  1.00  0.00     0.010 A 
ATOM     12  C   UNL A   1      40.475  25.028  27.230  1.00  0.00    -0.014 A 
BRANCH  12  13
ATOM     13  C   UNL A   1      41.254  26.237  27.611  1.00  0.00     0.031 A 
ATOM     14  C   UNL A   1      42.628  26.497  27.054  1.00  0.00     0.074 A 
ATOM     15  C   UNL A   1      40.665  27.147  28.414  1.00  0.00     0.049 A 
ATOM     16  N   UNL A   1      43.402  27.540  27.226  1.00  0.00    -0.248 NA
ATOM     17  C   UNL A   1      43.215  25.451  26.204  1.00  0.00     0.031 C 
ATOM     18  C   UNL A   1      39.343  26.990  29.028  1.00  0.00     0.029 A 
ATOM     19  N   UNL A   1      41.072  28.390  28.822  1.00  0.00    -0.354 N 
ATOM     20  C   UNL A   1      44.569  27.277  26.515  1.00  0.00     0.074 A 
ATOM     21  C   UNL A   1      44.414  25.955  25.941  1.00  0.00     0.031 C 
ATOM     22  C   UNL A   1      39.020  28.118  29.675  1.00  0.00     0.029 A 
ATOM     23  C   UNL A   1      40.137  29.051  29.585  1.00  0.00     0.049 A 
ATOM     24  H   UNL A   1      41.949  28.774  28.592  1.00  0.00     0.167 HD
ATOM     25  C   UNL A   1      45.660  28.066  26.350  1.00  0.00     0.034 A 
ATOM     26  C   UNL A   1      40.173  30.267  30.163  1.00  0.00     0.034 A 
ATOM     27  C   UNL A   1      45.798  29.382  26.933  1.00  0.00     0.049 A 
ATOM     28  C   UNL A   1      41.395  31.120  29.964  1.00  0.00     0.074 A 
ATOM     29  C   UNL A   1      46.860  30.266  26.832  1.00  0.00     0.029 A 
ATOM     30  N   UNL A   1      44.843  30.007  27.728  1.00  0.00    -0.354 N 
ATOM     31  N   UNL A   1      42.488  30.849  29.287  1.00  0.00    -0.248 NA
ATOM     32  C   UNL A   1      41.387  32.441  30.600  1.00  0.00     0.031 C 
ATOM     33  C   UNL A   1      46.572  31.396  27.607  1.00  0.00     0.029 A 
ATOM     34  C   UNL A   1      45.300  31.252  28.137  1.00  0.00     0.049 A 
ATOM     35  H   UNL A   1      43.969  29.622  27.965  1.00  0.00     0.167 HD
ATOM     36  C   UNL A   1      43.297  31.972  29.416  1.00  0.00     0.074 A 
ATOM     37  C   UNL A   1      42.547  32.936  30.197  1.00  0.00     0.031 C 
ATOM     38  C   UNL A   1      44.552  32.186  28.944  1.00  0.00     0.034 A 
BRANCH  25  39
ATOM     39  C   UNL A   1      46.806  27.513  25.536  1.00  0.00     0.023 A 
ATOM     40  C   UNL A   1      47.052  27.939  24.218  1.00  0.00     0.031 A 
ATOM     41  C   UNL A   1      47.664  26.541  26.082  1.00  0.00     0.131 A 
ATOM     42  C   UNL A   1      48.091  27.357  23.474  1.00  0.00     0.055 A 
ATOM     43  C   UNL A   1      48.738  26.016  25.361  1.00  0.00     0.041 A 
ATOM     44  F   UNL A   1      47.468  26.080  27.327  1.00  0.00    -0.206 F 
ATOM     45  C   UNL A   1      48.951  26.415  24.045  1.00  0.00     0.022 A 
BRANCH  42  46
ATOM     46  S   UNL A   1      48.231  27.762  21.711  1.00  0.00     0.124 S 
ATOM     47  O   UNL A   1      46.934  28.378  21.445  1.00  0.00    -0.237 OA
ATOM     48  O   UNL A   1      49.382  28.658  21.683  1.00  0.00    -0.237 OA
ATOM     49  O   UNL A   1      48.437  26.462  21.075  1.00  0.00    -0.744 OA
ENDBRANCH  42  46
ENDBRANCH  25  39
BRANCH  26  50
ATOM     50  C   UNL A   1      39.037  30.728  31.009  1.00  0.00     0.023 A 
ATOM     51  C   UNL A   1      38.023  31.548  30.490  1.00  0.00     0.031 A 
ATOM     52  C   UNL A   1      38.967  30.373  32.369  1.00  0.00     0.131 A 
ATOM     53  C   UNL A   1      37.006  32.017  31.334  1.00  0.00     0.055 A 
ATOM     54  C   UNL A   1      37.922  30.795  33.191  1.00  0.00     0.041 A 
ATOM     55  F   UNL A   1      39.910  29.588  32.915  1.00  0.00    -0.206 F 
ATOM     56  C   UNL A   1      36.939  31.635  32.676  1.00  0.00     0.022 A 
BRANCH  53  57
ATOM     57  S   UNL A   1      35.814  33.216  30.675  1.00  0.00     0.124 S 
ATOM     58  O   UNL A   1      34.686  32.359  30.330  1.00  0.00    -0.237 OA
ATOM     59  O   UNL A   1      35.620  34.105  31.816  1.00  0.00    -0.237 OA
ATOM     60  O   UNL A   1      36.519  33.807  29.540  1.00  0.00    -0.744 OA
ENDBRANCH  53  57
ENDBRANCH  26  50
BRANCH  38  61
ATOM     61  C   UNL A   1      45.168  33.526  29.263  1.00  0.00     0.023 A 
ATOM     62  C   UNL A   1      44.993  34.632  28.412  1.00  0.00     0.031 A 
ATOM     63  C   UNL A   1      45.982  33.684  30.396  1.00  0.00     0.131 A 
ATOM     64  C   UNL A   1      45.683  35.826  28.666  1.00  0.00     0.055 A 
ATOM     65  C   UNL A   1      46.618  34.894  30.679  1.00  0.00     0.041 A 
ATOM     66  F   UNL A   1      46.185  32.660  31.241  1.00  0.00    -0.206 F 
ATOM     67  C   UNL A   1      46.484  35.968  29.803  1.00  0.00     0.022 A 
BRANCH  64  68
ATOM     68  S   UNL A   1      45.611  37.151  27.431  1.00  0.00     0.124 S 
ATOM     69  O   UNL A   1      46.056  38.309  28.201  1.00  0.00    -0.237 OA
ATOM     70  O   UNL A   1      46.534  36.675  26.407  1.00  0.00    -0.237 OA
ATOM     71  O   UNL A   1      44.204  37.175  27.035  1.00  0.00    -0.744 OA
ENDBRANCH  64  68
ENDBRANCH  38  61
ENDBRANCH  12  13
ENDBRANCH   5   7
ENDBRANCH   2   3
ENDBRANCH   1   2
BRANCH   1  72
ATOM     72  C   UNL A   1      33.579  23.318  25.298  1.00  0.00     0.023 C 
BRANCH  72  73
ATOM     73  C   UNL A   1      33.081  24.759  25.243  1.00  0.00     0.116 C 
BRANCH  73  74
ATOM     74  N   UNL A   1      31.634  24.861  25.326  1.00  0.00    -0.352 N 
ATOM     75  C   UNL A   1      30.848  25.936  25.645  1.00  0.00     0.253 C 
ATOM     76  H   UNL A   1      31.143  24.032  25.120  1.00  0.00     0.163 HD
ATOM     77  O   UNL A   1      29.634  25.803  25.760  1.00  0.00    -0.269 OA
BRANCH  75  78
ATOM     78  C   UNL A   1      31.444  27.270  25.859  1.00  0.00     0.063 A 
ATOM     79  C   UNL A   1      31.565  27.676  27.196  1.00  0.00     0.016 A 
ATOM     80  C   UNL A   1      31.822  28.122  24.802  1.00  0.00     0.054 A 
ATOM     81  C   UNL A   1      32.071  28.936  27.499  1.00  0.00     0.001 A 
ATOM     82  C   UNL A   1      32.266  29.407  25.132  1.00  0.00     0.027 A 
ATOM     83  C   UNL A   1      32.410  29.804  26.467  1.00  0.00     0.002 A 
BRANCH  80  84
ATOM     84  N   UNL A   1      31.706  27.672  23.466  1.00  0.00    -0.321 N 
ATOM     85  C   UNL A   1      30.677  27.706  22.553  1.00  0.00     0.255 C 
ATOM     86  H   UNL A   1      32.525  27.252  23.120  1.00  0.00     0.170 HD
ATOM     87  O   UNL A   1      30.787  27.107  21.484  1.00  0.00    -0.269 OA
BRANCH  85  88
ATOM     88  C   UNL A   1      29.454  28.496  22.773  1.00  0.00     0.043 A 
ATOM     89  C   UNL A   1      28.267  27.906  23.204  1.00  0.00     0.034 A 
ATOM     90  C   UNL A   1      29.521  29.873  22.570  1.00  0.00     0.034 A 
ATOM     91  C   UNL A   1      27.160  28.723  23.331  1.00  0.00     0.112 A 
ATOM     92  C   UNL A   1      28.361  30.601  22.734  1.00  0.00     0.112 A 
ATOM     93  N   UNL A   1      27.177  30.054  23.091  1.00  0.00    -0.265 NA
ENDBRANCH  85  88
ENDBRANCH  80  84
ENDBRANCH  75  78
ENDBRANCH  73  74
ENDBRANCH  72  73
ENDBRANCH   1  72
TORSDOF 16
ENDMDL
MODEL 2
REMARK VINA RESULT:     -12.3      5.212     10.002
REMARK SMILES O=C(NCCCCNC(=O)c1ccccc1NC(=O)c1ccncc1)c1ccc(-c2c3nc(c(-c4cc(S(=O)(=O)[O-])ccc4F)c4ccc([nH]4)c(-c4cc(S(=O)(=O)[O-])ccc4F)c4nc(c(-c5cc(S(=O)(=O)[O-])ccc5F)c5ccc2[nH]5)C=C4)C=C3)cc1
REMARK SMILES IDX 5 1 4 2 3 3 1 4 2 5 26 7 27 8 88 9 28 10 87 11 29 12 30 13
REMARK SMILES IDX 31 14 81 15 32 16 86 17 80 18 82 19 33 20 85 21 79 22 78 23
REMARK SMILES IDX 34 25 66 26 46 27 65 28 47 29 50 30 64 31 83 32 48 33 49 34
REMARK SMILES IDX 63 36 84 37 51 38 35 39 36 40 44 41 37 42 43 43 45 44 42 45
REMARK SMILES IDX 38 46 39 47 40 48 41 49 67 50 68 51 76 52 69 53 75 54 77 55
REMARK SMILES IDX 74 56 70 57 71 58 72 59 73 60 52 61 53 62 61 63 54 64 60 65
REMARK SMILES IDX 62 66 59 67 55 68 56 69 57 70 58 71 6 72 7 73 8 74 9 75
REMARK SMILES IDX 10 77 11 78 12 79 16 80 13 81 15 82 14 83 17 84 18 85 19 87
REMARK SMILES IDX 20 88 21 89 25 90 22 91 24 92 23 93
REMARK H PARENT 3 6 82 24 50 35 8 76 17 86
REMARK Flexibility Score: inf
ROOT
ATOM      1  C   UNL A   1      32.080  28.093  27.102  1.00  0.00     0.023 C 
ENDROOT
BRANCH   1   2
ATOM      2  C   UNL A   1      32.782  29.033  26.131  1.00  0.00     0.116 C 
BRANCH   2   3
ATOM      3  N   UNL A   1      32.459  30.436  26.349  1.00  0.00    -0.352 N 
ATOM      4  O   UNL A   1      32.657  32.495  27.253  1.00  0.00    -0.269 OA
ATOM      5  C   UNL A   1      33.144  31.381  27.080  1.00  0.00     0.251 C 
ATOM      6  H   UNL A   1      31.634  30.754  25.913  1.00  0.00     0.163 HD
BRANCH   5   7
ATOM      7  C   UNL A   1      34.453  31.037  27.680  1.00  0.00     0.039 A 
ATOM      8  C   UNL A   1      34.694  29.748  28.156  1.00  0.00     0.014 A 
ATOM      9  C   UNL A   1      35.439  32.021  27.796  1.00  0.00     0.014 A 
ATOM     10  C   UNL A   1      35.837  29.495  28.905  1.00  0.00     0.010 A 
ATOM     11  C   UNL A   1      36.637  31.733  28.460  1.00  0.00     0.010 A 
ATOM     12  C   UNL A   1      36.830  30.477  29.057  1.00  0.00    -0.014 A 
BRANCH  12  13
ATOM     13  C   UNL A   1      38.068  30.128  29.805  1.00  0.00     0.031 A 
ATOM     14  C   UNL A   1      38.290  30.587  31.222  1.00  0.00     0.074 A 
ATOM     15  C   UNL A   1      38.964  29.315  29.209  1.00  0.00     0.049 A 
ATOM     16  N   UNL A   1      39.276  30.302  32.035  1.00  0.00    -0.248 NA
ATOM     17  C   UNL A   1      37.281  31.488  31.799  1.00  0.00     0.031 C 
ATOM     18  C   UNL A   1      38.862  28.825  27.830  1.00  0.00     0.029 A 
ATOM     19  N   UNL A   1      40.108  28.728  29.683  1.00  0.00    -0.354 N 
ATOM     20  C   UNL A   1      39.017  30.992  33.215  1.00  0.00     0.074 A 
ATOM     21  C   UNL A   1      37.796  31.741  32.996  1.00  0.00     0.031 C 
ATOM     22  C   UNL A   1      39.858  27.960  27.595  1.00  0.00     0.029 A 
ATOM     23  C   UNL A   1      40.711  27.888  28.775  1.00  0.00     0.049 A 
ATOM     24  H   UNL A   1      40.464  28.890  30.586  1.00  0.00     0.167 HD
ATOM     25  C   UNL A   1      39.724  30.991  34.372  1.00  0.00     0.034 A 
ATOM     26  C   UNL A   1      41.833  27.150  28.870  1.00  0.00     0.034 A 
ATOM     27  C   UNL A   1      40.942  30.239  34.572  1.00  0.00     0.049 A 
ATOM     28  C   UNL A   1      42.597  27.169  30.164  1.00  0.00     0.074 A 
ATOM     29  C   UNL A   1      41.740  30.169  35.702  1.00  0.00     0.029 A 
ATOM     30  N   UNL A   1      41.542  29.424  33.618  1.00  0.00    -0.354 N 
ATOM     31  N   UNL A   1      42.332  27.830  31.268  1.00  0.00    -0.248 NA
ATOM     32  C   UNL A   1      43.806  26.341  30.228  1.00  0.00     0.031 C 
ATOM     33  C   UNL A   1      42.846  29.359  35.415  1.00  0.00     0.029 A 
ATOM     34  C   UNL A   1      42.706  28.865  34.129  1.00  0.00     0.049 A 
ATOM     35  H   UNL A   1      41.191  29.265  32.713  1.00  0.00     0.167 HD
ATOM     36  C   UNL A   1      43.345  27.493  32.159  1.00  0.00     0.074 A 
ATOM     37  C   UNL A   1      44.196  26.539  31.478  1.00  0.00     0.031 C 
ATOM     38  C   UNL A   1      43.561  27.940  33.423  1.00  0.00     0.034 A 
BRANCH  25  39
ATOM     39  C   UNL A   1      39.218  31.860  35.500  1.00  0.00     0.023 A 
ATOM     40  C   UNL A   1      38.548  31.316  36.611  1.00  0.00     0.031 A 
ATOM     41  C   UNL A   1      39.403  33.254  35.464  1.00  0.00     0.131 A 
ATOM     42  C   UNL A   1      38.041  32.163  37.610  1.00  0.00     0.055 A 
ATOM     43  C   UNL A   1      38.958  34.084  36.495  1.00  0.00     0.041 A 
ATOM     44  F   UNL A   1      40.017  33.834  34.422  1.00  0.00    -0.206 F 
ATOM     45  C   UNL A   1      38.262  33.542  37.570  1.00  0.00     0.022 A 
BRANCH  42  46
ATOM     46  S   UNL A   1      36.986  31.450  38.902  1.00  0.00     0.124 S 
ATOM     47  O   UNL A   1      36.786  30.091  38.404  1.00  0.00    -0.237 OA
ATOM     48  O   UNL A   1      37.815  31.578  40.094  1.00  0.00    -0.237 OA
ATOM     49  O   UNL A   1      35.794  32.295  38.877  1.00  0.00    -0.744 OA
ENDBRANCH  42  46
ENDBRANCH  25  39
BRANCH  26  50
ATOM     50  C   UNL A   1      42.315  26.365  27.698  1.00  0.00     0.023 A 
ATOM     51  C   UNL A   1      41.928  25.031  27.501  1.00  0.00     0.031 A 
ATOM     52  C   UNL A   1      43.201  26.941  26.768  1.00  0.00     0.131 A 
ATOM     53  C   UNL A   1      42.456  24.304  26.423  1.00  0.00     0.055 A 
ATOM     54  C   UNL A   1      43.678  26.232  25.666  1.00  0.00     0.041 A 
ATOM     55  F   UNL A   1      43.600  28.215  26.908  1.00  0.00    -0.206 F 
ATOM     56  C   UNL A   1      43.316  24.899  25.496  1.00  0.00     0.022 A 
BRANCH  53  57
ATOM     57  S   UNL A   1      42.076  22.535  26.300  1.00  0.00     0.124 S 
ATOM     58  O   UNL A   1      40.620  22.534  26.375  1.00  0.00    -0.237 OA
ATOM     59  O   UNL A   1      42.653  22.194  25.003  1.00  0.00    -0.237 OA
ATOM     60  O   UNL A   1      42.761  21.958  27.455  1.00  0.00    -0.744 OA
ENDBRANCH  53  57
ENDBRANCH  26  50
BRANCH  38  61
ATOM     61  C   UNL A   1      44.766  27.379  34.135  1.00  0.00     0.023 A 
ATOM     62  C   UNL A   1      44.662  26.254  34.974  1.00  0.00     0.031 A 
ATOM     63  C   UNL A   1      46.019  28.004  34.018  1.00  0.00     0.131 A 
ATOM     64  C   UNL A   1      45.771  25.835  35.723  1.00  0.00     0.055 A 
ATOM     65  C   UNL A   1      47.136  27.544  34.718  1.00  0.00     0.041 A 
ATOM     66  F   UNL A   1      46.174  29.082  33.233  1.00  0.00    -0.206 F 
ATOM     67  C   UNL A   1      47.011  26.465  35.589  1.00  0.00     0.022 A 
BRANCH  64  68
ATOM     68  S   UNL A   1      45.541  24.528  36.959  1.00  0.00     0.124 S 
ATOM     69  O   UNL A   1      44.348  24.984  37.665  1.00  0.00    -0.237 OA
ATOM     70  O   UNL A   1      45.376  23.340  36.129  1.00  0.00    -0.237 OA
ATOM     71  O   UNL A   1      46.778  24.573  37.738  1.00  0.00    -0.744 OA
ENDBRANCH  64  68
ENDBRANCH  38  61
ENDBRANCH  12  13
ENDBRANCH   5   7
ENDBRANCH   2   3
ENDBRANCH   1   2
BRANCH   1  72
ATOM     72  C   UNL A   1      31.767  26.699  26.564  1.00  0.00     0.023 C 
BRANCH  72  73
ATOM     73  C   UNL A   1      30.294  26.417  26.287  1.00  0.00     0.116 C 
BRANCH  73  74
ATOM     74  N   UNL A   1      30.093  25.441  25.229  1.00  0.00    -0.352 N 
ATOM     75  C   UNL A   1      30.276  25.565  23.877  1.00  0.00     0.253 C 
ATOM     76  H   UNL A   1      29.780  24.557  25.529  1.00  0.00     0.163 HD
ATOM     77  O   UNL A   1      29.957  24.651  23.123  1.00  0.00    -0.269 OA
BRANCH  75  78
ATOM     78  C   UNL A   1      30.855  26.796  23.303  1.00  0.00     0.063 A 
ATOM     79  C   UNL A   1      32.249  26.797  23.143  1.00  0.00     0.016 A 
ATOM     80  C   UNL A   1      30.084  27.931  22.983  1.00  0.00     0.054 A 
ATOM     81  C   UNL A   1      32.894  27.929  22.654  1.00  0.00     0.001 A 
ATOM     82  C   UNL A   1      30.764  29.077  22.556  1.00  0.00     0.027 A 
ATOM     83  C   UNL A   1      32.152  29.071  22.372  1.00  0.00     0.002 A 
BRANCH  80  84
ATOM     84  N   UNL A   1      28.679  27.888  23.138  1.00  0.00    -0.321 N 
ATOM     85  C   UNL A   1      27.704  28.859  23.117  1.00  0.00     0.255 C 
ATOM     86  H   UNL A   1      28.328  26.982  23.291  1.00  0.00     0.170 HD
ATOM     87  O   UNL A   1      26.549  28.574  23.426  1.00  0.00    -0.269 OA
BRANCH  85  88
ATOM     88  C   UNL A   1      27.974  30.236  22.667  1.00  0.00     0.043 A 
ATOM     89  C   UNL A   1      28.212  31.270  23.572  1.00  0.00     0.034 A 
ATOM     90  C   UNL A   1      28.018  30.478  21.296  1.00  0.00     0.034 A 
ATOM     91  C   UNL A   1      28.403  32.537  23.055  1.00  0.00     0.112 A 
ATOM     92  C   UNL A   1      28.227  31.778  20.883  1.00  0.00     0.112 A 
ATOM     93  N   UNL A   1      28.400  32.816  21.732  1.00  0.00    -0.265 NA
ENDBRANCH  85  88
ENDBRANCH  80  84
ENDBRANCH  75  78
ENDBRANCH  73  74
ENDBRANCH  72  73
ENDBRANCH   1  72
TORSDOF 16
ENDMDL
MODEL 3
REMARK VINA RESULT:     -12.2      5.279     10.596
REMARK SMILES O=C(NCCCCNC(=O)c1ccccc1NC(=O)c1ccncc1)c1ccc(-c2c3nc(c(-c4cc(S(=O)(=O)[O-])ccc4F)c4ccc([nH]4)c(-c4cc(S(=O)(=O)[O-])ccc4F)c4nc(c(-c5cc(S(=O)(=O)[O-])ccc5F)c5ccc2[nH]5)C=C4)C=C3)cc1
REMARK SMILES IDX 5 1 4 2 3 3 1 4 2 5 26 7 27 8 88 9 28 10 87 11 29 12 30 13
REMARK SMILES IDX 31 14 81 15 32 16 86 17 80 18 82 19 33 20 85 21 79 22 78 23
REMARK SMILES IDX 34 25 66 26 46 27 65 28 47 29 50 30 64 31 83 32 48 33 49 34
REMARK SMILES IDX 63 36 84 37 51 38 35 39 36 40 44 41 37 42 43 43 45 44 42 45
REMARK SMILES IDX 38 46 39 47 40 48 41 49 67 50 68 51 76 52 69 53 75 54 77 55
REMARK SMILES IDX 74 56 70 57 71 58 72 59 73 60 52 61 53 62 61 63 54 64 60 65
REMARK SMILES IDX 62 66 59 67 55 68 56 69 57 70 58 71 6 72 7 73 8 74 9 75
REMARK SMILES IDX 10 77 11 78 12 79 16 80 13 81 15 82 14 83 17 84 18 85 19 87
REMARK SMILES IDX 20 88 21 89 25 90 22 91 24 92 23 93
REMARK H PARENT 3 6 82 24 50 35 8 76 17 86
REMARK Flexibility Score: inf
ROOT
ATOM      1  C   UNL A   1      32.546  27.750  25.553  1.00  0.00     0.023 C 
ENDROOT
BRANCH   1   2
ATOM      2  C   UNL A   1      33.330  29.020  25.251  1.00  0.00     0.116 C 
BRANCH   2   3
ATOM      3  N   UNL A   1      32.732  30.218  25.822  1.00  0.00    -0.352 N 
ATOM      4  O   UNL A   1      32.475  31.909  27.295  1.00  0.00    -0.269 OA
ATOM      5  C   UNL A   1      33.176  30.996  26.868  1.00  0.00     0.251 C 
ATOM      6  H   UNL A   1      31.891  30.513  25.402  1.00  0.00     0.163 HD
BRANCH   5   7
ATOM      7  C   UNL A   1      34.486  30.705  27.493  1.00  0.00     0.039 A 
ATOM      8  C   UNL A   1      34.773  29.426  27.970  1.00  0.00     0.014 A 
ATOM      9  C   UNL A   1      35.427  31.730  27.633  1.00  0.00     0.014 A 
ATOM     10  C   UNL A   1      35.909  29.218  28.741  1.00  0.00     0.010 A 
ATOM     11  C   UNL A   1      36.622  31.490  28.321  1.00  0.00     0.010 A 
ATOM     12  C   UNL A   1      36.856  30.241  28.918  1.00  0.00    -0.014 A 
BRANCH  12  13
ATOM     13  C   UNL A   1      38.093  29.941  29.690  1.00  0.00     0.031 A 
ATOM     14  C   UNL A   1      38.285  30.442  31.096  1.00  0.00     0.074 A 
ATOM     15  C   UNL A   1      39.015  29.136  29.126  1.00  0.00     0.049 A 
ATOM     16  N   UNL A   1      39.268  30.203  31.928  1.00  0.00    -0.248 NA
ATOM     17  C   UNL A   1      37.248  31.334  31.637  1.00  0.00     0.031 C 
ATOM     18  C   UNL A   1      38.943  28.608  27.760  1.00  0.00     0.029 A 
ATOM     19  N   UNL A   1      40.167  28.589  29.629  1.00  0.00    -0.354 N 
ATOM     20  C   UNL A   1      38.976  30.917  33.087  1.00  0.00     0.074 A 
ATOM     21  C   UNL A   1      37.741  31.630  32.833  1.00  0.00     0.031 C 
ATOM     22  C   UNL A   1      39.963  27.762  27.559  1.00  0.00     0.029 A 
ATOM     23  C   UNL A   1      40.802  27.741  28.751  1.00  0.00     0.049 A 
ATOM     24  H   UNL A   1      40.507  28.783  30.532  1.00  0.00     0.167 HD
ATOM     25  C   UNL A   1      39.669  30.963  34.252  1.00  0.00     0.034 A 
ATOM     26  C   UNL A   1      41.940  27.033  28.879  1.00  0.00     0.034 A 
ATOM     27  C   UNL A   1      40.902  30.247  34.487  1.00  0.00     0.049 A 
ATOM     28  C   UNL A   1      42.687  27.104  30.182  1.00  0.00     0.074 A 
ATOM     29  C   UNL A   1      41.686  30.225  35.628  1.00  0.00     0.029 A 
ATOM     30  N   UNL A   1      41.533  29.422  33.562  1.00  0.00    -0.354 N 
ATOM     31  N   UNL A   1      42.392  27.787  31.265  1.00  0.00    -0.248 NA
ATOM     32  C   UNL A   1      43.914  26.308  30.283  1.00  0.00     0.031 C 
ATOM     33  C   UNL A   1      42.815  29.435  35.376  1.00  0.00     0.029 A 
ATOM     34  C   UNL A   1      42.703  28.905  34.101  1.00  0.00     0.049 A 
ATOM     35  H   UNL A   1      41.198  29.231  32.657  1.00  0.00     0.167 HD
ATOM     36  C   UNL A   1      43.401  27.498  32.177  1.00  0.00     0.074 A 
ATOM     37  C   UNL A   1      44.283  26.548  31.531  1.00  0.00     0.031 C 
ATOM     38  C   UNL A   1      43.589  27.983  33.431  1.00  0.00     0.034 A 
BRANCH  25  39
ATOM     39  C   UNL A   1      39.128  31.849  35.351  1.00  0.00     0.023 A 
ATOM     40  C   UNL A   1      38.531  31.314  36.507  1.00  0.00     0.031 A 
ATOM     41  C   UNL A   1      39.203  33.249  35.240  1.00  0.00     0.131 A 
ATOM     42  C   UNL A   1      37.987  32.170  37.478  1.00  0.00     0.055 A 
ATOM     43  C   UNL A   1      38.723  34.096  36.242  1.00  0.00     0.041 A 
ATOM     44  F   UNL A   1      39.743  33.819  34.152  1.00  0.00    -0.206 F 
ATOM     45  C   UNL A   1      38.100  33.558  37.363  1.00  0.00     0.022 A 
BRANCH  42  46
ATOM     46  S   UNL A   1      37.025  31.447  38.835  1.00  0.00     0.124 S 
ATOM     47  O   UNL A   1      36.825  30.080  38.360  1.00  0.00    -0.237 OA
ATOM     48  O   UNL A   1      37.920  31.603  39.975  1.00  0.00    -0.237 OA
ATOM     49  O   UNL A   1      35.815  32.268  38.874  1.00  0.00    -0.744 OA
ENDBRANCH  42  46
ENDBRANCH  25  39
BRANCH  26  50
ATOM     50  C   UNL A   1      42.456  26.230  27.735  1.00  0.00     0.023 A 
ATOM     51  C   UNL A   1      42.009  24.922  27.498  1.00  0.00     0.031 A 
ATOM     52  C   UNL A   1      43.433  26.761  26.872  1.00  0.00     0.131 A 
ATOM     53  C   UNL A   1      42.567  24.173  26.450  1.00  0.00     0.055 A 
ATOM     54  C   UNL A   1      43.944  26.033  25.797  1.00  0.00     0.041 A 
ATOM     55  F   UNL A   1      43.893  28.009  27.052  1.00  0.00    -0.206 F 
ATOM     56  C   UNL A   1      43.520  24.724  25.590  1.00  0.00     0.022 A 
BRANCH  53  57
ATOM     57  S   UNL A   1      42.098  22.428  26.283  1.00  0.00     0.124 S 
ATOM     58  O   UNL A   1      42.678  21.845  27.487  1.00  0.00    -0.237 OA
ATOM     59  O   UNL A   1      40.642  22.511  26.247  1.00  0.00    -0.237 OA
ATOM     60  O   UNL A   1      42.728  22.026  25.028  1.00  0.00    -0.744 OA
ENDBRANCH  53  57
ENDBRANCH  26  50
BRANCH  38  61
ATOM     61  C   UNL A   1      44.799  27.470  34.172  1.00  0.00     0.023 A 
ATOM     62  C   UNL A   1      44.741  26.290  34.937  1.00  0.00     0.031 A 
ATOM     63  C   UNL A   1      46.002  28.194  34.160  1.00  0.00     0.131 A 
ATOM     64  C   UNL A   1      45.842  25.909  35.718  1.00  0.00     0.055 A 
ATOM     65  C   UNL A   1      47.116  27.775  34.891  1.00  0.00     0.041 A 
ATOM     66  F   UNL A   1      46.112  29.327  33.449  1.00  0.00    -0.206 F 
ATOM     67  C   UNL A   1      47.034  26.637  35.688  1.00  0.00     0.022 A 
BRANCH  64  68
ATOM     68  S   UNL A   1      45.655  24.513  36.860  1.00  0.00     0.124 S 
ATOM     69  O   UNL A   1      45.409  25.190  38.129  1.00  0.00    -0.237 OA
ATOM     70  O   UNL A   1      44.520  23.794  36.291  1.00  0.00    -0.237 OA
ATOM     71  O   UNL A   1      46.939  23.819  36.766  1.00  0.00    -0.744 OA
ENDBRANCH  64  68
ENDBRANCH  38  61
ENDBRANCH  12  13
ENDBRANCH   5   7
ENDBRANCH   2   3
ENDBRANCH   1   2
BRANCH   1  72
ATOM     72  C   UNL A   1      32.298  26.827  24.362  1.00  0.00     0.023 C 
BRANCH  72  73
ATOM     73  C   UNL A   1      33.419  25.840  24.049  1.00  0.00     0.116 C 
BRANCH  73  74
ATOM     74  N   UNL A   1      33.023  24.818  23.096  1.00  0.00    -0.352 N 
ATOM     75  C   UNL A   1      33.561  23.580  22.864  1.00  0.00     0.253 C 
ATOM     76  H   UNL A   1      32.250  25.049  22.531  1.00  0.00     0.163 HD
ATOM     77  O   UNL A   1      33.148  22.888  21.939  1.00  0.00    -0.269 OA
BRANCH  75  78
ATOM     78  C   UNL A   1      34.647  23.057  23.717  1.00  0.00     0.063 A 
ATOM     79  C   UNL A   1      35.948  23.228  23.221  1.00  0.00     0.016 A 
ATOM     80  C   UNL A   1      34.413  22.376  24.929  1.00  0.00     0.054 A 
ATOM     81  C   UNL A   1      37.036  22.728  23.930  1.00  0.00     0.001 A 
ATOM     82  C   UNL A   1      35.518  21.825  25.587  1.00  0.00     0.027 A 
ATOM     83  C   UNL A   1      36.818  22.017  25.106  1.00  0.00     0.002 A 
BRANCH  80  84
ATOM     84  N   UNL A   1      33.089  22.239  25.409  1.00  0.00    -0.321 N 
ATOM     85  C   UNL A   1      32.127  21.271  25.239  1.00  0.00     0.255 C 
ATOM     86  H   UNL A   1      32.799  22.986  25.980  1.00  0.00     0.170 HD
ATOM     87  O   UNL A   1      30.986  21.462  25.656  1.00  0.00    -0.269 OA
BRANCH  85  88
ATOM     88  C   UNL A   1      32.424  19.963  24.630  1.00  0.00     0.043 A 
ATOM     89  C   UNL A   1      32.270  19.739  23.262  1.00  0.00     0.034 A 
ATOM     90  C   UNL A   1      32.902  18.950  25.458  1.00  0.00     0.034 A 
ATOM     91  C   UNL A   1      32.524  18.464  22.793  1.00  0.00     0.112 A 
ATOM     92  C   UNL A   1      33.136  17.715  24.888  1.00  0.00     0.112 A 
ATOM     93  N   UNL A   1      32.938  17.445  23.578  1.00  0.00    -0.265 NA
ENDBRANCH  85  88
ENDBRANCH  80  84
ENDBRANCH  75  78
ENDBRANCH  73  74
ENDBRANCH  72  73
ENDBRANCH   1  72
TORSDOF 16
ENDMDL
