MODEL 1
REMARK VINA RESULT:     -11.2      0.000      0.000
REMARK SMILES O=C(/C=C/c1ccc(O)c(O)c1)NCCCCNC(=O)c1ccc(-c2c3nc(c(-c4cc(S(=O)(=O)[O-])ccc4F)c4ccc([nH]4)c(-c4cc(S(=O)(=O)[O-])ccc4F)c4nc(c(-c5cc(S(=O)(=O)[O-])ccc5F)c5ccc2[nH]5)C=C4)C=C3)cc1
REMARK SMILES IDX 16 1 15 2 14 3 13 4 1 5 2 6 3 8 4 9 5 10 6 11 12 12 7 13
REMARK SMILES IDX 10 14 8 15 11 16 9 18 17 20 18 21 19 22 20 24 21 25 22 26
REMARK SMILES IDX 83 27 23 28 82 29 24 30 25 31 26 32 76 33 27 34 81 35 75 36
REMARK SMILES IDX 77 37 28 38 80 39 74 40 73 41 29 43 61 44 41 45 60 46 42 47
REMARK SMILES IDX 45 48 59 49 78 50 43 51 44 52 58 54 79 55 46 56 30 57 31 58
REMARK SMILES IDX 39 59 32 60 38 61 40 62 37 63 33 64 34 65 35 66 36 67 62 68
REMARK SMILES IDX 63 69 71 70 64 71 70 72 72 73 69 74 65 75 66 76 67 77 68 78
REMARK SMILES IDX 47 79 48 80 56 81 49 82 55 83 57 84 54 85 50 86 51 87 52 88
REMARK SMILES IDX 53 89
REMARK H PARENT 13 7 11 17 9 19 18 23 77 42 45 53
REMARK Flexibility Score: inf
ROOT
ATOM      1  C   UNL A   1      35.899  23.458  24.823  1.00  0.00     0.023 C 
ENDROOT
BRANCH   1   2
ATOM      2  C   UNL A   1      34.748  24.468  24.820  1.00  0.00     0.023 C 
BRANCH   2   3
ATOM      3  C   UNL A   1      33.381  23.894  24.445  1.00  0.00     0.116 C 
BRANCH   3   4
ATOM      4  N   UNL A   1      33.331  22.452  24.590  1.00  0.00    -0.353 N 
ATOM      5  O   UNL A   1      32.531  22.024  22.482  1.00  0.00    -0.270 OA
ATOM      6  C   UNL A   1      32.887  21.631  23.588  1.00  0.00     0.243 C 
ATOM      7  H   UNL A   1      33.627  22.049  25.437  1.00  0.00     0.163 HD
BRANCH   6   8
ATOM      8  C   UNL A   1      32.870  20.171  23.871  1.00  0.00     0.072 C 
ATOM      9  C   UNL A   1      33.659  19.497  24.723  1.00  0.00     0.014 C 
BRANCH   9  10
ATOM     10  C   UNL A   1      33.510  18.055  24.972  1.00  0.00    -0.022 A 
ATOM     11  C   UNL A   1      32.266  17.471  25.273  1.00  0.00     0.012 A 
ATOM     12  C   UNL A   1      34.638  17.233  24.868  1.00  0.00     0.058 A 
ATOM     13  C   UNL A   1      32.154  16.094  25.497  1.00  0.00     0.051 A 
ATOM     14  C   UNL A   1      34.519  15.868  25.094  1.00  0.00     0.157 A 
ATOM     15  C   UNL A   1      33.289  15.299  25.409  1.00  0.00     0.157 A 
BRANCH  14  16
ATOM     16  O   UNL A   1      35.632  15.082  25.004  1.00  0.00    -0.504 OA
ATOM     17  H   UNL A   1      35.817  14.453  25.673  1.00  0.00     0.293 HD
ENDBRANCH  14  16
BRANCH  15  18
ATOM     18  O   UNL A   1      33.247  13.949  25.622  1.00  0.00    -0.504 OA
ATOM     19  H   UNL A   1      32.443  13.481  25.504  1.00  0.00     0.293 HD
ENDBRANCH  15  18
ENDBRANCH   9  10
ENDBRANCH   6   8
ENDBRANCH   3   4
ENDBRANCH   2   3
ENDBRANCH   1   2
BRANCH   1  20
ATOM     20  C   UNL A   1      36.606  23.268  26.162  1.00  0.00     0.116 C 
BRANCH  20  21
ATOM     21  N   UNL A   1      37.635  22.241  26.120  1.00  0.00    -0.352 N 
ATOM     22  C   UNL A   1      38.993  22.355  26.307  1.00  0.00     0.251 C 
ATOM     23  H   UNL A   1      37.311  21.330  25.930  1.00  0.00     0.163 HD
ATOM     24  O   UNL A   1      39.715  21.387  26.080  1.00  0.00    -0.269 OA
BRANCH  22  25
ATOM     25  C   UNL A   1      39.587  23.640  26.741  1.00  0.00     0.039 A 
ATOM     26  C   UNL A   1      39.866  24.614  25.777  1.00  0.00     0.014 A 
ATOM     27  C   UNL A   1      39.871  23.894  28.086  1.00  0.00     0.014 A 
ATOM     28  C   UNL A   1      40.356  25.864  26.169  1.00  0.00     0.010 A 
ATOM     29  C   UNL A   1      40.287  25.166  28.482  1.00  0.00     0.010 A 
ATOM     30  C   UNL A   1      40.530  26.167  27.530  1.00  0.00    -0.014 A 
BRANCH  30  31
ATOM     31  C   UNL A   1      40.954  27.525  27.970  1.00  0.00     0.031 A 
ATOM     32  C   UNL A   1      42.413  27.899  27.988  1.00  0.00     0.074 A 
ATOM     33  C   UNL A   1      40.031  28.406  28.408  1.00  0.00     0.049 A 
ATOM     34  N   UNL A   1      42.982  28.999  28.410  1.00  0.00    -0.248 NA
ATOM     35  C   UNL A   1      43.358  26.887  27.492  1.00  0.00     0.031 C 
ATOM     36  C   UNL A   1      38.590  28.155  28.473  1.00  0.00     0.029 A 
ATOM     37  N   UNL A   1      40.164  29.685  28.891  1.00  0.00    -0.354 N 
ATOM     38  C   UNL A   1      44.350  28.812  28.237  1.00  0.00     0.074 A 
ATOM     39  C   UNL A   1      44.524  27.465  27.735  1.00  0.00     0.031 C 
ATOM     40  C   UNL A   1      37.972  29.250  28.942  1.00  0.00     0.029 A 
ATOM     41  C   UNL A   1      38.972  30.264  29.264  1.00  0.00     0.049 A 
ATOM     42  H   UNL A   1      41.032  30.145  28.964  1.00  0.00     0.167 HD
ATOM     43  C   UNL A   1      45.363  29.689  28.453  1.00  0.00     0.034 A 
ATOM     44  C   UNL A   1      38.712  31.465  29.820  1.00  0.00     0.034 A 
ATOM     45  C   UNL A   1      45.172  31.031  28.952  1.00  0.00     0.049 A 
ATOM     46  C   UNL A   1      39.859  32.406  30.095  1.00  0.00     0.074 A 
ATOM     47  C   UNL A   1      46.124  32.013  29.165  1.00  0.00     0.029 A 
ATOM     48  N   UNL A   1      43.952  31.577  29.328  1.00  0.00    -0.354 N 
ATOM     49  N   UNL A   1      41.142  32.229  29.882  1.00  0.00    -0.248 NA
ATOM     50  C   UNL A   1      39.520  33.712  30.674  1.00  0.00     0.031 C 
ATOM     51  C   UNL A   1      45.493  33.120  29.742  1.00  0.00     0.029 A 
ATOM     52  C   UNL A   1      44.132  32.867  29.805  1.00  0.00     0.049 A 
ATOM     53  H   UNL A   1      43.084  31.115  29.266  1.00  0.00     0.167 HD
ATOM     54  C   UNL A   1      41.758  33.416  30.272  1.00  0.00     0.074 A 
ATOM     55  C   UNL A   1      40.704  34.304  30.716  1.00  0.00     0.031 C 
ATOM     56  C   UNL A   1      43.076  33.743  30.257  1.00  0.00     0.034 A 
BRANCH  43  57
ATOM     57  C   UNL A   1      46.769  29.210  28.173  1.00  0.00     0.023 A 
ATOM     58  C   UNL A   1      47.214  28.948  26.864  1.00  0.00     0.031 A 
ATOM     59  C   UNL A   1      47.672  28.989  29.228  1.00  0.00     0.131 A 
ATOM     60  C   UNL A   1      48.491  28.407  26.652  1.00  0.00     0.055 A 
ATOM     61  C   UNL A   1      48.973  28.535  29.001  1.00  0.00     0.041 A 
ATOM     62  F   UNL A   1      47.302  29.199  30.501  1.00  0.00    -0.206 F 
ATOM     63  C   UNL A   1      49.384  28.224  27.709  1.00  0.00     0.022 A 
BRANCH  60  64
ATOM     64  S   UNL A   1      48.906  27.798  24.994  1.00  0.00     0.124 S 
ATOM     65  O   UNL A   1      49.063  26.366  25.237  1.00  0.00    -0.237 OA
ATOM     66  O   UNL A   1      47.739  28.190  24.213  1.00  0.00    -0.237 OA
ATOM     67  O   UNL A   1      50.143  28.506  24.669  1.00  0.00    -0.744 OA
ENDBRANCH  60  64
ENDBRANCH  43  57
BRANCH  44  68
ATOM     68  C   UNL A   1      37.313  31.846  30.177  1.00  0.00     0.023 A 
ATOM     69  C   UNL A   1      36.415  32.309  29.202  1.00  0.00     0.031 A 
ATOM     70  C   UNL A   1      36.868  31.796  31.511  1.00  0.00     0.131 A 
ATOM     71  C   UNL A   1      35.137  32.752  29.581  1.00  0.00     0.055 A 
ATOM     72  C   UNL A   1      35.576  32.179  31.874  1.00  0.00     0.041 A 
ATOM     73  F   UNL A   1      37.685  31.360  32.484  1.00  0.00    -0.206 F 
ATOM     74  C   UNL A   1      34.707  32.675  30.908  1.00  0.00     0.022 A 
BRANCH  71  75
ATOM     75  S   UNL A   1      34.077  33.522  28.327  1.00  0.00     0.124 S 
ATOM     76  O   UNL A   1      33.463  32.356  27.702  1.00  0.00    -0.237 OA
ATOM     77  O   UNL A   1      33.198  34.352  29.143  1.00  0.00    -0.237 OA
ATOM     78  O   UNL A   1      35.021  34.257  27.488  1.00  0.00    -0.744 OA
ENDBRANCH  71  75
ENDBRANCH  44  68
BRANCH  56  79
ATOM     79  C   UNL A   1      43.444  35.143  30.691  1.00  0.00     0.023 A 
ATOM     80  C   UNL A   1      43.562  35.496  32.047  1.00  0.00     0.031 A 
ATOM     81  C   UNL A   1      43.671  36.143  29.728  1.00  0.00     0.131 A 
ATOM     82  C   UNL A   1      43.840  36.825  32.403  1.00  0.00     0.055 A 
ATOM     83  C   UNL A   1      44.014  37.447  30.086  1.00  0.00     0.041 A 
ATOM     84  F   UNL A   1      43.569  35.867  28.418  1.00  0.00    -0.206 F 
ATOM     85  C   UNL A   1      44.086  37.799  31.430  1.00  0.00     0.022 A 
BRANCH  82  86
ATOM     86  S   UNL A   1      43.776  37.291  34.155  1.00  0.00     0.124 S 
ATOM     87  O   UNL A   1      45.096  37.878  34.360  1.00  0.00    -0.237 OA
ATOM     88  O   UNL A   1      42.653  38.221  34.190  1.00  0.00    -0.237 OA
ATOM     89  O   UNL A   1      43.550  36.020  34.840  1.00  0.00    -0.744 OA
ENDBRANCH  82  86
ENDBRANCH  56  79
ENDBRANCH  30  31
ENDBRANCH  22  25
ENDBRANCH  20  21
ENDBRANCH   1  20
TORSDOF 17
ENDMDL
MODEL 2
REMARK VINA RESULT:     -11.1      4.533      9.381
REMARK SMILES O=C(/C=C/c1ccc(O)c(O)c1)NCCCCNC(=O)c1ccc(-c2c3nc(c(-c4cc(S(=O)(=O)[O-])ccc4F)c4ccc([nH]4)c(-c4cc(S(=O)(=O)[O-])ccc4F)c4nc(c(-c5cc(S(=O)(=O)[O-])ccc5F)c5ccc2[nH]5)C=C4)C=C3)cc1
REMARK SMILES IDX 16 1 15 2 14 3 13 4 1 5 2 6 3 8 4 9 5 10 6 11 12 12 7 13
REMARK SMILES IDX 10 14 8 15 11 16 9 18 17 20 18 21 19 22 20 24 21 25 22 26
REMARK SMILES IDX 83 27 23 28 82 29 24 30 25 31 26 32 76 33 27 34 81 35 75 36
REMARK SMILES IDX 77 37 28 38 80 39 74 40 73 41 29 43 61 44 41 45 60 46 42 47
REMARK SMILES IDX 45 48 59 49 78 50 43 51 44 52 58 54 79 55 46 56 30 57 31 58
REMARK SMILES IDX 39 59 32 60 38 61 40 62 37 63 33 64 34 65 35 66 36 67 62 68
REMARK SMILES IDX 63 69 71 70 64 71 70 72 72 73 69 74 65 75 66 76 67 77 68 78
REMARK SMILES IDX 47 79 48 80 56 81 49 82 55 83 57 84 54 85 50 86 51 87 52 88
REMARK SMILES IDX 53 89
REMARK H PARENT 13 7 11 17 9 19 18 23 77 42 45 53
REMARK Flexibility Score: inf
ROOT
ATOM      1  C   UNL A   1      33.744  28.451  24.432  1.00  0.00     0.023 C 
ENDROOT
BRANCH   1   2
ATOM      2  C   UNL A   1      33.742  26.991  23.966  1.00  0.00     0.023 C 
BRANCH   2   3
ATOM      3  C   UNL A   1      32.681  26.103  24.617  1.00  0.00     0.116 C 
BRANCH   3   4
ATOM      4  N   UNL A   1      32.929  24.693  24.391  1.00  0.00    -0.353 N 
ATOM      5  O   UNL A   1      33.742  24.250  26.490  1.00  0.00    -0.270 OA
ATOM      6  C   UNL A   1      33.462  23.880  25.355  1.00  0.00     0.243 C 
ATOM      7  H   UNL A   1      32.705  24.306  23.514  1.00  0.00     0.163 HD
BRANCH   6   8
ATOM      8  C   UNL A   1      33.682  22.455  24.989  1.00  0.00     0.072 C 
ATOM      9  C   UNL A   1      32.752  21.550  24.645  1.00  0.00     0.014 C 
BRANCH   9  10
ATOM     10  C   UNL A   1      33.092  20.178  24.237  1.00  0.00    -0.022 A 
ATOM     11  C   UNL A   1      34.183  19.481  24.786  1.00  0.00     0.012 A 
ATOM     12  C   UNL A   1      32.277  19.532  23.298  1.00  0.00     0.058 A 
ATOM     13  C   UNL A   1      34.476  18.173  24.383  1.00  0.00     0.051 A 
ATOM     14  C   UNL A   1      32.576  18.236  22.903  1.00  0.00     0.157 A 
ATOM     15  C   UNL A   1      33.668  17.558  23.437  1.00  0.00     0.157 A 
BRANCH  14  16
ATOM     16  O   UNL A   1      31.780  17.626  21.975  1.00  0.00    -0.504 OA
ATOM     17  H   UNL A   1      31.094  17.052  22.252  1.00  0.00     0.293 HD
ENDBRANCH  14  16
BRANCH  15  18
ATOM     18  O   UNL A   1      33.904  16.284  22.999  1.00  0.00    -0.504 OA
ATOM     19  H   UNL A   1      33.276  15.608  23.163  1.00  0.00     0.293 HD
ENDBRANCH  15  18
ENDBRANCH   9  10
ENDBRANCH   6   8
ENDBRANCH   3   4
ENDBRANCH   2   3
ENDBRANCH   1   2
BRANCH   1  20
ATOM     20  C   UNL A   1      34.076  28.672  25.904  1.00  0.00     0.116 C 
BRANCH  20  21
ATOM     21  N   UNL A   1      33.665  29.980  26.389  1.00  0.00    -0.352 N 
ATOM     22  C   UNL A   1      34.230  30.769  27.364  1.00  0.00     0.251 C 
ATOM     23  H   UNL A   1      32.865  30.356  25.954  1.00  0.00     0.163 HD
ATOM     24  O   UNL A   1      33.641  31.782  27.735  1.00  0.00    -0.269 OA
BRANCH  22  25
ATOM     25  C   UNL A   1      35.516  30.385  27.991  1.00  0.00     0.039 A 
ATOM     26  C   UNL A   1      35.493  29.655  29.183  1.00  0.00     0.014 A 
ATOM     27  C   UNL A   1      36.740  30.736  27.415  1.00  0.00     0.014 A 
ATOM     28  C   UNL A   1      36.692  29.216  29.755  1.00  0.00     0.010 A 
ATOM     29  C   UNL A   1      37.929  30.232  27.944  1.00  0.00     0.010 A 
ATOM     30  C   UNL A   1      37.919  29.462  29.117  1.00  0.00    -0.014 A 
BRANCH  30  31
ATOM     31  C   UNL A   1      39.194  28.914  29.659  1.00  0.00     0.031 A 
ATOM     32  C   UNL A   1      39.869  29.574  30.832  1.00  0.00     0.074 A 
ATOM     33  C   UNL A   1      39.777  27.856  29.058  1.00  0.00     0.049 A 
ATOM     34  N   UNL A   1      41.017  29.293  31.394  1.00  0.00    -0.248 NA
ATOM     35  C   UNL A   1      39.170  30.719  31.434  1.00  0.00     0.031 C 
ATOM     36  C   UNL A   1      39.243  27.148  27.892  1.00  0.00     0.029 A 
ATOM     37  N   UNL A   1      40.948  27.195  29.336  1.00  0.00    -0.354 N 
ATOM     38  C   UNL A   1      41.183  30.228  32.410  1.00  0.00     0.074 A 
ATOM     39  C   UNL A   1      40.048  31.124  32.340  1.00  0.00     0.031 C 
ATOM     40  C   UNL A   1      40.069  26.140  27.572  1.00  0.00     0.029 A 
ATOM     41  C   UNL A   1      41.220  26.159  28.470  1.00  0.00     0.049 A 
ATOM     42  H   UNL A   1      41.539  27.440  30.084  1.00  0.00     0.167 HD
ATOM     43  C   UNL A   1      42.176  30.317  33.331  1.00  0.00     0.034 A 
ATOM     44  C   UNL A   1      42.280  25.330  28.394  1.00  0.00     0.034 A 
ATOM     45  C   UNL A   1      43.302  29.414  33.389  1.00  0.00     0.049 A 
ATOM     46  C   UNL A   1      43.396  25.476  29.400  1.00  0.00     0.074 A 
ATOM     47  C   UNL A   1      44.338  29.389  34.307  1.00  0.00     0.029 A 
ATOM     48  N   UNL A   1      43.547  28.384  32.490  1.00  0.00    -0.354 N 
ATOM     49  N   UNL A   1      43.513  26.339  30.382  1.00  0.00    -0.248 NA
ATOM     50  C   UNL A   1      44.514  24.531  29.291  1.00  0.00     0.031 C 
ATOM     51  C   UNL A   1      45.247  28.399  33.917  1.00  0.00     0.029 A 
ATOM     52  C   UNL A   1      44.735  27.743  32.810  1.00  0.00     0.049 A 
ATOM     53  H   UNL A   1      42.962  28.144  31.735  1.00  0.00     0.167 HD
ATOM     54  C   UNL A   1      44.705  26.016  31.029  1.00  0.00     0.074 A 
ATOM     55  C   UNL A   1      45.257  24.872  30.334  1.00  0.00     0.031 C 
ATOM     56  C   UNL A   1      45.285  26.609  32.103  1.00  0.00     0.034 A 
BRANCH  43  57
ATOM     57  C   UNL A   1      42.098  31.448  34.332  1.00  0.00     0.023 A 
ATOM     58  C   UNL A   1      41.174  31.433  35.392  1.00  0.00     0.031 A 
ATOM     59  C   UNL A   1      42.942  32.566  34.213  1.00  0.00     0.131 A 
ATOM     60  C   UNL A   1      41.060  32.546  36.239  1.00  0.00     0.055 A 
ATOM     61  C   UNL A   1      42.884  33.632  35.115  1.00  0.00     0.041 A 
ATOM     62  F   UNL A   1      43.830  32.651  33.211  1.00  0.00    -0.206 F 
ATOM     63  C   UNL A   1      41.928  33.634  36.125  1.00  0.00     0.022 A 
BRANCH  60  64
ATOM     64  S   UNL A   1      39.658  32.617  37.388  1.00  0.00     0.124 S 
ATOM     65  O   UNL A   1      40.333  32.539  38.682  1.00  0.00    -0.237 OA
ATOM     66  O   UNL A   1      39.048  33.899  37.061  1.00  0.00    -0.237 OA
ATOM     67  O   UNL A   1      38.867  31.439  37.036  1.00  0.00    -0.744 OA
ENDBRANCH  60  64
ENDBRANCH  43  57
BRANCH  44  68
ATOM     68  C   UNL A   1      42.358  24.298  27.317  1.00  0.00     0.023 A 
ATOM     69  C   UNL A   1      41.607  23.115  27.390  1.00  0.00     0.031 A 
ATOM     70  C   UNL A   1      43.223  24.463  26.219  1.00  0.00     0.131 A 
ATOM     71  C   UNL A   1      41.772  22.119  26.413  1.00  0.00     0.055 A 
ATOM     72  C   UNL A   1      43.338  23.497  25.219  1.00  0.00     0.041 A 
ATOM     73  F   UNL A   1      43.964  25.576  26.099  1.00  0.00    -0.206 F 
ATOM     74  C   UNL A   1      42.621  22.310  25.320  1.00  0.00     0.022 A 
BRANCH  71  75
ATOM     75  S   UNL A   1      40.933  20.528  26.643  1.00  0.00     0.124 S 
ATOM     76  O   UNL A   1      41.823  19.618  25.929  1.00  0.00    -0.237 OA
ATOM     77  O   UNL A   1      40.917  20.402  28.096  1.00  0.00    -0.237 OA
ATOM     78  O   UNL A   1      39.627  20.739  26.023  1.00  0.00    -0.744 OA
ENDBRANCH  71  75
ENDBRANCH  44  68
BRANCH  56  79
ATOM     79  C   UNL A   1      46.564  25.994  32.624  1.00  0.00     0.023 A 
ATOM     80  C   UNL A   1      46.559  24.958  33.574  1.00  0.00     0.031 A 
ATOM     81  C   UNL A   1      47.809  26.462  32.167  1.00  0.00     0.131 A 
ATOM     82  C   UNL A   1      47.772  24.464  34.079  1.00  0.00     0.055 A 
ATOM     83  C   UNL A   1      49.012  25.921  32.621  1.00  0.00     0.041 A 
ATOM     84  F   UNL A   1      47.877  27.453  31.263  1.00  0.00    -0.206 F 
ATOM     85  C   UNL A   1      48.999  24.926  33.594  1.00  0.00     0.022 A 
BRANCH  82  86
ATOM     86  S   UNL A   1      47.729  23.280  35.452  1.00  0.00     0.124 S 
ATOM     87  O   UNL A   1      46.500  22.542  35.178  1.00  0.00    -0.237 OA
ATOM     88  O   UNL A   1      48.972  22.540  35.266  1.00  0.00    -0.237 OA
ATOM     89  O   UNL A   1      47.687  24.132  36.639  1.00  0.00    -0.744 OA
ENDBRANCH  82  86
ENDBRANCH  56  79
ENDBRANCH  30  31
ENDBRANCH  22  25
ENDBRANCH  20  21
ENDBRANCH   1  20
TORSDOF 17
ENDMDL
MODEL 3
REMARK VINA RESULT:     -11.1      3.100      9.155
REMARK SMILES O=C(/C=C/c1ccc(O)c(O)c1)NCCCCNC(=O)c1ccc(-c2c3nc(c(-c4cc(S(=O)(=O)[O-])ccc4F)c4ccc([nH]4)c(-c4cc(S(=O)(=O)[O-])ccc4F)c4nc(c(-c5cc(S(=O)(=O)[O-])ccc5F)c5ccc2[nH]5)C=C4)C=C3)cc1
REMARK SMILES IDX 16 1 15 2 14 3 13 4 1 5 2 6 3 8 4 9 5 10 6 11 12 12 7 13
REMARK SMILES IDX 10 14 8 15 11 16 9 18 17 20 18 21 19 22 20 24 21 25 22 26
REMARK SMILES IDX 83 27 23 28 82 29 24 30 25 31 26 32 76 33 27 34 81 35 75 36
REMARK SMILES IDX 77 37 28 38 80 39 74 40 73 41 29 43 61 44 41 45 60 46 42 47
REMARK SMILES IDX 45 48 59 49 78 50 43 51 44 52 58 54 79 55 46 56 30 57 31 58
REMARK SMILES IDX 39 59 32 60 38 61 40 62 37 63 33 64 34 65 35 66 36 67 62 68
REMARK SMILES IDX 63 69 71 70 64 71 70 72 72 73 69 74 65 75 66 76 67 77 68 78
REMARK SMILES IDX 47 79 48 80 56 81 49 82 55 83 57 84 54 85 50 86 51 87 52 88
REMARK SMILES IDX 53 89
REMARK H PARENT 13 7 11 17 9 19 18 23 77 42 45 53
REMARK Flexibility Score: inf
ROOT
ATOM      1  C   UNL A   1      35.801  21.476  25.703  1.00  0.00     0.023 C 
ENDROOT
BRANCH   1   2
ATOM      2  C   UNL A   1      34.686  20.914  24.816  1.00  0.00     0.023 C 
BRANCH   2   3
ATOM      3  C   UNL A   1      33.274  21.373  25.181  1.00  0.00     0.116 C 
BRANCH   3   4
ATOM      4  N   UNL A   1      33.214  22.792  25.474  1.00  0.00    -0.353 N 
ATOM      5  O   UNL A   1      32.980  23.479  23.297  1.00  0.00    -0.270 OA
ATOM      6  C   UNL A   1      33.089  23.737  24.492  1.00  0.00     0.243 C 
ATOM      7  H   UNL A   1      33.265  23.086  26.412  1.00  0.00     0.163 HD
BRANCH   6   8
ATOM      8  C   UNL A   1      33.057  25.159  24.925  1.00  0.00     0.072 C 
ATOM      9  C   UNL A   1      32.644  25.641  26.108  1.00  0.00     0.014 C 
BRANCH   9  10
ATOM     10  C   UNL A   1      32.718  27.069  26.453  1.00  0.00    -0.022 A 
ATOM     11  C   UNL A   1      31.601  27.788  26.917  1.00  0.00     0.012 A 
ATOM     12  C   UNL A   1      33.952  27.724  26.352  1.00  0.00     0.058 A 
ATOM     13  C   UNL A   1      31.705  29.144  27.246  1.00  0.00     0.051 A 
ATOM     14  C   UNL A   1      34.046  29.070  26.678  1.00  0.00     0.157 A 
ATOM     15  C   UNL A   1      32.934  29.779  27.120  1.00  0.00     0.157 A 
BRANCH  14  16
ATOM     16  O   UNL A   1      35.254  29.698  26.560  1.00  0.00    -0.504 OA
ATOM     17  H   UNL A   1      35.297  30.633  26.560  1.00  0.00     0.293 HD
ENDBRANCH  14  16
BRANCH  15  18
ATOM     18  O   UNL A   1      33.099  31.104  27.420  1.00  0.00    -0.504 OA
ATOM     19  H   UNL A   1      32.472  31.543  27.959  1.00  0.00     0.293 HD
ENDBRANCH  15  18
ENDBRANCH   9  10
ENDBRANCH   6   8
ENDBRANCH   3   4
ENDBRANCH   2   3
ENDBRANCH   1   2
BRANCH   1  20
ATOM     20  C   UNL A   1      37.172  21.595  25.042  1.00  0.00     0.116 C 
BRANCH  20  21
ATOM     21  N   UNL A   1      38.083  20.531  25.431  1.00  0.00    -0.352 N 
ATOM     22  C   UNL A   1      39.327  20.613  26.014  1.00  0.00     0.251 C 
ATOM     23  H   UNL A   1      37.763  19.617  25.251  1.00  0.00     0.163 HD
ATOM     24  O   UNL A   1      40.007  19.597  26.127  1.00  0.00    -0.269 OA
BRANCH  22  25
ATOM     25  C   UNL A   1      39.859  21.919  26.467  1.00  0.00     0.039 A 
ATOM     26  C   UNL A   1      41.018  21.940  27.250  1.00  0.00     0.014 A 
ATOM     27  C   UNL A   1      39.230  23.120  26.128  1.00  0.00     0.014 A 
ATOM     28  C   UNL A   1      41.583  23.162  27.627  1.00  0.00     0.010 A 
ATOM     29  C   UNL A   1      39.837  24.337  26.440  1.00  0.00     0.010 A 
ATOM     30  C   UNL A   1      41.023  24.373  27.188  1.00  0.00    -0.014 A 
BRANCH  30  31
ATOM     31  C   UNL A   1      41.670  25.679  27.496  1.00  0.00     0.031 A 
ATOM     32  C   UNL A   1      40.928  26.731  28.279  1.00  0.00     0.074 A 
ATOM     33  C   UNL A   1      42.905  25.942  27.023  1.00  0.00     0.049 A 
ATOM     34  N   UNL A   1      41.292  27.952  28.578  1.00  0.00    -0.248 NA
ATOM     35  C   UNL A   1      39.589  26.367  28.764  1.00  0.00     0.031 C 
ATOM     36  C   UNL A   1      43.716  25.022  26.223  1.00  0.00     0.029 A 
ATOM     37  N   UNL A   1      43.693  27.062  27.135  1.00  0.00    -0.354 N 
ATOM     38  C   UNL A   1      40.226  28.506  29.279  1.00  0.00     0.074 A 
ATOM     39  C   UNL A   1      39.178  27.507  29.300  1.00  0.00     0.031 C 
ATOM     40  C   UNL A   1      44.892  25.603  25.938  1.00  0.00     0.029 A 
ATOM     41  C   UNL A   1      44.903  26.956  26.486  1.00  0.00     0.049 A 
ATOM     42  H   UNL A   1      43.418  27.866  27.632  1.00  0.00     0.167 HD
ATOM     43  C   UNL A   1      40.138  29.724  29.872  1.00  0.00     0.034 A 
ATOM     44  C   UNL A   1      45.901  27.850  26.331  1.00  0.00     0.034 A 
ATOM     45  C   UNL A   1      41.193  30.709  29.844  1.00  0.00     0.049 A 
ATOM     46  C   UNL A   1      45.762  29.215  26.959  1.00  0.00     0.074 A 
ATOM     47  C   UNL A   1      41.224  31.954  30.448  1.00  0.00     0.029 A 
ATOM     48  N   UNL A   1      42.399  30.569  29.169  1.00  0.00    -0.354 N 
ATOM     49  N   UNL A   1      44.765  29.705  27.658  1.00  0.00    -0.248 NA
ATOM     50  C   UNL A   1      46.888  30.142  26.786  1.00  0.00     0.031 C 
ATOM     51  C   UNL A   1      42.409  32.596  30.074  1.00  0.00     0.029 A 
ATOM     52  C   UNL A   1      43.163  31.719  29.312  1.00  0.00     0.049 A 
ATOM     53  H   UNL A   1      42.672  29.771  28.662  1.00  0.00     0.167 HD
ATOM     54  C   UNL A   1      45.160  30.987  28.036  1.00  0.00     0.074 A 
ATOM     55  C   UNL A   1      46.491  31.184  27.500  1.00  0.00     0.031 C 
ATOM     56  C   UNL A   1      44.485  31.913  28.764  1.00  0.00     0.034 A 
BRANCH  43  57
ATOM     57  C   UNL A   1      38.844  30.063  30.577  1.00  0.00     0.023 A 
ATOM     58  C   UNL A   1      37.852  30.847  29.961  1.00  0.00     0.031 A 
ATOM     59  C   UNL A   1      38.606  29.617  31.889  1.00  0.00     0.131 A 
ATOM     60  C   UNL A   1      36.710  31.226  30.682  1.00  0.00     0.055 A 
ATOM     61  C   UNL A   1      37.426  29.924  32.569  1.00  0.00     0.041 A 
ATOM     62  F   UNL A   1      39.523  28.884  32.539  1.00  0.00    -0.206 F 
ATOM     63  C   UNL A   1      36.477  30.748  31.973  1.00  0.00     0.022 A 
BRANCH  60  64
ATOM     64  S   UNL A   1      35.614  32.482  29.966  1.00  0.00     0.124 S 
ATOM     65  O   UNL A   1      34.415  32.331  30.788  1.00  0.00    -0.237 OA
ATOM     66  O   UNL A   1      36.373  33.711  30.161  1.00  0.00    -0.237 OA
ATOM     67  O   UNL A   1      35.464  32.053  28.576  1.00  0.00    -0.744 OA
ENDBRANCH  60  64
ENDBRANCH  43  57
BRANCH  44  68
ATOM     68  C   UNL A   1      47.113  27.500  25.532  1.00  0.00     0.023 A 
ATOM     69  C   UNL A   1      47.222  27.867  24.181  1.00  0.00     0.031 A 
ATOM     70  C   UNL A   1      48.162  26.753  26.098  1.00  0.00     0.131 A 
ATOM     71  C   UNL A   1      48.329  27.443  23.428  1.00  0.00     0.055 A 
ATOM     72  C   UNL A   1      49.289  26.386  25.362  1.00  0.00     0.041 A 
ATOM     73  F   UNL A   1      48.110  26.377  27.386  1.00  0.00    -0.206 F 
ATOM     74  C   UNL A   1      49.370  26.718  24.014  1.00  0.00     0.022 A 
BRANCH  71  75
ATOM     75  S   UNL A   1      48.343  27.768  21.644  1.00  0.00     0.124 S 
ATOM     76  O   UNL A   1      46.987  28.260  21.423  1.00  0.00    -0.237 OA
ATOM     77  O   UNL A   1      49.411  28.755  21.525  1.00  0.00    -0.237 OA
ATOM     78  O   UNL A   1      48.636  26.461  21.061  1.00  0.00    -0.744 OA
ENDBRANCH  71  75
ENDBRANCH  44  68
BRANCH  56  79
ATOM     79  C   UNL A   1      45.202  33.209  29.066  1.00  0.00     0.023 A 
ATOM     80  C   UNL A   1      45.096  34.332  28.226  1.00  0.00     0.031 A 
ATOM     81  C   UNL A   1      46.012  33.317  30.211  1.00  0.00     0.131 A 
ATOM     82  C   UNL A   1      45.833  35.491  28.511  1.00  0.00     0.055 A 
ATOM     83  C   UNL A   1      46.689  34.496  30.526  1.00  0.00     0.041 A 
ATOM     84  F   UNL A   1      46.155  32.277  31.048  1.00  0.00    -0.206 F 
ATOM     85  C   UNL A   1      46.614  35.587  29.667  1.00  0.00     0.022 A 
BRANCH  82  86
ATOM     86  S   UNL A   1      45.840  36.841  27.300  1.00  0.00     0.124 S 
ATOM     87  O   UNL A   1      46.650  37.850  27.974  1.00  0.00    -0.237 OA
ATOM     88  O   UNL A   1      46.449  36.211  26.133  1.00  0.00    -0.237 OA
ATOM     89  O   UNL A   1      44.426  37.179  27.153  1.00  0.00    -0.744 OA
ENDBRANCH  82  86
ENDBRANCH  56  79
ENDBRANCH  30  31
ENDBRANCH  22  25
ENDBRANCH  20  21
ENDBRANCH   1  20
TORSDOF 17
ENDMDL
