MODEL 1
REMARK VINA RESULT:     -11.3      0.000      0.000
REMARK SMILES C[NH+]1CCC(C[N@H+](C)[C@H]2CC[C@]([NH3+])(C(=O)NCCCCNC(=O)c3ccc(-c4c5nc(c(-c6cc(S(=O)(=O)[O-])ccc6F)c6ccc([nH]6)c(-c6cc(S(=O)(=O)[O-])ccc6F)c6nc(c(-c7cc(S(=O)(=O)[O-])ccc7F)c7ccc4[nH]7)C=C6)C=C5)cc3)C2)CC1
REMARK SMILES IDX 18 1 17 2 16 3 14 4 15 5 12 7 9 8 10 9 87 10 11 11 7 12 8 13
REMARK SMILES IDX 6 15 5 16 1 17 2 18 3 19 89 20 4 22 88 23 13 24 19 28 20 29
REMARK SMILES IDX 21 30 22 31 23 33 24 34 25 35 86 36 26 37 85 38 27 39 28 40
REMARK SMILES IDX 29 41 79 42 30 43 84 44 78 45 80 46 31 47 83 48 77 49 76 50
REMARK SMILES IDX 32 52 64 53 44 54 63 55 45 56 48 57 62 58 81 59 46 60 47 61
REMARK SMILES IDX 61 63 82 64 49 65 33 66 34 67 42 68 35 69 41 70 43 71 40 72
REMARK SMILES IDX 36 73 37 74 38 75 39 76 65 77 66 78 74 79 67 80 73 81 75 82
REMARK SMILES IDX 72 83 68 84 69 85 70 86 71 87 50 88 51 89 59 90 52 91 58 92
REMARK SMILES IDX 60 93 57 94 53 95 54 96 55 97 56 98
REMARK H PARENT 16 6 7 14 2 21 13 25 13 26 13 27 21 32 80 51 48 62
REMARK Flexibility Score: inf
ROOT
ATOM      1  C   UNL A   1      32.895  29.520  27.090  1.00  0.00     0.023 C 
ENDROOT
BRANCH   1   2
ATOM      2  C   UNL A   1      31.823  28.448  26.865  1.00  0.00     0.116 C 
BRANCH   2   3
ATOM      3  N   UNL A   1      31.402  28.247  25.502  1.00  0.00    -0.351 N 
ATOM      4  C   UNL A   1      31.473  27.127  24.725  1.00  0.00     0.281 C 
ATOM      5  O   UNL A   1      30.636  27.054  23.814  1.00  0.00    -0.268 OA
ATOM      6  H   UNL A   1      31.005  29.035  25.066  1.00  0.00     0.163 HD
BRANCH   4   7
ATOM      7  C   UNL A   1      32.691  26.132  24.787  1.00  0.00     0.179 C 
ATOM      8  C   UNL A   1      32.464  23.625  24.501  1.00  0.00     0.190 C 
ATOM      9  C   UNL A   1      32.316  24.029  25.972  1.00  0.00     0.072 C 
ATOM     10  C   UNL A   1      32.467  24.979  23.751  1.00  0.00     0.144 C 
ATOM     11  C   UNL A   1      33.004  25.378  26.090  1.00  0.00     0.085 C 
BRANCH   8  12
ATOM     12  N   UNL A   1      33.572  22.636  24.348  1.00  0.00    -0.334 N 
ATOM     13  C   UNL A   1      33.022  21.374  23.827  1.00  0.00     0.332 C 
ATOM     14  H   UNL A   1      33.950  22.566  25.294  1.00  0.00     0.348 HD
BRANCH  12  15
ATOM     15  C   UNL A   1      34.746  23.012  23.536  1.00  0.00     0.266 C 
BRANCH  15  16
ATOM     16  C   UNL A   1      36.061  22.904  24.311  1.00  0.00     0.055 C 
ATOM     17  C   UNL A   1      39.592  22.509  26.532  1.00  0.00     0.332 C 
ATOM     18  N   UNL A   1      38.142  22.426  26.306  1.00  0.00    -0.337 N 
ATOM     19  C   UNL A   1      37.870  21.452  25.237  1.00  0.00     0.262 C 
ATOM     20  C   UNL A   1      37.614  23.776  26.054  1.00  0.00     0.262 C 
ATOM     21  H   UNL A   1      37.651  22.080  27.130  1.00  0.00     0.347 HD
ATOM     22  C   UNL A   1      36.428  21.478  24.717  1.00  0.00     0.071 C 
ATOM     23  C   UNL A   1      36.165  23.793  25.550  1.00  0.00     0.071 C 
ENDBRANCH  15  16
ENDBRANCH  12  15
ENDBRANCH   8  12
BRANCH   7  24
ATOM     24  N   UNL A   1      33.830  27.009  24.417  1.00  0.00    -0.345 N 
ATOM     25  H   UNL A   1      33.532  27.984  24.448  1.00  0.00     0.345 HD
ATOM     26  H   UNL A   1      34.143  26.778  23.474  1.00  0.00     0.345 HD
ATOM     27  H   UNL A   1      34.596  26.866  25.075  1.00  0.00     0.345 HD
ENDBRANCH   7  24
ENDBRANCH   4   7
ENDBRANCH   2   3
ENDBRANCH   1   2
BRANCH   1  28
ATOM     28  C   UNL A   1      32.437  30.978  26.987  1.00  0.00     0.023 C 
BRANCH  28  29
ATOM     29  C   UNL A   1      33.471  32.020  27.391  1.00  0.00     0.116 C 
BRANCH  29  30
ATOM     30  N   UNL A   1      32.905  33.329  27.683  1.00  0.00    -0.352 N 
ATOM     31  C   UNL A   1      33.340  34.252  28.608  1.00  0.00     0.251 C 
ATOM     32  H   UNL A   1      32.115  33.586  27.155  1.00  0.00     0.163 HD
ATOM     33  O   UNL A   1      32.755  35.309  28.753  1.00  0.00    -0.269 OA
BRANCH  31  34
ATOM     34  C   UNL A   1      34.484  33.885  29.470  1.00  0.00     0.039 A 
ATOM     35  C   UNL A   1      34.243  33.041  30.555  1.00  0.00     0.014 A 
ATOM     36  C   UNL A   1      35.783  34.288  29.154  1.00  0.00     0.014 A 
ATOM     37  C   UNL A   1      35.320  32.535  31.280  1.00  0.00     0.010 A 
ATOM     38  C   UNL A   1      36.857  33.726  29.832  1.00  0.00     0.010 A 
ATOM     39  C   UNL A   1      36.636  32.838  30.895  1.00  0.00    -0.014 A 
BRANCH  39  40
ATOM     40  C   UNL A   1      37.794  32.238  31.604  1.00  0.00     0.031 A 
ATOM     41  C   UNL A   1      38.569  31.128  30.953  1.00  0.00     0.074 A 
ATOM     42  C   UNL A   1      38.110  32.661  32.845  1.00  0.00     0.049 A 
ATOM     43  N   UNL A   1      39.561  30.422  31.430  1.00  0.00    -0.248 NA
ATOM     44  C   UNL A   1      38.155  30.745  29.595  1.00  0.00     0.031 C 
ATOM     45  C   UNL A   1      37.403  33.708  33.587  1.00  0.00     0.029 A 
ATOM     46  N   UNL A   1      39.102  32.261  33.704  1.00  0.00    -0.354 N 
ATOM     47  C   UNL A   1      39.891  29.513  30.430  1.00  0.00     0.074 A 
ATOM     48  C   UNL A   1      38.944  29.710  29.354  1.00  0.00     0.031 C 
ATOM     49  C   UNL A   1      37.996  33.879  34.780  1.00  0.00     0.029 A 
ATOM     50  C   UNL A   1      39.096  32.929  34.907  1.00  0.00     0.049 A 
ATOM     51  H   UNL A   1      39.756  31.560  33.480  1.00  0.00     0.167 HD
ATOM     52  C   UNL A   1      40.910  28.620  30.399  1.00  0.00     0.034 A 
ATOM     53  C   UNL A   1      39.884  32.782  35.991  1.00  0.00     0.034 A 
ATOM     54  C   UNL A   1      41.846  28.438  31.481  1.00  0.00     0.049 A 
ATOM     55  C   UNL A   1      40.989  31.754  35.947  1.00  0.00     0.074 A 
ATOM     56  C   UNL A   1      42.922  27.571  31.558  1.00  0.00     0.029 A 
ATOM     57  N   UNL A   1      41.817  29.141  32.680  1.00  0.00    -0.354 N 
ATOM     58  N   UNL A   1      41.308  30.925  34.978  1.00  0.00    -0.248 NA
ATOM     59  C   UNL A   1      41.849  31.652  37.133  1.00  0.00     0.031 C 
ATOM     60  C   UNL A   1      43.511  27.712  32.818  1.00  0.00     0.029 A 
ATOM     61  C   UNL A   1      42.847  28.716  33.504  1.00  0.00     0.049 A 
ATOM     62  H   UNL A   1      41.162  29.839  32.909  1.00  0.00     0.167 HD
ATOM     63  C   UNL A   1      42.428  30.232  35.428  1.00  0.00     0.074 A 
ATOM     64  C   UNL A   1      42.739  30.751  36.743  1.00  0.00     0.031 C 
ATOM     65  C   UNL A   1      43.141  29.254  34.812  1.00  0.00     0.034 A 
BRANCH  52  66
ATOM     66  C   UNL A   1      41.049  27.775  29.158  1.00  0.00     0.023 A 
ATOM     67  C   UNL A   1      42.057  28.029  28.210  1.00  0.00     0.031 A 
ATOM     68  C   UNL A   1      40.152  26.724  28.898  1.00  0.00     0.131 A 
ATOM     69  C   UNL A   1      42.100  27.295  27.018  1.00  0.00     0.055 A 
ATOM     70  C   UNL A   1      40.250  25.943  27.745  1.00  0.00     0.041 A 
ATOM     71  F   UNL A   1      39.157  26.448  29.755  1.00  0.00    -0.206 F 
ATOM     72  C   UNL A   1      41.220  26.235  26.790  1.00  0.00     0.022 A 
BRANCH  69  73
ATOM     73  S   UNL A   1      43.238  27.832  25.712  1.00  0.00     0.124 S 
ATOM     74  O   UNL A   1      42.385  27.751  24.528  1.00  0.00    -0.237 OA
ATOM     75  O   UNL A   1      43.605  29.175  26.144  1.00  0.00    -0.237 OA
ATOM     76  O   UNL A   1      44.313  26.842  25.766  1.00  0.00    -0.744 OA
ENDBRANCH  69  73
ENDBRANCH  52  66
BRANCH  53  77
ATOM     77  C   UNL A   1      39.664  33.605  37.216  1.00  0.00     0.023 A 
ATOM     78  C   UNL A   1      38.963  33.089  38.318  1.00  0.00     0.031 A 
ATOM     79  C   UNL A   1      40.086  34.946  37.277  1.00  0.00     0.131 A 
ATOM     80  C   UNL A   1      38.644  33.924  39.400  1.00  0.00     0.055 A 
ATOM     81  C   UNL A   1      39.820  35.755  38.382  1.00  0.00     0.041 A 
ATOM     82  F   UNL A   1      40.765  35.490  36.255  1.00  0.00    -0.206 F 
ATOM     83  C   UNL A   1      39.077  35.250  39.445  1.00  0.00     0.022 A 
BRANCH  80  84
ATOM     84  S   UNL A   1      37.544  33.283  40.693  1.00  0.00     0.124 S 
ATOM     85  O   UNL A   1      36.374  32.886  39.918  1.00  0.00    -0.237 OA
ATOM     86  O   UNL A   1      38.340  32.198  41.255  1.00  0.00    -0.237 OA
ATOM     87  O   UNL A   1      37.348  34.433  41.573  1.00  0.00    -0.744 OA
ENDBRANCH  80  84
ENDBRANCH  53  77
BRANCH  65  88
ATOM     88  C   UNL A   1      44.356  28.733  35.537  1.00  0.00     0.023 A 
ATOM     89  C   UNL A   1      44.259  27.732  36.518  1.00  0.00     0.031 A 
ATOM     90  C   UNL A   1      45.627  29.258  35.247  1.00  0.00     0.131 A 
ATOM     91  C   UNL A   1      45.406  27.328  37.217  1.00  0.00     0.055 A 
ATOM     92  C   UNL A   1      46.773  28.810  35.904  1.00  0.00     0.041 A 
ATOM     93  F   UNL A   1      45.775  30.216  34.318  1.00  0.00    -0.206 F 
ATOM     94  C   UNL A   1      46.665  27.848  36.905  1.00  0.00     0.022 A 
BRANCH  91  95
ATOM     95  S   UNL A   1      45.219  26.172  38.603  1.00  0.00     0.124 S 
ATOM     96  O   UNL A   1      43.901  26.527  39.119  1.00  0.00    -0.237 OA
ATOM     97  O   UNL A   1      45.316  24.875  37.942  1.00  0.00    -0.237 OA
ATOM     98  O   UNL A   1      46.340  26.505  39.481  1.00  0.00    -0.744 OA
ENDBRANCH  91  95
ENDBRANCH  65  88
ENDBRANCH  39  40
ENDBRANCH  31  34
ENDBRANCH  29  30
ENDBRANCH  28  29
ENDBRANCH   1  28
TORSDOF 18
ENDMDL
MODEL 2
REMARK VINA RESULT:     -11.1      1.882      2.430
REMARK SMILES C[NH+]1CCC(C[N@H+](C)[C@H]2CC[C@]([NH3+])(C(=O)NCCCCNC(=O)c3ccc(-c4c5nc(c(-c6cc(S(=O)(=O)[O-])ccc6F)c6ccc([nH]6)c(-c6cc(S(=O)(=O)[O-])ccc6F)c6nc(c(-c7cc(S(=O)(=O)[O-])ccc7F)c7ccc4[nH]7)C=C6)C=C5)cc3)C2)CC1
REMARK SMILES IDX 18 1 17 2 16 3 14 4 15 5 12 7 9 8 10 9 87 10 11 11 7 12 8 13
REMARK SMILES IDX 6 15 5 16 1 17 2 18 3 19 89 20 4 22 88 23 13 24 19 28 20 29
REMARK SMILES IDX 21 30 22 31 23 33 24 34 25 35 86 36 26 37 85 38 27 39 28 40
REMARK SMILES IDX 29 41 79 42 30 43 84 44 78 45 80 46 31 47 83 48 77 49 76 50
REMARK SMILES IDX 32 52 64 53 44 54 63 55 45 56 48 57 62 58 81 59 46 60 47 61
REMARK SMILES IDX 61 63 82 64 49 65 33 66 34 67 42 68 35 69 41 70 43 71 40 72
REMARK SMILES IDX 36 73 37 74 38 75 39 76 65 77 66 78 74 79 67 80 73 81 75 82
REMARK SMILES IDX 72 83 68 84 69 85 70 86 71 87 50 88 51 89 59 90 52 91 58 92
REMARK SMILES IDX 60 93 57 94 53 95 54 96 55 97 56 98
REMARK H PARENT 16 6 7 14 2 21 13 25 13 26 13 27 21 32 80 51 48 62
REMARK Flexibility Score: inf
ROOT
ATOM      1  C   UNL A   1      31.411  30.547  25.876  1.00  0.00     0.023 C 
ENDROOT
BRANCH   1   2
ATOM      2  C   UNL A   1      32.687  29.757  26.181  1.00  0.00     0.116 C 
BRANCH   2   3
ATOM      3  N   UNL A   1      33.562  29.508  25.064  1.00  0.00    -0.351 N 
ATOM      4  C   UNL A   1      33.544  28.491  24.154  1.00  0.00     0.281 C 
ATOM      5  O   UNL A   1      34.051  28.749  23.053  1.00  0.00    -0.268 OA
ATOM      6  H   UNL A   1      34.280  30.169  24.939  1.00  0.00     0.163 HD
BRANCH   4   7
ATOM      7  C   UNL A   1      33.170  27.013  24.547  1.00  0.00     0.179 C 
ATOM      8  C   UNL A   1      32.514  25.241  22.858  1.00  0.00     0.190 C 
ATOM      9  C   UNL A   1      31.286  26.016  23.353  1.00  0.00     0.072 C 
ATOM     10  C   UNL A   1      33.705  26.037  23.445  1.00  0.00     0.144 C 
ATOM     11  C   UNL A   1      31.695  26.604  24.692  1.00  0.00     0.085 C 
BRANCH   8  12
ATOM     12  N   UNL A   1      32.338  23.781  23.114  1.00  0.00    -0.334 N 
ATOM     13  C   UNL A   1      33.102  23.021  22.111  1.00  0.00     0.332 C 
ATOM     14  H   UNL A   1      31.327  23.657  23.049  1.00  0.00     0.348 HD
BRANCH  12  15
ATOM     15  C   UNL A   1      32.664  23.256  24.454  1.00  0.00     0.266 C 
BRANCH  15  16
ATOM     16  C   UNL A   1      33.220  21.830  24.411  1.00  0.00     0.055 C 
ATOM     17  C   UNL A   1      34.673  17.900  24.425  1.00  0.00     0.332 C 
ATOM     18  N   UNL A   1      34.102  19.114  25.027  1.00  0.00    -0.337 N 
ATOM     19  C   UNL A   1      32.778  19.373  24.442  1.00  0.00     0.262 C 
ATOM     20  C   UNL A   1      35.062  20.220  24.886  1.00  0.00     0.262 C 
ATOM     21  H   UNL A   1      33.948  19.001  26.029  1.00  0.00     0.347 HD
ATOM     22  C   UNL A   1      32.202  20.754  24.778  1.00  0.00     0.071 C 
ATOM     23  C   UNL A   1      34.483  21.595  25.241  1.00  0.00     0.071 C 
ENDBRANCH  15  16
ENDBRANCH  12  15
ENDBRANCH   8  12
BRANCH   7  24
ATOM     24  N   UNL A   1      33.878  26.845  25.841  1.00  0.00    -0.345 N 
ATOM     25  H   UNL A   1      34.883  26.804  25.675  1.00  0.00     0.345 HD
ATOM     26  H   UNL A   1      33.571  25.980  26.285  1.00  0.00     0.345 HD
ATOM     27  H   UNL A   1      33.665  27.635  26.449  1.00  0.00     0.345 HD
ENDBRANCH   7  24
ENDBRANCH   4   7
ENDBRANCH   2   3
ENDBRANCH   1   2
BRANCH   1  28
ATOM     28  C   UNL A   1      31.327  31.963  26.455  1.00  0.00     0.023 C 
BRANCH  28  29
ATOM     29  C   UNL A   1      32.648  32.563  26.917  1.00  0.00     0.116 C 
BRANCH  29  30
ATOM     30  N   UNL A   1      32.513  33.863  27.557  1.00  0.00    -0.352 N 
ATOM     31  C   UNL A   1      33.350  34.439  28.488  1.00  0.00     0.251 C 
ATOM     32  H   UNL A   1      31.729  34.396  27.292  1.00  0.00     0.163 HD
ATOM     33  O   UNL A   1      33.101  35.537  28.950  1.00  0.00    -0.269 OA
BRANCH  31  34
ATOM     34  C   UNL A   1      34.506  33.651  28.964  1.00  0.00     0.039 A 
ATOM     35  C   UNL A   1      35.785  34.152  28.724  1.00  0.00     0.014 A 
ATOM     36  C   UNL A   1      34.324  32.490  29.719  1.00  0.00     0.014 A 
ATOM     37  C   UNL A   1      36.886  33.529  29.309  1.00  0.00     0.010 A 
ATOM     38  C   UNL A   1      35.414  31.914  30.360  1.00  0.00     0.010 A 
ATOM     39  C   UNL A   1      36.703  32.433  30.168  1.00  0.00    -0.014 A 
BRANCH  39  40
ATOM     40  C   UNL A   1      37.856  31.812  30.867  1.00  0.00     0.031 A 
ATOM     41  C   UNL A   1      38.670  30.761  30.167  1.00  0.00     0.074 A 
ATOM     42  C   UNL A   1      38.133  32.163  32.139  1.00  0.00     0.049 A 
ATOM     43  N   UNL A   1      39.665  30.046  30.623  1.00  0.00    -0.248 NA
ATOM     44  C   UNL A   1      38.296  30.456  28.778  1.00  0.00     0.031 C 
ATOM     45  C   UNL A   1      37.386  33.147  32.928  1.00  0.00     0.029 A 
ATOM     46  N   UNL A   1      39.112  31.729  32.996  1.00  0.00    -0.354 N 
ATOM     47  C   UNL A   1      40.037  29.209  29.578  1.00  0.00     0.074 A 
ATOM     48  C   UNL A   1      39.113  29.454  28.492  1.00  0.00     0.031 C 
ATOM     49  C   UNL A   1      37.947  33.254  34.143  1.00  0.00     0.029 A 
ATOM     50  C   UNL A   1      39.064  32.319  34.238  1.00  0.00     0.049 A 
ATOM     51  H   UNL A   1      39.786  31.056  32.746  1.00  0.00     0.167 HD
ATOM     52  C   UNL A   1      41.076  28.340  29.517  1.00  0.00     0.034 A 
ATOM     53  C   UNL A   1      39.829  32.120  35.331  1.00  0.00     0.034 A 
ATOM     54  C   UNL A   1      41.990  28.109  30.608  1.00  0.00     0.049 A 
ATOM     55  C   UNL A   1      40.956  31.118  35.250  1.00  0.00     0.074 A 
ATOM     56  C   UNL A   1      43.082  27.260  30.657  1.00  0.00     0.029 A 
ATOM     57  N   UNL A   1      41.917  28.734  31.847  1.00  0.00    -0.354 N 
ATOM     58  N   UNL A   1      41.315  30.359  34.239  1.00  0.00    -0.248 NA
ATOM     59  C   UNL A   1      41.790  30.959  36.448  1.00  0.00     0.031 C 
ATOM     60  C   UNL A   1      43.637  27.333  31.938  1.00  0.00     0.029 A 
ATOM     61  C   UNL A   1      42.936  28.278  32.669  1.00  0.00     0.049 A 
ATOM     62  H   UNL A   1      41.242  29.403  32.104  1.00  0.00     0.167 HD
ATOM     63  C   UNL A   1      42.439  29.661  34.673  1.00  0.00     0.074 A 
ATOM     64  C   UNL A   1      42.707  30.102  36.025  1.00  0.00     0.031 C 
ATOM     65  C   UNL A   1      43.187  28.738  34.015  1.00  0.00     0.034 A 
BRANCH  52  66
ATOM     66  C   UNL A   1      41.262  27.578  28.229  1.00  0.00     0.023 A 
ATOM     67  C   UNL A   1      40.936  26.213  28.134  1.00  0.00     0.031 A 
ATOM     68  C   UNL A   1      41.795  28.208  27.091  1.00  0.00     0.131 A 
ATOM     69  C   UNL A   1      41.215  25.506  26.956  1.00  0.00     0.055 A 
ATOM     70  C   UNL A   1      41.994  27.516  25.894  1.00  0.00     0.041 A 
ATOM     71  F   UNL A   1      42.145  29.503  27.127  1.00  0.00    -0.206 F 
ATOM     72  C   UNL A   1      41.717  26.154  25.826  1.00  0.00     0.022 A 
BRANCH  69  73
ATOM     73  S   UNL A   1      41.034  23.701  26.968  1.00  0.00     0.124 S 
ATOM     74  O   UNL A   1      41.849  23.318  25.818  1.00  0.00    -0.237 OA
ATOM     75  O   UNL A   1      41.564  23.338  28.276  1.00  0.00    -0.237 OA
ATOM     76  O   UNL A   1      39.596  23.500  26.799  1.00  0.00    -0.744 OA
ENDBRANCH  69  73
ENDBRANCH  52  66
BRANCH  53  77
ATOM     77  C   UNL A   1      39.562  32.859  36.599  1.00  0.00     0.023 A 
ATOM     78  C   UNL A   1      38.670  32.352  37.558  1.00  0.00     0.031 A 
ATOM     79  C   UNL A   1      40.137  34.120  36.840  1.00  0.00     0.131 A 
ATOM     80  C   UNL A   1      38.326  33.129  38.675  1.00  0.00     0.055 A 
ATOM     81  C   UNL A   1      39.837  34.863  37.983  1.00  0.00     0.041 A 
ATOM     82  F   UNL A   1      41.000  34.652  35.960  1.00  0.00    -0.206 F 
ATOM     83  C   UNL A   1      38.912  34.375  38.900  1.00  0.00     0.022 A 
BRANCH  80  84
ATOM     84  S   UNL A   1      37.003  32.537  39.766  1.00  0.00     0.124 S 
ATOM     85  O   UNL A   1      37.077  33.490  40.867  1.00  0.00    -0.237 OA
ATOM     86  O   UNL A   1      35.830  32.644  38.904  1.00  0.00    -0.237 OA
ATOM     87  O   UNL A   1      37.415  31.174  40.091  1.00  0.00    -0.744 OA
ENDBRANCH  80  84
ENDBRANCH  53  77
BRANCH  65  88
ATOM     88  C   UNL A   1      44.395  28.197  34.736  1.00  0.00     0.023 A 
ATOM     89  C   UNL A   1      44.326  27.038  35.529  1.00  0.00     0.031 A 
ATOM     90  C   UNL A   1      45.630  28.860  34.636  1.00  0.00     0.131 A 
ATOM     91  C   UNL A   1      45.458  26.611  36.239  1.00  0.00     0.055 A 
ATOM     92  C   UNL A   1      46.768  28.396  35.296  1.00  0.00     0.041 A 
ATOM     93  F   UNL A   1      45.751  29.970  33.891  1.00  0.00    -0.206 F 
ATOM     94  C   UNL A   1      46.683  27.272  36.114  1.00  0.00     0.022 A 
BRANCH  91  95
ATOM     95  S   UNL A   1      45.287  25.225  37.397  1.00  0.00     0.124 S 
ATOM     96  O   UNL A   1      44.578  25.846  38.511  1.00  0.00    -0.237 OA
ATOM     97  O   UNL A   1      44.523  24.258  36.615  1.00  0.00    -0.237 OA
ATOM     98  O   UNL A   1      46.669  24.840  37.677  1.00  0.00    -0.744 OA
ENDBRANCH  91  95
ENDBRANCH  65  88
ENDBRANCH  39  40
ENDBRANCH  31  34
ENDBRANCH  29  30
ENDBRANCH  28  29
ENDBRANCH   1  28
TORSDOF 18
ENDMDL
MODEL 3
REMARK VINA RESULT:     -11.0      6.077     11.467
REMARK SMILES C[NH+]1CCC(C[N@H+](C)[C@H]2CC[C@]([NH3+])(C(=O)NCCCCNC(=O)c3ccc(-c4c5nc(c(-c6cc(S(=O)(=O)[O-])ccc6F)c6ccc([nH]6)c(-c6cc(S(=O)(=O)[O-])ccc6F)c6nc(c(-c7cc(S(=O)(=O)[O-])ccc7F)c7ccc4[nH]7)C=C6)C=C5)cc3)C2)CC1
REMARK SMILES IDX 18 1 17 2 16 3 14 4 15 5 12 7 9 8 10 9 87 10 11 11 7 12 8 13
REMARK SMILES IDX 6 15 5 16 1 17 2 18 3 19 89 20 4 22 88 23 13 24 19 28 20 29
REMARK SMILES IDX 21 30 22 31 23 33 24 34 25 35 86 36 26 37 85 38 27 39 28 40
REMARK SMILES IDX 29 41 79 42 30 43 84 44 78 45 80 46 31 47 83 48 77 49 76 50
REMARK SMILES IDX 32 52 64 53 44 54 63 55 45 56 48 57 62 58 81 59 46 60 47 61
REMARK SMILES IDX 61 63 82 64 49 65 33 66 34 67 42 68 35 69 41 70 43 71 40 72
REMARK SMILES IDX 36 73 37 74 38 75 39 76 65 77 66 78 74 79 67 80 73 81 75 82
REMARK SMILES IDX 72 83 68 84 69 85 70 86 71 87 50 88 51 89 59 90 52 91 58 92
REMARK SMILES IDX 60 93 57 94 53 95 54 96 55 97 56 98
REMARK H PARENT 16 6 7 14 2 21 13 25 13 26 13 27 21 32 80 51 48 62
REMARK Flexibility Score: inf
ROOT
ATOM      1  C   UNL A   1      37.391  21.030  24.620  1.00  0.00     0.023 C 
ENDROOT
BRANCH   1   2
ATOM      2  C   UNL A   1      36.392  21.432  25.710  1.00  0.00     0.116 C 
BRANCH   2   3
ATOM      3  N   UNL A   1      35.156  20.692  25.743  1.00  0.00    -0.351 N 
ATOM      4  C   UNL A   1      33.979  20.933  25.095  1.00  0.00     0.281 C 
ATOM      5  O   UNL A   1      33.267  19.939  24.893  1.00  0.00    -0.268 OA
ATOM      6  H   UNL A   1      35.162  19.894  26.319  1.00  0.00     0.163 HD
BRANCH   4   7
ATOM      7  C   UNL A   1      33.423  22.388  24.869  1.00  0.00     0.179 C 
ATOM      8  C   UNL A   1      32.029  23.054  22.860  1.00  0.00     0.190 C 
ATOM      9  C   UNL A   1      33.525  23.245  22.583  1.00  0.00     0.072 C 
ATOM     10  C   UNL A   1      32.004  22.300  24.212  1.00  0.00     0.144 C 
ATOM     11  C   UNL A   1      34.175  23.365  23.950  1.00  0.00     0.085 C 
BRANCH   8  12
ATOM     12  N   UNL A   1      31.301  24.342  22.662  1.00  0.00    -0.334 N 
ATOM     13  C   UNL A   1      30.680  24.745  23.935  1.00  0.00     0.332 C 
ATOM     14  H   UNL A   1      30.631  24.117  21.926  1.00  0.00     0.348 HD
BRANCH  12  15
ATOM     15  C   UNL A   1      32.043  25.494  22.112  1.00  0.00     0.266 C 
BRANCH  15  16
ATOM     16  C   UNL A   1      32.056  26.696  23.059  1.00  0.00     0.055 C 
ATOM     17  C   UNL A   1      32.113  30.078  25.532  1.00  0.00     0.332 C 
ATOM     18  N   UNL A   1      32.381  29.321  24.300  1.00  0.00    -0.337 N 
ATOM     19  C   UNL A   1      31.105  28.918  23.688  1.00  0.00     0.262 C 
ATOM     20  C   UNL A   1      33.293  28.207  24.607  1.00  0.00     0.262 C 
ATOM     21  H   UNL A   1      32.858  29.892  23.603  1.00  0.00     0.347 HD
ATOM     22  C   UNL A   1      31.248  27.891  22.558  1.00  0.00     0.071 C 
ATOM     23  C   UNL A   1      33.443  27.194  23.466  1.00  0.00     0.071 C 
ENDBRANCH  15  16
ENDBRANCH  12  15
ENDBRANCH   8  12
BRANCH   7  24
ATOM     24  N   UNL A   1      33.372  22.923  26.252  1.00  0.00    -0.345 N 
ATOM     25  H   UNL A   1      33.103  23.906  26.227  1.00  0.00     0.345 HD
ATOM     26  H   UNL A   1      34.291  22.832  26.685  1.00  0.00     0.345 HD
ATOM     27  H   UNL A   1      32.687  22.397  26.794  1.00  0.00     0.345 HD
ENDBRANCH   7  24
ENDBRANCH   4   7
ENDBRANCH   2   3
ENDBRANCH   1   2
BRANCH   1  28
ATOM     28  C   UNL A   1      38.196  19.751  24.868  1.00  0.00     0.023 C 
BRANCH  28  29
ATOM     29  C   UNL A   1      39.104  19.773  26.091  1.00  0.00     0.116 C 
BRANCH  29  30
ATOM     30  N   UNL A   1      40.341  19.028  25.919  1.00  0.00    -0.352 N 
ATOM     31  C   UNL A   1      41.632  19.477  26.096  1.00  0.00     0.251 C 
ATOM     32  H   UNL A   1      40.246  18.087  25.643  1.00  0.00     0.163 HD
ATOM     33  O   UNL A   1      42.579  18.739  25.901  1.00  0.00    -0.269 OA
BRANCH  31  34
ATOM     34  C   UNL A   1      41.829  20.900  26.448  1.00  0.00     0.039 A 
ATOM     35  C   UNL A   1      42.264  21.201  27.739  1.00  0.00     0.014 A 
ATOM     36  C   UNL A   1      41.681  21.905  25.491  1.00  0.00     0.014 A 
ATOM     37  C   UNL A   1      42.628  22.510  28.050  1.00  0.00     0.010 A 
ATOM     38  C   UNL A   1      42.113  23.194  25.781  1.00  0.00     0.010 A 
ATOM     39  C   UNL A   1      42.598  23.506  27.060  1.00  0.00    -0.014 A 
BRANCH  39  40
ATOM     40  C   UNL A   1      43.064  24.885  27.353  1.00  0.00     0.031 A 
ATOM     41  C   UNL A   1      42.128  25.862  28.005  1.00  0.00     0.074 A 
ATOM     42  C   UNL A   1      44.306  25.262  26.987  1.00  0.00     0.049 A 
ATOM     43  N   UNL A   1      42.312  27.127  28.278  1.00  0.00    -0.248 NA
ATOM     44  C   UNL A   1      40.799  25.353  28.377  1.00  0.00     0.031 C 
ATOM     45  C   UNL A   1      45.286  24.405  26.314  1.00  0.00     0.029 A 
ATOM     46  N   UNL A   1      44.955  26.462  27.122  1.00  0.00    -0.354 N 
ATOM     47  C   UNL A   1      41.125  27.565  28.854  1.00  0.00     0.074 A 
ATOM     48  C   UNL A   1      40.205  26.448  28.822  1.00  0.00     0.031 C 
ATOM     49  C   UNL A   1      46.417  25.102  26.115  1.00  0.00     0.029 A 
ATOM     50  C   UNL A   1      46.230  26.464  26.605  1.00  0.00     0.049 A 
ATOM     51  H   UNL A   1      44.546  27.249  27.550  1.00  0.00     0.167 HD
ATOM     52  C   UNL A   1      40.839  28.777  29.391  1.00  0.00     0.034 A 
ATOM     53  C   UNL A   1      47.139  27.457  26.526  1.00  0.00     0.034 A 
ATOM     54  C   UNL A   1      41.769  29.878  29.416  1.00  0.00     0.049 A 
ATOM     55  C   UNL A   1      46.784  28.809  27.097  1.00  0.00     0.074 A 
ATOM     56  C   UNL A   1      41.592  31.147  29.940  1.00  0.00     0.029 A 
ATOM     57  N   UNL A   1      43.055  29.841  28.893  1.00  0.00    -0.354 N 
ATOM     58  N   UNL A   1      45.665  29.195  27.670  1.00  0.00    -0.248 NA
ATOM     59  C   UNL A   1      47.815  29.852  27.026  1.00  0.00     0.031 C 
ATOM     60  C   UNL A   1      42.750  31.890  29.689  1.00  0.00     0.029 A 
ATOM     61  C   UNL A   1      43.677  31.067  29.070  1.00  0.00     0.049 A 
ATOM     62  H   UNL A   1      43.467  29.058  28.460  1.00  0.00     0.167 HD
ATOM     63  C   UNL A   1      45.878  30.515  28.059  1.00  0.00     0.074 A 
ATOM     64  C   UNL A   1      47.232  30.850  27.672  1.00  0.00     0.031 C 
ATOM     65  C   UNL A   1      45.032  31.376  28.681  1.00  0.00     0.034 A 
BRANCH  52  66
ATOM     66  C   UNL A   1      39.464  28.962  29.982  1.00  0.00     0.023 A 
ATOM     67  C   UNL A   1      38.423  29.549  29.240  1.00  0.00     0.031 A 
ATOM     68  C   UNL A   1      39.192  28.576  31.306  1.00  0.00     0.131 A 
ATOM     69  C   UNL A   1      37.185  29.802  29.847  1.00  0.00     0.055 A 
ATOM     70  C   UNL A   1      37.931  28.757  31.879  1.00  0.00     0.041 A 
ATOM     71  F   UNL A   1      40.151  28.030  32.070  1.00  0.00    -0.206 F 
ATOM     72  C   UNL A   1      36.923  29.385  31.154  1.00  0.00     0.022 A 
BRANCH  69  73
ATOM     73  S   UNL A   1      35.968  30.800  28.947  1.00  0.00     0.124 S 
ATOM     74  O   UNL A   1      36.832  31.673  28.156  1.00  0.00    -0.237 OA
ATOM     75  O   UNL A   1      35.221  29.795  28.202  1.00  0.00    -0.237 OA
ATOM     76  O   UNL A   1      35.222  31.471  30.010  1.00  0.00    -0.744 OA
ENDBRANCH  69  73
ENDBRANCH  52  66
BRANCH  53  77
ATOM     77  C   UNL A   1      48.464  27.234  25.876  1.00  0.00     0.023 A 
ATOM     78  C   UNL A   1      48.663  27.533  24.519  1.00  0.00     0.031 A 
ATOM     79  C   UNL A   1      49.531  26.649  26.582  1.00  0.00     0.131 A 
ATOM     80  C   UNL A   1      49.870  27.184  23.894  1.00  0.00     0.055 A 
ATOM     81  C   UNL A   1      50.751  26.360  25.971  1.00  0.00     0.041 A 
ATOM     82  F   UNL A   1      49.398  26.347  27.884  1.00  0.00    -0.206 F 
ATOM     83  C   UNL A   1      50.920  26.610  24.613  1.00  0.00     0.022 A 
BRANCH  80  84
ATOM     84  S   UNL A   1      50.002  27.377  22.094  1.00  0.00     0.124 S 
ATOM     85  O   UNL A   1      50.046  28.828  21.954  1.00  0.00    -0.237 OA
ATOM     86  O   UNL A   1      51.243  26.666  21.805  1.00  0.00    -0.237 OA
ATOM     87  O   UNL A   1      48.787  26.739  21.594  1.00  0.00    -0.744 OA
ENDBRANCH  80  84
ENDBRANCH  53  77
BRANCH  65  88
ATOM     88  C   UNL A   1      45.578  32.738  29.030  1.00  0.00     0.023 A 
ATOM     89  C   UNL A   1      45.538  33.807  28.118  1.00  0.00     0.031 A 
ATOM     90  C   UNL A   1      46.157  32.962  30.291  1.00  0.00     0.131 A 
ATOM     91  C   UNL A   1      46.121  35.036  28.460  1.00  0.00     0.055 A 
ATOM     92  C   UNL A   1      46.682  34.204  30.647  1.00  0.00     0.041 A 
ATOM     93  F   UNL A   1      46.220  31.975  31.199  1.00  0.00    -0.206 F 
ATOM     94  C   UNL A   1      46.677  35.247  29.724  1.00  0.00     0.022 A 
BRANCH  91  95
ATOM     95  S   UNL A   1      46.218  36.333  27.196  1.00  0.00     0.124 S 
ATOM     96  O   UNL A   1      46.061  35.570  25.963  1.00  0.00    -0.237 OA
ATOM     97  O   UNL A   1      45.103  37.203  27.555  1.00  0.00    -0.237 OA
ATOM     98  O   UNL A   1      47.545  36.914  27.402  1.00  0.00    -0.744 OA
ENDBRANCH  91  95
ENDBRANCH  65  88
ENDBRANCH  39  40
ENDBRANCH  31  34
ENDBRANCH  29  30
ENDBRANCH  28  29
ENDBRANCH   1  28
TORSDOF 18
ENDMDL
