MODEL 1
REMARK VINA RESULT:     -13.2      0.000      0.000
REMARK SMILES Nc1ccc(C(=O)N2Cc3nc[nH]c3C[C@H]2C(=O)NCCCCNC(=O)c2ccc(-c3c4nc(c(-c5cc(S(=O)(=O)[O-])ccc5F)c5ccc([nH]5)c(-c5cc(S(=O)(=O)[O-])ccc5F)c5nc(c(-c6cc(S(=O)(=O)[O-])ccc6F)c6ccc3[nH]6)C=C5)C=C4)cc2)cc1
REMARK SMILES IDX 21 1 20 2 19 3 17 4 18 5 16 7 8 8 9 9 10 10 15 11 11 12
REMARK SMILES IDX 14 13 12 14 13 15 6 17 7 18 5 19 2 20 3 21 91 22 4 23 90 24
REMARK SMILES IDX 1 25 22 28 23 29 24 30 25 31 26 33 27 34 28 35 89 36 29 37
REMARK SMILES IDX 88 38 30 39 31 40 32 41 82 42 33 43 87 44 81 45 83 46 34 47
REMARK SMILES IDX 86 48 80 49 79 50 35 52 67 53 47 54 66 55 48 56 51 57 65 58
REMARK SMILES IDX 84 59 49 60 50 61 64 63 85 64 52 65 36 66 37 67 45 68 38 69
REMARK SMILES IDX 44 70 46 71 43 72 39 73 40 74 41 75 42 76 68 77 69 78 77 79
REMARK SMILES IDX 70 80 76 81 78 82 75 83 71 84 72 85 73 86 74 87 53 88 54 89
REMARK SMILES IDX 62 90 55 91 61 92 63 93 60 94 56 95 57 96 58 97 59 98
REMARK H PARENT 19 6 13 16 1 26 1 27 24 32 83 51 51 62
REMARK Flexibility Score: inf
ROOT
ATOM      1  C   UNL A   1      33.294  28.211  25.514  1.00  0.00     0.023 C 
ENDROOT
BRANCH   1   2
ATOM      2  C   UNL A   1      33.339  26.727  25.152  1.00  0.00     0.116 C 
BRANCH   2   3
ATOM      3  N   UNL A   1      33.867  26.436  23.834  1.00  0.00    -0.354 N 
ATOM      4  C   UNL A   1      33.420  25.620  22.843  1.00  0.00     0.243 C 
ATOM      5  O   UNL A   1      33.792  25.930  21.701  1.00  0.00    -0.273 OA
ATOM      6  H   UNL A   1      34.698  26.917  23.617  1.00  0.00     0.163 HD
BRANCH   4   7
ATOM      7  C   UNL A   1      32.479  24.392  23.012  1.00  0.00     0.181 C 
ATOM      8  N   UNL A   1      32.820  23.363  24.059  1.00  0.00    -0.320 N 
ATOM      9  C   UNL A   1      32.154  23.376  25.382  1.00  0.00     0.178 C 
ATOM     10  C   UNL A   1      30.989  24.290  25.429  1.00  0.00     0.081 A 
ATOM     11  C   UNL A   1      30.978  24.819  22.964  1.00  0.00     0.091 C 
ATOM     12  N   UNL A   1      30.426  24.766  26.585  1.00  0.00    -0.240 NA
ATOM     13  C   UNL A   1      30.455  24.933  24.340  1.00  0.00     0.042 A 
ATOM     14  C   UNL A   1      29.553  25.672  26.196  1.00  0.00     0.197 A 
ATOM     15  N   UNL A   1      29.508  25.786  24.829  1.00  0.00    -0.348 N 
ATOM     16  H   UNL A   1      28.911  26.368  24.305  1.00  0.00     0.167 HD
BRANCH   8  17
ATOM     17  C   UNL A   1      33.651  22.251  23.849  1.00  0.00     0.254 C 
ATOM     18  O   UNL A   1      33.217  21.192  23.389  1.00  0.00    -0.269 OA
BRANCH  17  19
ATOM     19  C   UNL A   1      35.092  22.250  24.216  1.00  0.00     0.040 A 
ATOM     20  C   UNL A   1      37.722  22.282  25.251  1.00  0.00     0.031 A 
ATOM     21  C   UNL A   1      36.939  21.130  25.337  1.00  0.00     0.026 A 
ATOM     22  C   UNL A   1      37.154  23.431  24.700  1.00  0.00     0.026 A 
ATOM     23  C   UNL A   1      35.641  21.105  24.809  1.00  0.00     0.016 A 
ATOM     24  C   UNL A   1      35.843  23.423  24.211  1.00  0.00     0.016 A 
BRANCH  20  25
ATOM     25  N   UNL A   1      38.968  22.343  25.856  1.00  0.00    -0.399 N 
ATOM     26  H   UNL A   1      39.583  23.083  25.646  1.00  0.00     0.156 HD
ATOM     27  H   UNL A   1      39.239  21.646  26.497  1.00  0.00     0.156 HD
ENDBRANCH  20  25
ENDBRANCH  17  19
ENDBRANCH   8  17
ENDBRANCH   4   7
ENDBRANCH   2   3
ENDBRANCH   1   2
BRANCH   1  28
ATOM     28  C   UNL A   1      33.700  28.555  26.953  1.00  0.00     0.023 C 
BRANCH  28  29
ATOM     29  C   UNL A   1      35.155  28.987  27.153  1.00  0.00     0.116 C 
BRANCH  29  30
ATOM     30  N   UNL A   1      35.368  29.868  28.299  1.00  0.00    -0.352 N 
ATOM     31  C   UNL A   1      36.389  29.774  29.236  1.00  0.00     0.251 C 
ATOM     32  H   UNL A   1      34.723  30.603  28.419  1.00  0.00     0.163 HD
ATOM     33  O   UNL A   1      36.266  30.223  30.360  1.00  0.00    -0.269 OA
BRANCH  31  34
ATOM     34  C   UNL A   1      37.640  29.114  28.812  1.00  0.00     0.039 A 
ATOM     35  C   UNL A   1      38.366  29.564  27.709  1.00  0.00     0.014 A 
ATOM     36  C   UNL A   1      38.124  28.091  29.624  1.00  0.00     0.014 A 
ATOM     37  C   UNL A   1      39.645  29.050  27.497  1.00  0.00     0.010 A 
ATOM     38  C   UNL A   1      39.428  27.675  29.483  1.00  0.00     0.010 A 
ATOM     39  C   UNL A   1      40.196  28.133  28.412  1.00  0.00    -0.014 A 
BRANCH  39  40
ATOM     40  C   UNL A   1      41.614  27.769  28.332  1.00  0.00     0.031 A 
ATOM     41  C   UNL A   1      41.915  26.537  27.549  1.00  0.00     0.074 A 
ATOM     42  C   UNL A   1      42.633  28.555  28.745  1.00  0.00     0.049 A 
ATOM     43  N   UNL A   1      42.337  25.404  28.003  1.00  0.00    -0.248 NA
ATOM     44  C   UNL A   1      41.595  26.510  26.113  1.00  0.00     0.031 C 
ATOM     45  C   UNL A   1      42.577  29.918  29.283  1.00  0.00     0.029 A 
ATOM     46  N   UNL A   1      43.974  28.323  28.665  1.00  0.00    -0.354 N 
ATOM     47  C   UNL A   1      42.562  24.590  26.895  1.00  0.00     0.074 A 
ATOM     48  C   UNL A   1      41.917  25.253  25.793  1.00  0.00     0.031 C 
ATOM     49  C   UNL A   1      43.810  30.470  29.250  1.00  0.00     0.029 A 
ATOM     50  C   UNL A   1      44.767  29.447  28.866  1.00  0.00     0.049 A 
ATOM     51  H   UNL A   1      44.349  27.432  28.479  1.00  0.00     0.167 HD
ATOM     52  C   UNL A   1      43.443  23.550  26.951  1.00  0.00     0.034 A 
ATOM     53  C   UNL A   1      46.114  29.548  28.728  1.00  0.00     0.034 A 
ATOM     54  C   UNL A   1      43.772  23.224  28.323  1.00  0.00     0.049 A 
ATOM     55  C   UNL A   1      46.659  28.179  28.910  1.00  0.00     0.074 A 
ATOM     56  C   UNL A   1      43.028  22.879  29.437  1.00  0.00     0.029 A 
ATOM     57  N   UNL A   1      44.994  23.626  28.818  1.00  0.00    -0.354 N 
ATOM     58  N   UNL A   1      46.569  27.522  30.036  1.00  0.00    -0.248 NA
ATOM     59  C   UNL A   1      46.851  27.352  27.728  1.00  0.00     0.031 C 
ATOM     60  C   UNL A   1      43.623  23.612  30.507  1.00  0.00     0.029 A 
ATOM     61  C   UNL A   1      44.748  24.272  30.006  1.00  0.00     0.049 A 
ATOM     62  H   UNL A   1      45.874  23.478  28.401  1.00  0.00     0.167 HD
ATOM     63  C   UNL A   1      46.241  26.226  29.669  1.00  0.00     0.074 A 
ATOM     64  C   UNL A   1      46.530  26.158  28.237  1.00  0.00     0.031 C 
ATOM     65  C   UNL A   1      45.507  25.412  30.487  1.00  0.00     0.034 A 
BRANCH  52  66
ATOM     66  C   UNL A   1      44.283  23.045  25.795  1.00  0.00     0.023 A 
ATOM     67  C   UNL A   1      44.266  21.657  25.543  1.00  0.00     0.031 A 
ATOM     68  C   UNL A   1      45.297  23.771  25.133  1.00  0.00     0.131 A 
ATOM     69  C   UNL A   1      45.280  21.043  24.787  1.00  0.00     0.055 A 
ATOM     70  C   UNL A   1      46.262  23.165  24.321  1.00  0.00     0.041 A 
ATOM     71  F   UNL A   1      45.476  25.085  25.304  1.00  0.00    -0.206 F 
ATOM     72  C   UNL A   1      46.280  21.789  24.174  1.00  0.00     0.022 A 
BRANCH  69  73
ATOM     73  S   UNL A   1      45.377  19.234  24.794  1.00  0.00     0.124 S 
ATOM     74  O   UNL A   1      44.202  18.881  25.584  1.00  0.00    -0.237 OA
ATOM     75  O   UNL A   1      45.312  18.925  23.369  1.00  0.00    -0.237 OA
ATOM     76  O   UNL A   1      46.664  18.967  25.432  1.00  0.00    -0.744 OA
ENDBRANCH  69  73
ENDBRANCH  52  66
BRANCH  53  77
ATOM     77  C   UNL A   1      46.874  30.693  28.150  1.00  0.00     0.023 A 
ATOM     78  C   UNL A   1      46.289  31.660  27.307  1.00  0.00     0.031 A 
ATOM     79  C   UNL A   1      48.176  30.975  28.628  1.00  0.00     0.131 A 
ATOM     80  C   UNL A   1      46.998  32.842  26.978  1.00  0.00     0.055 A 
ATOM     81  C   UNL A   1      48.870  32.141  28.298  1.00  0.00     0.041 A 
ATOM     82  F   UNL A   1      48.788  30.162  29.503  1.00  0.00    -0.206 F 
ATOM     83  C   UNL A   1      48.280  33.086  27.477  1.00  0.00     0.022 A 
BRANCH  80  84
ATOM     84  S   UNL A   1      46.222  34.138  25.956  1.00  0.00     0.124 S 
ATOM     85  O   UNL A   1      45.711  35.061  26.962  1.00  0.00    -0.237 OA
ATOM     86  O   UNL A   1      47.340  34.611  25.147  1.00  0.00    -0.237 OA
ATOM     87  O   UNL A   1      45.192  33.413  25.209  1.00  0.00    -0.744 OA
ENDBRANCH  80  84
ENDBRANCH  53  77
BRANCH  65  88
ATOM     88  C   UNL A   1      45.276  25.826  31.930  1.00  0.00     0.023 A 
ATOM     89  C   UNL A   1      44.085  26.399  32.431  1.00  0.00     0.031 A 
ATOM     90  C   UNL A   1      46.275  25.489  32.864  1.00  0.00     0.131 A 
ATOM     91  C   UNL A   1      43.934  26.621  33.816  1.00  0.00     0.055 A 
ATOM     92  C   UNL A   1      46.113  25.687  34.234  1.00  0.00     0.041 A 
ATOM     93  F   UNL A   1      47.421  24.918  32.458  1.00  0.00    -0.206 F 
ATOM     94  C   UNL A   1      44.942  26.260  34.715  1.00  0.00     0.022 A 
BRANCH  91  95
ATOM     95  S   UNL A   1      42.423  27.400  34.477  1.00  0.00     0.124 S 
ATOM     96  O   UNL A   1      41.770  27.943  33.291  1.00  0.00    -0.237 OA
ATOM     97  O   UNL A   1      41.744  26.282  35.123  1.00  0.00    -0.237 OA
ATOM     98  O   UNL A   1      42.940  28.412  35.401  1.00  0.00    -0.744 OA
ENDBRANCH  91  95
ENDBRANCH  65  88
ENDBRANCH  39  40
ENDBRANCH  31  34
ENDBRANCH  29  30
ENDBRANCH  28  29
ENDBRANCH   1  28
TORSDOF 17
ENDMDL
MODEL 2
REMARK VINA RESULT:     -13.0      1.448      2.641
REMARK SMILES Nc1ccc(C(=O)N2Cc3nc[nH]c3C[C@H]2C(=O)NCCCCNC(=O)c2ccc(-c3c4nc(c(-c5cc(S(=O)(=O)[O-])ccc5F)c5ccc([nH]5)c(-c5cc(S(=O)(=O)[O-])ccc5F)c5nc(c(-c6cc(S(=O)(=O)[O-])ccc6F)c6ccc3[nH]6)C=C5)C=C4)cc2)cc1
REMARK SMILES IDX 21 1 20 2 19 3 17 4 18 5 16 7 8 8 9 9 10 10 15 11 11 12
REMARK SMILES IDX 14 13 12 14 13 15 6 17 7 18 5 19 2 20 3 21 91 22 4 23 90 24
REMARK SMILES IDX 1 25 22 28 23 29 24 30 25 31 26 33 27 34 28 35 89 36 29 37
REMARK SMILES IDX 88 38 30 39 31 40 32 41 82 42 33 43 87 44 81 45 83 46 34 47
REMARK SMILES IDX 86 48 80 49 79 50 35 52 67 53 47 54 66 55 48 56 51 57 65 58
REMARK SMILES IDX 84 59 49 60 50 61 64 63 85 64 52 65 36 66 37 67 45 68 38 69
REMARK SMILES IDX 44 70 46 71 43 72 39 73 40 74 41 75 42 76 68 77 69 78 77 79
REMARK SMILES IDX 70 80 76 81 78 82 75 83 71 84 72 85 73 86 74 87 53 88 54 89
REMARK SMILES IDX 62 90 55 91 61 92 63 93 60 94 56 95 57 96 58 97 59 98
REMARK H PARENT 19 6 13 16 1 26 1 27 24 32 83 51 51 62
REMARK Flexibility Score: inf
ROOT
ATOM      1  C   UNL A   1      33.238  28.300  25.631  1.00  0.00     0.023 C 
ENDROOT
BRANCH   1   2
ATOM      2  C   UNL A   1      32.920  26.840  25.312  1.00  0.00     0.116 C 
BRANCH   2   3
ATOM      3  N   UNL A   1      33.758  26.242  24.292  1.00  0.00    -0.354 N 
ATOM      4  C   UNL A   1      34.030  24.944  23.994  1.00  0.00     0.243 C 
ATOM      5  O   UNL A   1      34.377  24.736  22.822  1.00  0.00    -0.273 OA
ATOM      6  H   UNL A   1      34.210  26.893  23.709  1.00  0.00     0.163 HD
BRANCH   4   7
ATOM      7  C   UNL A   1      33.907  23.730  24.961  1.00  0.00     0.181 C 
ATOM      8  N   UNL A   1      33.894  22.342  24.374  1.00  0.00    -0.320 N 
ATOM      9  C   UNL A   1      35.121  21.514  24.353  1.00  0.00     0.178 C 
ATOM     10  C   UNL A   1      36.209  22.080  25.184  1.00  0.00     0.081 A 
ATOM     11  C   UNL A   1      34.818  23.911  26.215  1.00  0.00     0.091 C 
ATOM     12  N   UNL A   1      37.531  21.735  25.066  1.00  0.00    -0.240 NA
ATOM     13  C   UNL A   1      36.071  23.154  26.028  1.00  0.00     0.042 A 
ATOM     14  C   UNL A   1      38.179  22.581  25.841  1.00  0.00     0.197 A 
ATOM     15  N   UNL A   1      37.326  23.446  26.479  1.00  0.00    -0.348 N 
ATOM     16  H   UNL A   1      37.571  24.140  27.133  1.00  0.00     0.167 HD
BRANCH   8  17
ATOM     17  C   UNL A   1      32.741  21.665  23.944  1.00  0.00     0.254 C 
ATOM     18  O   UNL A   1      31.796  22.259  23.418  1.00  0.00    -0.269 OA
BRANCH  17  19
ATOM     19  C   UNL A   1      32.552  20.203  24.142  1.00  0.00     0.040 A 
ATOM     20  C   UNL A   1      32.547  17.406  24.545  1.00  0.00     0.031 A 
ATOM     21  C   UNL A   1      32.728  18.278  25.619  1.00  0.00     0.026 A 
ATOM     22  C   UNL A   1      32.431  17.946  23.264  1.00  0.00     0.026 A 
ATOM     23  C   UNL A   1      32.713  19.666  25.427  1.00  0.00     0.016 A 
ATOM     24  C   UNL A   1      32.459  19.330  23.061  1.00  0.00     0.016 A 
BRANCH  20  25
ATOM     25  N   UNL A   1      32.657  16.034  24.715  1.00  0.00    -0.399 N 
ATOM     26  H   UNL A   1      33.105  15.487  24.029  1.00  0.00     0.156 HD
ATOM     27  H   UNL A   1      32.287  15.606  25.520  1.00  0.00     0.156 HD
ENDBRANCH  20  25
ENDBRANCH  17  19
ENDBRANCH   8  17
ENDBRANCH   4   7
ENDBRANCH   2   3
ENDBRANCH   1   2
BRANCH   1  28
ATOM     28  C   UNL A   1      33.671  28.584  27.076  1.00  0.00     0.023 C 
BRANCH  28  29
ATOM     29  C   UNL A   1      35.132  28.996  27.269  1.00  0.00     0.116 C 
BRANCH  29  30
ATOM     30  N   UNL A   1      35.369  29.846  28.434  1.00  0.00    -0.352 N 
ATOM     31  C   UNL A   1      36.416  29.736  29.339  1.00  0.00     0.251 C 
ATOM     32  H   UNL A   1      34.720  30.570  28.593  1.00  0.00     0.163 HD
ATOM     33  O   UNL A   1      36.319  30.151  30.479  1.00  0.00    -0.269 OA
BRANCH  31  34
ATOM     34  C   UNL A   1      37.661  29.102  28.861  1.00  0.00     0.039 A 
ATOM     35  C   UNL A   1      38.335  29.574  27.734  1.00  0.00     0.014 A 
ATOM     36  C   UNL A   1      38.195  28.082  29.646  1.00  0.00     0.014 A 
ATOM     37  C   UNL A   1      39.614  29.085  27.469  1.00  0.00     0.010 A 
ATOM     38  C   UNL A   1      39.500  27.692  29.451  1.00  0.00     0.010 A 
ATOM     39  C   UNL A   1      40.217  28.172  28.355  1.00  0.00    -0.014 A 
BRANCH  39  40
ATOM     40  C   UNL A   1      41.638  27.835  28.217  1.00  0.00     0.031 A 
ATOM     41  C   UNL A   1      41.926  26.567  27.487  1.00  0.00     0.074 A 
ATOM     42  C   UNL A   1      42.657  28.665  28.529  1.00  0.00     0.049 A 
ATOM     43  N   UNL A   1      42.400  25.471  27.979  1.00  0.00    -0.248 NA
ATOM     44  C   UNL A   1      41.530  26.452  26.075  1.00  0.00     0.031 C 
ATOM     45  C   UNL A   1      42.597  30.054  28.993  1.00  0.00     0.029 A 
ATOM     46  N   UNL A   1      43.997  28.458  28.388  1.00  0.00    -0.354 N 
ATOM     47  C   UNL A   1      42.585  24.601  26.907  1.00  0.00     0.074 A 
ATOM     48  C   UNL A   1      41.865  25.187  25.807  1.00  0.00     0.031 C 
ATOM     49  C   UNL A   1      43.812  30.630  28.862  1.00  0.00     0.029 A 
ATOM     50  C   UNL A   1      44.772  29.609  28.483  1.00  0.00     0.049 A 
ATOM     51  H   UNL A   1      44.384  27.566  28.231  1.00  0.00     0.167 HD
ATOM     52  C   UNL A   1      43.493  23.585  26.972  1.00  0.00     0.034 A 
ATOM     53  C   UNL A   1      46.107  29.730  28.265  1.00  0.00     0.034 A 
ATOM     54  C   UNL A   1      43.904  23.345  28.339  1.00  0.00     0.049 A 
ATOM     55  C   UNL A   1      46.695  28.386  28.492  1.00  0.00     0.074 A 
ATOM     56  C   UNL A   1      43.230  23.047  29.510  1.00  0.00     0.029 A 
ATOM     57  N   UNL A   1      45.140  23.800  28.743  1.00  0.00    -0.354 N 
ATOM     58  N   UNL A   1      46.681  27.792  29.655  1.00  0.00    -0.248 NA
ATOM     59  C   UNL A   1      46.843  27.498  27.348  1.00  0.00     0.031 C 
ATOM     60  C   UNL A   1      43.863  23.851  30.504  1.00  0.00     0.029 A 
ATOM     61  C   UNL A   1      44.942  24.507  29.906  1.00  0.00     0.049 A 
ATOM     62  H   UNL A   1      46.000  23.648  28.287  1.00  0.00     0.167 HD
ATOM     63  C   UNL A   1      46.367  26.470  29.380  1.00  0.00     0.074 A 
ATOM     64  C   UNL A   1      46.579  26.329  27.939  1.00  0.00     0.031 C 
ATOM     65  C   UNL A   1      45.698  25.689  30.280  1.00  0.00     0.034 A 
BRANCH  52  66
ATOM     66  C   UNL A   1      44.282  23.034  25.800  1.00  0.00     0.023 A 
ATOM     67  C   UNL A   1      44.251  21.638  25.602  1.00  0.00     0.031 A 
ATOM     68  C   UNL A   1      45.269  23.732  25.069  1.00  0.00     0.131 A 
ATOM     69  C   UNL A   1      45.231  20.993  24.827  1.00  0.00     0.055 A 
ATOM     70  C   UNL A   1      46.196  23.092  24.240  1.00  0.00     0.041 A 
ATOM     71  F   UNL A   1      45.457  25.051  25.183  1.00  0.00    -0.206 F 
ATOM     72  C   UNL A   1      46.206  21.711  24.144  1.00  0.00     0.022 A 
BRANCH  69  73
ATOM     73  S   UNL A   1      45.325  19.184  24.897  1.00  0.00     0.124 S 
ATOM     74  O   UNL A   1      44.244  18.872  25.827  1.00  0.00    -0.237 OA
ATOM     75  O   UNL A   1      45.102  18.818  23.502  1.00  0.00    -0.237 OA
ATOM     76  O   UNL A   1      46.674  18.936  25.400  1.00  0.00    -0.744 OA
ENDBRANCH  69  73
ENDBRANCH  52  66
BRANCH  53  77
ATOM     77  C   UNL A   1      46.806  30.857  27.585  1.00  0.00     0.023 A 
ATOM     78  C   UNL A   1      46.126  31.939  26.986  1.00  0.00     0.031 A 
ATOM     79  C   UNL A   1      48.208  30.992  27.724  1.00  0.00     0.131 A 
ATOM     80  C   UNL A   1      46.843  33.084  26.560  1.00  0.00     0.055 A 
ATOM     81  C   UNL A   1      48.909  32.123  27.301  1.00  0.00     0.041 A 
ATOM     82  F   UNL A   1      48.938  30.060  28.356  1.00  0.00    -0.206 F 
ATOM     83  C   UNL A   1      48.227  33.180  26.723  1.00  0.00     0.022 A 
BRANCH  80  84
ATOM     84  S   UNL A   1      45.966  34.522  25.860  1.00  0.00     0.124 S 
ATOM     85  O   UNL A   1      47.059  35.446  25.580  1.00  0.00    -0.237 OA
ATOM     86  O   UNL A   1      45.290  33.944  24.703  1.00  0.00    -0.237 OA
ATOM     87  O   UNL A   1      45.073  34.938  26.943  1.00  0.00    -0.744 OA
ENDBRANCH  80  84
ENDBRANCH  53  77
BRANCH  65  88
ATOM     88  C   UNL A   1      45.535  26.178  31.709  1.00  0.00     0.023 A 
ATOM     89  C   UNL A   1      44.390  26.833  32.219  1.00  0.00     0.031 A 
ATOM     90  C   UNL A   1      46.546  25.833  32.626  1.00  0.00     0.131 A 
ATOM     91  C   UNL A   1      44.296  27.124  33.595  1.00  0.00     0.055 A 
ATOM     92  C   UNL A   1      46.439  26.101  33.990  1.00  0.00     0.041 A 
ATOM     93  F   UNL A   1      47.649  25.187  32.213  1.00  0.00    -0.206 F 
ATOM     94  C   UNL A   1      45.314  26.752  34.480  1.00  0.00     0.022 A 
BRANCH  91  95
ATOM     95  S   UNL A   1      42.848  28.007  34.265  1.00  0.00     0.124 S 
ATOM     96  O   UNL A   1      41.852  27.887  33.206  1.00  0.00    -0.237 OA
ATOM     97  O   UNL A   1      42.564  27.270  35.493  1.00  0.00    -0.237 OA
ATOM     98  O   UNL A   1      43.347  29.367  34.477  1.00  0.00    -0.744 OA
ENDBRANCH  91  95
ENDBRANCH  65  88
ENDBRANCH  39  40
ENDBRANCH  31  34
ENDBRANCH  29  30
ENDBRANCH  28  29
ENDBRANCH   1  28
TORSDOF 17
ENDMDL
MODEL 3
REMARK VINA RESULT:     -12.7      1.411      2.306
REMARK SMILES Nc1ccc(C(=O)N2Cc3nc[nH]c3C[C@H]2C(=O)NCCCCNC(=O)c2ccc(-c3c4nc(c(-c5cc(S(=O)(=O)[O-])ccc5F)c5ccc([nH]5)c(-c5cc(S(=O)(=O)[O-])ccc5F)c5nc(c(-c6cc(S(=O)(=O)[O-])ccc6F)c6ccc3[nH]6)C=C5)C=C4)cc2)cc1
REMARK SMILES IDX 21 1 20 2 19 3 17 4 18 5 16 7 8 8 9 9 10 10 15 11 11 12
REMARK SMILES IDX 14 13 12 14 13 15 6 17 7 18 5 19 2 20 3 21 91 22 4 23 90 24
REMARK SMILES IDX 1 25 22 28 23 29 24 30 25 31 26 33 27 34 28 35 89 36 29 37
REMARK SMILES IDX 88 38 30 39 31 40 32 41 82 42 33 43 87 44 81 45 83 46 34 47
REMARK SMILES IDX 86 48 80 49 79 50 35 52 67 53 47 54 66 55 48 56 51 57 65 58
REMARK SMILES IDX 84 59 49 60 50 61 64 63 85 64 52 65 36 66 37 67 45 68 38 69
REMARK SMILES IDX 44 70 46 71 43 72 39 73 40 74 41 75 42 76 68 77 69 78 77 79
REMARK SMILES IDX 70 80 76 81 78 82 75 83 71 84 72 85 73 86 74 87 53 88 54 89
REMARK SMILES IDX 62 90 55 91 61 92 63 93 60 94 56 95 57 96 58 97 59 98
REMARK H PARENT 19 6 13 16 1 26 1 27 24 32 83 51 51 62
REMARK Flexibility Score: inf
ROOT
ATOM      1  C   UNL A   1      33.190  27.690  25.907  1.00  0.00     0.023 C 
ENDROOT
BRANCH   1   2
ATOM      2  C   UNL A   1      33.971  26.392  25.714  1.00  0.00     0.116 C 
BRANCH   2   3
ATOM      3  N   UNL A   1      33.304  25.200  26.199  1.00  0.00    -0.354 N 
ATOM      4  C   UNL A   1      33.603  23.880  26.065  1.00  0.00     0.243 C 
ATOM      5  O   UNL A   1      33.145  23.147  26.955  1.00  0.00    -0.273 OA
ATOM      6  H   UNL A   1      32.488  25.379  26.719  1.00  0.00     0.163 HD
BRANCH   4   7
ATOM      7  C   UNL A   1      34.478  23.240  24.949  1.00  0.00     0.181 C 
ATOM      8  N   UNL A   1      35.658  22.396  25.355  1.00  0.00    -0.320 N 
ATOM      9  C   UNL A   1      35.562  20.919  25.380  1.00  0.00     0.178 C 
ATOM     10  C   UNL A   1      34.335  20.412  24.725  1.00  0.00     0.081 A 
ATOM     11  C   UNL A   1      33.593  22.641  23.811  1.00  0.00     0.091 C 
ATOM     12  N   UNL A   1      33.819  19.155  24.915  1.00  0.00    -0.240 NA
ATOM     13  C   UNL A   1      33.452  21.185  24.012  1.00  0.00     0.042 A 
ATOM     14  C   UNL A   1      32.649  19.167  24.311  1.00  0.00     0.197 A 
ATOM     15  N   UNL A   1      32.394  20.376  23.713  1.00  0.00    -0.348 N 
ATOM     16  H   UNL A   1      31.605  20.613  23.174  1.00  0.00     0.167 HD
BRANCH   8  17
ATOM     17  C   UNL A   1      36.951  22.889  25.595  1.00  0.00     0.254 C 
ATOM     18  O   UNL A   1      37.178  24.097  25.695  1.00  0.00    -0.269 OA
BRANCH  17  19
ATOM     19  C   UNL A   1      38.140  22.001  25.687  1.00  0.00     0.040 A 
ATOM     20  C   UNL A   1      40.223  20.140  26.116  1.00  0.00     0.031 A 
ATOM     21  C   UNL A   1      39.093  19.783  25.379  1.00  0.00     0.026 A 
ATOM     22  C   UNL A   1      40.271  21.413  26.685  1.00  0.00     0.026 A 
ATOM     23  C   UNL A   1      38.066  20.709  25.149  1.00  0.00     0.016 A 
ATOM     24  C   UNL A   1      39.228  22.326  26.494  1.00  0.00     0.016 A 
BRANCH  20  25
ATOM     25  N   UNL A   1      41.195  19.201  26.428  1.00  0.00    -0.399 N 
ATOM     26  H   UNL A   1      42.054  19.490  26.814  1.00  0.00     0.156 HD
ATOM     27  H   UNL A   1      41.027  18.245  26.264  1.00  0.00     0.156 HD
ENDBRANCH  20  25
ENDBRANCH  17  19
ENDBRANCH   8  17
ENDBRANCH   4   7
ENDBRANCH   2   3
ENDBRANCH   1   2
BRANCH   1  28
ATOM     28  C   UNL A   1      33.557  28.505  27.155  1.00  0.00     0.023 C 
BRANCH  28  29
ATOM     29  C   UNL A   1      34.991  29.036  27.211  1.00  0.00     0.116 C 
BRANCH  29  30
ATOM     30  N   UNL A   1      35.243  29.971  28.306  1.00  0.00    -0.352 N 
ATOM     31  C   UNL A   1      36.294  29.919  29.212  1.00  0.00     0.251 C 
ATOM     32  H   UNL A   1      34.604  30.712  28.411  1.00  0.00     0.163 HD
ATOM     33  O   UNL A   1      36.208  30.422  30.316  1.00  0.00    -0.269 OA
BRANCH  31  34
ATOM     34  C   UNL A   1      37.529  29.235  28.779  1.00  0.00     0.039 A 
ATOM     35  C   UNL A   1      38.250  29.666  27.665  1.00  0.00     0.014 A 
ATOM     36  C   UNL A   1      38.006  28.210  29.593  1.00  0.00     0.014 A 
ATOM     37  C   UNL A   1      39.518  29.129  27.443  1.00  0.00     0.010 A 
ATOM     38  C   UNL A   1      39.301  27.772  29.441  1.00  0.00     0.010 A 
ATOM     39  C   UNL A   1      40.064  28.210  28.359  1.00  0.00    -0.014 A 
BRANCH  39  40
ATOM     40  C   UNL A   1      41.476  27.823  28.266  1.00  0.00     0.031 A 
ATOM     41  C   UNL A   1      41.748  26.581  27.487  1.00  0.00     0.074 A 
ATOM     42  C   UNL A   1      42.511  28.594  28.663  1.00  0.00     0.049 A 
ATOM     43  N   UNL A   1      42.156  25.444  27.944  1.00  0.00    -0.248 NA
ATOM     44  C   UNL A   1      41.412  26.551  26.055  1.00  0.00     0.031 C 
ATOM     45  C   UNL A   1      42.484  29.961  29.193  1.00  0.00     0.029 A 
ATOM     46  N   UNL A   1      43.847  28.340  28.570  1.00  0.00    -0.354 N 
ATOM     47  C   UNL A   1      42.356  24.620  26.838  1.00  0.00     0.074 A 
ATOM     48  C   UNL A   1      41.710  25.287  25.739  1.00  0.00     0.031 C 
ATOM     49  C   UNL A   1      43.725  30.492  29.144  1.00  0.00     0.029 A 
ATOM     50  C   UNL A   1      44.661  29.452  28.756  1.00  0.00     0.049 A 
ATOM     51  H   UNL A   1      44.206  27.441  28.386  1.00  0.00     0.167 HD
ATOM     52  C   UNL A   1      43.221  23.566  26.891  1.00  0.00     0.034 A 
ATOM     53  C   UNL A   1      46.008  29.530  28.603  1.00  0.00     0.034 A 
ATOM     54  C   UNL A   1      43.559  23.243  28.262  1.00  0.00     0.049 A 
ATOM     55  C   UNL A   1      46.532  28.153  28.788  1.00  0.00     0.074 A 
ATOM     56  C   UNL A   1      42.821  22.917  29.385  1.00  0.00     0.029 A 
ATOM     57  N   UNL A   1      44.792  23.628  28.741  1.00  0.00    -0.354 N 
ATOM     58  N   UNL A   1      46.443  27.505  29.918  1.00  0.00    -0.248 NA
ATOM     59  C   UNL A   1      46.698  27.316  27.608  1.00  0.00     0.031 C 
ATOM     60  C   UNL A   1      43.440  23.646  30.445  1.00  0.00     0.029 A 
ATOM     61  C   UNL A   1      44.569  24.285  29.928  1.00  0.00     0.049 A 
ATOM     62  H   UNL A   1      45.665  23.463  28.316  1.00  0.00     0.167 HD
ATOM     63  C   UNL A   1      46.091  26.212  29.563  1.00  0.00     0.074 A 
ATOM     64  C   UNL A   1      46.363  26.131  28.128  1.00  0.00     0.031 C 
ATOM     65  C   UNL A   1      45.353  25.415  30.393  1.00  0.00     0.034 A 
BRANCH  52  66
ATOM     66  C   UNL A   1      44.040  23.041  25.729  1.00  0.00     0.023 A 
ATOM     67  C   UNL A   1      43.948  21.661  25.447  1.00  0.00     0.031 A 
ATOM     68  C   UNL A   1      45.097  23.724  25.089  1.00  0.00     0.131 A 
ATOM     69  C   UNL A   1      44.932  21.009  24.683  1.00  0.00     0.055 A 
ATOM     70  C   UNL A   1      46.033  23.083  24.270  1.00  0.00     0.041 A 
ATOM     71  F   UNL A   1      45.347  25.022  25.290  1.00  0.00    -0.206 F 
ATOM     72  C   UNL A   1      45.977  21.712  24.093  1.00  0.00     0.022 A 
BRANCH  69  73
ATOM     73  S   UNL A   1      44.930  19.197  24.651  1.00  0.00     0.124 S 
ATOM     74  O   UNL A   1      45.844  18.885  25.745  1.00  0.00    -0.237 OA
ATOM     75  O   UNL A   1      43.521  18.895  24.881  1.00  0.00    -0.237 OA
ATOM     76  O   UNL A   1      45.426  18.883  23.313  1.00  0.00    -0.744 OA
ENDBRANCH  69  73
ENDBRANCH  52  66
BRANCH  53  77
ATOM     77  C   UNL A   1      46.780  30.659  28.011  1.00  0.00     0.023 A 
ATOM     78  C   UNL A   1      46.201  31.634  27.173  1.00  0.00     0.031 A 
ATOM     79  C   UNL A   1      48.094  30.919  28.468  1.00  0.00     0.131 A 
ATOM     80  C   UNL A   1      46.927  32.802  26.830  1.00  0.00     0.055 A 
ATOM     81  C   UNL A   1      48.805  32.070  28.125  1.00  0.00     0.041 A 
ATOM     82  F   UNL A   1      48.704  30.097  29.337  1.00  0.00    -0.206 F 
ATOM     83  C   UNL A   1      48.220  33.023  27.309  1.00  0.00     0.022 A 
BRANCH  80  84
ATOM     84  S   UNL A   1      46.159  34.108  25.815  1.00  0.00     0.124 S 
ATOM     85  O   UNL A   1      47.279  34.567  25.001  1.00  0.00    -0.237 OA
ATOM     86  O   UNL A   1      45.102  33.383  25.117  1.00  0.00    -0.237 OA
ATOM     87  O   UNL A   1      45.683  35.075  26.806  1.00  0.00    -0.744 OA
ENDBRANCH  80  84
ENDBRANCH  53  77
BRANCH  65  88
ATOM     88  C   UNL A   1      45.144  25.841  31.836  1.00  0.00     0.023 A 
ATOM     89  C   UNL A   1      43.957  26.411  32.353  1.00  0.00     0.031 A 
ATOM     90  C   UNL A   1      46.161  25.520  32.756  1.00  0.00     0.131 A 
ATOM     91  C   UNL A   1      43.829  26.645  33.738  1.00  0.00     0.055 A 
ATOM     92  C   UNL A   1      46.021  25.730  34.127  1.00  0.00     0.041 A 
ATOM     93  F   UNL A   1      47.304  24.953  32.336  1.00  0.00    -0.206 F 
ATOM     94  C   UNL A   1      44.855  26.299  34.623  1.00  0.00     0.022 A 
BRANCH  91  95
ATOM     95  S   UNL A   1      42.325  27.420  34.417  1.00  0.00     0.124 S 
ATOM     96  O   UNL A   1      42.813  28.164  35.572  1.00  0.00    -0.237 OA
ATOM     97  O   UNL A   1      41.845  28.223  33.297  1.00  0.00    -0.237 OA
ATOM     98  O   UNL A   1      41.474  26.275  34.750  1.00  0.00    -0.744 OA
ENDBRANCH  91  95
ENDBRANCH  65  88
ENDBRANCH  39  40
ENDBRANCH  31  34
ENDBRANCH  29  30
ENDBRANCH  28  29
ENDBRANCH   1  28
TORSDOF 17
ENDMDL
