MODEL 1
REMARK VINA RESULT:     -11.7      0.000      0.000
REMARK SMILES C[C@@H](C(=O)NCCCCNC(=O)c1ccc(-c2c3nc(c(-c4cc(S(=O)(=O)[O-])ccc4F)c4ccc([nH]4)c(-c4cc(S(=O)(=O)[O-])ccc4F)c4nc(c(-c5cc(S(=O)(=O)[O-])ccc5F)c5ccc2[nH]5)C=C4)C=C3)cc1)c1ccc(OC2CCCC2)cc1F
REMARK SMILES IDX 7 1 6 2 5 3 3 4 4 5 2 7 1 8 76 9 77 10 87 11 78 12 86 13
REMARK SMILES IDX 88 14 79 15 80 16 81 17 82 18 85 19 83 20 84 21 8 22 9 23
REMARK SMILES IDX 10 24 11 25 12 27 13 28 14 29 75 30 15 31 74 32 16 33 17 34
REMARK SMILES IDX 18 35 68 36 19 37 73 38 67 39 69 40 20 41 72 42 66 43 65 44
REMARK SMILES IDX 21 46 53 47 33 48 52 49 34 50 37 51 51 52 70 53 35 54 36 55
REMARK SMILES IDX 50 57 71 58 38 59 22 60 23 61 31 62 24 63 30 64 32 65 29 66
REMARK SMILES IDX 25 67 26 68 27 69 28 70 54 71 55 72 63 73 56 74 62 75 64 76
REMARK SMILES IDX 61 77 57 78 58 79 59 80 60 81 39 82 40 83 48 84 41 85 47 86
REMARK SMILES IDX 49 87 46 88 42 89 43 90 44 91 45 92
REMARK H PARENT 5 6 10 26 69 45 37 56
REMARK Flexibility Score: inf
ROOT
ATOM      1  C   UNL A   1      35.793  23.004  23.558  1.00  0.00     0.023 C 
ENDROOT
BRANCH   1   2
ATOM      2  C   UNL A   1      34.460  23.124  22.813  1.00  0.00     0.116 C 
BRANCH   2   3
ATOM      3  N   UNL A   1      33.364  23.102  23.760  1.00  0.00    -0.356 N 
ATOM      4  C   UNL A   1      33.037  24.033  24.705  1.00  0.00     0.227 C 
ATOM      5  O   UNL A   1      32.365  23.650  25.665  1.00  0.00    -0.274 OA
ATOM      6  H   UNL A   1      32.779  22.313  23.717  1.00  0.00     0.163 HD
BRANCH   4   7
ATOM      7  C   UNL A   1      33.492  25.496  24.526  1.00  0.00     0.108 C 
ATOM      8  C   UNL A   1      34.065  26.019  25.848  1.00  0.00     0.023 C 
BRANCH   7   9
ATOM      9  C   UNL A   1      32.370  26.371  23.968  1.00  0.00     0.000 A 
ATOM     10  C   UNL A   1      31.368  26.941  24.764  1.00  0.00     0.011 A 
ATOM     11  C   UNL A   1      32.314  26.627  22.592  1.00  0.00     0.130 A 
ATOM     12  C   UNL A   1      30.333  27.684  24.188  1.00  0.00     0.047 A 
ATOM     13  C   UNL A   1      31.262  27.332  22.011  1.00  0.00     0.086 A 
ATOM     14  F   UNL A   1      33.294  26.187  21.787  1.00  0.00    -0.207 F 
ATOM     15  C   UNL A   1      30.262  27.875  22.807  1.00  0.00     0.122 A 
BRANCH  15  16
ATOM     16  O   UNL A   1      29.183  28.602  22.406  1.00  0.00    -0.490 OA
BRANCH  16  17
ATOM     17  C   UNL A   1      29.102  30.013  22.548  1.00  0.00     0.173 C 
ATOM     18  C   UNL A   1      28.961  30.817  21.262  1.00  0.00     0.045 C 
ATOM     19  C   UNL A   1      28.038  30.524  23.513  1.00  0.00     0.045 C 
ATOM     20  C   UNL A   1      28.455  32.171  21.728  1.00  0.00     0.004 C 
ATOM     21  C   UNL A   1      27.719  31.942  23.048  1.00  0.00     0.004 C 
ENDBRANCH  16  17
ENDBRANCH  15  16
ENDBRANCH   7   9
ENDBRANCH   4   7
ENDBRANCH   2   3
ENDBRANCH   1   2
BRANCH   1  22
ATOM     22  C   UNL A   1      35.844  21.865  24.581  1.00  0.00     0.023 C 
BRANCH  22  23
ATOM     23  C   UNL A   1      36.756  22.117  25.775  1.00  0.00     0.116 C 
BRANCH  23  24
ATOM     24  N   UNL A   1      37.828  21.141  25.865  1.00  0.00    -0.352 N 
ATOM     25  C   UNL A   1      39.150  21.326  26.179  1.00  0.00     0.251 C 
ATOM     26  H   UNL A   1      37.569  20.212  25.671  1.00  0.00     0.163 HD
ATOM     27  O   UNL A   1      39.936  20.391  26.028  1.00  0.00    -0.269 OA
BRANCH  25  28
ATOM     28  C   UNL A   1      39.630  22.639  26.660  1.00  0.00     0.039 A 
ATOM     29  C   UNL A   1      40.605  22.664  27.658  1.00  0.00     0.014 A 
ATOM     30  C   UNL A   1      39.123  23.838  26.146  1.00  0.00     0.014 A 
ATOM     31  C   UNL A   1      41.108  23.887  28.101  1.00  0.00     0.010 A 
ATOM     32  C   UNL A   1      39.685  25.053  26.532  1.00  0.00     0.010 A 
ATOM     33  C   UNL A   1      40.681  25.092  27.517  1.00  0.00    -0.014 A 
BRANCH  33  34
ATOM     34  C   UNL A   1      41.289  26.383  27.934  1.00  0.00     0.031 A 
ATOM     35  C   UNL A   1      42.716  26.708  27.588  1.00  0.00     0.074 A 
ATOM     36  C   UNL A   1      40.544  27.261  28.635  1.00  0.00     0.049 A 
ATOM     37  N   UNL A   1      43.398  27.797  27.836  1.00  0.00    -0.248 NA
ATOM     38  C   UNL A   1      43.486  25.666  26.892  1.00  0.00     0.031 C 
ATOM     39  C   UNL A   1      39.167  27.029  29.082  1.00  0.00     0.029 A 
ATOM     40  N   UNL A   1      40.828  28.524  29.088  1.00  0.00    -0.354 N 
ATOM     41  C   UNL A   1      44.671  27.578  27.319  1.00  0.00     0.074 A 
ATOM     42  C   UNL A   1      44.687  26.221  26.814  1.00  0.00     0.031 C 
ATOM     43  C   UNL A   1      38.716  28.128  29.706  1.00  0.00     0.029 A 
ATOM     44  C   UNL A   1      39.779  29.125  29.746  1.00  0.00     0.049 A 
ATOM     45  H   UNL A   1      41.701  28.960  28.956  1.00  0.00     0.167 HD
ATOM     46  C   UNL A   1      45.716  28.438  27.242  1.00  0.00     0.034 A 
ATOM     47  C   UNL A   1      39.683  30.342  30.317  1.00  0.00     0.034 A 
ATOM     48  C   UNL A   1      45.686  29.786  27.758  1.00  0.00     0.049 A 
ATOM     49  C   UNL A   1      40.867  31.273  30.232  1.00  0.00     0.074 A 
ATOM     50  C   UNL A   1      46.677  30.751  27.712  1.00  0.00     0.029 A 
ATOM     51  N   UNL A   1      44.609  30.361  28.424  1.00  0.00    -0.354 N 
ATOM     52  N   UNL A   1      42.044  31.068  29.685  1.00  0.00    -0.248 NA
ATOM     53  C   UNL A   1      40.701  32.605  30.824  1.00  0.00     0.031 C 
ATOM     54  C   UNL A   1      46.228  31.880  28.406  1.00  0.00     0.029 A 
ATOM     55  C   UNL A   1      44.924  31.655  28.814  1.00  0.00     0.049 A 
ATOM     56  H   UNL A   1      43.748  29.915  28.593  1.00  0.00     0.167 HD
ATOM     57  C   UNL A   1      42.748  32.258  29.849  1.00  0.00     0.074 A 
ATOM     58  C   UNL A   1      41.848  33.182  30.508  1.00  0.00     0.031 C 
ATOM     59  C   UNL A   1      44.025  32.559  29.494  1.00  0.00     0.034 A 
BRANCH  46  60
ATOM     60  C   UNL A   1      46.982  27.938  26.584  1.00  0.00     0.023 A 
ATOM     61  C   UNL A   1      47.211  28.110  25.207  1.00  0.00     0.031 A 
ATOM     62  C   UNL A   1      47.969  27.276  27.335  1.00  0.00     0.131 A 
ATOM     63  C   UNL A   1      48.362  27.569  24.613  1.00  0.00     0.055 A 
ATOM     64  C   UNL A   1      49.150  26.812  26.752  1.00  0.00     0.041 A 
ATOM     65  F   UNL A   1      47.799  27.061  28.649  1.00  0.00    -0.206 F 
ATOM     66  C   UNL A   1      49.347  26.945  25.382  1.00  0.00     0.022 A 
BRANCH  63  67
ATOM     67  S   UNL A   1      48.489  27.578  22.804  1.00  0.00     0.124 S 
ATOM     68  O   UNL A   1      47.268  28.285  22.425  1.00  0.00    -0.237 OA
ATOM     69  O   UNL A   1      49.738  28.295  22.578  1.00  0.00    -0.237 OA
ATOM     70  O   UNL A   1      48.512  26.159  22.455  1.00  0.00    -0.744 OA
ENDBRANCH  63  67
ENDBRANCH  46  60
BRANCH  47  71
ATOM     71  C   UNL A   1      38.438  30.750  31.030  1.00  0.00     0.023 A 
ATOM     72  C   UNL A   1      37.386  31.392  30.355  1.00  0.00     0.031 A 
ATOM     73  C   UNL A   1      38.305  30.555  32.416  1.00  0.00     0.131 A 
ATOM     74  C   UNL A   1      36.280  31.870  31.075  1.00  0.00     0.055 A 
ATOM     75  C   UNL A   1      37.174  30.974  33.118  1.00  0.00     0.041 A 
ATOM     76  F   UNL A   1      39.278  29.944  33.113  1.00  0.00    -0.206 F 
ATOM     77  C   UNL A   1      36.160  31.652  32.449  1.00  0.00     0.022 A 
BRANCH  74  78
ATOM     78  S   UNL A   1      35.050  32.883  30.208  1.00  0.00     0.124 S 
ATOM     79  O   UNL A   1      34.119  33.205  31.283  1.00  0.00    -0.237 OA
ATOM     80  O   UNL A   1      35.863  33.987  29.712  1.00  0.00    -0.237 OA
ATOM     81  O   UNL A   1      34.530  31.983  29.181  1.00  0.00    -0.744 OA
ENDBRANCH  74  78
ENDBRANCH  47  71
BRANCH  59  82
ATOM     82  C   UNL A   1      44.499  33.962  29.798  1.00  0.00     0.023 A 
ATOM     83  C   UNL A   1      44.392  34.997  28.852  1.00  0.00     0.031 A 
ATOM     84  C   UNL A   1      45.115  34.255  31.028  1.00  0.00     0.131 A 
ATOM     85  C   UNL A   1      44.973  36.245  29.113  1.00  0.00     0.055 A 
ATOM     86  C   UNL A   1      45.620  35.524  31.313  1.00  0.00     0.041 A 
ATOM     87  F   UNL A   1      45.247  33.308  31.971  1.00  0.00    -0.206 F 
ATOM     88  C   UNL A   1      45.570  36.523  30.344  1.00  0.00     0.022 A 
BRANCH  85  89
ATOM     89  S   UNL A   1      45.066  37.456  27.764  1.00  0.00     0.124 S 
ATOM     90  O   UNL A   1      43.817  38.193  27.933  1.00  0.00    -0.237 OA
ATOM     91  O   UNL A   1      46.286  38.189  28.088  1.00  0.00    -0.237 OA
ATOM     92  O   UNL A   1      45.140  36.627  26.564  1.00  0.00    -0.744 OA
ENDBRANCH  85  89
ENDBRANCH  59  82
ENDBRANCH  33  34
ENDBRANCH  25  28
ENDBRANCH  23  24
ENDBRANCH  22  23
ENDBRANCH   1  22
TORSDOF 17
ENDMDL
MODEL 2
REMARK VINA RESULT:     -11.6      5.048     10.195
REMARK SMILES C[C@@H](C(=O)NCCCCNC(=O)c1ccc(-c2c3nc(c(-c4cc(S(=O)(=O)[O-])ccc4F)c4ccc([nH]4)c(-c4cc(S(=O)(=O)[O-])ccc4F)c4nc(c(-c5cc(S(=O)(=O)[O-])ccc5F)c5ccc2[nH]5)C=C4)C=C3)cc1)c1ccc(OC2CCCC2)cc1F
REMARK SMILES IDX 7 1 6 2 5 3 3 4 4 5 2 7 1 8 76 9 77 10 87 11 78 12 86 13
REMARK SMILES IDX 88 14 79 15 80 16 81 17 82 18 85 19 83 20 84 21 8 22 9 23
REMARK SMILES IDX 10 24 11 25 12 27 13 28 14 29 75 30 15 31 74 32 16 33 17 34
REMARK SMILES IDX 18 35 68 36 19 37 73 38 67 39 69 40 20 41 72 42 66 43 65 44
REMARK SMILES IDX 21 46 53 47 33 48 52 49 34 50 37 51 51 52 70 53 35 54 36 55
REMARK SMILES IDX 50 57 71 58 38 59 22 60 23 61 31 62 24 63 30 64 32 65 29 66
REMARK SMILES IDX 25 67 26 68 27 69 28 70 54 71 55 72 63 73 56 74 62 75 64 76
REMARK SMILES IDX 61 77 57 78 58 79 59 80 60 81 39 82 40 83 48 84 41 85 47 86
REMARK SMILES IDX 49 87 46 88 42 89 43 90 44 91 45 92
REMARK H PARENT 5 6 10 26 69 45 37 56
REMARK Flexibility Score: inf
ROOT
ATOM      1  C   UNL A   1      31.685  27.482  26.391  1.00  0.00     0.023 C 
ENDROOT
BRANCH   1   2
ATOM      2  C   UNL A   1      31.033  26.112  26.184  1.00  0.00     0.116 C 
BRANCH   2   3
ATOM      3  N   UNL A   1      30.688  25.938  24.789  1.00  0.00    -0.356 N 
ATOM      4  C   UNL A   1      31.514  25.673  23.734  1.00  0.00     0.227 C 
ATOM      5  O   UNL A   1      31.112  25.981  22.610  1.00  0.00    -0.274 OA
ATOM      6  H   UNL A   1      29.732  26.022  24.572  1.00  0.00     0.163 HD
BRANCH   4   7
ATOM      7  C   UNL A   1      32.877  24.995  23.983  1.00  0.00     0.108 C 
ATOM      8  C   UNL A   1      33.825  25.307  22.820  1.00  0.00     0.023 C 
BRANCH   7   9
ATOM      9  C   UNL A   1      32.721  23.497  24.248  1.00  0.00     0.000 A 
ATOM     10  C   UNL A   1      32.340  22.575  23.264  1.00  0.00     0.011 A 
ATOM     11  C   UNL A   1      32.959  22.996  25.534  1.00  0.00     0.130 A 
ATOM     12  C   UNL A   1      32.157  21.226  23.581  1.00  0.00     0.047 A 
ATOM     13  C   UNL A   1      32.737  21.659  25.861  1.00  0.00     0.086 A 
ATOM     14  F   UNL A   1      33.415  23.810  26.498  1.00  0.00    -0.207 F 
ATOM     15  C   UNL A   1      32.339  20.758  24.884  1.00  0.00     0.122 A 
BRANCH  15  16
ATOM     16  O   UNL A   1      32.099  19.426  25.029  1.00  0.00    -0.490 OA
BRANCH  16  17
ATOM     17  C   UNL A   1      33.104  18.435  24.866  1.00  0.00     0.173 C 
ATOM     18  C   UNL A   1      32.938  17.160  25.684  1.00  0.00     0.045 C 
ATOM     19  C   UNL A   1      33.391  18.009  23.430  1.00  0.00     0.045 C 
ATOM     20  C   UNL A   1      33.846  16.158  24.992  1.00  0.00     0.004 C 
ATOM     21  C   UNL A   1      33.971  16.602  23.534  1.00  0.00     0.004 C 
ENDBRANCH  16  17
ENDBRANCH  15  16
ENDBRANCH   7   9
ENDBRANCH   4   7
ENDBRANCH   2   3
ENDBRANCH   1   2
BRANCH   1  22
ATOM     22  C   UNL A   1      33.184  27.427  26.699  1.00  0.00     0.023 C 
BRANCH  22  23
ATOM     23  C   UNL A   1      34.022  28.489  25.997  1.00  0.00     0.116 C 
BRANCH  23  24
ATOM     24  N   UNL A   1      33.682  29.834  26.427  1.00  0.00    -0.352 N 
ATOM     25  C   UNL A   1      34.311  30.641  27.339  1.00  0.00     0.251 C 
ATOM     26  H   UNL A   1      32.883  30.221  26.003  1.00  0.00     0.163 HD
ATOM     27  O   UNL A   1      33.761  31.684  27.693  1.00  0.00    -0.269 OA
BRANCH  25  28
ATOM     28  C   UNL A   1      35.616  30.250  27.913  1.00  0.00     0.039 A 
ATOM     29  C   UNL A   1      35.630  29.601  29.149  1.00  0.00     0.014 A 
ATOM     30  C   UNL A   1      36.819  30.522  27.252  1.00  0.00     0.014 A 
ATOM     31  C   UNL A   1      36.843  29.182  29.695  1.00  0.00     0.010 A 
ATOM     32  C   UNL A   1      38.020  30.031  27.761  1.00  0.00     0.010 A 
ATOM     33  C   UNL A   1      38.046  29.358  28.990  1.00  0.00    -0.014 A 
BRANCH  33  34
ATOM     34  C   UNL A   1      39.320  28.827  29.540  1.00  0.00     0.031 A 
ATOM     35  C   UNL A   1      39.927  29.417  30.784  1.00  0.00     0.074 A 
ATOM     36  C   UNL A   1      39.933  27.809  28.903  1.00  0.00     0.049 A 
ATOM     37  N   UNL A   1      41.011  29.058  31.424  1.00  0.00    -0.248 NA
ATOM     38  C   UNL A   1      39.241  30.578  31.372  1.00  0.00     0.031 C 
ATOM     39  C   UNL A   1      39.471  27.196  27.655  1.00  0.00     0.029 A 
ATOM     40  N   UNL A   1      41.066  27.101  29.217  1.00  0.00    -0.354 N 
ATOM     41  C   UNL A   1      41.131  29.937  32.495  1.00  0.00     0.074 A 
ATOM     42  C   UNL A   1      40.053  30.895  32.371  1.00  0.00     0.031 C 
ATOM     43  C   UNL A   1      40.287  26.181  27.333  1.00  0.00     0.029 A 
ATOM     44  C   UNL A   1      41.355  26.095  28.323  1.00  0.00     0.049 A 
ATOM     45  H   UNL A   1      41.620  27.295  30.007  1.00  0.00     0.167 HD
ATOM     46  C   UNL A   1      42.035  29.924  33.506  1.00  0.00     0.034 A 
ATOM     47  C   UNL A   1      42.366  25.204  28.301  1.00  0.00     0.034 A 
ATOM     48  C   UNL A   1      43.109  28.966  33.611  1.00  0.00     0.049 A 
ATOM     49  C   UNL A   1      43.368  25.225  29.429  1.00  0.00     0.074 A 
ATOM     50  C   UNL A   1      44.066  28.846  34.604  1.00  0.00     0.029 A 
ATOM     51  N   UNL A   1      43.377  27.964  32.685  1.00  0.00    -0.354 N 
ATOM     52  N   UNL A   1      43.430  26.027  30.467  1.00  0.00    -0.248 NA
ATOM     53  C   UNL A   1      44.422  24.205  29.391  1.00  0.00     0.031 C 
ATOM     54  C   UNL A   1      44.948  27.821  34.247  1.00  0.00     0.029 A 
ATOM     55  C   UNL A   1      44.497  27.242  33.072  1.00  0.00     0.049 A 
ATOM     56  H   UNL A   1      42.848  27.792  31.873  1.00  0.00     0.167 HD
ATOM     57  C   UNL A   1      44.519  25.591  31.217  1.00  0.00     0.074 A 
ATOM     58  C   UNL A   1      45.055  24.434  30.530  1.00  0.00     0.031 C 
ATOM     59  C   UNL A   1      45.036  26.103  32.364  1.00  0.00     0.034 A 
BRANCH  46  60
ATOM     60  C   UNL A   1      41.902  30.990  34.571  1.00  0.00     0.023 A 
ATOM     61  C   UNL A   1      42.578  32.219  34.468  1.00  0.00     0.031 A 
ATOM     62  C   UNL A   1      41.100  30.776  35.705  1.00  0.00     0.131 A 
ATOM     63  C   UNL A   1      42.494  33.157  35.507  1.00  0.00     0.055 A 
ATOM     64  C   UNL A   1      40.955  31.748  36.698  1.00  0.00     0.041 A 
ATOM     65  F   UNL A   1      40.449  29.615  35.873  1.00  0.00    -0.206 F 
ATOM     66  C   UNL A   1      41.664  32.941  36.610  1.00  0.00     0.022 A 
BRANCH  63  67
ATOM     67  S   UNL A   1      43.586  34.605  35.460  1.00  0.00     0.124 S 
ATOM     68  O   UNL A   1      42.699  35.626  34.908  1.00  0.00    -0.237 OA
ATOM     69  O   UNL A   1      43.954  34.769  36.861  1.00  0.00    -0.237 OA
ATOM     70  O   UNL A   1      44.671  34.187  34.574  1.00  0.00    -0.744 OA
ENDBRANCH  63  67
ENDBRANCH  46  60
BRANCH  47  71
ATOM     71  C   UNL A   1      42.497  24.232  27.178  1.00  0.00     0.023 A 
ATOM     72  C   UNL A   1      41.859  22.981  27.216  1.00  0.00     0.031 A 
ATOM     73  C   UNL A   1      43.315  24.517  26.070  1.00  0.00     0.131 A 
ATOM     74  C   UNL A   1      42.098  22.041  26.201  1.00  0.00     0.055 A 
ATOM     75  C   UNL A   1      43.497  23.605  25.030  1.00  0.00     0.041 A 
ATOM     76  F   UNL A   1      43.947  25.699  25.979  1.00  0.00    -0.206 F 
ATOM     77  C   UNL A   1      42.900  22.351  25.100  1.00  0.00     0.022 A 
BRANCH  74  78
ATOM     78  S   UNL A   1      41.433  20.364  26.394  1.00  0.00     0.124 S 
ATOM     79  O   UNL A   1      41.788  20.061  27.775  1.00  0.00    -0.237 OA
ATOM     80  O   UNL A   1      40.014  20.570  26.126  1.00  0.00    -0.237 OA
ATOM     81  O   UNL A   1      42.152  19.594  25.381  1.00  0.00    -0.744 OA
ENDBRANCH  74  78
ENDBRANCH  47  71
BRANCH  59  82
ATOM     82  C   UNL A   1      46.230  25.384  32.949  1.00  0.00     0.023 A 
ATOM     83  C   UNL A   1      46.077  24.330  33.867  1.00  0.00     0.031 A 
ATOM     84  C   UNL A   1      47.536  25.793  32.627  1.00  0.00     0.131 A 
ATOM     85  C   UNL A   1      47.204  23.785  34.499  1.00  0.00     0.055 A 
ATOM     86  C   UNL A   1      48.658  25.191  33.200  1.00  0.00     0.041 A 
ATOM     87  F   UNL A   1      47.746  26.795  31.757  1.00  0.00    -0.206 F 
ATOM     88  C   UNL A   1      48.495  24.194  34.159  1.00  0.00     0.022 A 
BRANCH  85  89
ATOM     89  S   UNL A   1      46.950  22.634  35.880  1.00  0.00     0.124 S 
ATOM     90  O   UNL A   1      47.741  23.255  36.939  1.00  0.00    -0.237 OA
ATOM     91  O   UNL A   1      45.503  22.677  36.059  1.00  0.00    -0.237 OA
ATOM     92  O   UNL A   1      47.477  21.370  35.373  1.00  0.00    -0.744 OA
ENDBRANCH  85  89
ENDBRANCH  59  82
ENDBRANCH  33  34
ENDBRANCH  25  28
ENDBRANCH  23  24
ENDBRANCH  22  23
ENDBRANCH   1  22
TORSDOF 17
ENDMDL
MODEL 3
REMARK VINA RESULT:     -11.6      5.091     10.507
REMARK SMILES C[C@@H](C(=O)NCCCCNC(=O)c1ccc(-c2c3nc(c(-c4cc(S(=O)(=O)[O-])ccc4F)c4ccc([nH]4)c(-c4cc(S(=O)(=O)[O-])ccc4F)c4nc(c(-c5cc(S(=O)(=O)[O-])ccc5F)c5ccc2[nH]5)C=C4)C=C3)cc1)c1ccc(OC2CCCC2)cc1F
REMARK SMILES IDX 7 1 6 2 5 3 3 4 4 5 2 7 1 8 76 9 77 10 87 11 78 12 86 13
REMARK SMILES IDX 88 14 79 15 80 16 81 17 82 18 85 19 83 20 84 21 8 22 9 23
REMARK SMILES IDX 10 24 11 25 12 27 13 28 14 29 75 30 15 31 74 32 16 33 17 34
REMARK SMILES IDX 18 35 68 36 19 37 73 38 67 39 69 40 20 41 72 42 66 43 65 44
REMARK SMILES IDX 21 46 53 47 33 48 52 49 34 50 37 51 51 52 70 53 35 54 36 55
REMARK SMILES IDX 50 57 71 58 38 59 22 60 23 61 31 62 24 63 30 64 32 65 29 66
REMARK SMILES IDX 25 67 26 68 27 69 28 70 54 71 55 72 63 73 56 74 62 75 64 76
REMARK SMILES IDX 61 77 57 78 58 79 59 80 60 81 39 82 40 83 48 84 41 85 47 86
REMARK SMILES IDX 49 87 46 88 42 89 43 90 44 91 45 92
REMARK H PARENT 5 6 10 26 69 45 37 56
REMARK Flexibility Score: inf
ROOT
ATOM      1  C   UNL A   1      33.446  27.959  24.742  1.00  0.00     0.023 C 
ENDROOT
BRANCH   1   2
ATOM      2  C   UNL A   1      32.916  26.826  25.626  1.00  0.00     0.116 C 
BRANCH   2   3
ATOM      3  N   UNL A   1      31.804  26.171  24.970  1.00  0.00    -0.356 N 
ATOM      4  C   UNL A   1      31.755  25.621  23.721  1.00  0.00     0.227 C 
ATOM      5  O   UNL A   1      30.646  25.507  23.197  1.00  0.00    -0.274 OA
ATOM      6  H   UNL A   1      30.973  26.115  25.494  1.00  0.00     0.163 HD
BRANCH   4   7
ATOM      7  C   UNL A   1      33.060  25.157  23.040  1.00  0.00     0.108 C 
ATOM      8  C   UNL A   1      32.906  25.253  21.518  1.00  0.00     0.023 C 
BRANCH   7   9
ATOM      9  C   UNL A   1      33.479  23.766  23.516  1.00  0.00     0.000 A 
ATOM     10  C   UNL A   1      32.807  22.591  23.152  1.00  0.00     0.011 A 
ATOM     11  C   UNL A   1      34.585  23.631  24.365  1.00  0.00     0.130 A 
ATOM     12  C   UNL A   1      33.202  21.353  23.668  1.00  0.00     0.047 A 
ATOM     13  C   UNL A   1      34.954  22.404  24.911  1.00  0.00     0.086 A 
ATOM     14  F   UNL A   1      35.326  24.705  24.677  1.00  0.00    -0.207 F 
ATOM     15  C   UNL A   1      34.269  21.249  24.562  1.00  0.00     0.122 A 
BRANCH  15  16
ATOM     16  O   UNL A   1      34.510  19.978  24.986  1.00  0.00    -0.490 OA
BRANCH  16  17
ATOM     17  C   UNL A   1      33.696  18.872  24.622  1.00  0.00     0.173 C 
ATOM     18  C   UNL A   1      34.387  17.736  23.879  1.00  0.00     0.045 C 
ATOM     19  C   UNL A   1      32.890  18.240  25.752  1.00  0.00     0.045 C 
ATOM     20  C   UNL A   1      33.434  16.562  24.032  1.00  0.00     0.004 C 
ATOM     21  C   UNL A   1      32.632  16.803  25.310  1.00  0.00     0.004 C 
ENDBRANCH  16  17
ENDBRANCH  15  16
ENDBRANCH   7   9
ENDBRANCH   4   7
ENDBRANCH   2   3
ENDBRANCH   1   2
BRANCH   1  22
ATOM     22  C   UNL A   1      32.717  29.294  24.922  1.00  0.00     0.023 C 
BRANCH  22  23
ATOM     23  C   UNL A   1      32.457  29.692  26.369  1.00  0.00     0.116 C 
BRANCH  23  24
ATOM     24  N   UNL A   1      32.350  31.131  26.535  1.00  0.00    -0.352 N 
ATOM     25  C   UNL A   1      33.145  31.987  27.252  1.00  0.00     0.251 C 
ATOM     26  H   UNL A   1      31.596  31.553  26.064  1.00  0.00     0.163 HD
ATOM     27  O   UNL A   1      32.781  33.152  27.408  1.00  0.00    -0.269 OA
BRANCH  25  28
ATOM     28  C   UNL A   1      34.407  31.509  27.857  1.00  0.00     0.039 A 
ATOM     29  C   UNL A   1      35.403  32.444  28.140  1.00  0.00     0.014 A 
ATOM     30  C   UNL A   1      34.617  30.155  28.138  1.00  0.00     0.014 A 
ATOM     31  C   UNL A   1      36.586  32.029  28.751  1.00  0.00     0.010 A 
ATOM     32  C   UNL A   1      35.764  29.755  28.821  1.00  0.00     0.010 A 
ATOM     33  C   UNL A   1      36.764  30.688  29.131  1.00  0.00    -0.014 A 
BRANCH  33  34
ATOM     34  C   UNL A   1      37.990  30.273  29.863  1.00  0.00     0.031 A 
ATOM     35  C   UNL A   1      38.249  30.754  31.264  1.00  0.00     0.074 A 
ATOM     36  C   UNL A   1      38.876  29.463  29.248  1.00  0.00     0.049 A 
ATOM     37  N   UNL A   1      39.244  30.466  32.065  1.00  0.00    -0.248 NA
ATOM     38  C   UNL A   1      37.278  31.700  31.834  1.00  0.00     0.031 C 
ATOM     39  C   UNL A   1      38.761  28.982  27.869  1.00  0.00     0.029 A 
ATOM     40  N   UNL A   1      40.037  28.890  29.701  1.00  0.00    -0.354 N 
ATOM     41  C   UNL A   1      39.014  31.184  33.234  1.00  0.00     0.074 A 
ATOM     42  C   UNL A   1      37.827  31.981  33.007  1.00  0.00     0.031 C 
ATOM     43  C   UNL A   1      39.785  28.157  27.603  1.00  0.00     0.029 A 
ATOM     44  C   UNL A   1      40.654  28.083  28.773  1.00  0.00     0.049 A 
ATOM     45  H   UNL A   1      40.397  29.044  30.604  1.00  0.00     0.167 HD
ATOM     46  C   UNL A   1      39.707  31.154  34.399  1.00  0.00     0.034 A 
ATOM     47  C   UNL A   1      41.791  27.363  28.853  1.00  0.00     0.034 A 
ATOM     48  C   UNL A   1      40.894  30.359  34.607  1.00  0.00     0.049 A 
ATOM     49  C   UNL A   1      42.552  27.362  30.155  1.00  0.00     0.074 A 
ATOM     50  C   UNL A   1      41.660  30.234  35.753  1.00  0.00     0.029 A 
ATOM     51  N   UNL A   1      41.494  29.557  33.643  1.00  0.00    -0.354 N 
ATOM     52  N   UNL A   1      42.284  28.001  31.271  1.00  0.00    -0.248 NA
ATOM     53  C   UNL A   1      43.756  26.526  30.212  1.00  0.00     0.031 C 
ATOM     54  C   UNL A   1      42.757  29.414  35.464  1.00  0.00     0.029 A 
ATOM     55  C   UNL A   1      42.633  28.957  34.163  1.00  0.00     0.049 A 
ATOM     56  H   UNL A   1      41.161  29.431  32.727  1.00  0.00     0.167 HD
ATOM     57  C   UNL A   1      43.278  27.623  32.170  1.00  0.00     0.074 A 
ATOM     58  C   UNL A   1      44.122  26.672  31.475  1.00  0.00     0.031 C 
ATOM     59  C   UNL A   1      43.481  28.029  33.450  1.00  0.00     0.034 A 
BRANCH  46  60
ATOM     60  C   UNL A   1      39.201  32.017  35.533  1.00  0.00     0.023 A 
ATOM     61  C   UNL A   1      39.623  33.350  35.685  1.00  0.00     0.031 A 
ATOM     62  C   UNL A   1      38.293  31.505  36.476  1.00  0.00     0.131 A 
ATOM     63  C   UNL A   1      39.192  34.102  36.788  1.00  0.00     0.055 A 
ATOM     64  C   UNL A   1      37.805  32.285  37.527  1.00  0.00     0.041 A 
ATOM     65  F   UNL A   1      37.871  30.233  36.399  1.00  0.00    -0.206 F 
ATOM     66  C   UNL A   1      38.264  33.587  37.696  1.00  0.00     0.022 A 
BRANCH  63  67
ATOM     67  S   UNL A   1      39.964  35.715  37.093  1.00  0.00     0.124 S 
ATOM     68  O   UNL A   1      41.366  35.343  37.268  1.00  0.00    -0.237 OA
ATOM     69  O   UNL A   1      39.647  36.453  35.876  1.00  0.00    -0.237 OA
ATOM     70  O   UNL A   1      39.298  36.191  38.303  1.00  0.00    -0.744 OA
ENDBRANCH  63  67
ENDBRANCH  46  60
BRANCH  47  71
ATOM     71  C   UNL A   1      42.290  26.599  27.673  1.00  0.00     0.023 A 
ATOM     72  C   UNL A   1      41.950  25.251  27.478  1.00  0.00     0.031 A 
ATOM     73  C   UNL A   1      43.168  27.194  26.749  1.00  0.00     0.131 A 
ATOM     74  C   UNL A   1      42.531  24.526  26.425  1.00  0.00     0.055 A 
ATOM     75  C   UNL A   1      43.692  26.488  25.665  1.00  0.00     0.041 A 
ATOM     76  F   UNL A   1      43.526  28.482  26.883  1.00  0.00    -0.206 F 
ATOM     77  C   UNL A   1      43.387  25.139  25.509  1.00  0.00     0.022 A 
BRANCH  74  78
ATOM     78  S   UNL A   1      42.239  22.737  26.335  1.00  0.00     0.124 S 
ATOM     79  O   UNL A   1      40.792  22.663  26.503  1.00  0.00    -0.237 OA
ATOM     80  O   UNL A   1      42.748  22.415  25.006  1.00  0.00    -0.237 OA
ATOM     81  O   UNL A   1      43.025  22.208  27.447  1.00  0.00    -0.744 OA
ENDBRANCH  74  78
ENDBRANCH  47  71
BRANCH  59  82
ATOM     82  C   UNL A   1      44.655  27.414  34.177  1.00  0.00     0.023 A 
ATOM     83  C   UNL A   1      44.537  26.195  34.869  1.00  0.00     0.031 A 
ATOM     84  C   UNL A   1      45.892  28.081  34.226  1.00  0.00     0.131 A 
ATOM     85  C   UNL A   1      45.602  25.729  35.652  1.00  0.00     0.055 A 
ATOM     86  C   UNL A   1      46.976  27.569  34.942  1.00  0.00     0.041 A 
ATOM     87  F   UNL A   1      46.067  29.249  33.586  1.00  0.00    -0.206 F 
ATOM     88  C   UNL A   1      46.828  26.397  35.679  1.00  0.00     0.022 A 
BRANCH  85  89
ATOM     89  S   UNL A   1      45.315  24.313  36.751  1.00  0.00     0.124 S 
ATOM     90  O   UNL A   1      44.612  23.385  35.870  1.00  0.00    -0.237 OA
ATOM     91  O   UNL A   1      46.672  23.930  37.126  1.00  0.00    -0.237 OA
ATOM     92  O   UNL A   1      44.508  24.876  37.830  1.00  0.00    -0.744 OA
ENDBRANCH  85  89
ENDBRANCH  59  82
ENDBRANCH  33  34
ENDBRANCH  25  28
ENDBRANCH  23  24
ENDBRANCH  22  23
ENDBRANCH   1  22
TORSDOF 17
ENDMDL
