MODEL 1
REMARK VINA RESULT:     -11.8      0.000      0.000
REMARK SMILES Cc1ccc(C(N)=O)c(NCc2ccc(C(=O)NCCCCNC(=O)c3ccc(-c4c5nc(c(-c6cc(S(=O)(=O)[O-])ccc6F)c6ccc([nH]6)c(-c6cc(S(=O)(=O)[O-])ccc6F)c6nc(c(-c7cc(S(=O)(=O)[O-])ccc7F)c7ccc4[nH]7)C=C6)C=C5)cc3)o2)n1
REMARK SMILES IDX 20 1 19 2 18 3 16 4 17 5 15 7 12 8 13 9 89 10 14 11 11 12
REMARK SMILES IDX 10 13 9 15 1 16 2 17 3 18 90 19 4 20 5 21 6 22 7 23 8 24
REMARK SMILES IDX 21 27 22 28 23 29 24 30 25 32 26 33 27 34 88 35 28 36 87 37
REMARK SMILES IDX 29 38 30 39 31 40 81 41 32 42 86 43 80 44 82 45 33 46 85 47
REMARK SMILES IDX 79 48 78 49 34 51 66 52 46 53 65 54 47 55 50 56 64 57 83 58
REMARK SMILES IDX 48 59 49 60 63 62 84 63 51 64 35 65 36 66 44 67 37 68 43 69
REMARK SMILES IDX 45 70 42 71 38 72 39 73 40 74 41 75 67 76 68 77 76 78 69 79
REMARK SMILES IDX 75 80 77 81 74 82 70 83 71 84 72 85 73 86 52 87 53 88 61 89
REMARK SMILES IDX 54 90 60 91 62 92 59 93 55 94 56 95 57 96 58 97
REMARK H PARENT 18 6 10 14 7 25 7 26 23 31 82 50 50 61
REMARK Flexibility Score: inf
ROOT
ATOM      1  C   UNL A   1      34.092  21.059  25.419  1.00  0.00     0.023 C 
ENDROOT
BRANCH   1   2
ATOM      2  C   UNL A   1      32.981  21.882  24.767  1.00  0.00     0.116 C 
BRANCH   2   3
ATOM      3  N   UNL A   1      33.290  22.185  23.386  1.00  0.00    -0.349 N 
ATOM      4  C   UNL A   1      33.618  23.374  22.776  1.00  0.00     0.286 C 
ATOM      5  O   UNL A   1      33.915  23.301  21.581  1.00  0.00    -0.266 OA
ATOM      6  H   UNL A   1      33.259  21.409  22.780  1.00  0.00     0.163 HD
BRANCH   4   7
ATOM      7  C   UNL A   1      33.626  24.630  23.510  1.00  0.00     0.191 A 
ATOM      8  C   UNL A   1      33.103  26.774  23.728  1.00  0.00     0.124 A 
ATOM      9  C   UNL A   1      33.820  26.435  24.852  1.00  0.00     0.048 A 
ATOM     10  O   UNL A   1      32.984  25.691  22.914  1.00  0.00    -0.454 OA
ATOM     11  C   UNL A   1      34.116  25.055  24.734  1.00  0.00     0.056 A 
BRANCH   8  12
ATOM     12  C   UNL A   1      32.439  28.030  23.271  1.00  0.00     0.190 C 
BRANCH  12  13
ATOM     13  N   UNL A   1      31.387  27.796  22.290  1.00  0.00    -0.362 N 
ATOM     14  H   UNL A   1      31.602  27.333  21.448  1.00  0.00     0.162 HD
BRANCH  13  15
ATOM     15  C   UNL A   1      30.089  28.217  22.529  1.00  0.00     0.139 A 
ATOM     16  C   UNL A   1      28.136  31.212  21.632  1.00  0.00     0.067 C 
ATOM     17  C   UNL A   1      28.459  29.868  22.213  1.00  0.00     0.040 A 
ATOM     18  C   UNL A   1      27.501  29.131  22.889  1.00  0.00     0.024 A 
ATOM     19  N   UNL A   1      29.731  29.431  22.048  1.00  0.00    -0.236 NA
ATOM     20  C   UNL A   1      27.867  27.896  23.410  1.00  0.00     0.019 A 
ATOM     21  C   UNL A   1      29.177  27.429  23.243  1.00  0.00     0.081 A 
BRANCH  21  22
ATOM     22  C   UNL A   1      29.512  26.126  23.880  1.00  0.00     0.252 C 
ATOM     23  N   UNL A   1      29.212  25.965  25.203  1.00  0.00    -0.365 N 
ATOM     24  O   UNL A   1      30.001  25.206  23.235  1.00  0.00    -0.269 OA
ATOM     25  H   UNL A   1      28.819  26.710  25.713  1.00  0.00     0.159 HD
ATOM     26  H   UNL A   1      29.388  25.104  25.646  1.00  0.00     0.159 HD
ENDBRANCH  21  22
ENDBRANCH  13  15
ENDBRANCH  12  13
ENDBRANCH   8  12
ENDBRANCH   4   7
ENDBRANCH   2   3
ENDBRANCH   1   2
BRANCH   1  27
ATOM     27  C   UNL A   1      35.074  21.888  26.256  1.00  0.00     0.023 C 
BRANCH  27  28
ATOM     28  C   UNL A   1      36.397  22.215  25.566  1.00  0.00     0.116 C 
BRANCH  28  29
ATOM     29  N   UNL A   1      37.308  21.084  25.498  1.00  0.00    -0.352 N 
ATOM     30  C   UNL A   1      38.644  21.042  25.833  1.00  0.00     0.251 C 
ATOM     31  H   UNL A   1      36.921  20.239  25.172  1.00  0.00     0.163 HD
ATOM     32  O   UNL A   1      39.301  20.035  25.615  1.00  0.00    -0.269 OA
BRANCH  30  33
ATOM     33  C   UNL A   1      39.273  22.249  26.413  1.00  0.00     0.039 A 
ATOM     34  C   UNL A   1      40.330  22.094  27.313  1.00  0.00     0.014 A 
ATOM     35  C   UNL A   1      38.850  23.524  26.030  1.00  0.00     0.014 A 
ATOM     36  C   UNL A   1      41.016  23.220  27.772  1.00  0.00     0.010 A 
ATOM     37  C   UNL A   1      39.573  24.639  26.439  1.00  0.00     0.010 A 
ATOM     38  C   UNL A   1      40.668  24.498  27.308  1.00  0.00    -0.014 A 
BRANCH  38  39
ATOM     39  C   UNL A   1      41.427  25.711  27.715  1.00  0.00     0.031 A 
ATOM     40  C   UNL A   1      40.727  26.809  28.465  1.00  0.00     0.074 A 
ATOM     41  C   UNL A   1      42.710  25.859  27.331  1.00  0.00     0.049 A 
ATOM     42  N   UNL A   1      41.157  28.003  28.779  1.00  0.00    -0.248 NA
ATOM     43  C   UNL A   1      39.345  26.536  28.886  1.00  0.00     0.031 C 
ATOM     44  C   UNL A   1      43.486  24.874  26.575  1.00  0.00     0.029 A 
ATOM     45  N   UNL A   1      43.582  26.904  27.505  1.00  0.00    -0.354 N 
ATOM     46  C   UNL A   1      40.093  28.633  29.416  1.00  0.00     0.074 A 
ATOM     47  C   UNL A   1      38.983  27.704  29.391  1.00  0.00     0.031 C 
ATOM     48  C   UNL A   1      44.721  25.357  26.361  1.00  0.00     0.029 A 
ATOM     49  C   UNL A   1      44.812  26.703  26.919  1.00  0.00     0.049 A 
ATOM     50  H   UNL A   1      43.351  27.721  28.003  1.00  0.00     0.167 HD
ATOM     51  C   UNL A   1      40.053  29.864  29.985  1.00  0.00     0.034 A 
ATOM     52  C   UNL A   1      45.880  27.519  26.823  1.00  0.00     0.034 A 
ATOM     53  C   UNL A   1      41.177  30.769  30.013  1.00  0.00     0.049 A 
ATOM     54  C   UNL A   1      45.808  28.891  27.445  1.00  0.00     0.074 A 
ATOM     55  C   UNL A   1      41.261  32.021  30.598  1.00  0.00     0.029 A 
ATOM     56  N   UNL A   1      42.413  30.521  29.429  1.00  0.00    -0.354 N 
ATOM     57  N   UNL A   1      44.803  29.462  28.070  1.00  0.00    -0.248 NA
ATOM     58  C   UNL A   1      47.014  29.725  27.358  1.00  0.00     0.031 C 
ATOM     59  C   UNL A   1      42.525  32.552  30.317  1.00  0.00     0.029 A 
ATOM     60  C   UNL A   1      43.256  31.603  29.621  1.00  0.00     0.049 A 
ATOM     61  H   UNL A   1      42.654  29.696  28.948  1.00  0.00     0.167 HD
ATOM     62  C   UNL A   1      45.273  30.706  28.484  1.00  0.00     0.074 A 
ATOM     63  C   UNL A   1      46.650  30.799  28.041  1.00  0.00     0.031 C 
ATOM     64  C   UNL A   1      44.628  31.678  29.178  1.00  0.00     0.034 A 
BRANCH  51  65
ATOM     65  C   UNL A   1      38.744  30.303  30.593  1.00  0.00     0.023 A 
ATOM     66  C   UNL A   1      37.839  31.117  29.889  1.00  0.00     0.031 A 
ATOM     67  C   UNL A   1      38.408  29.933  31.908  1.00  0.00     0.131 A 
ATOM     68  C   UNL A   1      36.687  31.601  30.527  1.00  0.00     0.055 A 
ATOM     69  C   UNL A   1      37.216  30.347  32.508  1.00  0.00     0.041 A 
ATOM     70  F   UNL A   1      39.239  29.174  32.638  1.00  0.00    -0.206 F 
ATOM     71  C   UNL A   1      36.357  31.201  31.823  1.00  0.00     0.022 A 
BRANCH  68  72
ATOM     72  S   UNL A   1      35.709  32.880  29.691  1.00  0.00     0.124 S 
ATOM     73  O   UNL A   1      35.853  34.007  30.611  1.00  0.00    -0.237 OA
ATOM     74  O   UNL A   1      36.391  33.011  28.409  1.00  0.00    -0.237 OA
ATOM     75  O   UNL A   1      34.369  32.301  29.631  1.00  0.00    -0.744 OA
ENDBRANCH  68  72
ENDBRANCH  51  65
BRANCH  52  76
ATOM     76  C   UNL A   1      47.108  27.075  26.104  1.00  0.00     0.023 A 
ATOM     77  C   UNL A   1      48.156  26.440  26.789  1.00  0.00     0.031 A 
ATOM     78  C   UNL A   1      47.271  27.317  24.728  1.00  0.00     0.131 A 
ATOM     79  C   UNL A   1      49.339  26.113  26.109  1.00  0.00     0.055 A 
ATOM     80  C   UNL A   1      48.430  26.942  24.045  1.00  0.00     0.041 A 
ATOM     81  F   UNL A   1      46.297  27.914  24.024  1.00  0.00    -0.206 F 
ATOM     82  C   UNL A   1      49.479  26.347  24.740  1.00  0.00     0.022 A 
BRANCH  79  83
ATOM     83  S   UNL A   1      50.732  25.448  27.064  1.00  0.00     0.124 S 
ATOM     84  O   UNL A   1      50.135  24.268  27.678  1.00  0.00    -0.237 OA
ATOM     85  O   UNL A   1      51.722  25.200  26.021  1.00  0.00    -0.237 OA
ATOM     86  O   UNL A   1      51.060  26.534  27.986  1.00  0.00    -0.744 OA
ENDBRANCH  79  83
ENDBRANCH  52  76
BRANCH  64  87
ATOM     87  C   UNL A   1      45.430  32.898  29.559  1.00  0.00     0.023 A 
ATOM     88  C   UNL A   1      45.523  34.021  28.721  1.00  0.00     0.031 A 
ATOM     89  C   UNL A   1      46.107  32.931  30.792  1.00  0.00     0.131 A 
ATOM     90  C   UNL A   1      46.314  35.115  29.106  1.00  0.00     0.055 A 
ATOM     91  C   UNL A   1      46.848  34.043  31.194  1.00  0.00     0.041 A 
ATOM     92  F   UNL A   1      46.052  31.884  31.629  1.00  0.00    -0.206 F 
ATOM     93  C   UNL A   1      46.964  35.139  30.344  1.00  0.00     0.022 A 
BRANCH  90  94
ATOM     94  S   UNL A   1      46.544  36.482  27.937  1.00  0.00     0.124 S 
ATOM     95  O   UNL A   1      45.691  36.078  26.824  1.00  0.00    -0.237 OA
ATOM     96  O   UNL A   1      46.084  37.633  28.707  1.00  0.00    -0.237 OA
ATOM     97  O   UNL A   1      47.979  36.459  27.658  1.00  0.00    -0.744 OA
ENDBRANCH  90  94
ENDBRANCH  64  87
ENDBRANCH  38  39
ENDBRANCH  30  33
ENDBRANCH  28  29
ENDBRANCH  27  28
ENDBRANCH   1  27
TORSDOF 18
ENDMDL
MODEL 2
REMARK VINA RESULT:     -11.7      2.376      3.121
REMARK SMILES Cc1ccc(C(N)=O)c(NCc2ccc(C(=O)NCCCCNC(=O)c3ccc(-c4c5nc(c(-c6cc(S(=O)(=O)[O-])ccc6F)c6ccc([nH]6)c(-c6cc(S(=O)(=O)[O-])ccc6F)c6nc(c(-c7cc(S(=O)(=O)[O-])ccc7F)c7ccc4[nH]7)C=C6)C=C5)cc3)o2)n1
REMARK SMILES IDX 20 1 19 2 18 3 16 4 17 5 15 7 12 8 13 9 89 10 14 11 11 12
REMARK SMILES IDX 10 13 9 15 1 16 2 17 3 18 90 19 4 20 5 21 6 22 7 23 8 24
REMARK SMILES IDX 21 27 22 28 23 29 24 30 25 32 26 33 27 34 88 35 28 36 87 37
REMARK SMILES IDX 29 38 30 39 31 40 81 41 32 42 86 43 80 44 82 45 33 46 85 47
REMARK SMILES IDX 79 48 78 49 34 51 66 52 46 53 65 54 47 55 50 56 64 57 83 58
REMARK SMILES IDX 48 59 49 60 63 62 84 63 51 64 35 65 36 66 44 67 37 68 43 69
REMARK SMILES IDX 45 70 42 71 38 72 39 73 40 74 41 75 67 76 68 77 76 78 69 79
REMARK SMILES IDX 75 80 77 81 74 82 70 83 71 84 72 85 73 86 52 87 53 88 61 89
REMARK SMILES IDX 54 90 60 91 62 92 59 93 55 94 56 95 57 96 58 97
REMARK H PARENT 18 6 10 14 7 25 7 26 23 31 82 50 50 61
REMARK Flexibility Score: inf
ROOT
ATOM      1  C   UNL A   1      37.070  22.158  24.789  1.00  0.00     0.023 C 
ENDROOT
BRANCH   1   2
ATOM      2  C   UNL A   1      36.649  22.871  26.074  1.00  0.00     0.116 C 
BRANCH   2   3
ATOM      3  N   UNL A   1      35.315  22.485  26.478  1.00  0.00    -0.349 N 
ATOM      4  C   UNL A   1      34.096  23.084  26.254  1.00  0.00     0.286 C 
ATOM      5  O   UNL A   1      33.109  22.463  26.659  1.00  0.00    -0.266 OA
ATOM      6  H   UNL A   1      35.271  21.654  27.004  1.00  0.00     0.163 HD
BRANCH   4   7
ATOM      7  C   UNL A   1      33.990  24.361  25.567  1.00  0.00     0.191 A 
ATOM      8  C   UNL A   1      33.765  25.584  23.730  1.00  0.00     0.124 A 
ATOM      9  C   UNL A   1      33.877  26.472  24.775  1.00  0.00     0.048 A 
ATOM     10  O   UNL A   1      33.835  24.309  24.201  1.00  0.00    -0.454 OA
ATOM     11  C   UNL A   1      33.975  25.691  25.952  1.00  0.00     0.056 A 
BRANCH   8  12
ATOM     12  C   UNL A   1      33.562  25.743  22.260  1.00  0.00     0.190 C 
BRANCH  12  13
ATOM     13  N   UNL A   1      32.186  25.513  21.844  1.00  0.00    -0.362 N 
ATOM     14  H   UNL A   1      31.997  24.870  21.123  1.00  0.00     0.162 HD
BRANCH  13  15
ATOM     15  C   UNL A   1      31.139  26.187  22.451  1.00  0.00     0.139 A 
ATOM     16  C   UNL A   1      29.703  29.567  22.122  1.00  0.00     0.067 C 
ATOM     17  C   UNL A   1      29.885  28.159  22.605  1.00  0.00     0.040 A 
ATOM     18  C   UNL A   1      29.034  27.610  23.550  1.00  0.00     0.024 A 
ATOM     19  N   UNL A   1      30.926  27.470  22.076  1.00  0.00    -0.236 NA
ATOM     20  C   UNL A   1      29.262  26.303  23.962  1.00  0.00     0.019 A 
ATOM     21  C   UNL A   1      30.331  25.577  23.420  1.00  0.00     0.081 A 
BRANCH  21  22
ATOM     22  C   UNL A   1      30.549  24.205  23.953  1.00  0.00     0.252 C 
ATOM     23  N   UNL A   1      30.498  24.028  25.306  1.00  0.00    -0.365 N 
ATOM     24  O   UNL A   1      30.726  23.250  23.206  1.00  0.00    -0.269 OA
ATOM     25  H   UNL A   1      30.356  24.802  25.899  1.00  0.00     0.159 HD
ATOM     26  H   UNL A   1      30.604  23.128  25.689  1.00  0.00     0.159 HD
ENDBRANCH  21  22
ENDBRANCH  13  15
ENDBRANCH  12  13
ENDBRANCH   8  12
ENDBRANCH   4   7
ENDBRANCH   2   3
ENDBRANCH   1   2
BRANCH   1  27
ATOM     27  C   UNL A   1      37.897  20.887  25.022  1.00  0.00     0.023 C 
BRANCH  27  28
ATOM     28  C   UNL A   1      39.148  21.076  25.876  1.00  0.00     0.116 C 
BRANCH  28  29
ATOM     29  N   UNL A   1      39.981  19.887  25.952  1.00  0.00    -0.352 N 
ATOM     30  C   UNL A   1      41.336  19.808  26.185  1.00  0.00     0.251 C 
ATOM     31  H   UNL A   1      39.517  19.028  25.820  1.00  0.00     0.163 HD
ATOM     32  O   UNL A   1      41.911  18.731  26.110  1.00  0.00    -0.269 OA
BRANCH  30  33
ATOM     33  C   UNL A   1      42.086  21.049  26.479  1.00  0.00     0.039 A 
ATOM     34  C   UNL A   1      42.412  21.907  25.427  1.00  0.00     0.014 A 
ATOM     35  C   UNL A   1      42.418  21.382  27.795  1.00  0.00     0.014 A 
ATOM     36  C   UNL A   1      43.007  23.140  25.702  1.00  0.00     0.010 A 
ATOM     37  C   UNL A   1      42.954  22.635  28.072  1.00  0.00     0.010 A 
ATOM     38  C   UNL A   1      43.246  23.531  27.029  1.00  0.00    -0.014 A 
BRANCH  38  39
ATOM     39  C   UNL A   1      43.805  24.867  27.362  1.00  0.00     0.031 A 
ATOM     40  C   UNL A   1      42.908  25.926  27.938  1.00  0.00     0.074 A 
ATOM     41  C   UNL A   1      45.088  25.151  27.062  1.00  0.00     0.049 A 
ATOM     42  N   UNL A   1      43.152  27.192  28.157  1.00  0.00    -0.248 NA
ATOM     43  C   UNL A   1      41.540  25.509  28.280  1.00  0.00     0.031 C 
ATOM     44  C   UNL A   1      46.047  24.214  26.475  1.00  0.00     0.029 A 
ATOM     45  N   UNL A   1      45.801  26.317  27.191  1.00  0.00    -0.354 N 
ATOM     46  C   UNL A   1      41.965  27.728  28.643  1.00  0.00     0.074 A 
ATOM     47  C   UNL A   1      40.988  26.660  28.631  1.00  0.00     0.031 C 
ATOM     48  C   UNL A   1      47.224  24.839  26.305  1.00  0.00     0.029 A 
ATOM     49  C   UNL A   1      47.093  26.230  26.724  1.00  0.00     0.049 A 
ATOM     50  H   UNL A   1      45.425  27.138  27.582  1.00  0.00     0.167 HD
ATOM     51  C   UNL A   1      41.718  28.991  29.074  1.00  0.00     0.034 A 
ATOM     52  C   UNL A   1      48.053  27.171  26.624  1.00  0.00     0.034 A 
ATOM     53  C   UNL A   1      42.710  30.038  29.092  1.00  0.00     0.049 A 
ATOM     54  C   UNL A   1      47.751  28.573  27.092  1.00  0.00     0.074 A 
ATOM     55  C   UNL A   1      42.583  31.340  29.547  1.00  0.00     0.029 A 
ATOM     56  N   UNL A   1      44.015  29.906  28.632  1.00  0.00    -0.354 N 
ATOM     57  N   UNL A   1      46.631  29.059  27.575  1.00  0.00    -0.248 NA
ATOM     58  C   UNL A   1      48.845  29.551  27.009  1.00  0.00     0.031 C 
ATOM     59  C   UNL A   1      43.788  32.009  29.308  1.00  0.00     0.029 A 
ATOM     60  C   UNL A   1      44.693  31.106  28.773  1.00  0.00     0.049 A 
ATOM     61  H   UNL A   1      44.400  29.081  28.259  1.00  0.00     0.167 HD
ATOM     62  C   UNL A   1      46.901  30.388  27.892  1.00  0.00     0.074 A 
ATOM     63  C   UNL A   1      48.288  30.625  27.546  1.00  0.00     0.031 C 
ATOM     64  C   UNL A   1      46.078  31.325  28.429  1.00  0.00     0.034 A 
BRANCH  51  65
ATOM     65  C   UNL A   1      40.315  29.304  29.533  1.00  0.00     0.023 A 
ATOM     66  C   UNL A   1      39.995  29.434  30.896  1.00  0.00     0.031 A 
ATOM     67  C   UNL A   1      39.273  29.441  28.598  1.00  0.00     0.131 A 
ATOM     68  C   UNL A   1      38.660  29.610  31.289  1.00  0.00     0.055 A 
ATOM     69  C   UNL A   1      37.959  29.703  28.993  1.00  0.00     0.041 A 
ATOM     70  F   UNL A   1      39.511  29.308  27.284  1.00  0.00    -0.206 F 
ATOM     71  C   UNL A   1      37.643  29.771  30.346  1.00  0.00     0.022 A 
BRANCH  68  72
ATOM     72  S   UNL A   1      38.254  29.472  33.052  1.00  0.00     0.124 S 
ATOM     73  O   UNL A   1      37.144  28.522  33.024  1.00  0.00    -0.237 OA
ATOM     74  O   UNL A   1      39.501  28.982  33.626  1.00  0.00    -0.237 OA
ATOM     75  O   UNL A   1      37.887  30.836  33.427  1.00  0.00    -0.744 OA
ENDBRANCH  68  72
ENDBRANCH  51  65
BRANCH  52  76
ATOM     76  C   UNL A   1      49.387  26.832  26.050  1.00  0.00     0.023 A 
ATOM     77  C   UNL A   1      49.744  27.251  24.758  1.00  0.00     0.031 A 
ATOM     78  C   UNL A   1      50.309  26.050  26.768  1.00  0.00     0.131 A 
ATOM     79  C   UNL A   1      50.968  26.844  24.205  1.00  0.00     0.055 A 
ATOM     80  C   UNL A   1      51.547  25.691  26.232  1.00  0.00     0.041 A 
ATOM     81  F   UNL A   1      50.020  25.629  28.010  1.00  0.00    -0.206 F 
ATOM     82  C   UNL A   1      51.877  26.078  24.937  1.00  0.00     0.022 A 
BRANCH  79  83
ATOM     83  S   UNL A   1      51.318  27.263  22.474  1.00  0.00     0.124 S 
ATOM     84  O   UNL A   1      50.076  26.872  21.817  1.00  0.00    -0.237 OA
ATOM     85  O   UNL A   1      51.579  28.696  22.557  1.00  0.00    -0.237 OA
ATOM     86  O   UNL A   1      52.481  26.437  22.154  1.00  0.00    -0.744 OA
ENDBRANCH  79  83
ENDBRANCH  52  76
BRANCH  64  87
ATOM     87  C   UNL A   1      46.681  32.672  28.740  1.00  0.00     0.023 A 
ATOM     88  C   UNL A   1      46.727  33.706  27.789  1.00  0.00     0.031 A 
ATOM     89  C   UNL A   1      47.213  32.920  30.018  1.00  0.00     0.131 A 
ATOM     90  C   UNL A   1      47.334  34.928  28.118  1.00  0.00     0.055 A 
ATOM     91  C   UNL A   1      47.767  34.156  30.356  1.00  0.00     0.041 A 
ATOM     92  F   UNL A   1      47.196  31.967  30.962  1.00  0.00    -0.206 F 
ATOM     93  C   UNL A   1      47.840  35.165  29.400  1.00  0.00     0.022 A 
BRANCH  90  94
ATOM     94  S   UNL A   1      47.520  36.186  26.825  1.00  0.00     0.124 S 
ATOM     95  O   UNL A   1      47.560  37.420  27.604  1.00  0.00    -0.237 OA
ATOM     96  O   UNL A   1      48.773  35.795  26.186  1.00  0.00    -0.237 OA
ATOM     97  O   UNL A   1      46.326  36.012  26.000  1.00  0.00    -0.744 OA
ENDBRANCH  90  94
ENDBRANCH  64  87
ENDBRANCH  38  39
ENDBRANCH  30  33
ENDBRANCH  28  29
ENDBRANCH  27  28
ENDBRANCH   1  27
TORSDOF 18
ENDMDL
MODEL 3
REMARK VINA RESULT:     -11.6      2.039      2.714
REMARK SMILES Cc1ccc(C(N)=O)c(NCc2ccc(C(=O)NCCCCNC(=O)c3ccc(-c4c5nc(c(-c6cc(S(=O)(=O)[O-])ccc6F)c6ccc([nH]6)c(-c6cc(S(=O)(=O)[O-])ccc6F)c6nc(c(-c7cc(S(=O)(=O)[O-])ccc7F)c7ccc4[nH]7)C=C6)C=C5)cc3)o2)n1
REMARK SMILES IDX 20 1 19 2 18 3 16 4 17 5 15 7 12 8 13 9 89 10 14 11 11 12
REMARK SMILES IDX 10 13 9 15 1 16 2 17 3 18 90 19 4 20 5 21 6 22 7 23 8 24
REMARK SMILES IDX 21 27 22 28 23 29 24 30 25 32 26 33 27 34 88 35 28 36 87 37
REMARK SMILES IDX 29 38 30 39 31 40 81 41 32 42 86 43 80 44 82 45 33 46 85 47
REMARK SMILES IDX 79 48 78 49 34 51 66 52 46 53 65 54 47 55 50 56 64 57 83 58
REMARK SMILES IDX 48 59 49 60 63 62 84 63 51 64 35 65 36 66 44 67 37 68 43 69
REMARK SMILES IDX 45 70 42 71 38 72 39 73 40 74 41 75 67 76 68 77 76 78 69 79
REMARK SMILES IDX 75 80 77 81 74 82 70 83 71 84 72 85 73 86 52 87 53 88 61 89
REMARK SMILES IDX 54 90 60 91 62 92 59 93 55 94 56 95 57 96 58 97
REMARK H PARENT 18 6 10 14 7 25 7 26 23 31 82 50 50 61
REMARK Flexibility Score: inf
ROOT
ATOM      1  C   UNL A   1      35.360  22.286  24.225  1.00  0.00     0.023 C 
ENDROOT
BRANCH   1   2
ATOM      2  C   UNL A   1      35.189  23.453  25.197  1.00  0.00     0.116 C 
BRANCH   2   3
ATOM      3  N   UNL A   1      34.331  23.095  26.306  1.00  0.00    -0.349 N 
ATOM      4  C   UNL A   1      32.964  22.962  26.382  1.00  0.00     0.286 C 
ATOM      5  O   UNL A   1      32.522  22.555  27.460  1.00  0.00    -0.266 OA
ATOM      6  H   UNL A   1      34.807  22.916  27.150  1.00  0.00     0.163 HD
BRANCH   4   7
ATOM      7  C   UNL A   1      32.104  23.269  25.250  1.00  0.00     0.191 A 
ATOM      8  C   UNL A   1      30.616  24.543  24.209  1.00  0.00     0.124 A 
ATOM      9  C   UNL A   1      30.860  23.474  23.378  1.00  0.00     0.048 A 
ATOM     10  O   UNL A   1      31.362  24.424  25.341  1.00  0.00    -0.454 OA
ATOM     11  C   UNL A   1      31.842  22.685  24.022  1.00  0.00     0.056 A 
BRANCH   8  12
ATOM     12  C   UNL A   1      29.759  25.759  24.099  1.00  0.00     0.190 C 
BRANCH  12  13
ATOM     13  N   UNL A   1      30.451  26.896  23.509  1.00  0.00    -0.362 N 
ATOM     14  H   UNL A   1      30.679  26.883  22.551  1.00  0.00     0.162 HD
BRANCH  13  15
ATOM     15  C   UNL A   1      30.793  27.995  24.279  1.00  0.00     0.139 A 
ATOM     16  C   UNL A   1      32.375  28.452  27.578  1.00  0.00     0.067 C 
ATOM     17  C   UNL A   1      31.747  28.798  26.262  1.00  0.00     0.040 A 
ATOM     18  C   UNL A   1      31.577  30.117  25.875  1.00  0.00     0.024 A 
ATOM     19  N   UNL A   1      31.350  27.757  25.490  1.00  0.00    -0.236 NA
ATOM     20  C   UNL A   1      30.981  30.372  24.646  1.00  0.00     0.019 A 
ATOM     21  C   UNL A   1      30.570  29.306  23.835  1.00  0.00     0.081 A 
BRANCH  21  22
ATOM     22  C   UNL A   1      29.885  29.656  22.562  1.00  0.00     0.252 C 
ATOM     23  N   UNL A   1      30.656  30.076  21.515  1.00  0.00    -0.365 N 
ATOM     24  O   UNL A   1      28.673  29.531  22.433  1.00  0.00    -0.269 OA
ATOM     25  H   UNL A   1      31.629  30.172  21.628  1.00  0.00     0.159 HD
ATOM     26  H   UNL A   1      30.238  30.281  20.648  1.00  0.00     0.159 HD
ENDBRANCH  21  22
ENDBRANCH  13  15
ENDBRANCH  12  13
ENDBRANCH   8  12
ENDBRANCH   4   7
ENDBRANCH   2   3
ENDBRANCH   1   2
BRANCH   1  27
ATOM     27  C   UNL A   1      36.308  21.189  24.728  1.00  0.00     0.023 C 
BRANCH  27  28
ATOM     28  C   UNL A   1      37.664  21.683  25.226  1.00  0.00     0.116 C 
BRANCH  28  29
ATOM     29  N   UNL A   1      38.557  20.609  25.630  1.00  0.00    -0.352 N 
ATOM     30  C   UNL A   1      39.753  20.704  26.307  1.00  0.00     0.251 C 
ATOM     31  H   UNL A   1      38.270  19.698  25.390  1.00  0.00     0.163 HD
ATOM     32  O   UNL A   1      40.443  19.709  26.478  1.00  0.00    -0.269 OA
BRANCH  30  33
ATOM     33  C   UNL A   1      40.206  22.031  26.779  1.00  0.00     0.039 A 
ATOM     34  C   UNL A   1      41.060  22.102  27.881  1.00  0.00     0.014 A 
ATOM     35  C   UNL A   1      39.824  23.193  26.103  1.00  0.00     0.014 A 
ATOM     36  C   UNL A   1      41.595  23.334  28.261  1.00  0.00     0.010 A 
ATOM     37  C   UNL A   1      40.405  24.409  26.444  1.00  0.00     0.010 A 
ATOM     38  C   UNL A   1      41.304  24.491  27.521  1.00  0.00    -0.014 A 
BRANCH  38  39
ATOM     39  C   UNL A   1      41.917  25.805  27.849  1.00  0.00     0.031 A 
ATOM     40  C   UNL A   1      41.114  26.837  28.588  1.00  0.00     0.074 A 
ATOM     41  C   UNL A   1      43.156  26.096  27.404  1.00  0.00     0.049 A 
ATOM     42  N   UNL A   1      41.401  28.088  28.839  1.00  0.00    -0.248 NA
ATOM     43  C   UNL A   1      39.795  26.411  29.079  1.00  0.00     0.031 C 
ATOM     44  C   UNL A   1      44.021  25.185  26.652  1.00  0.00     0.029 A 
ATOM     45  N   UNL A   1      43.895  27.248  27.501  1.00  0.00    -0.354 N 
ATOM     46  C   UNL A   1      40.291  28.606  29.499  1.00  0.00     0.074 A 
ATOM     47  C   UNL A   1      39.307  27.546  29.556  1.00  0.00     0.031 C 
ATOM     48  C   UNL A   1      45.175  25.810  26.367  1.00  0.00     0.029 A 
ATOM     49  C   UNL A   1      45.116  27.178  26.870  1.00  0.00     0.049 A 
ATOM     50  H   UNL A   1      43.581  28.050  27.979  1.00  0.00     0.167 HD
ATOM     51  C   UNL A   1      40.118  29.845  30.023  1.00  0.00     0.034 A 
ATOM     52  C   UNL A   1      46.068  28.117  26.698  1.00  0.00     0.034 A 
ATOM     53  C   UNL A   1      41.118  30.884  29.968  1.00  0.00     0.049 A 
ATOM     54  C   UNL A   1      45.846  29.494  27.271  1.00  0.00     0.074 A 
ATOM     55  C   UNL A   1      41.065  32.160  30.502  1.00  0.00     0.029 A 
ATOM     56  N   UNL A   1      42.352  30.768  29.340  1.00  0.00    -0.354 N 
ATOM     57  N   UNL A   1      44.802  29.961  27.918  1.00  0.00    -0.248 NA
ATOM     58  C   UNL A   1      46.933  30.468  27.101  1.00  0.00     0.031 C 
ATOM     59  C   UNL A   1      42.239  32.833  30.147  1.00  0.00     0.029 A 
ATOM     60  C   UNL A   1      43.058  31.955  29.455  1.00  0.00     0.049 A 
ATOM     61  H   UNL A   1      42.676  29.961  28.879  1.00  0.00     0.167 HD
ATOM     62  C   UNL A   1      45.127  31.270  28.265  1.00  0.00     0.074 A 
ATOM     63  C   UNL A   1      46.462  31.516  27.759  1.00  0.00     0.031 C 
ATOM     64  C   UNL A   1      44.391  32.182  28.950  1.00  0.00     0.034 A 
BRANCH  51  65
ATOM     65  C   UNL A   1      38.788  30.143  30.671  1.00  0.00     0.023 A 
ATOM     66  C   UNL A   1      37.751  30.781  29.968  1.00  0.00     0.031 A 
ATOM     67  C   UNL A   1      38.562  29.814  32.020  1.00  0.00     0.131 A 
ATOM     68  C   UNL A   1      36.572  31.145  30.636  1.00  0.00     0.055 A 
ATOM     69  C   UNL A   1      37.352  30.102  32.656  1.00  0.00     0.041 A 
ATOM     70  F   UNL A   1      39.521  29.222  32.749  1.00  0.00    -0.206 F 
ATOM     71  C   UNL A   1      36.355  30.788  31.968  1.00  0.00     0.022 A 
BRANCH  68  72
ATOM     72  S   UNL A   1      35.393  32.226  29.780  1.00  0.00     0.124 S 
ATOM     73  O   UNL A   1      34.967  31.375  28.671  1.00  0.00    -0.237 OA
ATOM     74  O   UNL A   1      34.393  32.481  30.810  1.00  0.00    -0.237 OA
ATOM     75  O   UNL A   1      36.202  33.379  29.395  1.00  0.00    -0.744 OA
ENDBRANCH  68  72
ENDBRANCH  51  65
BRANCH  52  76
ATOM     76  C   UNL A   1      47.314  27.801  25.942  1.00  0.00     0.023 A 
ATOM     77  C   UNL A   1      47.380  27.982  24.551  1.00  0.00     0.031 A 
ATOM     78  C   UNL A   1      48.443  27.273  26.593  1.00  0.00     0.131 A 
ATOM     79  C   UNL A   1      48.532  27.593  23.850  1.00  0.00     0.055 A 
ATOM     80  C   UNL A   1      49.605  26.935  25.897  1.00  0.00     0.041 A 
ATOM     81  F   UNL A   1      48.435  27.086  27.923  1.00  0.00    -0.206 F 
ATOM     82  C   UNL A   1      49.649  27.083  24.514  1.00  0.00     0.022 A 
BRANCH  79  83
ATOM     83  S   UNL A   1      48.515  27.685  22.038  1.00  0.00     0.124 S 
ATOM     84  O   UNL A   1      48.765  26.297  21.668  1.00  0.00    -0.237 OA
ATOM     85  O   UNL A   1      47.172  28.190  21.773  1.00  0.00    -0.237 OA
ATOM     86  O   UNL A   1      49.600  28.617  21.736  1.00  0.00    -0.744 OA
ENDBRANCH  79  83
ENDBRANCH  52  76
BRANCH  64  87
ATOM     87  C   UNL A   1      45.046  33.508  29.251  1.00  0.00     0.023 A 
ATOM     88  C   UNL A   1      44.792  34.656  28.482  1.00  0.00     0.031 A 
ATOM     89  C   UNL A   1      45.936  33.616  30.334  1.00  0.00     0.131 A 
ATOM     90  C   UNL A   1      45.457  35.855  28.781  1.00  0.00     0.055 A 
ATOM     91  C   UNL A   1      46.553  34.824  30.660  1.00  0.00     0.041 A 
ATOM     92  F   UNL A   1      46.214  32.549  31.099  1.00  0.00    -0.206 F 
ATOM     93  C   UNL A   1      46.324  35.950  29.875  1.00  0.00     0.022 A 
BRANCH  90  94
ATOM     94  S   UNL A   1      45.233  37.277  27.678  1.00  0.00     0.124 S 
ATOM     95  O   UNL A   1      43.965  36.961  27.028  1.00  0.00    -0.237 OA
ATOM     96  O   UNL A   1      45.207  38.397  28.613  1.00  0.00    -0.237 OA
ATOM     97  O   UNL A   1      46.406  37.226  26.807  1.00  0.00    -0.744 OA
ENDBRANCH  90  94
ENDBRANCH  64  87
ENDBRANCH  38  39
ENDBRANCH  30  33
ENDBRANCH  28  29
ENDBRANCH  27  28
ENDBRANCH   1  27
TORSDOF 18
ENDMDL
