MODEL 1
REMARK VINA RESULT:     -12.7      0.000      0.000
REMARK SMILES O=C(NCCCCNC(=O)[C@H]1C[NH2+]CCN1c1ncc(C(F)(F)F)cc1Cl)c1ccc(-c2c3nc(c(-c4cc(S(=O)(=O)[O-])ccc4F)c4ccc([nH]4)c(-c4cc(S(=O)(=O)[O-])ccc4F)c4nc(c(-c5cc(S(=O)(=O)[O-])ccc5F)c5ccc2[nH]5)C=C4)C=C3)cc1
REMARK SMILES IDX 5 1 4 2 3 3 1 4 2 5 28 7 29 8 90 9 30 10 89 11 31 12 32 13
REMARK SMILES IDX 33 14 83 15 34 16 88 17 82 18 84 19 35 20 87 21 81 22 80 23
REMARK SMILES IDX 36 25 68 26 48 27 67 28 49 29 52 30 66 31 85 32 50 33 51 34
REMARK SMILES IDX 65 36 86 37 53 38 37 39 38 40 46 41 39 42 45 43 47 44 44 45
REMARK SMILES IDX 40 46 41 47 42 48 43 49 69 50 70 51 78 52 71 53 77 54 79 55
REMARK SMILES IDX 76 56 72 57 73 58 74 59 75 60 54 61 55 62 63 63 56 64 62 65
REMARK SMILES IDX 64 66 61 67 57 68 58 69 59 70 60 71 6 72 7 73 8 74 9 75
REMARK SMILES IDX 10 77 11 78 12 79 16 80 13 81 15 82 14 83 17 86 18 87 26 88
REMARK SMILES IDX 19 89 25 90 27 91 20 92 21 93 22 94 23 95 24 96
REMARK H PARENT 3 6 84 24 52 35 8 76 13 84 13 85
REMARK Flexibility Score: inf
ROOT
ATOM      1  C   UNL A   1      36.111  21.731  24.256  1.00  0.00     0.023 C 
ENDROOT
BRANCH   1   2
ATOM      2  C   UNL A   1      36.949  21.790  25.528  1.00  0.00     0.116 C 
BRANCH   2   3
ATOM      3  N   UNL A   1      38.059  20.842  25.558  1.00  0.00    -0.352 N 
ATOM      4  O   UNL A   1      40.157  20.105  25.952  1.00  0.00    -0.269 OA
ATOM      5  C   UNL A   1      39.335  20.997  26.064  1.00  0.00     0.251 C 
ATOM      6  H   UNL A   1      37.870  19.962  25.159  1.00  0.00     0.163 HD
BRANCH   5   7
ATOM      7  C   UNL A   1      39.698  22.281  26.701  1.00  0.00     0.039 A 
ATOM      8  C   UNL A   1      39.155  23.475  26.230  1.00  0.00     0.014 A 
ATOM      9  C   UNL A   1      40.661  22.288  27.714  1.00  0.00     0.014 A 
ATOM     10  C   UNL A   1      39.729  24.679  26.616  1.00  0.00     0.010 A 
ATOM     11  C   UNL A   1      41.164  23.507  28.174  1.00  0.00     0.010 A 
ATOM     12  C   UNL A   1      40.751  24.710  27.581  1.00  0.00    -0.014 A 
BRANCH  12  13
ATOM     13  C   UNL A   1      41.377  26.014  27.927  1.00  0.00     0.031 A 
ATOM     14  C   UNL A   1      42.748  26.375  27.414  1.00  0.00     0.074 A 
ATOM     15  C   UNL A   1      40.671  26.902  28.653  1.00  0.00     0.049 A 
ATOM     16  N   UNL A   1      43.431  27.478  27.587  1.00  0.00    -0.248 NA
ATOM     17  C   UNL A   1      43.450  25.360  26.615  1.00  0.00     0.031 C 
ATOM     18  C   UNL A   1      39.332  26.663  29.199  1.00  0.00     0.029 A 
ATOM     19  N   UNL A   1      40.957  28.188  29.027  1.00  0.00    -0.354 N 
ATOM     20  C   UNL A   1      44.653  27.279  26.951  1.00  0.00     0.074 A 
ATOM     21  C   UNL A   1      44.625  25.937  26.409  1.00  0.00     0.031 C 
ATOM     22  C   UNL A   1      38.887  27.786  29.779  1.00  0.00     0.029 A 
ATOM     23  C   UNL A   1      39.932  28.801  29.710  1.00  0.00     0.049 A 
ATOM     24  H   UNL A   1      41.813  28.631  28.827  1.00  0.00     0.167 HD
ATOM     25  C   UNL A   1      45.697  28.138  26.828  1.00  0.00     0.034 A 
ATOM     26  C   UNL A   1      39.846  30.038  30.234  1.00  0.00     0.034 A 
ATOM     27  C   UNL A   1      45.697  29.484  27.353  1.00  0.00     0.049 A 
ATOM     28  C   UNL A   1      41.014  30.971  30.083  1.00  0.00     0.074 A 
ATOM     29  C   UNL A   1      46.685  30.450  27.259  1.00  0.00     0.029 A 
ATOM     30  N   UNL A   1      44.654  30.058  28.071  1.00  0.00    -0.354 N 
ATOM     31  N   UNL A   1      42.163  30.764  29.481  1.00  0.00    -0.248 NA
ATOM     32  C   UNL A   1      40.873  32.303  30.680  1.00  0.00     0.031 C 
ATOM     33  C   UNL A   1      46.266  31.582  27.967  1.00  0.00     0.029 A 
ATOM     34  C   UNL A   1      44.986  31.352  28.447  1.00  0.00     0.049 A 
ATOM     35  H   UNL A   1      43.803  29.611  28.284  1.00  0.00     0.167 HD
ATOM     36  C   UNL A   1      42.875  31.950  29.612  1.00  0.00     0.074 A 
ATOM     37  C   UNL A   1      42.017  32.871  30.331  1.00  0.00     0.031 C 
ATOM     38  C   UNL A   1      44.125  32.252  29.178  1.00  0.00     0.034 A 
BRANCH  25  39
ATOM     39  C   UNL A   1      46.947  27.625  26.147  1.00  0.00     0.023 A 
ATOM     40  C   UNL A   1      47.246  27.929  24.807  1.00  0.00     0.031 A 
ATOM     41  C   UNL A   1      47.839  26.792  26.845  1.00  0.00     0.131 A 
ATOM     42  C   UNL A   1      48.364  27.345  24.188  1.00  0.00     0.055 A 
ATOM     43  C   UNL A   1      48.993  26.278  26.247  1.00  0.00     0.041 A 
ATOM     44  F   UNL A   1      47.599  26.449  28.121  1.00  0.00    -0.206 F 
ATOM     45  C   UNL A   1      49.252  26.541  24.906  1.00  0.00     0.022 A 
BRANCH  42  46
ATOM     46  S   UNL A   1      48.561  27.534  22.393  1.00  0.00     0.124 S 
ATOM     47  O   UNL A   1      47.348  28.268  22.038  1.00  0.00    -0.237 OA
ATOM     48  O   UNL A   1      49.811  28.277  22.290  1.00  0.00    -0.237 OA
ATOM     49  O   UNL A   1      48.610  26.157  21.907  1.00  0.00    -0.744 OA
ENDBRANCH  42  46
ENDBRANCH  25  39
BRANCH  26  50
ATOM     50  C   UNL A   1      38.616  30.455  30.962  1.00  0.00     0.023 A 
ATOM     51  C   UNL A   1      37.589  31.154  30.308  1.00  0.00     0.031 A 
ATOM     52  C   UNL A   1      38.453  30.163  32.329  1.00  0.00     0.131 A 
ATOM     53  C   UNL A   1      36.459  31.567  31.030  1.00  0.00     0.055 A 
ATOM     54  C   UNL A   1      37.306  30.534  33.029  1.00  0.00     0.041 A 
ATOM     55  F   UNL A   1      39.403  29.489  32.996  1.00  0.00    -0.206 F 
ATOM     56  C   UNL A   1      36.304  31.250  32.382  1.00  0.00     0.022 A 
BRANCH  53  57
ATOM     57  S   UNL A   1      35.217  32.585  30.188  1.00  0.00     0.124 S 
ATOM     58  O   UNL A   1      34.745  31.680  29.147  1.00  0.00    -0.237 OA
ATOM     59  O   UNL A   1      34.277  32.867  31.268  1.00  0.00    -0.237 OA
ATOM     60  O   UNL A   1      35.983  33.736  29.716  1.00  0.00    -0.744 OA
ENDBRANCH  53  57
ENDBRANCH  26  50
BRANCH  38  61
ATOM     61  C   UNL A   1      44.608  33.655  29.443  1.00  0.00     0.023 A 
ATOM     62  C   UNL A   1      44.518  34.664  28.468  1.00  0.00     0.031 A 
ATOM     63  C   UNL A   1      45.208  33.974  30.673  1.00  0.00     0.131 A 
ATOM     64  C   UNL A   1      45.079  35.926  28.714  1.00  0.00     0.055 A 
ATOM     65  C   UNL A   1      45.713  35.249  30.935  1.00  0.00     0.041 A 
ATOM     66  F   UNL A   1      45.322  33.048  31.639  1.00  0.00    -0.206 F 
ATOM     67  C   UNL A   1      45.665  36.228  29.946  1.00  0.00     0.022 A 
BRANCH  64  68
ATOM     68  S   UNL A   1      45.132  37.134  27.362  1.00  0.00     0.124 S 
ATOM     69  O   UNL A   1      43.721  37.261  27.013  1.00  0.00    -0.237 OA
ATOM     70  O   UNL A   1      45.738  38.295  28.006  1.00  0.00    -0.237 OA
ATOM     71  O   UNL A   1      45.964  36.482  26.352  1.00  0.00    -0.744 OA
ENDBRANCH  64  68
ENDBRANCH  38  61
ENDBRANCH  12  13
ENDBRANCH   5   7
ENDBRANCH   2   3
ENDBRANCH   1   2
BRANCH   1  72
ATOM     72  C   UNL A   1      35.942  23.047  23.507  1.00  0.00     0.023 C 
BRANCH  72  73
ATOM     73  C   UNL A   1      34.621  23.233  22.771  1.00  0.00     0.116 C 
BRANCH  73  74
ATOM     74  N   UNL A   1      33.747  24.216  23.376  1.00  0.00    -0.354 N 
ATOM     75  C   UNL A   1      33.093  24.279  24.569  1.00  0.00     0.248 C 
ATOM     76  H   UNL A   1      33.595  25.005  22.807  1.00  0.00     0.163 HD
ATOM     77  O   UNL A   1      32.451  25.327  24.737  1.00  0.00    -0.272 OA
BRANCH  75  78
ATOM     78  C   UNL A   1      33.042  23.147  25.659  1.00  0.00     0.228 C 
ATOM     79  C   UNL A   1      32.587  23.480  27.101  1.00  0.00     0.296 C 
ATOM     80  N   UNL A   1      32.118  22.071  25.207  1.00  0.00    -0.333 N 
ATOM     81  N   UNL A   1      31.184  23.947  27.214  1.00  0.00    -0.343 N 
ATOM     82  C   UNL A   1      30.695  22.439  25.214  1.00  0.00     0.180 C 
ATOM     83  C   UNL A   1      30.300  22.902  26.641  1.00  0.00     0.282 C 
ATOM     84  H   UNL A   1      31.067  24.818  26.698  1.00  0.00     0.346 HD
ATOM     85  H   UNL A   1      30.945  24.113  28.192  1.00  0.00     0.346 HD
BRANCH  80  86
ATOM     86  C   UNL A   1      32.472  20.803  24.820  1.00  0.00     0.148 A 
ATOM     87  N   UNL A   1      33.030  20.031  25.791  1.00  0.00    -0.237 NA
ATOM     88  C   UNL A   1      32.372  20.289  23.515  1.00  0.00     0.084 A 
ATOM     89  C   UNL A   1      33.445  18.775  25.508  1.00  0.00     0.126 A 
ATOM     90  C   UNL A   1      32.830  18.993  23.240  1.00  0.00     0.039 A 
ATOM     91  Cl  UNL A   1      31.850  21.189  22.131  1.00  0.00    -0.080 Cl
ATOM     92  C   UNL A   1      33.384  18.211  24.251  1.00  0.00     0.075 A 
BRANCH  92  93
ATOM     93  C   UNL A   1      33.901  16.831  24.014  1.00  0.00     0.417 C 
ATOM     94  F   UNL A   1      32.973  15.869  24.279  1.00  0.00    -0.166 F 
ATOM     95  F   UNL A   1      34.295  16.629  22.729  1.00  0.00    -0.166 F 
ATOM     96  F   UNL A   1      34.979  16.519  24.787  1.00  0.00    -0.166 F 
ENDBRANCH  92  93
ENDBRANCH  80  86
ENDBRANCH  75  78
ENDBRANCH  73  74
ENDBRANCH  72  73
ENDBRANCH   1  72
TORSDOF 16
ENDMDL
MODEL 2
REMARK VINA RESULT:     -12.4      0.511      7.482
REMARK SMILES O=C(NCCCCNC(=O)[C@H]1C[NH2+]CCN1c1ncc(C(F)(F)F)cc1Cl)c1ccc(-c2c3nc(c(-c4cc(S(=O)(=O)[O-])ccc4F)c4ccc([nH]4)c(-c4cc(S(=O)(=O)[O-])ccc4F)c4nc(c(-c5cc(S(=O)(=O)[O-])ccc5F)c5ccc2[nH]5)C=C4)C=C3)cc1
REMARK SMILES IDX 5 1 4 2 3 3 1 4 2 5 28 7 29 8 90 9 30 10 89 11 31 12 32 13
REMARK SMILES IDX 33 14 83 15 34 16 88 17 82 18 84 19 35 20 87 21 81 22 80 23
REMARK SMILES IDX 36 25 68 26 48 27 67 28 49 29 52 30 66 31 85 32 50 33 51 34
REMARK SMILES IDX 65 36 86 37 53 38 37 39 38 40 46 41 39 42 45 43 47 44 44 45
REMARK SMILES IDX 40 46 41 47 42 48 43 49 69 50 70 51 78 52 71 53 77 54 79 55
REMARK SMILES IDX 76 56 72 57 73 58 74 59 75 60 54 61 55 62 63 63 56 64 62 65
REMARK SMILES IDX 64 66 61 67 57 68 58 69 59 70 60 71 6 72 7 73 8 74 9 75
REMARK SMILES IDX 10 77 11 78 12 79 16 80 13 81 15 82 14 83 17 86 18 87 26 88
REMARK SMILES IDX 19 89 25 90 27 91 20 92 21 93 22 94 23 95 24 96
REMARK H PARENT 3 6 84 24 52 35 8 76 13 84 13 85
REMARK Flexibility Score: inf
ROOT
ATOM      1  C   UNL A   1      36.336  21.680  24.119  1.00  0.00     0.023 C 
ENDROOT
BRANCH   1   2
ATOM      2  C   UNL A   1      36.939  21.546  25.512  1.00  0.00     0.116 C 
BRANCH   2   3
ATOM      3  N   UNL A   1      38.039  20.591  25.600  1.00  0.00    -0.352 N 
ATOM      4  O   UNL A   1      40.132  19.860  26.032  1.00  0.00    -0.269 OA
ATOM      5  C   UNL A   1      39.319  20.765  26.089  1.00  0.00     0.251 C 
ATOM      6  H   UNL A   1      37.839  19.689  25.261  1.00  0.00     0.163 HD
BRANCH   5   7
ATOM      7  C   UNL A   1      39.699  22.085  26.637  1.00  0.00     0.039 A 
ATOM      8  C   UNL A   1      39.099  23.246  26.151  1.00  0.00     0.014 A 
ATOM      9  C   UNL A   1      40.731  22.158  27.577  1.00  0.00     0.014 A 
ATOM     10  C   UNL A   1      39.673  24.477  26.439  1.00  0.00     0.010 A 
ATOM     11  C   UNL A   1      41.239  23.407  27.942  1.00  0.00     0.010 A 
ATOM     12  C   UNL A   1      40.760  24.572  27.325  1.00  0.00    -0.014 A 
BRANCH  12  13
ATOM     13  C   UNL A   1      41.381  25.902  27.564  1.00  0.00     0.031 A 
ATOM     14  C   UNL A   1      40.690  26.939  28.412  1.00  0.00     0.074 A 
ATOM     15  C   UNL A   1      42.608  26.145  27.066  1.00  0.00     0.049 A 
ATOM     16  N   UNL A   1      41.099  28.135  28.752  1.00  0.00    -0.248 NA
ATOM     17  C   UNL A   1      39.359  26.595  28.934  1.00  0.00     0.031 C 
ATOM     18  C   UNL A   1      43.375  25.213  26.234  1.00  0.00     0.029 A 
ATOM     19  N   UNL A   1      43.441  27.222  27.209  1.00  0.00    -0.354 N 
ATOM     20  C   UNL A   1      40.066  28.699  29.496  1.00  0.00     0.074 A 
ATOM     21  C   UNL A   1      39.001  27.720  29.536  1.00  0.00     0.031 C 
ATOM     22  C   UNL A   1      44.589  25.731  25.999  1.00  0.00     0.029 A 
ATOM     23  C   UNL A   1      44.662  27.057  26.599  1.00  0.00     0.049 A 
ATOM     24  H   UNL A   1      43.190  28.037  27.702  1.00  0.00     0.167 HD
ATOM     25  C   UNL A   1      40.016  29.917  30.094  1.00  0.00     0.034 A 
ATOM     26  C   UNL A   1      45.722  27.885  26.520  1.00  0.00     0.034 A 
ATOM     27  C   UNL A   1      41.101  30.871  30.067  1.00  0.00     0.049 A 
ATOM     28  C   UNL A   1      45.642  29.227  27.191  1.00  0.00     0.074 A 
ATOM     29  C   UNL A   1      41.171  32.119  30.663  1.00  0.00     0.029 A 
ATOM     30  N   UNL A   1      42.310  30.683  29.407  1.00  0.00    -0.354 N 
ATOM     31  N   UNL A   1      44.656  29.745  27.887  1.00  0.00    -0.248 NA
ATOM     32  C   UNL A   1      46.818  30.095  27.067  1.00  0.00     0.031 C 
ATOM     33  C   UNL A   1      42.394  32.707  30.317  1.00  0.00     0.029 A 
ATOM     34  C   UNL A   1      43.118  31.800  29.561  1.00  0.00     0.049 A 
ATOM     35  H   UNL A   1      42.557  29.874  28.902  1.00  0.00     0.167 HD
ATOM     36  C   UNL A   1      45.102  30.995  28.300  1.00  0.00     0.074 A 
ATOM     37  C   UNL A   1      46.452  31.141  27.792  1.00  0.00     0.031 C 
ATOM     38  C   UNL A   1      44.456  31.937  29.033  1.00  0.00     0.034 A 
BRANCH  25  39
ATOM     39  C   UNL A   1      38.725  30.306  30.778  1.00  0.00     0.023 A 
ATOM     40  C   UNL A   1      37.690  30.973  30.099  1.00  0.00     0.031 A 
ATOM     41  C   UNL A   1      38.540  30.030  32.145  1.00  0.00     0.131 A 
ATOM     42  C   UNL A   1      36.553  31.406  30.803  1.00  0.00     0.055 A 
ATOM     43  C   UNL A   1      37.372  30.393  32.822  1.00  0.00     0.041 A 
ATOM     44  F   UNL A   1      39.499  29.413  32.854  1.00  0.00    -0.206 F 
ATOM     45  C   UNL A   1      36.377  31.099  32.154  1.00  0.00     0.022 A 
BRANCH  42  46
ATOM     46  S   UNL A   1      35.376  32.502  29.962  1.00  0.00     0.124 S 
ATOM     47  O   UNL A   1      36.201  33.681  29.703  1.00  0.00    -0.237 OA
ATOM     48  O   UNL A   1      34.997  31.719  28.792  1.00  0.00    -0.237 OA
ATOM     49  O   UNL A   1      34.320  32.696  30.953  1.00  0.00    -0.744 OA
ENDBRANCH  42  46
ENDBRANCH  25  39
BRANCH  26  50
ATOM     50  C   UNL A   1      46.935  27.472  25.763  1.00  0.00     0.023 A 
ATOM     51  C   UNL A   1      47.113  27.843  24.422  1.00  0.00     0.031 A 
ATOM     52  C   UNL A   1      47.934  26.692  26.373  1.00  0.00     0.131 A 
ATOM     53  C   UNL A   1      48.248  27.406  23.723  1.00  0.00     0.055 A 
ATOM     54  C   UNL A   1      49.085  26.301  25.688  1.00  0.00     0.041 A 
ATOM     55  F   UNL A   1      47.815  26.319  27.658  1.00  0.00    -0.206 F 
ATOM     56  C   UNL A   1      49.242  26.650  24.351  1.00  0.00     0.022 A 
BRANCH  53  57
ATOM     57  S   UNL A   1      48.380  27.789  21.956  1.00  0.00     0.124 S 
ATOM     58  O   UNL A   1      47.169  28.568  21.727  1.00  0.00    -0.237 OA
ATOM     59  O   UNL A   1      49.638  28.527  21.900  1.00  0.00    -0.237 OA
ATOM     60  O   UNL A   1      48.406  26.472  21.324  1.00  0.00    -0.744 OA
ENDBRANCH  53  57
ENDBRANCH  26  50
BRANCH  38  61
ATOM     61  C   UNL A   1      45.233  33.188  29.355  1.00  0.00     0.023 A 
ATOM     62  C   UNL A   1      45.206  34.312  28.510  1.00  0.00     0.031 A 
ATOM     63  C   UNL A   1      46.046  33.238  30.500  1.00  0.00     0.131 A 
ATOM     64  C   UNL A   1      46.030  35.413  28.787  1.00  0.00     0.055 A 
ATOM     65  C   UNL A   1      46.819  34.361  30.802  1.00  0.00     0.041 A 
ATOM     66  F   UNL A   1      46.110  32.193  31.340  1.00  0.00    -0.206 F 
ATOM     67  C   UNL A   1      46.827  35.449  29.934  1.00  0.00     0.022 A 
BRANCH  64  68
ATOM     68  S   UNL A   1      46.129  36.753  27.568  1.00  0.00     0.124 S 
ATOM     69  O   UNL A   1      46.168  36.017  26.309  1.00  0.00    -0.237 OA
ATOM     70  O   UNL A   1      44.905  37.504  27.831  1.00  0.00    -0.237 OA
ATOM     71  O   UNL A   1      47.367  37.446  27.920  1.00  0.00    -0.744 OA
ENDBRANCH  64  68
ENDBRANCH  38  61
ENDBRANCH  12  13
ENDBRANCH   5   7
ENDBRANCH   2   3
ENDBRANCH   1   2
BRANCH   1  72
ATOM     72  C   UNL A   1      36.101  23.103  23.627  1.00  0.00     0.023 C 
BRANCH  72  73
ATOM     73  C   UNL A   1      34.841  23.326  22.799  1.00  0.00     0.116 C 
BRANCH  73  74
ATOM     74  N   UNL A   1      33.926  24.288  23.374  1.00  0.00    -0.354 N 
ATOM     75  C   UNL A   1      33.228  24.335  24.543  1.00  0.00     0.248 C 
ATOM     76  H   UNL A   1      33.778  25.075  22.801  1.00  0.00     0.163 HD
ATOM     77  O   UNL A   1      32.558  25.369  24.689  1.00  0.00    -0.272 OA
BRANCH  75  78
ATOM     78  C   UNL A   1      33.162  23.200  25.628  1.00  0.00     0.228 C 
ATOM     79  C   UNL A   1      32.726  23.536  27.075  1.00  0.00     0.296 C 
ATOM     80  N   UNL A   1      32.211  22.146  25.180  1.00  0.00    -0.333 N 
ATOM     81  N   UNL A   1      31.334  24.033  27.203  1.00  0.00    -0.343 N 
ATOM     82  C   UNL A   1      30.797  22.545  25.201  1.00  0.00     0.180 C 
ATOM     83  C   UNL A   1      30.423  23.010  26.633  1.00  0.00     0.282 C 
ATOM     84  H   UNL A   1      31.232  24.909  26.691  1.00  0.00     0.346 HD
ATOM     85  H   UNL A   1      31.108  24.200  28.183  1.00  0.00     0.346 HD
BRANCH  80  86
ATOM     86  C   UNL A   1      32.534  20.872  24.785  1.00  0.00     0.148 A 
ATOM     87  N   UNL A   1      33.099  20.090  25.744  1.00  0.00    -0.237 NA
ATOM     88  C   UNL A   1      32.397  20.361  23.482  1.00  0.00     0.084 A 
ATOM     89  C   UNL A   1      33.485  18.827  25.451  1.00  0.00     0.126 A 
ATOM     90  C   UNL A   1      32.826  19.057  23.197  1.00  0.00     0.039 A 
ATOM     91  Cl  UNL A   1      31.862  21.271  22.110  1.00  0.00    -0.080 Cl
ATOM     92  C   UNL A   1      33.387  18.265  24.195  1.00  0.00     0.075 A 
BRANCH  92  93
ATOM     93  C   UNL A   1      33.875  16.876  23.946  1.00  0.00     0.417 C 
ATOM     94  F   UNL A   1      34.926  16.537  24.744  1.00  0.00    -0.166 F 
ATOM     95  F   UNL A   1      32.919  15.935  24.164  1.00  0.00    -0.166 F 
ATOM     96  F   UNL A   1      34.308  16.679  22.669  1.00  0.00    -0.166 F 
ENDBRANCH  92  93
ENDBRANCH  80  86
ENDBRANCH  75  78
ENDBRANCH  73  74
ENDBRANCH  72  73
ENDBRANCH   1  72
TORSDOF 16
ENDMDL
MODEL 3
REMARK VINA RESULT:     -12.4      1.836      2.084
REMARK SMILES O=C(NCCCCNC(=O)[C@H]1C[NH2+]CCN1c1ncc(C(F)(F)F)cc1Cl)c1ccc(-c2c3nc(c(-c4cc(S(=O)(=O)[O-])ccc4F)c4ccc([nH]4)c(-c4cc(S(=O)(=O)[O-])ccc4F)c4nc(c(-c5cc(S(=O)(=O)[O-])ccc5F)c5ccc2[nH]5)C=C4)C=C3)cc1
REMARK SMILES IDX 5 1 4 2 3 3 1 4 2 5 28 7 29 8 90 9 30 10 89 11 31 12 32 13
REMARK SMILES IDX 33 14 83 15 34 16 88 17 82 18 84 19 35 20 87 21 81 22 80 23
REMARK SMILES IDX 36 25 68 26 48 27 67 28 49 29 52 30 66 31 85 32 50 33 51 34
REMARK SMILES IDX 65 36 86 37 53 38 37 39 38 40 46 41 39 42 45 43 47 44 44 45
REMARK SMILES IDX 40 46 41 47 42 48 43 49 69 50 70 51 78 52 71 53 77 54 79 55
REMARK SMILES IDX 76 56 72 57 73 58 74 59 75 60 54 61 55 62 63 63 56 64 62 65
REMARK SMILES IDX 64 66 61 67 57 68 58 69 59 70 60 71 6 72 7 73 8 74 9 75
REMARK SMILES IDX 10 77 11 78 12 79 16 80 13 81 15 82 14 83 17 86 18 87 26 88
REMARK SMILES IDX 19 89 25 90 27 91 20 92 21 93 22 94 23 95 24 96
REMARK H PARENT 3 6 84 24 52 35 8 76 13 84 13 85
REMARK Flexibility Score: inf
ROOT
ATOM      1  C   UNL A   1      36.326  21.431  24.245  1.00  0.00     0.023 C 
ENDROOT
BRANCH   1   2
ATOM      2  C   UNL A   1      37.093  21.427  25.562  1.00  0.00     0.116 C 
BRANCH   2   3
ATOM      3  N   UNL A   1      38.208  20.485  25.603  1.00  0.00    -0.352 N 
ATOM      4  O   UNL A   1      40.313  19.767  25.995  1.00  0.00    -0.269 OA
ATOM      5  C   UNL A   1      39.487  20.656  26.095  1.00  0.00     0.251 C 
ATOM      6  H   UNL A   1      38.020  19.596  25.224  1.00  0.00     0.163 HD
BRANCH   5   7
ATOM      7  C   UNL A   1      39.849  21.955  26.702  1.00  0.00     0.039 A 
ATOM      8  C   UNL A   1      39.308  23.138  26.201  1.00  0.00     0.014 A 
ATOM      9  C   UNL A   1      40.809  21.987  27.717  1.00  0.00     0.014 A 
ATOM     10  C   UNL A   1      39.882  24.351  26.560  1.00  0.00     0.010 A 
ATOM     11  C   UNL A   1      41.312  23.216  28.149  1.00  0.00     0.010 A 
ATOM     12  C   UNL A   1      40.901  24.404  27.526  1.00  0.00    -0.014 A 
BRANCH  12  13
ATOM     13  C   UNL A   1      41.528  25.716  27.842  1.00  0.00     0.031 A 
ATOM     14  C   UNL A   1      42.894  26.069  27.313  1.00  0.00     0.074 A 
ATOM     15  C   UNL A   1      40.825  26.616  28.556  1.00  0.00     0.049 A 
ATOM     16  N   UNL A   1      43.577  27.176  27.460  1.00  0.00    -0.248 NA
ATOM     17  C   UNL A   1      43.592  25.040  26.528  1.00  0.00     0.031 C 
ATOM     18  C   UNL A   1      39.490  26.385  29.116  1.00  0.00     0.029 A 
ATOM     19  N   UNL A   1      41.111  27.910  28.903  1.00  0.00    -0.354 N 
ATOM     20  C   UNL A   1      44.794  26.967  26.819  1.00  0.00     0.074 A 
ATOM     21  C   UNL A   1      44.765  25.615  26.304  1.00  0.00     0.031 C 
ATOM     22  C   UNL A   1      39.048  27.519  29.677  1.00  0.00     0.029 A 
ATOM     23  C   UNL A   1      40.090  28.534  29.581  1.00  0.00     0.049 A 
ATOM     24  H   UNL A   1      41.965  28.350  28.688  1.00  0.00     0.167 HD
ATOM     25  C   UNL A   1      45.836  27.825  26.672  1.00  0.00     0.034 A 
ATOM     26  C   UNL A   1      40.005  29.781  30.081  1.00  0.00     0.034 A 
ATOM     27  C   UNL A   1      45.836  29.182  27.171  1.00  0.00     0.049 A 
ATOM     28  C   UNL A   1      41.170  30.713  29.904  1.00  0.00     0.074 A 
ATOM     29  C   UNL A   1      46.822  30.147  27.051  1.00  0.00     0.029 A 
ATOM     30  N   UNL A   1      44.798  29.767  27.885  1.00  0.00    -0.354 N 
ATOM     31  N   UNL A   1      42.315  30.496  29.298  1.00  0.00    -0.248 NA
ATOM     32  C   UNL A   1      41.031  32.056  30.476  1.00  0.00     0.031 C 
ATOM     33  C   UNL A   1      46.406  31.292  27.740  1.00  0.00     0.029 A 
ATOM     34  C   UNL A   1      45.130  31.069  28.233  1.00  0.00     0.049 A 
ATOM     35  H   UNL A   1      43.949  29.324  28.112  1.00  0.00     0.167 HD
ATOM     36  C   UNL A   1      43.026  31.686  29.402  1.00  0.00     0.074 A 
ATOM     37  C   UNL A   1      42.172  32.620  30.108  1.00  0.00     0.031 C 
ATOM     38  C   UNL A   1      44.273  31.982  28.952  1.00  0.00     0.034 A 
BRANCH  25  39
ATOM     39  C   UNL A   1      47.082  27.302  25.992  1.00  0.00     0.023 A 
ATOM     40  C   UNL A   1      48.059  26.567  26.685  1.00  0.00     0.031 A 
ATOM     41  C   UNL A   1      47.308  27.571  24.630  1.00  0.00     0.131 A 
ATOM     42  C   UNL A   1      49.247  26.191  26.036  1.00  0.00     0.055 A 
ATOM     43  C   UNL A   1      48.455  27.126  23.969  1.00  0.00     0.041 A 
ATOM     44  F   UNL A   1      46.421  28.285  23.918  1.00  0.00    -0.206 F 
ATOM     45  C   UNL A   1      49.440  26.446  24.676  1.00  0.00     0.022 A 
BRANCH  42  46
ATOM     46  S   UNL A   1      50.598  25.495  27.029  1.00  0.00     0.124 S 
ATOM     47  O   UNL A   1      50.905  26.604  27.930  1.00  0.00    -0.237 OA
ATOM     48  O   UNL A   1      49.971  24.330  27.641  1.00  0.00    -0.237 OA
ATOM     49  O   UNL A   1      51.633  25.201  26.041  1.00  0.00    -0.744 OA
ENDBRANCH  42  46
ENDBRANCH  25  39
BRANCH  26  50
ATOM     50  C   UNL A   1      38.779  30.210  30.810  1.00  0.00     0.023 A 
ATOM     51  C   UNL A   1      37.752  30.905  30.153  1.00  0.00     0.031 A 
ATOM     52  C   UNL A   1      38.621  29.934  32.180  1.00  0.00     0.131 A 
ATOM     53  C   UNL A   1      36.626  31.330  30.874  1.00  0.00     0.055 A 
ATOM     54  C   UNL A   1      37.478  30.316  32.881  1.00  0.00     0.041 A 
ATOM     55  F   UNL A   1      39.571  29.264  32.851  1.00  0.00    -0.206 F 
ATOM     56  C   UNL A   1      36.476  31.028  32.230  1.00  0.00     0.022 A 
BRANCH  53  57
ATOM     57  S   UNL A   1      35.384  32.342  30.026  1.00  0.00     0.124 S 
ATOM     58  O   UNL A   1      35.005  31.480  28.912  1.00  0.00    -0.237 OA
ATOM     59  O   UNL A   1      34.379  32.522  31.069  1.00  0.00    -0.237 OA
ATOM     60  O   UNL A   1      36.121  33.549  29.660  1.00  0.00    -0.744 OA
ENDBRANCH  53  57
ENDBRANCH  26  50
BRANCH  38  61
ATOM     61  C   UNL A   1      44.755  33.391  29.186  1.00  0.00     0.023 A 
ATOM     62  C   UNL A   1      45.466  33.745  30.346  1.00  0.00     0.031 A 
ATOM     63  C   UNL A   1      44.458  34.401  28.255  1.00  0.00     0.131 A 
ATOM     64  C   UNL A   1      45.799  35.088  30.578  1.00  0.00     0.055 A 
ATOM     65  C   UNL A   1      44.844  35.727  28.463  1.00  0.00     0.041 A 
ATOM     66  F   UNL A   1      43.780  34.118  27.131  1.00  0.00    -0.206 F 
ATOM     67  C   UNL A   1      45.503  36.079  29.638  1.00  0.00     0.022 A 
BRANCH  64  68
ATOM     68  S   UNL A   1      46.528  35.540  32.176  1.00  0.00     0.124 S 
ATOM     69  O   UNL A   1      45.807  36.765  32.504  1.00  0.00    -0.237 OA
ATOM     70  O   UNL A   1      46.217  34.376  33.000  1.00  0.00    -0.237 OA
ATOM     71  O   UNL A   1      47.946  35.719  31.868  1.00  0.00    -0.744 OA
ENDBRANCH  64  68
ENDBRANCH  38  61
ENDBRANCH  12  13
ENDBRANCH   5   7
ENDBRANCH   2   3
ENDBRANCH   1   2
BRANCH   1  72
ATOM     72  C   UNL A   1      36.216  22.778  23.542  1.00  0.00     0.023 C 
BRANCH  72  73
ATOM     73  C   UNL A   1      34.856  23.109  22.938  1.00  0.00     0.116 C 
BRANCH  73  74
ATOM     74  N   UNL A   1      34.166  24.189  23.611  1.00  0.00    -0.354 N 
ATOM     75  C   UNL A   1      33.518  24.286  24.805  1.00  0.00     0.248 C 
ATOM     76  H   UNL A   1      34.165  25.029  23.098  1.00  0.00     0.163 HD
ATOM     77  O   UNL A   1      33.072  25.419  25.045  1.00  0.00    -0.272 OA
BRANCH  75  78
ATOM     78  C   UNL A   1      33.251  23.110  25.813  1.00  0.00     0.228 C 
ATOM     79  C   UNL A   1      32.647  23.408  27.207  1.00  0.00     0.296 C 
ATOM     80  N   UNL A   1      32.312  22.135  25.193  1.00  0.00    -0.333 N 
ATOM     81  N   UNL A   1      31.279  23.979  27.181  1.00  0.00    -0.343 N 
ATOM     82  C   UNL A   1      30.931  22.615  25.052  1.00  0.00     0.180 C 
ATOM     83  C   UNL A   1      30.398  23.037  26.447  1.00  0.00     0.282 C 
ATOM     84  H   UNL A   1      31.290  24.881  26.705  1.00  0.00     0.346 HD
ATOM     85  H   UNL A   1      30.935  24.116  28.131  1.00  0.00     0.346 HD
BRANCH  80  86
ATOM     86  C   UNL A   1      32.618  20.863  24.778  1.00  0.00     0.148 A 
ATOM     87  N   UNL A   1      33.215  20.073  25.709  1.00  0.00    -0.237 NA
ATOM     88  C   UNL A   1      32.431  20.361  23.477  1.00  0.00     0.084 A 
ATOM     89  C   UNL A   1      33.587  18.811  25.394  1.00  0.00     0.126 A 
ATOM     90  C   UNL A   1      32.846  19.058  23.168  1.00  0.00     0.039 A 
ATOM     91  Cl  UNL A   1      31.848  21.282  22.132  1.00  0.00    -0.080 Cl
ATOM     92  C   UNL A   1      33.441  18.258  24.139  1.00  0.00     0.075 A 
BRANCH  92  93
ATOM     93  C   UNL A   1      33.915  16.869  23.863  1.00  0.00     0.417 C 
ATOM     94  F   UNL A   1      32.963  15.929  24.116  1.00  0.00    -0.166 F 
ATOM     95  F   UNL A   1      34.289  16.687  22.569  1.00  0.00    -0.166 F 
ATOM     96  F   UNL A   1      34.993  16.509  24.616  1.00  0.00    -0.166 F 
ENDBRANCH  92  93
ENDBRANCH  80  86
ENDBRANCH  75  78
ENDBRANCH  73  74
ENDBRANCH  72  73
ENDBRANCH   1  72
TORSDOF 16
ENDMDL
