MODEL 1
REMARK VINA RESULT:     -13.5      0.000      0.000
REMARK SMILES O=C(NCCCCNC(=O)c1ccc(-c2c3nc(c(-c4cc(S(=O)(=O)[O-])ccc4F)c4ccc([nH]4)c(-c4cc(S(=O)(=O)[O-])ccc4F)c4nc(c(-c5cc(S(=O)(=O)[O-])ccc5F)c5ccc2[nH]5)C=C4)C=C3)cc1)C1=Cc2c(ccc(Cl)c2Oc2ccccc2)O[C@H]1C(F)(F)F
REMARK SMILES IDX 6 1 5 2 4 3 3 4 1 5 2 6 74 8 75 9 91 10 76 11 90 12 77 13
REMARK SMILES IDX 82 14 78 15 80 16 79 17 81 18 92 19 93 20 94 21 95 22 83 23
REMARK SMILES IDX 84 24 85 25 89 26 86 27 88 28 87 29 7 30 8 31 9 32 10 34
REMARK SMILES IDX 11 35 12 36 73 37 13 38 72 39 14 40 15 41 16 42 66 43 17 44
REMARK SMILES IDX 71 45 65 46 67 47 18 48 70 49 64 50 63 51 19 53 51 54 31 55
REMARK SMILES IDX 50 56 32 57 35 58 49 59 68 60 33 61 34 62 48 64 69 65 36 66
REMARK SMILES IDX 20 67 21 68 29 69 22 70 28 71 30 72 27 73 23 74 24 75 25 76
REMARK SMILES IDX 26 77 52 78 53 79 61 80 54 81 60 82 62 83 59 84 55 85 56 86
REMARK SMILES IDX 57 87 58 88 37 89 38 90 46 91 39 92 45 93 47 94 44 95 40 96
REMARK SMILES IDX 41 97 42 98 43 99
REMARK H PARENT 3 7 8 33 67 52 35 63
REMARK Flexibility Score: inf
ROOT
ATOM      1  C   UNL A   1      31.942  28.950  27.175  1.00  0.00     0.023 C 
ENDROOT
BRANCH   1   2
ATOM      2  C   UNL A   1      31.372  27.775  26.382  1.00  0.00     0.023 C 
BRANCH   2   3
ATOM      3  C   UNL A   1      32.273  26.544  26.312  1.00  0.00     0.116 C 
BRANCH   3   4
ATOM      4  N   UNL A   1      31.725  25.383  26.994  1.00  0.00    -0.352 N 
ATOM      5  O   UNL A   1      30.926  23.286  27.211  1.00  0.00    -0.270 OA
ATOM      6  C   UNL A   1      31.470  24.132  26.507  1.00  0.00     0.251 C 
ATOM      7  H   UNL A   1      31.507  25.517  27.944  1.00  0.00     0.163 HD
BRANCH   6   8
ATOM      8  C   UNL A   1      31.808  23.794  25.110  1.00  0.00     0.067 C 
ATOM      9  C   UNL A   1      32.196  22.547  24.815  1.00  0.00     0.029 C 
ATOM     10  C   UNL A   1      32.113  24.914  24.170  1.00  0.00     0.314 C 
ATOM     11  C   UNL A   1      33.621  22.481  24.409  1.00  0.00     0.061 A 
ATOM     12  O   UNL A   1      33.421  24.775  23.536  1.00  0.00    -0.475 OA
ATOM     13  C   UNL A   1      34.159  23.647  23.815  1.00  0.00     0.131 A 
ATOM     14  C   UNL A   1      34.466  21.395  24.738  1.00  0.00     0.156 A 
ATOM     15  C   UNL A   1      35.526  23.752  23.572  1.00  0.00     0.049 A 
ATOM     16  C   UNL A   1      35.849  21.545  24.518  1.00  0.00     0.084 A 
ATOM     17  C   UNL A   1      36.373  22.712  23.948  1.00  0.00     0.028 A 
ATOM     18  Cl  UNL A   1      36.975  20.323  25.002  1.00  0.00    -0.080 Cl
BRANCH  10  19
ATOM     19  C   UNL A   1      31.023  25.041  23.096  1.00  0.00     0.429 C 
ATOM     20  F   UNL A   1      30.269  26.155  23.265  1.00  0.00    -0.167 F 
ATOM     21  F   UNL A   1      31.538  25.094  21.846  1.00  0.00    -0.167 F 
ATOM     22  F   UNL A   1      30.180  23.980  23.126  1.00  0.00    -0.167 F 
ENDBRANCH  10  19
BRANCH  14  23
ATOM     23  O   UNL A   1      34.105  20.199  25.347  1.00  0.00    -0.455 OA
BRANCH  23  24
ATOM     24  C   UNL A   1      33.821  19.100  24.581  1.00  0.00     0.127 A 
ATOM     25  C   UNL A   1      32.707  19.143  23.739  1.00  0.00     0.047 A 
ATOM     26  C   UNL A   1      34.638  17.968  24.626  1.00  0.00     0.047 A 
ATOM     27  C   UNL A   1      32.478  18.095  22.849  1.00  0.00     0.004 A 
ATOM     28  C   UNL A   1      34.403  16.921  23.733  1.00  0.00     0.004 A 
ATOM     29  C   UNL A   1      33.338  16.995  22.833  1.00  0.00     0.000 A 
ENDBRANCH  23  24
ENDBRANCH  14  23
ENDBRANCH   6   8
ENDBRANCH   3   4
ENDBRANCH   2   3
ENDBRANCH   1   2
BRANCH   1  30
ATOM     30  C   UNL A   1      32.937  29.853  26.442  1.00  0.00     0.116 C 
BRANCH  30  31
ATOM     31  N   UNL A   1      32.932  31.235  26.892  1.00  0.00    -0.352 N 
ATOM     32  C   UNL A   1      33.877  31.924  27.626  1.00  0.00     0.251 C 
ATOM     33  H   UNL A   1      32.137  31.758  26.637  1.00  0.00     0.163 HD
ATOM     34  O   UNL A   1      33.653  33.082  27.960  1.00  0.00    -0.269 OA
BRANCH  32  35
ATOM     35  C   UNL A   1      35.126  31.249  28.055  1.00  0.00     0.039 A 
ATOM     36  C   UNL A   1      36.318  31.979  28.060  1.00  0.00     0.014 A 
ATOM     37  C   UNL A   1      35.125  29.916  28.475  1.00  0.00     0.014 A 
ATOM     38  C   UNL A   1      37.484  31.408  28.583  1.00  0.00     0.010 A 
ATOM     39  C   UNL A   1      36.272  29.370  29.054  1.00  0.00     0.010 A 
ATOM     40  C   UNL A   1      37.460  30.116  29.131  1.00  0.00    -0.014 A 
BRANCH  40  41
ATOM     41  C   UNL A   1      38.655  29.533  29.802  1.00  0.00     0.031 A 
ATOM     42  C   UNL A   1      39.094  30.051  31.146  1.00  0.00     0.074 A 
ATOM     43  C   UNL A   1      39.388  28.592  29.175  1.00  0.00     0.049 A 
ATOM     44  N   UNL A   1      40.170  29.763  31.835  1.00  0.00    -0.248 NA
ATOM     45  C   UNL A   1      38.221  31.047  31.782  1.00  0.00     0.031 C 
ATOM     46  C   UNL A   1      39.094  28.032  27.852  1.00  0.00     0.029 A 
ATOM     47  N   UNL A   1      40.541  27.949  29.553  1.00  0.00    -0.354 N 
ATOM     48  C   UNL A   1      40.112  30.553  32.979  1.00  0.00     0.074 A 
ATOM     49  C   UNL A   1      38.919  31.368  32.861  1.00  0.00     0.031 C 
ATOM     50  C   UNL A   1      40.034  27.124  27.539  1.00  0.00     0.029 A 
ATOM     51  C   UNL A   1      41.019  27.063  28.614  1.00  0.00     0.049 A 
ATOM     52  H   UNL A   1      40.986  28.107  30.417  1.00  0.00     0.167 HD
ATOM     53  C   UNL A   1      40.960  30.584  34.036  1.00  0.00     0.034 A 
ATOM     54  C   UNL A   1      42.129  26.297  28.613  1.00  0.00     0.034 A 
ATOM     55  C   UNL A   1      42.138  29.761  34.152  1.00  0.00     0.049 A 
ATOM     56  C   UNL A   1      43.048  26.336  29.808  1.00  0.00     0.074 A 
ATOM     57  C   UNL A   1      43.062  29.710  35.184  1.00  0.00     0.029 A 
ATOM     58  N   UNL A   1      42.554  28.832  33.206  1.00  0.00    -0.354 N 
ATOM     59  N   UNL A   1      42.965  27.079  30.888  1.00  0.00    -0.248 NA
ATOM     60  C   UNL A   1      44.199  25.423  29.792  1.00  0.00     0.031 C 
ATOM     61  C   UNL A   1      44.052  28.780  34.845  1.00  0.00     0.029 A 
ATOM     62  C   UNL A   1      43.716  28.207  33.630  1.00  0.00     0.049 A 
ATOM     63  H   UNL A   1      42.088  28.645  32.359  1.00  0.00     0.167 HD
ATOM     64  C   UNL A   1      44.032  26.691  31.694  1.00  0.00     0.074 A 
ATOM     65  C   UNL A   1      44.736  25.645  30.982  1.00  0.00     0.031 C 
ATOM     66  C   UNL A   1      44.397  27.156  32.915  1.00  0.00     0.034 A 
BRANCH  53  67
ATOM     67  C   UNL A   1      40.644  31.560  35.142  1.00  0.00     0.023 A 
ATOM     68  C   UNL A   1      39.598  31.324  36.050  1.00  0.00     0.031 A 
ATOM     69  C   UNL A   1      41.376  32.754  35.276  1.00  0.00     0.131 A 
ATOM     70  C   UNL A   1      39.263  32.297  37.002  1.00  0.00     0.055 A 
ATOM     71  C   UNL A   1      41.088  33.685  36.276  1.00  0.00     0.041 A 
ATOM     72  F   UNL A   1      42.374  33.041  34.427  1.00  0.00    -0.206 F 
ATOM     73  C   UNL A   1      40.017  33.466  37.138  1.00  0.00     0.022 A 
BRANCH  70  74
ATOM     74  S   UNL A   1      37.752  32.071  37.978  1.00  0.00     0.124 S 
ATOM     75  O   UNL A   1      37.403  30.688  37.661  1.00  0.00    -0.237 OA
ATOM     76  O   UNL A   1      38.214  32.317  39.340  1.00  0.00    -0.237 OA
ATOM     77  O   UNL A   1      36.841  33.078  37.437  1.00  0.00    -0.744 OA
ENDBRANCH  70  74
ENDBRANCH  53  67
BRANCH  54  78
ATOM     78  C   UNL A   1      42.451  25.426  27.445  1.00  0.00     0.023 A 
ATOM     79  C   UNL A   1      41.988  24.102  27.382  1.00  0.00     0.031 A 
ATOM     80  C   UNL A   1      43.283  25.883  26.409  1.00  0.00     0.131 A 
ATOM     81  C   UNL A   1      42.409  23.262  26.340  1.00  0.00     0.055 A 
ATOM     82  C   UNL A   1      43.656  25.060  25.345  1.00  0.00     0.041 A 
ATOM     83  F   UNL A   1      43.747  27.144  26.416  1.00  0.00    -0.206 F 
ATOM     84  C   UNL A   1      43.233  23.735  25.316  1.00  0.00     0.022 A 
BRANCH  81  85
ATOM     85  S   UNL A   1      41.948  21.508  26.400  1.00  0.00     0.124 S 
ATOM     86  O   UNL A   1      42.817  20.936  25.376  1.00  0.00    -0.237 OA
ATOM     87  O   UNL A   1      42.269  21.160  27.780  1.00  0.00    -0.237 OA
ATOM     88  O   UNL A   1      40.523  21.520  26.075  1.00  0.00    -0.744 OA
ENDBRANCH  81  85
ENDBRANCH  54  78
BRANCH  66  89
ATOM     89  C   UNL A   1      45.566  26.479  33.583  1.00  0.00     0.023 A 
ATOM     90  C   UNL A   1      45.401  25.354  34.410  1.00  0.00     0.031 A 
ATOM     91  C   UNL A   1      46.865  26.984  33.399  1.00  0.00     0.131 A 
ATOM     92  C   UNL A   1      46.513  24.804  35.067  1.00  0.00     0.055 A 
ATOM     93  C   UNL A   1      47.973  26.403  34.015  1.00  0.00     0.041 A 
ATOM     94  F   UNL A   1      47.077  28.056  32.618  1.00  0.00    -0.206 F 
ATOM     95  C   UNL A   1      47.799  25.313  34.866  1.00  0.00     0.022 A 
BRANCH  92  96
ATOM     96  S   UNL A   1      46.245  23.459  36.255  1.00  0.00     0.124 S 
ATOM     97  O   UNL A   1      46.394  22.275  35.413  1.00  0.00    -0.237 OA
ATOM     98  O   UNL A   1      47.308  23.686  37.227  1.00  0.00    -0.237 OA
ATOM     99  O   UNL A   1      44.891  23.702  36.749  1.00  0.00    -0.744 OA
ENDBRANCH  92  96
ENDBRANCH  66  89
ENDBRANCH  40  41
ENDBRANCH  32  35
ENDBRANCH  30  31
ENDBRANCH   1  30
TORSDOF 17
ENDMDL
MODEL 2
REMARK VINA RESULT:     -13.5      1.113      7.326
REMARK SMILES O=C(NCCCCNC(=O)c1ccc(-c2c3nc(c(-c4cc(S(=O)(=O)[O-])ccc4F)c4ccc([nH]4)c(-c4cc(S(=O)(=O)[O-])ccc4F)c4nc(c(-c5cc(S(=O)(=O)[O-])ccc5F)c5ccc2[nH]5)C=C4)C=C3)cc1)C1=Cc2c(ccc(Cl)c2Oc2ccccc2)O[C@H]1C(F)(F)F
REMARK SMILES IDX 6 1 5 2 4 3 3 4 1 5 2 6 74 8 75 9 91 10 76 11 90 12 77 13
REMARK SMILES IDX 82 14 78 15 80 16 79 17 81 18 92 19 93 20 94 21 95 22 83 23
REMARK SMILES IDX 84 24 85 25 89 26 86 27 88 28 87 29 7 30 8 31 9 32 10 34
REMARK SMILES IDX 11 35 12 36 73 37 13 38 72 39 14 40 15 41 16 42 66 43 17 44
REMARK SMILES IDX 71 45 65 46 67 47 18 48 70 49 64 50 63 51 19 53 51 54 31 55
REMARK SMILES IDX 50 56 32 57 35 58 49 59 68 60 33 61 34 62 48 64 69 65 36 66
REMARK SMILES IDX 20 67 21 68 29 69 22 70 28 71 30 72 27 73 23 74 24 75 25 76
REMARK SMILES IDX 26 77 52 78 53 79 61 80 54 81 60 82 62 83 59 84 55 85 56 86
REMARK SMILES IDX 57 87 58 88 37 89 38 90 46 91 39 92 45 93 47 94 44 95 40 96
REMARK SMILES IDX 41 97 42 98 43 99
REMARK H PARENT 3 7 8 33 67 52 35 63
REMARK Flexibility Score: inf
ROOT
ATOM      1  C   UNL A   1      31.623  28.880  25.947  1.00  0.00     0.023 C 
ENDROOT
BRANCH   1   2
ATOM      2  C   UNL A   1      31.804  27.780  26.993  1.00  0.00     0.023 C 
BRANCH   2   3
ATOM      3  C   UNL A   1      32.265  26.434  26.443  1.00  0.00     0.116 C 
BRANCH   3   4
ATOM      4  N   UNL A   1      31.595  25.296  27.052  1.00  0.00    -0.352 N 
ATOM      5  O   UNL A   1      30.620  23.266  27.147  1.00  0.00    -0.270 OA
ATOM      6  C   UNL A   1      31.261  24.091  26.502  1.00  0.00     0.251 C 
ATOM      7  H   UNL A   1      31.347  25.410  27.998  1.00  0.00     0.163 HD
BRANCH   6   8
ATOM      8  C   UNL A   1      31.633  23.780  25.107  1.00  0.00     0.067 C 
ATOM      9  C   UNL A   1      32.032  22.541  24.798  1.00  0.00     0.029 C 
ATOM     10  C   UNL A   1      31.955  24.919  24.196  1.00  0.00     0.314 C 
ATOM     11  C   UNL A   1      33.466  22.487  24.422  1.00  0.00     0.061 A 
ATOM     12  O   UNL A   1      33.277  24.796  23.589  1.00  0.00    -0.475 OA
ATOM     13  C   UNL A   1      34.013  23.666  23.864  1.00  0.00     0.131 A 
ATOM     14  C   UNL A   1      34.308  21.398  24.750  1.00  0.00     0.156 A 
ATOM     15  C   UNL A   1      35.384  23.780  23.654  1.00  0.00     0.049 A 
ATOM     16  C   UNL A   1      35.695  21.557  24.564  1.00  0.00     0.084 A 
ATOM     17  C   UNL A   1      36.227  22.737  24.028  1.00  0.00     0.028 A 
ATOM     18  Cl  UNL A   1      36.814  20.330  25.050  1.00  0.00    -0.080 Cl
BRANCH  10  19
ATOM     19  C   UNL A   1      30.889  25.063  23.100  1.00  0.00     0.429 C 
ATOM     20  F   UNL A   1      30.175  26.208  23.231  1.00  0.00    -0.167 F 
ATOM     21  F   UNL A   1      31.427  25.068  21.858  1.00  0.00    -0.167 F 
ATOM     22  F   UNL A   1      30.005  24.036  23.138  1.00  0.00    -0.167 F 
ENDBRANCH  10  19
BRANCH  14  23
ATOM     23  O   UNL A   1      33.937  20.189  25.328  1.00  0.00    -0.455 OA
BRANCH  23  24
ATOM     24  C   UNL A   1      33.724  19.091  24.538  1.00  0.00     0.127 A 
ATOM     25  C   UNL A   1      32.664  19.118  23.630  1.00  0.00     0.047 A 
ATOM     26  C   UNL A   1      34.560  17.976  24.626  1.00  0.00     0.047 A 
ATOM     27  C   UNL A   1      32.512  18.073  22.720  1.00  0.00     0.004 A 
ATOM     28  C   UNL A   1      34.403  16.932  23.713  1.00  0.00     0.004 A 
ATOM     29  C   UNL A   1      33.394  16.991  22.750  1.00  0.00     0.000 A 
ENDBRANCH  23  24
ENDBRANCH  14  23
ENDBRANCH   6   8
ENDBRANCH   3   4
ENDBRANCH   2   3
ENDBRANCH   1   2
BRANCH   1  30
ATOM     30  C   UNL A   1      32.748  29.911  25.836  1.00  0.00     0.116 C 
BRANCH  30  31
ATOM     31  N   UNL A   1      32.409  31.223  26.365  1.00  0.00    -0.352 N 
ATOM     32  C   UNL A   1      33.106  32.022  27.248  1.00  0.00     0.251 C 
ATOM     33  H   UNL A   1      31.554  31.596  26.047  1.00  0.00     0.163 HD
ATOM     34  O   UNL A   1      32.613  33.081  27.620  1.00  0.00    -0.269 OA
BRANCH  32  35
ATOM     35  C   UNL A   1      34.416  31.577  27.783  1.00  0.00     0.039 A 
ATOM     36  C   UNL A   1      35.418  32.530  27.990  1.00  0.00     0.014 A 
ATOM     37  C   UNL A   1      34.653  30.238  28.105  1.00  0.00     0.014 A 
ATOM     38  C   UNL A   1      36.615  32.159  28.614  1.00  0.00     0.010 A 
ATOM     39  C   UNL A   1      35.819  29.883  28.785  1.00  0.00     0.010 A 
ATOM     40  C   UNL A   1      36.806  30.843  29.063  1.00  0.00    -0.014 A 
BRANCH  40  41
ATOM     41  C   UNL A   1      38.017  30.453  29.838  1.00  0.00     0.031 A 
ATOM     42  C   UNL A   1      39.002  29.474  29.259  1.00  0.00     0.074 A 
ATOM     43  C   UNL A   1      38.194  30.920  31.091  1.00  0.00     0.049 A 
ATOM     44  N   UNL A   1      40.046  28.917  29.819  1.00  0.00    -0.248 NA
ATOM     45  C   UNL A   1      38.761  29.042  27.874  1.00  0.00     0.031 C 
ATOM     46  C   UNL A   1      37.292  31.844  31.786  1.00  0.00     0.029 A 
ATOM     47  N   UNL A   1      39.181  30.672  32.012  1.00  0.00    -0.354 N 
ATOM     48  C   UNL A   1      40.578  28.058  28.863  1.00  0.00     0.074 A 
ATOM     49  C   UNL A   1      39.708  28.132  27.707  1.00  0.00     0.031 C 
ATOM     50  C   UNL A   1      37.775  32.091  33.014  1.00  0.00     0.029 A 
ATOM     51  C   UNL A   1      38.996  31.317  33.214  1.00  0.00     0.049 A 
ATOM     52  H   UNL A   1      39.951  30.086  31.830  1.00  0.00     0.167 HD
ATOM     53  C   UNL A   1      41.696  27.293  28.934  1.00  0.00     0.034 A 
ATOM     54  C   UNL A   1      39.720  31.281  34.352  1.00  0.00     0.034 A 
ATOM     55  C   UNL A   1      42.566  27.235  30.083  1.00  0.00     0.049 A 
ATOM     56  C   UNL A   1      40.968  30.436  34.400  1.00  0.00     0.074 A 
ATOM     57  C   UNL A   1      43.726  26.499  30.255  1.00  0.00     0.029 A 
ATOM     58  N   UNL A   1      42.375  27.951  31.258  1.00  0.00    -0.354 N 
ATOM     59  N   UNL A   1      41.464  29.643  33.477  1.00  0.00    -0.248 NA
ATOM     60  C   UNL A   1      41.765  30.495  35.633  1.00  0.00     0.031 C 
ATOM     61  C   UNL A   1      44.215  26.740  31.545  1.00  0.00     0.029 A 
ATOM     62  C   UNL A   1      43.394  27.672  32.156  1.00  0.00     0.049 A 
ATOM     63  H   UNL A   1      41.626  28.567  31.428  1.00  0.00     0.167 HD
ATOM     64  C   UNL A   1      42.650  29.142  34.008  1.00  0.00     0.074 A 
ATOM     65  C   UNL A   1      42.799  29.729  35.324  1.00  0.00     0.031 C 
ATOM     66  C   UNL A   1      43.536  28.277  33.458  1.00  0.00     0.034 A 
BRANCH  53  67
ATOM     67  C   UNL A   1      42.026  26.445  27.730  1.00  0.00     0.023 A 
ATOM     68  C   UNL A   1      41.596  25.111  27.636  1.00  0.00     0.031 A 
ATOM     69  C   UNL A   1      42.802  26.964  26.679  1.00  0.00     0.131 A 
ATOM     70  C   UNL A   1      42.005  24.318  26.553  1.00  0.00     0.055 A 
ATOM     71  C   UNL A   1      43.142  26.193  25.565  1.00  0.00     0.041 A 
ATOM     72  F   UNL A   1      43.256  28.227  26.723  1.00  0.00    -0.206 F 
ATOM     73  C   UNL A   1      42.755  24.857  25.505  1.00  0.00     0.022 A 
BRANCH  70  74
ATOM     74  S   UNL A   1      41.650  22.541  26.598  1.00  0.00     0.124 S 
ATOM     75  O   UNL A   1      40.189  22.535  26.599  1.00  0.00    -0.237 OA
ATOM     76  O   UNL A   1      42.289  22.059  25.378  1.00  0.00    -0.237 OA
ATOM     77  O   UNL A   1      42.271  22.098  27.844  1.00  0.00    -0.744 OA
ENDBRANCH  70  74
ENDBRANCH  53  67
BRANCH  54  78
ATOM     78  C   UNL A   1      39.291  32.058  35.551  1.00  0.00     0.023 A 
ATOM     79  C   UNL A   1      38.594  31.438  36.601  1.00  0.00     0.031 A 
ATOM     80  C   UNL A   1      39.511  33.443  35.633  1.00  0.00     0.131 A 
ATOM     81  C   UNL A   1      38.088  32.212  37.658  1.00  0.00     0.055 A 
ATOM     82  C   UNL A   1      39.052  34.200  36.712  1.00  0.00     0.041 A 
ATOM     83  F   UNL A   1      40.180  34.083  34.659  1.00  0.00    -0.206 F 
ATOM     84  C   UNL A   1      38.321  33.587  37.724  1.00  0.00     0.022 A 
BRANCH  81  85
ATOM     85  S   UNL A   1      37.028  31.407  38.891  1.00  0.00     0.124 S 
ATOM     86  O   UNL A   1      35.846  32.263  38.871  1.00  0.00    -0.237 OA
ATOM     87  O   UNL A   1      36.864  30.074  38.322  1.00  0.00    -0.237 OA
ATOM     88  O   UNL A   1      37.824  31.470  40.114  1.00  0.00    -0.744 OA
ENDBRANCH  81  85
ENDBRANCH  54  78
BRANCH  66  89
ATOM     89  C   UNL A   1      44.781  27.976  34.252  1.00  0.00     0.023 A 
ATOM     90  C   UNL A   1      44.836  26.917  35.175  1.00  0.00     0.031 A 
ATOM     91  C   UNL A   1      45.925  28.777  34.091  1.00  0.00     0.131 A 
ATOM     92  C   UNL A   1      45.995  26.721  35.943  1.00  0.00     0.055 A 
ATOM     93  C   UNL A   1      47.091  28.547  34.821  1.00  0.00     0.041 A 
ATOM     94  F   UNL A   1      45.925  29.800  33.222  1.00  0.00    -0.206 F 
ATOM     95  C   UNL A   1      47.126  27.522  35.764  1.00  0.00     0.022 A 
BRANCH  92  96
ATOM     96  S   UNL A   1      45.977  25.453  37.240  1.00  0.00     0.124 S 
ATOM     97  O   UNL A   1      44.614  25.560  37.752  1.00  0.00    -0.237 OA
ATOM     98  O   UNL A   1      46.284  24.239  36.493  1.00  0.00    -0.237 OA
ATOM     99  O   UNL A   1      47.023  25.892  38.164  1.00  0.00    -0.744 OA
ENDBRANCH  92  96
ENDBRANCH  66  89
ENDBRANCH  40  41
ENDBRANCH  32  35
ENDBRANCH  30  31
ENDBRANCH   1  30
TORSDOF 17
ENDMDL
MODEL 3
REMARK VINA RESULT:     -13.3      1.386      1.736
REMARK SMILES O=C(NCCCCNC(=O)c1ccc(-c2c3nc(c(-c4cc(S(=O)(=O)[O-])ccc4F)c4ccc([nH]4)c(-c4cc(S(=O)(=O)[O-])ccc4F)c4nc(c(-c5cc(S(=O)(=O)[O-])ccc5F)c5ccc2[nH]5)C=C4)C=C3)cc1)C1=Cc2c(ccc(Cl)c2Oc2ccccc2)O[C@H]1C(F)(F)F
REMARK SMILES IDX 6 1 5 2 4 3 3 4 1 5 2 6 74 8 75 9 91 10 76 11 90 12 77 13
REMARK SMILES IDX 82 14 78 15 80 16 79 17 81 18 92 19 93 20 94 21 95 22 83 23
REMARK SMILES IDX 84 24 85 25 89 26 86 27 88 28 87 29 7 30 8 31 9 32 10 34
REMARK SMILES IDX 11 35 12 36 73 37 13 38 72 39 14 40 15 41 16 42 66 43 17 44
REMARK SMILES IDX 71 45 65 46 67 47 18 48 70 49 64 50 63 51 19 53 51 54 31 55
REMARK SMILES IDX 50 56 32 57 35 58 49 59 68 60 33 61 34 62 48 64 69 65 36 66
REMARK SMILES IDX 20 67 21 68 29 69 22 70 28 71 30 72 27 73 23 74 24 75 25 76
REMARK SMILES IDX 26 77 52 78 53 79 61 80 54 81 60 82 62 83 59 84 55 85 56 86
REMARK SMILES IDX 57 87 58 88 37 89 38 90 46 91 39 92 45 93 47 94 44 95 40 96
REMARK SMILES IDX 41 97 42 98 43 99
REMARK H PARENT 3 7 8 33 67 52 35 63
REMARK Flexibility Score: inf
ROOT
ATOM      1  C   UNL A   1      31.623  29.104  25.875  1.00  0.00     0.023 C 
ENDROOT
BRANCH   1   2
ATOM      2  C   UNL A   1      31.741  27.962  26.883  1.00  0.00     0.023 C 
BRANCH   2   3
ATOM      3  C   UNL A   1      32.215  26.633  26.301  1.00  0.00     0.116 C 
BRANCH   3   4
ATOM      4  N   UNL A   1      31.655  25.471  26.974  1.00  0.00    -0.352 N 
ATOM      5  O   UNL A   1      30.843  23.379  27.175  1.00  0.00    -0.270 OA
ATOM      6  C   UNL A   1      31.396  24.225  26.479  1.00  0.00     0.251 C 
ATOM      7  H   UNL A   1      31.432  25.602  27.924  1.00  0.00     0.163 HD
BRANCH   6   8
ATOM      8  C   UNL A   1      31.742  23.891  25.082  1.00  0.00     0.067 C 
ATOM      9  C   UNL A   1      32.129  22.645  24.785  1.00  0.00     0.029 C 
ATOM     10  C   UNL A   1      32.056  25.015  24.149  1.00  0.00     0.314 C 
ATOM     11  C   UNL A   1      33.556  22.577  24.387  1.00  0.00     0.061 A 
ATOM     12  O   UNL A   1      33.368  24.875  23.523  1.00  0.00    -0.475 OA
ATOM     13  C   UNL A   1      34.100  23.744  23.801  1.00  0.00     0.131 A 
ATOM     14  C   UNL A   1      34.397  21.488  24.717  1.00  0.00     0.156 A 
ATOM     15  C   UNL A   1      35.469  23.846  23.567  1.00  0.00     0.049 A 
ATOM     16  C   UNL A   1      35.781  21.635  24.505  1.00  0.00     0.084 A 
ATOM     17  C   UNL A   1      36.312  22.803  23.943  1.00  0.00     0.028 A 
ATOM     18  Cl  UNL A   1      36.901  20.408  24.990  1.00  0.00    -0.080 Cl
BRANCH  10  19
ATOM     19  C   UNL A   1      30.973  25.149  23.069  1.00  0.00     0.429 C 
ATOM     20  F   UNL A   1      30.074  24.135  23.119  1.00  0.00    -0.167 F 
ATOM     21  F   UNL A   1      30.277  26.305  23.181  1.00  0.00    -0.167 F 
ATOM     22  F   UNL A   1      31.515  25.140  21.827  1.00  0.00    -0.167 F 
ENDBRANCH  10  19
BRANCH  14  23
ATOM     23  O   UNL A   1      34.028  20.289  25.318  1.00  0.00    -0.455 OA
BRANCH  23  24
ATOM     24  C   UNL A   1      33.784  19.184  24.547  1.00  0.00     0.127 A 
ATOM     25  C   UNL A   1      32.678  19.197  23.695  1.00  0.00     0.047 A 
ATOM     26  C   UNL A   1      34.633  18.077  24.599  1.00  0.00     0.047 A 
ATOM     27  C   UNL A   1      32.488  18.144  22.801  1.00  0.00     0.004 A 
ATOM     28  C   UNL A   1      34.437  17.025  23.703  1.00  0.00     0.004 A 
ATOM     29  C   UNL A   1      33.379  17.069  22.792  1.00  0.00     0.000 A 
ENDBRANCH  23  24
ENDBRANCH  14  23
ENDBRANCH   6   8
ENDBRANCH   3   4
ENDBRANCH   2   3
ENDBRANCH   1   2
BRANCH   1  30
ATOM     30  C   UNL A   1      32.821  30.052  25.770  1.00  0.00     0.116 C 
BRANCH  30  31
ATOM     31  N   UNL A   1      32.596  31.365  26.352  1.00  0.00    -0.352 N 
ATOM     32  C   UNL A   1      33.354  32.061  27.271  1.00  0.00     0.251 C 
ATOM     33  H   UNL A   1      31.782  31.826  26.044  1.00  0.00     0.163 HD
ATOM     34  O   UNL A   1      32.954  33.144  27.685  1.00  0.00    -0.269 OA
BRANCH  32  35
ATOM     35  C   UNL A   1      34.613  31.478  27.794  1.00  0.00     0.039 A 
ATOM     36  C   UNL A   1      35.721  32.313  27.968  1.00  0.00     0.014 A 
ATOM     37  C   UNL A   1      34.701  30.127  28.139  1.00  0.00     0.014 A 
ATOM     38  C   UNL A   1      36.878  31.819  28.582  1.00  0.00     0.010 A 
ATOM     39  C   UNL A   1      35.831  29.652  28.808  1.00  0.00     0.010 A 
ATOM     40  C   UNL A   1      36.925  30.498  29.053  1.00  0.00    -0.014 A 
BRANCH  40  41
ATOM     41  C   UNL A   1      38.096  29.985  29.817  1.00  0.00     0.031 A 
ATOM     42  C   UNL A   1      38.364  30.481  31.213  1.00  0.00     0.074 A 
ATOM     43  C   UNL A   1      38.961  29.132  29.232  1.00  0.00     0.049 A 
ATOM     44  N   UNL A   1      39.390  30.252  31.993  1.00  0.00    -0.248 NA
ATOM     45  C   UNL A   1      37.354  31.377  31.795  1.00  0.00     0.031 C 
ATOM     46  C   UNL A   1      38.840  28.605  27.869  1.00  0.00     0.029 A 
ATOM     47  N   UNL A   1      40.124  28.569  29.698  1.00  0.00    -0.354 N 
ATOM     48  C   UNL A   1      39.159  30.987  33.151  1.00  0.00     0.074 A 
ATOM     49  C   UNL A   1      37.919  31.707  32.946  1.00  0.00     0.031 C 
ATOM     50  C   UNL A   1      39.877  27.789  27.618  1.00  0.00     0.029 A 
ATOM     51  C   UNL A   1      40.759  27.763  28.781  1.00  0.00     0.049 A 
ATOM     52  H   UNL A   1      40.471  28.726  30.606  1.00  0.00     0.167 HD
ATOM     53  C   UNL A   1      39.900  31.042  34.286  1.00  0.00     0.034 A 
ATOM     54  C   UNL A   1      41.924  27.089  28.860  1.00  0.00     0.034 A 
ATOM     55  C   UNL A   1      41.127  30.311  34.488  1.00  0.00     0.049 A 
ATOM     56  C   UNL A   1      42.722  27.152  30.139  1.00  0.00     0.074 A 
ATOM     57  C   UNL A   1      41.950  30.292  35.601  1.00  0.00     0.029 A 
ATOM     58  N   UNL A   1      41.705  29.459  33.556  1.00  0.00    -0.354 N 
ATOM     59  N   UNL A   1      42.476  27.840  31.231  1.00  0.00    -0.248 NA
ATOM     60  C   UNL A   1      43.941  26.335  30.205  1.00  0.00     0.031 C 
ATOM     61  C   UNL A   1      43.042  29.459  35.329  1.00  0.00     0.029 A 
ATOM     62  C   UNL A   1      42.871  28.911  34.068  1.00  0.00     0.049 A 
ATOM     63  H   UNL A   1      41.338  29.270  32.661  1.00  0.00     0.167 HD
ATOM     64  C   UNL A   1      43.492  27.507  32.123  1.00  0.00     0.074 A 
ATOM     65  C   UNL A   1      44.344  26.550  31.447  1.00  0.00     0.031 C 
ATOM     66  C   UNL A   1      43.700  27.948  33.388  1.00  0.00     0.034 A 
BRANCH  53  67
ATOM     67  C   UNL A   1      39.402  31.943  35.389  1.00  0.00     0.023 A 
ATOM     68  C   UNL A   1      39.813  33.284  35.480  1.00  0.00     0.031 A 
ATOM     69  C   UNL A   1      38.530  31.452  36.376  1.00  0.00     0.131 A 
ATOM     70  C   UNL A   1      39.413  34.066  36.573  1.00  0.00     0.055 A 
ATOM     71  C   UNL A   1      38.073  32.258  37.421  1.00  0.00     0.041 A 
ATOM     72  F   UNL A   1      38.118  30.175  36.350  1.00  0.00    -0.206 F 
ATOM     73  C   UNL A   1      38.527  33.570  37.532  1.00  0.00     0.022 A 
BRANCH  70  74
ATOM     74  S   UNL A   1      40.169  35.699  36.792  1.00  0.00     0.124 S 
ATOM     75  O   UNL A   1      41.592  35.375  36.722  1.00  0.00    -0.237 OA
ATOM     76  O   UNL A   1      39.630  36.452  35.665  1.00  0.00    -0.237 OA
ATOM     77  O   UNL A   1      39.696  36.122  38.109  1.00  0.00    -0.744 OA
ENDBRANCH  70  74
ENDBRANCH  53  67
BRANCH  54  78
ATOM     78  C   UNL A   1      42.426  26.295  27.701  1.00  0.00     0.023 A 
ATOM     79  C   UNL A   1      41.963  24.990  27.465  1.00  0.00     0.031 A 
ATOM     80  C   UNL A   1      43.424  26.805  26.853  1.00  0.00     0.131 A 
ATOM     81  C   UNL A   1      42.542  24.216  26.447  1.00  0.00     0.055 A 
ATOM     82  C   UNL A   1      43.960  26.049  25.808  1.00  0.00     0.041 A 
ATOM     83  F   UNL A   1      43.896  28.050  27.030  1.00  0.00    -0.206 F 
ATOM     84  C   UNL A   1      43.531  24.741  25.611  1.00  0.00     0.022 A 
BRANCH  81  85
ATOM     85  S   UNL A   1      42.057  22.474  26.301  1.00  0.00     0.124 S 
ATOM     86  O   UNL A   1      40.601  22.567  26.327  1.00  0.00    -0.237 OA
ATOM     87  O   UNL A   1      42.653  22.103  25.023  1.00  0.00    -0.237 OA
ATOM     88  O   UNL A   1      42.665  21.854  27.476  1.00  0.00    -0.744 OA
ENDBRANCH  81  85
ENDBRANCH  54  78
BRANCH  66  89
ATOM     89  C   UNL A   1      44.855  27.341  34.143  1.00  0.00     0.023 A 
ATOM     90  C   UNL A   1      44.782  26.053  34.702  1.00  0.00     0.031 A 
ATOM     91  C   UNL A   1      46.041  28.075  34.317  1.00  0.00     0.131 A 
ATOM     92  C   UNL A   1      45.858  25.560  35.458  1.00  0.00     0.055 A 
ATOM     93  C   UNL A   1      47.125  27.560  35.027  1.00  0.00     0.041 A 
ATOM     94  F   UNL A   1      46.162  29.309  33.802  1.00  0.00    -0.206 F 
ATOM     95  C   UNL A   1      47.033  26.299  35.613  1.00  0.00     0.022 A 
BRANCH  92  96
ATOM     96  S   UNL A   1      45.669  23.966  36.304  1.00  0.00     0.124 S 
ATOM     97  O   UNL A   1      44.226  23.897  36.507  1.00  0.00    -0.237 OA
ATOM     98  O   UNL A   1      46.221  23.030  35.331  1.00  0.00    -0.237 OA
ATOM     99  O   UNL A   1      46.460  24.129  37.523  1.00  0.00    -0.744 OA
ENDBRANCH  92  96
ENDBRANCH  66  89
ENDBRANCH  40  41
ENDBRANCH  32  35
ENDBRANCH  30  31
ENDBRANCH   1  30
TORSDOF 17
ENDMDL
