MODEL 1
REMARK VINA RESULT:     -11.9      0.000      0.000
REMARK SMILES O=C(NCCCCNC(=O)c1cc(-c2ccc(Cl)cc2)nc2c3c(C4CC4)cc(C(F)(F)F)nc3nn12)c1ccc(-c2c3nc(c(-c4cc(S(=O)(=O)[O-])ccc4F)c4ccc([nH]4)c(-c4cc(S(=O)(=O)[O-])ccc4F)c4nc(c(-c5cc(S(=O)(=O)[O-])ccc5F)c5ccc2[nH]5)C=C4)C=C3)cc1
REMARK SMILES IDX 4 1 3 2 1 3 2 4 38 6 39 7 100 8 40 9 99 10 41 11 42 12 43 13
REMARK SMILES IDX 93 14 44 15 98 16 92 17 94 18 45 19 97 20 91 21 90 22 46 24
REMARK SMILES IDX 78 25 58 26 77 27 59 28 62 29 76 30 95 31 60 32 61 33 75 35
REMARK SMILES IDX 96 36 63 37 47 38 48 39 56 40 49 41 55 42 57 43 54 44 50 45
REMARK SMILES IDX 51 46 52 47 53 48 79 49 80 50 88 51 81 52 87 53 89 54 86 55
REMARK SMILES IDX 82 56 83 57 84 58 85 59 64 60 65 61 73 62 66 63 72 64 74 65
REMARK SMILES IDX 71 66 67 67 68 68 69 69 70 70 5 71 6 72 7 73 8 74 9 75 10 77
REMARK SMILES IDX 11 78 12 79 37 80 13 81 22 82 36 83 21 84 23 85 35 86 24 87
REMARK SMILES IDX 34 88 28 89 29 90 14 91 15 92 20 93 16 94 19 95 17 96 18 97
REMARK SMILES IDX 25 98 26 99 27 100 30 101 31 102 32 103 33 104
REMARK H PARENT 3 5 94 23 62 34 8 76
REMARK Flexibility Score: inf
ROOT
ATOM      1  C   UNL A   1      40.221  22.218  27.195  1.00  0.00     0.116 C 
ENDROOT
BRANCH   1   2
ATOM      2  N   UNL A   1      41.252  21.578  26.397  1.00  0.00    -0.352 N 
ATOM      3  O   UNL A   1      43.146  21.557  25.152  1.00  0.00    -0.269 OA
ATOM      4  C   UNL A   1      42.368  22.175  25.855  1.00  0.00     0.251 C 
ATOM      5  H   UNL A   1      41.142  20.616  26.227  1.00  0.00     0.163 HD
BRANCH   4   6
ATOM      6  C   UNL A   1      42.580  23.602  26.153  1.00  0.00     0.039 A 
ATOM      7  C   UNL A   1      43.278  24.408  25.244  1.00  0.00     0.014 A 
ATOM      8  C   UNL A   1      42.168  24.094  27.388  1.00  0.00     0.014 A 
ATOM      9  C   UNL A   1      43.591  25.720  25.589  1.00  0.00     0.010 A 
ATOM     10  C   UNL A   1      42.477  25.408  27.723  1.00  0.00     0.010 A 
ATOM     11  C   UNL A   1      43.175  26.232  26.823  1.00  0.00    -0.014 A 
BRANCH  11  12
ATOM     12  C   UNL A   1      43.329  27.678  27.078  1.00  0.00     0.031 A 
ATOM     13  C   UNL A   1      42.047  28.436  27.097  1.00  0.00     0.074 A 
ATOM     14  C   UNL A   1      44.390  28.230  27.700  1.00  0.00     0.049 A 
ATOM     15  N   UNL A   1      41.257  28.396  28.127  1.00  0.00    -0.248 NA
ATOM     16  C   UNL A   1      41.458  29.057  25.914  1.00  0.00     0.031 C 
ATOM     17  C   UNL A   1      45.297  27.497  28.591  1.00  0.00     0.029 A 
ATOM     18  N   UNL A   1      44.731  29.552  27.877  1.00  0.00    -0.354 N 
ATOM     19  C   UNL A   1      40.043  28.907  27.729  1.00  0.00     0.074 A 
ATOM     20  C   UNL A   1      40.222  29.341  26.359  1.00  0.00     0.031 C 
ATOM     21  C   UNL A   1      45.942  28.391  29.372  1.00  0.00     0.029 A 
ATOM     22  C   UNL A   1      45.624  29.746  28.929  1.00  0.00     0.049 A 
ATOM     23  H   UNL A   1      44.379  30.284  27.319  1.00  0.00     0.167 HD
ATOM     24  C   UNL A   1      38.957  28.919  28.545  1.00  0.00     0.034 A 
ATOM     25  C   UNL A   1      45.649  30.845  29.735  1.00  0.00     0.034 A 
ATOM     26  C   UNL A   1      39.151  28.346  29.846  1.00  0.00     0.049 A 
ATOM     27  C   UNL A   1      44.306  30.744  30.424  1.00  0.00     0.074 A 
ATOM     28  C   UNL A   1      39.031  27.098  30.421  1.00  0.00     0.029 A 
ATOM     29  N   UNL A   1      39.741  29.120  30.821  1.00  0.00    -0.354 N 
ATOM     30  N   UNL A   1      43.995  29.949  31.413  1.00  0.00    -0.248 NA
ATOM     31  C   UNL A   1      43.159  31.371  29.762  1.00  0.00     0.031 C 
ATOM     32  C   UNL A   1      39.954  27.086  31.518  1.00  0.00     0.029 A 
ATOM     33  C   UNL A   1      40.623  28.309  31.501  1.00  0.00     0.049 A 
ATOM     34  H   UNL A   1      39.565  30.072  30.998  1.00  0.00     0.167 HD
ATOM     35  C   UNL A   1      42.611  29.766  31.323  1.00  0.00     0.074 A 
ATOM     36  C   UNL A   1      42.159  30.695  30.308  1.00  0.00     0.031 C 
ATOM     37  C   UNL A   1      41.932  28.755  31.942  1.00  0.00     0.034 A 
BRANCH  24  38
ATOM     38  C   UNL A   1      37.716  29.636  28.199  1.00  0.00     0.023 A 
ATOM     39  C   UNL A   1      36.609  29.011  27.609  1.00  0.00     0.031 A 
ATOM     40  C   UNL A   1      37.615  30.983  28.585  1.00  0.00     0.131 A 
ATOM     41  C   UNL A   1      35.428  29.747  27.439  1.00  0.00     0.055 A 
ATOM     42  C   UNL A   1      36.440  31.708  28.415  1.00  0.00     0.041 A 
ATOM     43  F   UNL A   1      38.661  31.597  29.165  1.00  0.00    -0.206 F 
ATOM     44  C   UNL A   1      35.336  31.086  27.845  1.00  0.00     0.022 A 
BRANCH  41  45
ATOM     45  S   UNL A   1      33.941  28.995  26.720  1.00  0.00     0.124 S 
ATOM     46  O   UNL A   1      34.445  27.709  26.243  1.00  0.00    -0.237 OA
ATOM     47  O   UNL A   1      33.049  28.928  27.875  1.00  0.00    -0.237 OA
ATOM     48  O   UNL A   1      33.543  29.935  25.678  1.00  0.00    -0.744 OA
ENDBRANCH  41  45
ENDBRANCH  24  38
BRANCH  25  49
ATOM     49  C   UNL A   1      46.103  32.122  29.079  1.00  0.00     0.023 A 
ATOM     50  C   UNL A   1      45.382  32.782  28.071  1.00  0.00     0.031 A 
ATOM     51  C   UNL A   1      47.325  32.713  29.470  1.00  0.00     0.131 A 
ATOM     52  C   UNL A   1      45.958  33.853  27.368  1.00  0.00     0.055 A 
ATOM     53  C   UNL A   1      47.869  33.821  28.813  1.00  0.00     0.041 A 
ATOM     54  F   UNL A   1      48.025  32.217  30.504  1.00  0.00    -0.206 F 
ATOM     55  C   UNL A   1      47.199  34.378  27.732  1.00  0.00     0.022 A 
BRANCH  52  56
ATOM     56  S   UNL A   1      45.119  34.543  25.915  1.00  0.00     0.124 S 
ATOM     57  O   UNL A   1      43.825  34.951  26.454  1.00  0.00    -0.237 OA
ATOM     58  O   UNL A   1      46.024  35.631  25.556  1.00  0.00    -0.237 OA
ATOM     59  O   UNL A   1      45.079  33.419  24.988  1.00  0.00    -0.744 OA
ENDBRANCH  52  56
ENDBRANCH  25  49
BRANCH  37  60
ATOM     60  C   UNL A   1      42.714  27.955  32.941  1.00  0.00     0.023 A 
ATOM     61  C   UNL A   1      42.723  28.283  34.311  1.00  0.00     0.031 A 
ATOM     62  C   UNL A   1      43.502  26.874  32.512  1.00  0.00     0.131 A 
ATOM     63  C   UNL A   1      43.541  27.565  35.197  1.00  0.00     0.055 A 
ATOM     64  C   UNL A   1      44.276  26.132  33.404  1.00  0.00     0.041 A 
ATOM     65  F   UNL A   1      43.558  26.543  31.211  1.00  0.00    -0.206 F 
ATOM     66  C   UNL A   1      44.306  26.481  34.752  1.00  0.00     0.022 A 
BRANCH  63  67
ATOM     67  S   UNL A   1      43.666  28.032  36.946  1.00  0.00     0.124 S 
ATOM     68  O   UNL A   1      45.110  28.014  37.183  1.00  0.00    -0.237 OA
ATOM     69  O   UNL A   1      43.057  29.360  36.950  1.00  0.00    -0.237 OA
ATOM     70  O   UNL A   1      42.916  26.998  37.651  1.00  0.00    -0.744 OA
ENDBRANCH  63  67
ENDBRANCH  37  60
ENDBRANCH  11  12
ENDBRANCH   4   6
ENDBRANCH   1   2
BRANCH   1  71
ATOM     71  C   UNL A   1      38.903  22.362  26.441  1.00  0.00     0.023 C 
BRANCH  71  72
ATOM     72  C   UNL A   1      38.252  23.738  26.574  1.00  0.00     0.023 C 
BRANCH  72  73
ATOM     73  C   UNL A   1      37.126  24.021  25.583  1.00  0.00     0.116 C 
BRANCH  73  74
ATOM     74  N   UNL A   1      37.429  23.612  24.217  1.00  0.00    -0.351 N 
ATOM     75  C   UNL A   1      36.602  23.043  23.295  1.00  0.00     0.270 C 
ATOM     76  H   UNL A   1      38.355  23.766  23.922  1.00  0.00     0.163 HD
ATOM     77  O   UNL A   1      36.984  22.805  22.152  1.00  0.00    -0.268 OA
BRANCH  75  78
ATOM     78  C   UNL A   1      35.271  22.611  23.739  1.00  0.00     0.134 A 
ATOM     79  C   UNL A   1      35.190  21.335  24.138  1.00  0.00     0.063 A 
ATOM     80  N   UNL A   1      34.174  23.457  23.812  1.00  0.00    -0.207 N 
ATOM     81  C   UNL A   1      33.850  20.913  24.629  1.00  0.00     0.075 A 
ATOM     82  C   UNL A   1      32.964  23.002  24.379  1.00  0.00     0.166 A 
ATOM     83  N   UNL A   1      34.111  24.757  23.435  1.00  0.00    -0.145 NA
ATOM     84  N   UNL A   1      32.801  21.681  24.737  1.00  0.00    -0.228 NA
ATOM     85  C   UNL A   1      32.186  24.140  24.505  1.00  0.00     0.069 A 
ATOM     86  C   UNL A   1      32.951  25.185  23.905  1.00  0.00     0.184 A 
ATOM     87  C   UNL A   1      30.929  24.279  25.113  1.00  0.00    -0.028 A 
ATOM     88  N   UNL A   1      32.529  26.468  23.852  1.00  0.00    -0.222 NA
ATOM     89  C   UNL A   1      30.536  25.636  25.060  1.00  0.00     0.038 A 
ATOM     90  C   UNL A   1      31.314  26.663  24.449  1.00  0.00     0.147 A 
BRANCH  81  91
ATOM     91  C   UNL A   1      33.784  19.473  24.963  1.00  0.00     0.000 A 
ATOM     92  C   UNL A   1      32.652  18.984  25.620  1.00  0.00     0.012 A 
ATOM     93  C   UNL A   1      34.778  18.598  24.505  1.00  0.00     0.012 A 
ATOM     94  C   UNL A   1      32.500  17.606  25.792  1.00  0.00     0.021 A 
ATOM     95  C   UNL A   1      34.625  17.222  24.689  1.00  0.00     0.021 A 
ATOM     96  C   UNL A   1      33.482  16.732  25.323  1.00  0.00     0.041 A 
ATOM     97  Cl  UNL A   1      33.271  15.035  25.512  1.00  0.00    -0.084 Cl
ENDBRANCH  81  91
BRANCH  87  98
ATOM     98  C   UNL A   1      30.176  23.143  25.727  1.00  0.00     0.020 C 
ATOM     99  C   UNL A   1      30.540  22.562  27.074  1.00  0.00     0.009 C 
ATOM    100  C   UNL A   1      29.316  23.415  26.940  1.00  0.00     0.009 C 
ENDBRANCH  87  98
BRANCH  90 101
ATOM    101  C   UNL A   1      30.785  28.093  24.472  1.00  0.00     0.433 C 
ATOM    102  F   UNL A   1      31.520  28.947  23.705  1.00  0.00    -0.165 F 
ATOM    103  F   UNL A   1      29.497  28.200  24.034  1.00  0.00    -0.165 F 
ATOM    104  F   UNL A   1      30.782  28.647  25.724  1.00  0.00    -0.165 F 
ENDBRANCH  90 101
ENDBRANCH  75  78
ENDBRANCH  73  74
ENDBRANCH  72  73
ENDBRANCH  71  72
ENDBRANCH   1  71
TORSDOF 17
ENDMDL
MODEL 2
REMARK VINA RESULT:     -11.8      6.219     11.022
REMARK SMILES O=C(NCCCCNC(=O)c1cc(-c2ccc(Cl)cc2)nc2c3c(C4CC4)cc(C(F)(F)F)nc3nn12)c1ccc(-c2c3nc(c(-c4cc(S(=O)(=O)[O-])ccc4F)c4ccc([nH]4)c(-c4cc(S(=O)(=O)[O-])ccc4F)c4nc(c(-c5cc(S(=O)(=O)[O-])ccc5F)c5ccc2[nH]5)C=C4)C=C3)cc1
REMARK SMILES IDX 4 1 3 2 1 3 2 4 38 6 39 7 100 8 40 9 99 10 41 11 42 12 43 13
REMARK SMILES IDX 93 14 44 15 98 16 92 17 94 18 45 19 97 20 91 21 90 22 46 24
REMARK SMILES IDX 78 25 58 26 77 27 59 28 62 29 76 30 95 31 60 32 61 33 75 35
REMARK SMILES IDX 96 36 63 37 47 38 48 39 56 40 49 41 55 42 57 43 54 44 50 45
REMARK SMILES IDX 51 46 52 47 53 48 79 49 80 50 88 51 81 52 87 53 89 54 86 55
REMARK SMILES IDX 82 56 83 57 84 58 85 59 64 60 65 61 73 62 66 63 72 64 74 65
REMARK SMILES IDX 71 66 67 67 68 68 69 69 70 70 5 71 6 72 7 73 8 74 9 75 10 77
REMARK SMILES IDX 11 78 12 79 37 80 13 81 22 82 36 83 21 84 23 85 35 86 24 87
REMARK SMILES IDX 34 88 28 89 29 90 14 91 15 92 20 93 16 94 19 95 17 96 18 97
REMARK SMILES IDX 25 98 26 99 27 100 30 101 31 102 32 103 33 104
REMARK H PARENT 3 5 94 23 62 34 8 76
REMARK Flexibility Score: inf
ROOT
ATOM      1  C   UNL A   1      43.377  25.699  36.480  1.00  0.00     0.116 C 
ENDROOT
BRANCH   1   2
ATOM      2  N   UNL A   1      43.742  24.296  36.393  1.00  0.00    -0.352 N 
ATOM      3  O   UNL A   1      44.506  22.452  35.320  1.00  0.00    -0.269 OA
ATOM      4  C   UNL A   1      44.286  23.648  35.306  1.00  0.00     0.251 C 
ATOM      5  H   UNL A   1      43.585  23.750  37.196  1.00  0.00     0.163 HD
BRANCH   4   6
ATOM      6  C   UNL A   1      44.585  24.465  34.117  1.00  0.00     0.039 A 
ATOM      7  C   UNL A   1      45.498  25.523  34.210  1.00  0.00     0.014 A 
ATOM      8  C   UNL A   1      43.870  24.227  32.948  1.00  0.00     0.014 A 
ATOM      9  C   UNL A   1      45.678  26.373  33.122  1.00  0.00     0.010 A 
ATOM     10  C   UNL A   1      44.060  25.075  31.861  1.00  0.00     0.010 A 
ATOM     11  C   UNL A   1      44.973  26.141  31.935  1.00  0.00    -0.014 A 
BRANCH  11  12
ATOM     12  C   UNL A   1      45.335  26.918  30.734  1.00  0.00     0.031 A 
ATOM     13  C   UNL A   1      45.443  26.106  29.490  1.00  0.00     0.074 A 
ATOM     14  C   UNL A   1      45.133  28.244  30.598  1.00  0.00     0.049 A 
ATOM     15  N   UNL A   1      44.384  25.714  28.848  1.00  0.00    -0.248 NA
ATOM     16  C   UNL A   1      46.683  25.481  29.038  1.00  0.00     0.031 C 
ATOM     17  C   UNL A   1      44.158  29.013  31.378  1.00  0.00     0.029 A 
ATOM     18  N   UNL A   1      45.543  29.111  29.610  1.00  0.00    -0.354 N 
ATOM     19  C   UNL A   1      44.781  24.738  27.963  1.00  0.00     0.074 A 
ATOM     20  C   UNL A   1      46.222  24.651  28.086  1.00  0.00     0.031 C 
ATOM     21  C   UNL A   1      43.891  30.160  30.716  1.00  0.00     0.029 A 
ATOM     22  C   UNL A   1      44.785  30.281  29.567  1.00  0.00     0.049 A 
ATOM     23  H   UNL A   1      46.290  28.924  28.998  1.00  0.00     0.167 HD
ATOM     24  C   UNL A   1      43.897  24.044  27.200  1.00  0.00     0.034 A 
ATOM     25  C   UNL A   1      44.492  30.976  28.433  1.00  0.00     0.034 A 
ATOM     26  C   UNL A   1      42.515  24.381  27.391  1.00  0.00     0.049 A 
ATOM     27  C   UNL A   1      43.642  29.976  27.678  1.00  0.00     0.074 A 
ATOM     28  C   UNL A   1      41.483  23.961  28.203  1.00  0.00     0.029 A 
ATOM     29  N   UNL A   1      42.016  25.490  26.744  1.00  0.00    -0.354 N 
ATOM     30  N   UNL A   1      42.388  29.692  27.904  1.00  0.00    -0.248 NA
ATOM     31  C   UNL A   1      44.335  29.026  26.805  1.00  0.00     0.031 C 
ATOM     32  C   UNL A   1      40.607  25.089  28.333  1.00  0.00     0.029 A 
ATOM     33  C   UNL A   1      41.198  26.145  27.639  1.00  0.00     0.049 A 
ATOM     34  H   UNL A   1      42.208  25.764  25.819  1.00  0.00     0.167 HD
ATOM     35  C   UNL A   1      42.208  28.390  27.425  1.00  0.00     0.074 A 
ATOM     36  C   UNL A   1      43.436  28.056  26.733  1.00  0.00     0.031 C 
ATOM     37  C   UNL A   1      41.152  27.590  27.762  1.00  0.00     0.034 A 
BRANCH  24  38
ATOM     38  C   UNL A   1      44.325  23.143  26.116  1.00  0.00     0.023 A 
ATOM     39  C   UNL A   1      44.065  21.766  26.117  1.00  0.00     0.031 A 
ATOM     40  C   UNL A   1      44.926  23.723  24.986  1.00  0.00     0.131 A 
ATOM     41  C   UNL A   1      44.396  21.014  24.981  1.00  0.00     0.055 A 
ATOM     42  C   UNL A   1      45.250  22.973  23.861  1.00  0.00     0.041 A 
ATOM     43  F   UNL A   1      45.171  25.045  24.960  1.00  0.00    -0.206 F 
ATOM     44  C   UNL A   1      44.978  21.610  23.853  1.00  0.00     0.022 A 
BRANCH  41  45
ATOM     45  S   UNL A   1      44.052  19.234  24.892  1.00  0.00     0.124 S 
ATOM     46  O   UNL A   1      44.413  18.918  23.512  1.00  0.00    -0.237 OA
ATOM     47  O   UNL A   1      44.952  18.702  25.912  1.00  0.00    -0.237 OA
ATOM     48  O   UNL A   1      42.629  19.137  25.203  1.00  0.00    -0.744 OA
ENDBRANCH  41  45
ENDBRANCH  24  38
BRANCH  25  49
ATOM     49  C   UNL A   1      45.655  31.673  27.778  1.00  0.00     0.023 A 
ATOM     50  C   UNL A   1      46.985  31.233  27.875  1.00  0.00     0.031 A 
ATOM     51  C   UNL A   1      45.431  32.845  27.022  1.00  0.00     0.131 A 
ATOM     52  C   UNL A   1      48.036  32.040  27.409  1.00  0.00     0.055 A 
ATOM     53  C   UNL A   1      46.476  33.614  26.500  1.00  0.00     0.041 A 
ATOM     54  F   UNL A   1      44.182  33.275  26.779  1.00  0.00    -0.206 F 
ATOM     55  C   UNL A   1      47.791  33.229  26.722  1.00  0.00     0.022 A 
BRANCH  52  56
ATOM     56  S   UNL A   1      49.757  31.577  27.750  1.00  0.00     0.124 S 
ATOM     57  O   UNL A   1      49.615  30.524  28.752  1.00  0.00    -0.237 OA
ATOM     58  O   UNL A   1      50.199  31.136  26.431  1.00  0.00    -0.237 OA
ATOM     59  O   UNL A   1      50.347  32.820  28.234  1.00  0.00    -0.744 OA
ENDBRANCH  52  56
ENDBRANCH  25  49
BRANCH  37  60
ATOM     60  C   UNL A   1      40.036  28.258  28.508  1.00  0.00     0.023 A 
ATOM     61  C   UNL A   1      39.801  28.008  29.874  1.00  0.00     0.031 A 
ATOM     62  C   UNL A   1      39.160  29.124  27.832  1.00  0.00     0.131 A 
ATOM     63  C   UNL A   1      38.690  28.582  30.510  1.00  0.00     0.055 A 
ATOM     64  C   UNL A   1      38.085  29.732  28.480  1.00  0.00     0.041 A 
ATOM     65  F   UNL A   1      39.318  29.367  26.520  1.00  0.00    -0.206 F 
ATOM     66  C   UNL A   1      37.840  29.455  29.823  1.00  0.00     0.022 A 
BRANCH  63  67
ATOM     67  S   UNL A   1      38.291  28.191  32.237  1.00  0.00     0.124 S 
ATOM     68  O   UNL A   1      38.097  26.742  32.204  1.00  0.00    -0.237 OA
ATOM     69  O   UNL A   1      39.495  28.637  32.934  1.00  0.00    -0.237 OA
ATOM     70  O   UNL A   1      37.086  28.966  32.514  1.00  0.00    -0.744 OA
ENDBRANCH  63  67
ENDBRANCH  37  60
ENDBRANCH  11  12
ENDBRANCH   4   6
ENDBRANCH   1   2
BRANCH   1  71
ATOM     71  C   UNL A   1      41.965  25.968  35.970  1.00  0.00     0.023 C 
BRANCH  71  72
ATOM     72  C   UNL A   1      41.899  26.921  34.778  1.00  0.00     0.023 C 
BRANCH  72  73
ATOM     73  C   UNL A   1      41.987  28.404  35.128  1.00  0.00     0.116 C 
BRANCH  73  74
ATOM     74  N   UNL A   1      40.831  28.903  35.863  1.00  0.00    -0.351 N 
ATOM     75  C   UNL A   1      40.206  30.109  35.752  1.00  0.00     0.270 C 
ATOM     76  H   UNL A   1      40.451  28.286  36.530  1.00  0.00     0.163 HD
ATOM     77  O   UNL A   1      39.196  30.369  36.400  1.00  0.00    -0.268 OA
BRANCH  75  78
ATOM     78  C   UNL A   1      40.841  31.139  34.920  1.00  0.00     0.134 A 
ATOM     79  C   UNL A   1      42.143  31.340  35.158  1.00  0.00     0.063 A 
ATOM     80  N   UNL A   1      40.181  31.823  33.909  1.00  0.00    -0.207 N 
ATOM     81  C   UNL A   1      42.795  32.353  34.282  1.00  0.00     0.075 A 
ATOM     82  C   UNL A   1      40.896  32.698  33.063  1.00  0.00     0.166 A 
ATOM     83  N   UNL A   1      38.874  31.727  33.568  1.00  0.00    -0.145 NA
ATOM     84  N   UNL A   1      42.219  32.999  33.307  1.00  0.00    -0.228 NA
ATOM     85  C   UNL A   1      40.004  33.014  32.053  1.00  0.00     0.069 A 
ATOM     86  C   UNL A   1      38.779  32.385  32.424  1.00  0.00     0.184 A 
ATOM     87  C   UNL A   1      40.230  33.761  30.886  1.00  0.00    -0.028 A 
ATOM     88  N   UNL A   1      37.660  32.447  31.666  1.00  0.00    -0.222 NA
ATOM     89  C   UNL A   1      39.048  33.780  30.111  1.00  0.00     0.038 A 
ATOM     90  C   UNL A   1      37.832  33.149  30.505  1.00  0.00     0.147 A 
BRANCH  81  91
ATOM     91  C   UNL A   1      44.204  32.612  34.650  1.00  0.00     0.000 A 
ATOM     92  C   UNL A   1      45.216  32.161  33.798  1.00  0.00     0.012 A 
ATOM     93  C   UNL A   1      44.507  33.414  35.758  1.00  0.00     0.012 A 
ATOM     94  C   UNL A   1      46.538  32.541  34.042  1.00  0.00     0.021 A 
ATOM     95  C   UNL A   1      45.832  33.783  36.001  1.00  0.00     0.021 A 
ATOM     96  C   UNL A   1      46.840  33.353  35.136  1.00  0.00     0.041 A 
ATOM     97  Cl  UNL A   1      48.467  33.842  35.410  1.00  0.00    -0.084 Cl
ENDBRANCH  81  91
BRANCH  87  98
ATOM     98  C   UNL A   1      41.541  34.397  30.551  1.00  0.00     0.020 C 
ATOM     99  C   UNL A   1      42.524  33.771  29.589  1.00  0.00     0.009 C 
ATOM    100  C   UNL A   1      41.734  34.972  29.167  1.00  0.00     0.009 C 
ENDBRANCH  87  98
BRANCH  90 101
ATOM    101  C   UNL A   1      36.629  33.229  29.571  1.00  0.00     0.433 C 
ATOM    102  F   UNL A   1      35.839  32.120  29.621  1.00  0.00    -0.165 F 
ATOM    103  F   UNL A   1      35.813  34.291  29.831  1.00  0.00    -0.165 F 
ATOM    104  F   UNL A   1      36.978  33.363  28.254  1.00  0.00    -0.165 F 
ENDBRANCH  90 101
ENDBRANCH  75  78
ENDBRANCH  73  74
ENDBRANCH  72  73
ENDBRANCH  71  72
ENDBRANCH   1  71
TORSDOF 17
ENDMDL
MODEL 3
REMARK VINA RESULT:     -11.8      5.618     10.694
REMARK SMILES O=C(NCCCCNC(=O)c1cc(-c2ccc(Cl)cc2)nc2c3c(C4CC4)cc(C(F)(F)F)nc3nn12)c1ccc(-c2c3nc(c(-c4cc(S(=O)(=O)[O-])ccc4F)c4ccc([nH]4)c(-c4cc(S(=O)(=O)[O-])ccc4F)c4nc(c(-c5cc(S(=O)(=O)[O-])ccc5F)c5ccc2[nH]5)C=C4)C=C3)cc1
REMARK SMILES IDX 4 1 3 2 1 3 2 4 38 6 39 7 100 8 40 9 99 10 41 11 42 12 43 13
REMARK SMILES IDX 93 14 44 15 98 16 92 17 94 18 45 19 97 20 91 21 90 22 46 24
REMARK SMILES IDX 78 25 58 26 77 27 59 28 62 29 76 30 95 31 60 32 61 33 75 35
REMARK SMILES IDX 96 36 63 37 47 38 48 39 56 40 49 41 55 42 57 43 54 44 50 45
REMARK SMILES IDX 51 46 52 47 53 48 79 49 80 50 88 51 81 52 87 53 89 54 86 55
REMARK SMILES IDX 82 56 83 57 84 58 85 59 64 60 65 61 73 62 66 63 72 64 74 65
REMARK SMILES IDX 71 66 67 67 68 68 69 69 70 70 5 71 6 72 7 73 8 74 9 75 10 77
REMARK SMILES IDX 11 78 12 79 37 80 13 81 22 82 36 83 21 84 23 85 35 86 24 87
REMARK SMILES IDX 34 88 28 89 29 90 14 91 15 92 20 93 16 94 19 95 17 96 18 97
REMARK SMILES IDX 25 98 26 99 27 100 30 101 31 102 32 103 33 104
REMARK H PARENT 3 5 94 23 62 34 8 76
REMARK Flexibility Score: inf
ROOT
ATOM      1  C   UNL A   1      48.283  31.400  28.383  1.00  0.00     0.116 C 
ENDROOT
BRANCH   1   2
ATOM      2  N   UNL A   1      48.194  32.307  27.253  1.00  0.00    -0.352 N 
ATOM      3  O   UNL A   1      47.084  33.609  25.767  1.00  0.00    -0.269 OA
ATOM      4  C   UNL A   1      47.056  32.903  26.758  1.00  0.00     0.251 C 
ATOM      5  H   UNL A   1      49.038  32.520  26.793  1.00  0.00     0.163 HD
BRANCH   4   6
ATOM      6  C   UNL A   1      45.795  32.645  27.475  1.00  0.00     0.039 A 
ATOM      7  C   UNL A   1      45.535  33.300  28.686  1.00  0.00     0.014 A 
ATOM      8  C   UNL A   1      44.934  31.672  26.979  1.00  0.00     0.014 A 
ATOM      9  C   UNL A   1      44.407  32.955  29.425  1.00  0.00     0.010 A 
ATOM     10  C   UNL A   1      43.804  31.337  27.719  1.00  0.00     0.010 A 
ATOM     11  C   UNL A   1      43.525  31.984  28.935  1.00  0.00    -0.014 A 
BRANCH  11  12
ATOM     12  C   UNL A   1      42.235  31.788  29.623  1.00  0.00     0.031 A 
ATOM     13  C   UNL A   1      42.230  30.670  30.606  1.00  0.00     0.074 A 
ATOM     14  C   UNL A   1      41.294  32.745  29.761  1.00  0.00     0.049 A 
ATOM     15  N   UNL A   1      42.772  30.804  31.780  1.00  0.00    -0.248 NA
ATOM     16  C   UNL A   1      41.866  29.297  30.268  1.00  0.00     0.031 C 
ATOM     17  C   UNL A   1      41.564  34.184  29.670  1.00  0.00     0.029 A 
ATOM     18  N   UNL A   1      40.008  32.666  30.245  1.00  0.00    -0.354 N 
ATOM     19  C   UNL A   1      42.901  29.542  32.315  1.00  0.00     0.074 A 
ATOM     20  C   UNL A   1      42.291  28.640  31.360  1.00  0.00     0.031 C 
ATOM     21  C   UNL A   1      40.556  34.846  30.280  1.00  0.00     0.029 A 
ATOM     22  C   UNL A   1      39.506  33.901  30.652  1.00  0.00     0.049 A 
ATOM     23  H   UNL A   1      39.497  31.827  30.298  1.00  0.00     0.167 HD
ATOM     24  C   UNL A   1      43.523  29.316  33.501  1.00  0.00     0.034 A 
ATOM     25  C   UNL A   1      38.637  34.085  31.685  1.00  0.00     0.034 A 
ATOM     26  C   UNL A   1      44.057  30.478  34.154  1.00  0.00     0.049 A 
ATOM     27  C   UNL A   1      39.471  33.635  32.865  1.00  0.00     0.074 A 
ATOM     28  C   UNL A   1      45.249  31.170  34.153  1.00  0.00     0.029 A 
ATOM     29  N   UNL A   1      43.201  31.265  34.892  1.00  0.00    -0.354 N 
ATOM     30  N   UNL A   1      40.416  34.317  33.456  1.00  0.00    -0.248 NA
ATOM     31  C   UNL A   1      39.439  32.213  33.211  1.00  0.00     0.031 C 
ATOM     32  C   UNL A   1      44.914  32.521  34.496  1.00  0.00     0.029 A 
ATOM     33  C   UNL A   1      43.527  32.576  34.623  1.00  0.00     0.049 A 
ATOM     34  H   UNL A   1      42.492  30.950  35.497  1.00  0.00     0.167 HD
ATOM     35  C   UNL A   1      41.259  33.363  34.035  1.00  0.00     0.074 A 
ATOM     36  C   UNL A   1      40.579  32.093  33.874  1.00  0.00     0.031 C 
ATOM     37  C   UNL A   1      42.534  33.621  34.453  1.00  0.00     0.034 A 
BRANCH  24  38
ATOM     38  C   UNL A   1      43.494  28.004  34.172  1.00  0.00     0.023 A 
ATOM     39  C   UNL A   1      42.724  27.744  35.313  1.00  0.00     0.031 A 
ATOM     40  C   UNL A   1      44.193  26.947  33.564  1.00  0.00     0.131 A 
ATOM     41  C   UNL A   1      42.660  26.432  35.802  1.00  0.00     0.055 A 
ATOM     42  C   UNL A   1      44.124  25.647  34.052  1.00  0.00     0.041 A 
ATOM     43  F   UNL A   1      44.926  27.173  32.460  1.00  0.00    -0.206 F 
ATOM     44  C   UNL A   1      43.347  25.383  35.174  1.00  0.00     0.022 A 
BRANCH  41  45
ATOM     45  S   UNL A   1      41.651  26.010  37.250  1.00  0.00     0.124 S 
ATOM     46  O   UNL A   1      40.660  27.084  37.259  1.00  0.00    -0.237 OA
ATOM     47  O   UNL A   1      41.140  24.690  36.888  1.00  0.00    -0.237 OA
ATOM     48  O   UNL A   1      42.602  26.029  38.356  1.00  0.00    -0.744 OA
ENDBRANCH  41  45
ENDBRANCH  24  38
BRANCH  25  49
ATOM     49  C   UNL A   1      37.242  33.561  31.463  1.00  0.00     0.023 A 
ATOM     50  C   UNL A   1      36.748  33.161  30.211  1.00  0.00     0.031 A 
ATOM     51  C   UNL A   1      36.351  33.460  32.555  1.00  0.00     0.131 A 
ATOM     52  C   UNL A   1      35.383  32.875  30.044  1.00  0.00     0.055 A 
ATOM     53  C   UNL A   1      35.007  33.110  32.398  1.00  0.00     0.041 A 
ATOM     54  F   UNL A   1      36.772  33.710  33.806  1.00  0.00    -0.206 F 
ATOM     55  C   UNL A   1      34.507  32.846  31.130  1.00  0.00     0.022 A 
BRANCH  52  56
ATOM     56  S   UNL A   1      34.710  32.592  28.383  1.00  0.00     0.124 S 
ATOM     57  O   UNL A   1      33.528  33.449  28.364  1.00  0.00    -0.237 OA
ATOM     58  O   UNL A   1      35.823  33.034  27.548  1.00  0.00    -0.237 OA
ATOM     59  O   UNL A   1      34.439  31.159  28.373  1.00  0.00    -0.744 OA
ENDBRANCH  52  56
ENDBRANCH  25  49
BRANCH  37  60
ATOM     60  C   UNL A   1      42.934  35.066  34.481  1.00  0.00     0.023 A 
ATOM     61  C   UNL A   1      43.289  35.761  33.309  1.00  0.00     0.031 A 
ATOM     62  C   UNL A   1      43.008  35.750  35.706  1.00  0.00     0.131 A 
ATOM     63  C   UNL A   1      43.746  37.085  33.392  1.00  0.00     0.055 A 
ATOM     64  C   UNL A   1      43.415  37.083  35.778  1.00  0.00     0.041 A 
ATOM     65  F   UNL A   1      42.715  35.123  36.857  1.00  0.00    -0.206 F 
ATOM     66  C   UNL A   1      43.796  37.754  34.619  1.00  0.00     0.022 A 
BRANCH  63  67
ATOM     67  S   UNL A   1      44.321  37.974  31.917  1.00  0.00     0.124 S 
ATOM     68  O   UNL A   1      43.706  39.291  32.073  1.00  0.00    -0.237 OA
ATOM     69  O   UNL A   1      45.772  37.945  32.092  1.00  0.00    -0.237 OA
ATOM     70  O   UNL A   1      43.812  37.186  30.798  1.00  0.00    -0.744 OA
ENDBRANCH  63  67
ENDBRANCH  37  60
ENDBRANCH  11  12
ENDBRANCH   4   6
ENDBRANCH   1   2
BRANCH   1  71
ATOM     71  C   UNL A   1      48.125  29.940  27.975  1.00  0.00     0.023 C 
BRANCH  71  72
ATOM     72  C   UNL A   1      47.057  29.181  28.761  1.00  0.00     0.023 C 
BRANCH  72  73
ATOM     73  C   UNL A   1      46.361  28.059  27.994  1.00  0.00     0.116 C 
BRANCH  73  74
ATOM     74  N   UNL A   1      46.466  28.186  26.545  1.00  0.00    -0.351 N 
ATOM     75  C   UNL A   1      45.623  27.711  25.586  1.00  0.00     0.270 C 
ATOM     76  H   UNL A   1      47.251  28.680  26.217  1.00  0.00     0.163 HD
ATOM     77  O   UNL A   1      45.808  27.949  24.395  1.00  0.00    -0.268 OA
BRANCH  75  78
ATOM     78  C   UNL A   1      44.546  26.805  26.004  1.00  0.00     0.134 A 
ATOM     79  C   UNL A   1      43.387  27.400  26.311  1.00  0.00     0.063 A 
ATOM     80  N   UNL A   1      44.671  25.423  26.024  1.00  0.00    -0.207 N 
ATOM     81  C   UNL A   1      42.283  26.475  26.690  1.00  0.00     0.075 A 
ATOM     82  C   UNL A   1      43.548  24.614  26.303  1.00  0.00     0.166 A 
ATOM     83  N   UNL A   1      45.778  24.693  25.749  1.00  0.00    -0.145 NA
ATOM     84  N   UNL A   1      42.351  25.172  26.699  1.00  0.00    -0.228 NA
ATOM     85  C   UNL A   1      43.964  23.326  26.014  1.00  0.00     0.069 A 
ATOM     86  C   UNL A   1      45.345  23.444  25.678  1.00  0.00     0.184 A 
ATOM     87  C   UNL A   1      43.210  22.141  26.009  1.00  0.00    -0.028 A 
ATOM     88  N   UNL A   1      46.107  22.389  25.311  1.00  0.00    -0.222 NA
ATOM     89  C   UNL A   1      44.033  21.069  25.595  1.00  0.00     0.038 A 
ATOM     90  C   UNL A   1      45.414  21.211  25.271  1.00  0.00     0.147 A 
BRANCH  81  91
ATOM     91  C   UNL A   1      41.057  27.183  27.118  1.00  0.00     0.000 A 
ATOM     92  C   UNL A   1      40.224  26.577  28.062  1.00  0.00     0.012 A 
ATOM     93  C   UNL A   1      40.812  28.492  26.684  1.00  0.00     0.012 A 
ATOM     94  C   UNL A   1      39.156  27.300  28.599  1.00  0.00     0.021 A 
ATOM     95  C   UNL A   1      39.737  29.206  27.218  1.00  0.00     0.021 A 
ATOM     96  C   UNL A   1      38.920  28.611  28.180  1.00  0.00     0.041 A 
ATOM     97  Cl  UNL A   1      37.622  29.504  28.870  1.00  0.00    -0.084 Cl
ENDBRANCH  81  91
BRANCH  87  98
ATOM     98  C   UNL A   1      41.761  22.082  26.370  1.00  0.00     0.020 C 
ATOM     99  C   UNL A   1      41.094  20.809  26.840  1.00  0.00     0.009 C 
ATOM    100  C   UNL A   1      41.384  21.902  27.823  1.00  0.00     0.009 C 
ENDBRANCH  87  98
BRANCH  90 101
ATOM    101  C   UNL A   1      46.190  19.977  24.822  1.00  0.00     0.433 C 
ATOM    102  F   UNL A   1      46.568  19.177  25.859  1.00  0.00    -0.165 F 
ATOM    103  F   UNL A   1      45.491  19.182  23.962  1.00  0.00    -0.165 F 
ATOM    104  F   UNL A   1      47.350  20.281  24.161  1.00  0.00    -0.165 F 
ENDBRANCH  90 101
ENDBRANCH  75  78
ENDBRANCH  73  74
ENDBRANCH  72  73
ENDBRANCH  71  72
ENDBRANCH   1  71
TORSDOF 17
ENDMDL
