MODEL 1
REMARK VINA RESULT:     -11.7      0.000      0.000
REMARK SMILES CCOC(=O)C1=NN(c2ccc([N+](=O)[O-])cc2C(F)(F)F)[C@@](C)(C(=O)NCCCCNC(=O)c2ccc(-c3c4nc(c(-c5cc(S(=O)(=O)[O-])ccc5F)c5ccc([nH]5)c(-c5cc(S(=O)(=O)[O-])ccc5F)c5nc(c(-c6cc(S(=O)(=O)[O-])ccc6F)c6ccc3[nH]6)C=C5)C=C4)cc2)C1
REMARK SMILES IDX 28 1 27 2 26 3 24 4 25 5 22 7 6 8 7 9 97 10 8 11 23 12 4 13
REMARK SMILES IDX 5 14 3 15 2 16 1 17 9 18 10 19 17 20 11 21 16 22 12 23 18 24
REMARK SMILES IDX 19 25 20 26 21 27 13 28 14 29 15 30 29 31 30 32 31 33 32 34
REMARK SMILES IDX 33 36 34 37 35 38 96 39 36 40 95 41 37 42 38 43 39 44 89 45
REMARK SMILES IDX 40 46 94 47 88 48 90 49 41 50 93 51 87 52 86 53 42 55 74 56
REMARK SMILES IDX 54 57 73 58 55 59 58 60 72 61 91 62 56 63 57 64 71 66 92 67
REMARK SMILES IDX 59 68 43 69 44 70 52 71 45 72 51 73 53 74 50 75 46 76 47 77
REMARK SMILES IDX 48 78 49 79 75 80 76 81 84 82 77 83 83 84 85 85 82 86 78 87
REMARK SMILES IDX 79 88 80 89 81 90 60 91 61 92 69 93 62 94 68 95 70 96 67 97
REMARK SMILES IDX 63 98 64 99 65 100 66 101
REMARK H PARENT 26 6 31 35 90 54 58 65
REMARK Flexibility Score: inf
ROOT
ATOM      1  C   UNL A   1      36.326  23.004  23.549  1.00  0.00     0.023 C 
ENDROOT
BRANCH   1   2
ATOM      2  C   UNL A   1      34.903  22.954  22.994  1.00  0.00     0.116 C 
BRANCH   2   3
ATOM      3  N   UNL A   1      34.465  24.275  22.602  1.00  0.00    -0.354 N 
ATOM      4  C   UNL A   1      33.642  25.179  23.196  1.00  0.00     0.248 C 
ATOM      5  O   UNL A   1      33.294  26.115  22.464  1.00  0.00    -0.272 OA
ATOM      6  H   UNL A   1      34.833  24.578  21.740  1.00  0.00     0.163 HD
BRANCH   4   7
ATOM      7  C   UNL A   1      33.191  25.112  24.690  1.00  0.00     0.144 C 
ATOM      8  C   UNL A   1      30.995  25.786  24.590  1.00  0.00     0.149 C 
ATOM      9  N   UNL A   1      30.910  24.490  24.654  1.00  0.00    -0.169 NA
ATOM     10  C   UNL A   1      32.320  26.369  24.949  1.00  0.00     0.106 C 
ATOM     11  N   UNL A   1      32.176  24.050  24.958  1.00  0.00    -0.249 N 
ATOM     12  C   UNL A   1      34.379  25.157  25.644  1.00  0.00     0.048 C 
BRANCH   8  13
ATOM     13  C   UNL A   1      29.856  26.697  24.226  1.00  0.00     0.354 C 
ATOM     14  O   UNL A   1      28.766  26.260  23.902  1.00  0.00    -0.245 OA
BRANCH  13  15
ATOM     15  O   UNL A   1      30.254  27.983  24.256  1.00  0.00    -0.461 OA
BRANCH  15  16
ATOM     16  C   UNL A   1      29.902  28.752  23.101  1.00  0.00     0.230 C 
ATOM     17  C   UNL A   1      31.143  29.156  22.325  1.00  0.00     0.049 C 
ENDBRANCH  15  16
ENDBRANCH  13  15
ENDBRANCH   8  13
BRANCH  11  18
ATOM     18  C   UNL A   1      32.369  22.677  25.006  1.00  0.00     0.073 A 
ATOM     19  C   UNL A   1      32.046  21.899  23.874  1.00  0.00     0.036 A 
ATOM     20  C   UNL A   1      32.818  22.001  26.157  1.00  0.00     0.088 A 
ATOM     21  C   UNL A   1      32.287  20.522  23.818  1.00  0.00     0.088 A 
ATOM     22  C   UNL A   1      33.100  20.614  26.091  1.00  0.00     0.101 A 
ATOM     23  C   UNL A   1      32.850  19.887  24.922  1.00  0.00     0.270 A 
BRANCH  20  24
ATOM     24  C   UNL A   1      32.968  22.667  27.503  1.00  0.00     0.418 C 
ATOM     25  F   UNL A   1      32.586  21.848  28.527  1.00  0.00    -0.166 F 
ATOM     26  F   UNL A   1      34.266  22.989  27.771  1.00  0.00    -0.166 F 
ATOM     27  F   UNL A   1      32.254  23.812  27.680  1.00  0.00    -0.166 F 
ENDBRANCH  20  24
BRANCH  23  28
ATOM     28  N   UNL A   1      33.172  18.455  24.865  1.00  0.00     0.062 N 
ATOM     29  O   UNL A   1      34.306  18.135  24.485  1.00  0.00    -0.258 OA
ATOM     30  O   UNL A   1      32.287  17.657  25.202  1.00  0.00    -0.258 OA
ENDBRANCH  23  28
ENDBRANCH  11  18
ENDBRANCH   4   7
ENDBRANCH   2   3
ENDBRANCH   1   2
BRANCH   1  31
ATOM     31  C   UNL A   1      36.877  21.676  24.060  1.00  0.00     0.023 C 
BRANCH  31  32
ATOM     32  C   UNL A   1      37.441  21.715  25.471  1.00  0.00     0.116 C 
BRANCH  32  33
ATOM     33  N   UNL A   1      38.393  20.647  25.733  1.00  0.00    -0.352 N 
ATOM     34  C   UNL A   1      39.649  20.735  26.286  1.00  0.00     0.251 C 
ATOM     35  H   UNL A   1      38.100  19.741  25.480  1.00  0.00     0.163 HD
ATOM     36  O   UNL A   1      40.375  19.748  26.328  1.00  0.00    -0.269 OA
BRANCH  34  37
ATOM     37  C   UNL A   1      40.115  22.041  26.793  1.00  0.00     0.039 A 
ATOM     38  C   UNL A   1      40.992  22.075  27.879  1.00  0.00     0.014 A 
ATOM     39  C   UNL A   1      39.733  23.220  26.147  1.00  0.00     0.014 A 
ATOM     40  C   UNL A   1      41.551  23.294  28.271  1.00  0.00     0.010 A 
ATOM     41  C   UNL A   1      40.343  24.418  26.494  1.00  0.00     0.010 A 
ATOM     42  C   UNL A   1      41.260  24.465  27.556  1.00  0.00    -0.014 A 
BRANCH  42  43
ATOM     43  C   UNL A   1      41.878  25.770  27.901  1.00  0.00     0.031 A 
ATOM     44  C   UNL A   1      41.065  26.794  28.640  1.00  0.00     0.074 A 
ATOM     45  C   UNL A   1      43.115  26.067  27.459  1.00  0.00     0.049 A 
ATOM     46  N   UNL A   1      41.324  28.054  28.868  1.00  0.00    -0.248 NA
ATOM     47  C   UNL A   1      39.760  26.343  29.146  1.00  0.00     0.031 C 
ATOM     48  C   UNL A   1      43.985  25.169  26.696  1.00  0.00     0.029 A 
ATOM     49  N   UNL A   1      43.846  27.223  27.569  1.00  0.00    -0.354 N 
ATOM     50  C   UNL A   1      40.197  28.561  29.506  1.00  0.00     0.074 A 
ATOM     51  C   UNL A   1      39.240  27.477  29.587  1.00  0.00     0.031 C 
ATOM     52  C   UNL A   1      45.135  25.805  26.417  1.00  0.00     0.029 A 
ATOM     53  C   UNL A   1      45.068  27.164  26.942  1.00  0.00     0.049 A 
ATOM     54  H   UNL A   1      43.525  28.019  28.052  1.00  0.00     0.167 HD
ATOM     55  C   UNL A   1      39.986  29.811  29.988  1.00  0.00     0.034 A 
ATOM     56  C   UNL A   1      46.018  28.107  26.796  1.00  0.00     0.034 A 
ATOM     57  C   UNL A   1      40.966  30.865  29.932  1.00  0.00     0.049 A 
ATOM     58  C   UNL A   1      45.784  29.474  27.382  1.00  0.00     0.074 A 
ATOM     59  C   UNL A   1      40.883  32.156  30.426  1.00  0.00     0.029 A 
ATOM     60  N   UNL A   1      42.222  30.745  29.349  1.00  0.00    -0.354 N 
ATOM     61  N   UNL A   1      44.718  29.938  27.990  1.00  0.00    -0.248 NA
ATOM     62  C   UNL A   1      46.886  30.439  27.270  1.00  0.00     0.031 C 
ATOM     63  C   UNL A   1      42.075  32.823  30.116  1.00  0.00     0.029 A 
ATOM     64  C   UNL A   1      42.919  31.936  29.468  1.00  0.00     0.049 A 
ATOM     65  H   UNL A   1      42.566  29.931  28.914  1.00  0.00     0.167 HD
ATOM     66  C   UNL A   1      45.029  31.243  28.354  1.00  0.00     0.074 A 
ATOM     67  C   UNL A   1      46.383  31.491  27.901  1.00  0.00     0.031 C 
ATOM     68  C   UNL A   1      44.268  32.156  29.008  1.00  0.00     0.034 A 
BRANCH  55  69
ATOM     69  C   UNL A   1      38.628  30.093  30.583  1.00  0.00     0.023 A 
ATOM     70  C   UNL A   1      37.616  30.723  29.839  1.00  0.00     0.031 A 
ATOM     71  C   UNL A   1      38.367  29.795  31.932  1.00  0.00     0.131 A 
ATOM     72  C   UNL A   1      36.431  31.125  30.472  1.00  0.00     0.055 A 
ATOM     73  C   UNL A   1      37.150  30.119  32.533  1.00  0.00     0.041 A 
ATOM     74  F   UNL A   1      39.304  29.211  32.697  1.00  0.00    -0.206 F 
ATOM     75  C   UNL A   1      36.180  30.806  31.808  1.00  0.00     0.022 A 
BRANCH  72  76
ATOM     76  S   UNL A   1      35.296  32.213  29.567  1.00  0.00     0.124 S 
ATOM     77  O   UNL A   1      34.746  31.296  28.570  1.00  0.00    -0.237 OA
ATOM     78  O   UNL A   1      34.377  32.649  30.610  1.00  0.00    -0.237 OA
ATOM     79  O   UNL A   1      36.173  33.252  29.031  1.00  0.00    -0.744 OA
ENDBRANCH  72  76
ENDBRANCH  55  69
BRANCH  56  80
ATOM     80  C   UNL A   1      47.273  27.801  26.059  1.00  0.00     0.023 A 
ATOM     81  C   UNL A   1      47.335  27.926  24.664  1.00  0.00     0.031 A 
ATOM     82  C   UNL A   1      48.420  27.357  26.738  1.00  0.00     0.131 A 
ATOM     83  C   UNL A   1      48.510  27.576  23.983  1.00  0.00     0.055 A 
ATOM     84  C   UNL A   1      49.599  27.044  26.061  1.00  0.00     0.041 A 
ATOM     85  F   UNL A   1      48.412  27.236  28.075  1.00  0.00    -0.206 F 
ATOM     86  C   UNL A   1      49.645  27.143  24.672  1.00  0.00     0.022 A 
BRANCH  83  87
ATOM     87  S   UNL A   1      48.517  27.646  22.171  1.00  0.00     0.124 S 
ATOM     88  O   UNL A   1      48.664  26.239  21.817  1.00  0.00    -0.237 OA
ATOM     89  O   UNL A   1      47.217  28.246  21.887  1.00  0.00    -0.237 OA
ATOM     90  O   UNL A   1      49.670  28.492  21.867  1.00  0.00    -0.744 OA
ENDBRANCH  83  87
ENDBRANCH  56  80
BRANCH  68  91
ATOM     91  C   UNL A   1      44.915  33.478  29.316  1.00  0.00     0.023 A 
ATOM     92  C   UNL A   1      44.829  34.564  28.429  1.00  0.00     0.031 A 
ATOM     93  C   UNL A   1      45.634  33.644  30.512  1.00  0.00     0.131 A 
ATOM     94  C   UNL A   1      45.490  35.763  28.735  1.00  0.00     0.055 A 
ATOM     95  C   UNL A   1      46.258  34.850  30.828  1.00  0.00     0.041 A 
ATOM     96  F   UNL A   1      45.743  32.633  31.388  1.00  0.00    -0.206 F 
ATOM     97  C   UNL A   1      46.194  35.916  29.933  1.00  0.00     0.022 A 
BRANCH  94  98
ATOM     98  S   UNL A   1      45.462  37.108  27.520  1.00  0.00     0.124 S 
ATOM     99  O   UNL A   1      46.388  36.618  26.503  1.00  0.00    -0.237 OA
ATOM    100  O   UNL A   1      44.055  37.154  27.133  1.00  0.00    -0.237 OA
ATOM    101  O   UNL A   1      45.932  38.266  28.279  1.00  0.00    -0.744 OA
ENDBRANCH  94  98
ENDBRANCH  68  91
ENDBRANCH  42  43
ENDBRANCH  34  37
ENDBRANCH  32  33
ENDBRANCH  31  32
ENDBRANCH   1  31
TORSDOF 20
ENDMDL
MODEL 2
REMARK VINA RESULT:     -11.7      5.700     10.696
REMARK SMILES CCOC(=O)C1=NN(c2ccc([N+](=O)[O-])cc2C(F)(F)F)[C@@](C)(C(=O)NCCCCNC(=O)c2ccc(-c3c4nc(c(-c5cc(S(=O)(=O)[O-])ccc5F)c5ccc([nH]5)c(-c5cc(S(=O)(=O)[O-])ccc5F)c5nc(c(-c6cc(S(=O)(=O)[O-])ccc6F)c6ccc3[nH]6)C=C5)C=C4)cc2)C1
REMARK SMILES IDX 28 1 27 2 26 3 24 4 25 5 22 7 6 8 7 9 97 10 8 11 23 12 4 13
REMARK SMILES IDX 5 14 3 15 2 16 1 17 9 18 10 19 17 20 11 21 16 22 12 23 18 24
REMARK SMILES IDX 19 25 20 26 21 27 13 28 14 29 15 30 29 31 30 32 31 33 32 34
REMARK SMILES IDX 33 36 34 37 35 38 96 39 36 40 95 41 37 42 38 43 39 44 89 45
REMARK SMILES IDX 40 46 94 47 88 48 90 49 41 50 93 51 87 52 86 53 42 55 74 56
REMARK SMILES IDX 54 57 73 58 55 59 58 60 72 61 91 62 56 63 57 64 71 66 92 67
REMARK SMILES IDX 59 68 43 69 44 70 52 71 45 72 51 73 53 74 50 75 46 76 47 77
REMARK SMILES IDX 48 78 49 79 75 80 76 81 84 82 77 83 83 84 85 85 82 86 78 87
REMARK SMILES IDX 79 88 80 89 81 90 60 91 61 92 69 93 62 94 68 95 70 96 67 97
REMARK SMILES IDX 63 98 64 99 65 100 66 101
REMARK H PARENT 26 6 31 35 90 54 58 65
REMARK Flexibility Score: inf
ROOT
ATOM      1  C   UNL A   1      31.614  30.054  26.490  1.00  0.00     0.023 C 
ENDROOT
BRANCH   1   2
ATOM      2  C   UNL A   1      32.524  29.512  25.388  1.00  0.00     0.116 C 
BRANCH   2   3
ATOM      3  N   UNL A   1      32.937  28.160  25.690  1.00  0.00    -0.354 N 
ATOM      4  C   UNL A   1      33.075  27.052  24.917  1.00  0.00     0.248 C 
ATOM      5  O   UNL A   1      33.218  25.997  25.550  1.00  0.00    -0.272 OA
ATOM      6  H   UNL A   1      33.162  28.014  26.638  1.00  0.00     0.163 HD
BRANCH   4   7
ATOM      7  C   UNL A   1      33.111  27.066  23.355  1.00  0.00     0.144 C 
ATOM      8  C   UNL A   1      32.465  24.928  22.811  1.00  0.00     0.149 C 
ATOM      9  N   UNL A   1      31.377  25.621  22.651  1.00  0.00    -0.169 NA
ATOM     10  C   UNL A   1      33.729  25.714  22.912  1.00  0.00     0.106 C 
ATOM     11  N   UNL A   1      31.762  26.938  22.728  1.00  0.00    -0.249 N 
ATOM     12  C   UNL A   1      33.995  28.186  22.818  1.00  0.00     0.048 C 
BRANCH   8  13
ATOM     13  C   UNL A   1      32.519  23.426  22.857  1.00  0.00     0.354 C 
ATOM     14  O   UNL A   1      33.317  22.794  22.189  1.00  0.00    -0.245 OA
BRANCH  13  15
ATOM     15  O   UNL A   1      31.549  22.945  23.657  1.00  0.00    -0.461 OA
BRANCH  15  16
ATOM     16  C   UNL A   1      31.906  22.830  25.040  1.00  0.00     0.230 C 
ATOM     17  C   UNL A   1      30.757  23.268  25.930  1.00  0.00     0.049 C 
ENDBRANCH  15  16
ENDBRANCH  13  15
ENDBRANCH   8  13
BRANCH  11  18
ATOM     18  C   UNL A   1      30.756  27.891  22.663  1.00  0.00     0.073 A 
ATOM     19  C   UNL A   1      31.039  29.146  22.084  1.00  0.00     0.036 A 
ATOM     20  C   UNL A   1      29.471  27.695  23.202  1.00  0.00     0.088 A 
ATOM     21  C   UNL A   1      30.057  30.129  21.910  1.00  0.00     0.088 A 
ATOM     22  C   UNL A   1      28.465  28.671  22.993  1.00  0.00     0.101 A 
ATOM     23  C   UNL A   1      28.757  29.870  22.335  1.00  0.00     0.270 A 
BRANCH  20  24
ATOM     24  C   UNL A   1      29.104  26.506  24.058  1.00  0.00     0.418 C 
ATOM     25  F   UNL A   1      27.797  26.541  24.452  1.00  0.00    -0.166 F 
ATOM     26  F   UNL A   1      29.240  25.330  23.381  1.00  0.00    -0.166 F 
ATOM     27  F   UNL A   1      29.817  26.363  25.208  1.00  0.00    -0.166 F 
ENDBRANCH  20  24
BRANCH  23  28
ATOM     28  N   UNL A   1      27.696  30.860  22.106  1.00  0.00     0.062 N 
ATOM     29  O   UNL A   1      27.478  31.209  20.939  1.00  0.00    -0.258 OA
ATOM     30  O   UNL A   1      27.084  31.281  23.097  1.00  0.00    -0.258 OA
ENDBRANCH  23  28
ENDBRANCH  11  18
ENDBRANCH   4   7
ENDBRANCH   2   3
ENDBRANCH   1   2
BRANCH   1  31
ATOM     31  C   UNL A   1      31.553  31.574  26.601  1.00  0.00     0.023 C 
BRANCH  31  32
ATOM     32  C   UNL A   1      32.823  32.232  27.116  1.00  0.00     0.116 C 
BRANCH  32  33
ATOM     33  N   UNL A   1      32.597  33.567  27.647  1.00  0.00    -0.352 N 
ATOM     34  C   UNL A   1      33.304  34.233  28.620  1.00  0.00     0.251 C 
ATOM     35  H   UNL A   1      31.837  34.059  27.258  1.00  0.00     0.163 HD
ATOM     36  O   UNL A   1      32.908  35.315  29.040  1.00  0.00    -0.269 OA
BRANCH  34  37
ATOM     37  C   UNL A   1      34.522  33.607  29.171  1.00  0.00     0.039 A 
ATOM     38  C   UNL A   1      35.763  34.196  28.919  1.00  0.00     0.014 A 
ATOM     39  C   UNL A   1      34.421  32.478  29.989  1.00  0.00     0.014 A 
ATOM     40  C   UNL A   1      36.901  33.695  29.555  1.00  0.00     0.010 A 
ATOM     41  C   UNL A   1      35.542  32.028  30.674  1.00  0.00     0.010 A 
ATOM     42  C   UNL A   1      36.791  32.634  30.466  1.00  0.00    -0.014 A 
BRANCH  42  43
ATOM     43  C   UNL A   1      37.965  32.111  31.208  1.00  0.00     0.031 A 
ATOM     44  C   UNL A   1      38.815  31.045  30.578  1.00  0.00     0.074 A 
ATOM     45  C   UNL A   1      38.196  32.512  32.472  1.00  0.00     0.049 A 
ATOM     46  N   UNL A   1      39.754  30.308  31.111  1.00  0.00    -0.248 NA
ATOM     47  C   UNL A   1      38.529  30.735  29.170  1.00  0.00     0.031 C 
ATOM     48  C   UNL A   1      37.414  33.510  33.205  1.00  0.00     0.029 A 
ATOM     49  N   UNL A   1      39.146  32.106  33.376  1.00  0.00    -0.354 N 
ATOM     50  C   UNL A   1      40.143  29.417  30.116  1.00  0.00     0.074 A 
ATOM     51  C   UNL A   1      39.304  29.683  28.965  1.00  0.00     0.031 C 
ATOM     52  C   UNL A   1      37.923  33.647  34.440  1.00  0.00     0.029 A 
ATOM     53  C   UNL A   1      39.037  32.719  34.602  1.00  0.00     0.049 A 
ATOM     54  H   UNL A   1      39.839  31.441  33.166  1.00  0.00     0.167 HD
ATOM     55  C   UNL A   1      41.116  28.474  30.156  1.00  0.00     0.034 A 
ATOM     56  C   UNL A   1      39.747  32.538  35.732  1.00  0.00     0.034 A 
ATOM     57  C   UNL A   1      41.967  28.251  31.298  1.00  0.00     0.049 A 
ATOM     58  C   UNL A   1      40.857  31.521  35.740  1.00  0.00     0.074 A 
ATOM     59  C   UNL A   1      43.014  27.357  31.440  1.00  0.00     0.029 A 
ATOM     60  N   UNL A   1      41.870  28.942  32.500  1.00  0.00    -0.354 N 
ATOM     61  N   UNL A   1      41.220  30.691  34.791  1.00  0.00    -0.248 NA
ATOM     62  C   UNL A   1      41.656  31.424  36.968  1.00  0.00     0.031 C 
ATOM     63  C   UNL A   1      43.530  27.486  32.735  1.00  0.00     0.029 A 
ATOM     64  C   UNL A   1      42.835  28.493  33.387  1.00  0.00     0.049 A 
ATOM     65  H   UNL A   1      41.213  29.648  32.694  1.00  0.00     0.167 HD
ATOM     66  C   UNL A   1      42.306  29.988  35.299  1.00  0.00     0.074 A 
ATOM     67  C   UNL A   1      42.541  30.494  36.637  1.00  0.00     0.031 C 
ATOM     68  C   UNL A   1      43.048  29.014  34.714  1.00  0.00     0.034 A 
BRANCH  55  69
ATOM     69  C   UNL A   1      41.275  27.603  28.935  1.00  0.00     0.023 A 
ATOM     70  C   UNL A   1      42.311  27.816  28.009  1.00  0.00     0.031 A 
ATOM     71  C   UNL A   1      40.336  26.595  28.653  1.00  0.00     0.131 A 
ATOM     72  C   UNL A   1      42.327  27.102  26.802  1.00  0.00     0.055 A 
ATOM     73  C   UNL A   1      40.409  25.828  27.489  1.00  0.00     0.041 A 
ATOM     74  F   UNL A   1      39.312  26.360  29.490  1.00  0.00    -0.206 F 
ATOM     75  C   UNL A   1      41.397  26.093  26.545  1.00  0.00     0.022 A 
BRANCH  72  76
ATOM     76  S   UNL A   1      43.481  27.629  25.505  1.00  0.00     0.124 S 
ATOM     77  O   UNL A   1      42.578  27.821  24.371  1.00  0.00    -0.237 OA
ATOM     78  O   UNL A   1      44.062  28.839  26.071  1.00  0.00    -0.237 OA
ATOM     79  O   UNL A   1      44.395  26.495  25.380  1.00  0.00    -0.744 OA
ENDBRANCH  72  76
ENDBRANCH  55  69
BRANCH  56  80
ATOM     80  C   UNL A   1      39.432  33.328  36.951  1.00  0.00     0.023 A 
ATOM     81  C   UNL A   1      40.087  34.542  37.209  1.00  0.00     0.031 A 
ATOM     82  C   UNL A   1      38.490  32.870  37.887  1.00  0.00     0.131 A 
ATOM     83  C   UNL A   1      39.818  35.242  38.395  1.00  0.00     0.055 A 
ATOM     84  C   UNL A   1      38.199  33.587  39.048  1.00  0.00     0.041 A 
ATOM     85  F   UNL A   1      37.828  31.721  37.675  1.00  0.00    -0.206 F 
ATOM     86  C   UNL A   1      38.873  34.777  39.312  1.00  0.00     0.022 A 
BRANCH  83  87
ATOM     87  S   UNL A   1      40.763  36.750  38.745  1.00  0.00     0.124 S 
ATOM     88  O   UNL A   1      41.558  36.893  37.531  1.00  0.00    -0.237 OA
ATOM     89  O   UNL A   1      39.703  37.733  38.938  1.00  0.00    -0.237 OA
ATOM     90  O   UNL A   1      41.516  36.406  39.950  1.00  0.00    -0.744 OA
ENDBRANCH  83  87
ENDBRANCH  56  80
BRANCH  68  91
ATOM     91  C   UNL A   1      44.212  28.485  35.505  1.00  0.00     0.023 A 
ATOM     92  C   UNL A   1      44.046  27.493  36.486  1.00  0.00     0.031 A 
ATOM     93  C   UNL A   1      45.503  28.992  35.276  1.00  0.00     0.131 A 
ATOM     94  C   UNL A   1      45.153  27.065  37.234  1.00  0.00     0.055 A 
ATOM     95  C   UNL A   1      46.606  28.536  35.997  1.00  0.00     0.041 A 
ATOM     96  F   UNL A   1      45.708  29.941  34.349  1.00  0.00    -0.206 F 
ATOM     97  C   UNL A   1      46.433  27.572  36.988  1.00  0.00     0.022 A 
BRANCH  94  98
ATOM     98  S   UNL A   1      44.891  25.872  38.573  1.00  0.00     0.124 S 
ATOM     99  O   UNL A   1      46.208  25.827  39.202  1.00  0.00    -0.237 OA
ATOM    100  O   UNL A   1      43.833  26.504  39.356  1.00  0.00    -0.237 OA
ATOM    101  O   UNL A   1      44.497  24.651  37.873  1.00  0.00    -0.744 OA
ENDBRANCH  94  98
ENDBRANCH  68  91
ENDBRANCH  42  43
ENDBRANCH  34  37
ENDBRANCH  32  33
ENDBRANCH  31  32
ENDBRANCH   1  31
TORSDOF 20
ENDMDL
MODEL 3
REMARK VINA RESULT:     -11.6      4.980      9.651
REMARK SMILES CCOC(=O)C1=NN(c2ccc([N+](=O)[O-])cc2C(F)(F)F)[C@@](C)(C(=O)NCCCCNC(=O)c2ccc(-c3c4nc(c(-c5cc(S(=O)(=O)[O-])ccc5F)c5ccc([nH]5)c(-c5cc(S(=O)(=O)[O-])ccc5F)c5nc(c(-c6cc(S(=O)(=O)[O-])ccc6F)c6ccc3[nH]6)C=C5)C=C4)cc2)C1
REMARK SMILES IDX 28 1 27 2 26 3 24 4 25 5 22 7 6 8 7 9 97 10 8 11 23 12 4 13
REMARK SMILES IDX 5 14 3 15 2 16 1 17 9 18 10 19 17 20 11 21 16 22 12 23 18 24
REMARK SMILES IDX 19 25 20 26 21 27 13 28 14 29 15 30 29 31 30 32 31 33 32 34
REMARK SMILES IDX 33 36 34 37 35 38 96 39 36 40 95 41 37 42 38 43 39 44 89 45
REMARK SMILES IDX 40 46 94 47 88 48 90 49 41 50 93 51 87 52 86 53 42 55 74 56
REMARK SMILES IDX 54 57 73 58 55 59 58 60 72 61 91 62 56 63 57 64 71 66 92 67
REMARK SMILES IDX 59 68 43 69 44 70 52 71 45 72 51 73 53 74 50 75 46 76 47 77
REMARK SMILES IDX 48 78 49 79 75 80 76 81 84 82 77 83 83 84 85 85 82 86 78 87
REMARK SMILES IDX 79 88 80 89 81 90 60 91 61 92 69 93 62 94 68 95 70 96 67 97
REMARK SMILES IDX 63 98 64 99 65 100 66 101
REMARK H PARENT 26 6 31 35 90 54 58 65
REMARK Flexibility Score: inf
ROOT
ATOM      1  C   UNL A   1      31.419  27.952  27.039  1.00  0.00     0.023 C 
ENDROOT
BRANCH   1   2
ATOM      2  C   UNL A   1      31.654  26.514  26.580  1.00  0.00     0.116 C 
BRANCH   2   3
ATOM      3  N   UNL A   1      33.029  26.329  26.173  1.00  0.00    -0.354 N 
ATOM      4  C   UNL A   1      33.663  25.315  25.528  1.00  0.00     0.248 C 
ATOM      5  O   UNL A   1      34.899  25.381  25.556  1.00  0.00    -0.272 OA
ATOM      6  H   UNL A   1      33.619  27.081  26.410  1.00  0.00     0.163 HD
BRANCH   4   7
ATOM      7  C   UNL A   1      32.934  24.171  24.754  1.00  0.00     0.144 C 
ATOM      8  C   UNL A   1      32.934  24.941  22.588  1.00  0.00     0.149 C 
ATOM      9  N   UNL A   1      33.927  24.102  22.610  1.00  0.00    -0.169 NA
ATOM     10  C   UNL A   1      31.986  24.856  23.736  1.00  0.00     0.106 C 
ATOM     11  N   UNL A   1      33.823  23.434  23.807  1.00  0.00    -0.249 N 
ATOM     12  C   UNL A   1      32.085  23.309  25.682  1.00  0.00     0.048 C 
BRANCH   8  13
ATOM     13  C   UNL A   1      32.679  25.929  21.485  1.00  0.00     0.354 C 
ATOM     14  O   UNL A   1      31.754  25.792  20.704  1.00  0.00    -0.245 OA
BRANCH  13  15
ATOM     15  O   UNL A   1      33.631  26.881  21.476  1.00  0.00    -0.461 OA
BRANCH  15  16
ATOM     16  C   UNL A   1      33.284  28.091  22.158  1.00  0.00     0.230 C 
ATOM     17  C   UNL A   1      34.200  28.321  23.347  1.00  0.00     0.049 C 
ENDBRANCH  15  16
ENDBRANCH  13  15
ENDBRANCH   8  13
BRANCH  11  18
ATOM     18  C   UNL A   1      34.825  22.524  24.108  1.00  0.00     0.073 A 
ATOM     19  C   UNL A   1      36.169  22.952  24.081  1.00  0.00     0.036 A 
ATOM     20  C   UNL A   1      34.577  21.166  24.384  1.00  0.00     0.088 A 
ATOM     21  C   UNL A   1      37.229  22.115  24.450  1.00  0.00     0.088 A 
ATOM     22  C   UNL A   1      35.643  20.327  24.796  1.00  0.00     0.101 A 
ATOM     23  C   UNL A   1      36.955  20.809  24.844  1.00  0.00     0.270 A 
BRANCH  20  24
ATOM     24  C   UNL A   1      33.224  20.519  24.212  1.00  0.00     0.418 C 
ATOM     25  F   UNL A   1      33.324  19.188  23.922  1.00  0.00    -0.166 F 
ATOM     26  F   UNL A   1      32.480  20.580  25.353  1.00  0.00    -0.166 F 
ATOM     27  F   UNL A   1      32.442  21.038  23.226  1.00  0.00    -0.166 F 
ENDBRANCH  20  24
BRANCH  23  28
ATOM     28  N   UNL A   1      38.043  19.931  25.296  1.00  0.00     0.062 N 
ATOM     29  O   UNL A   1      39.091  20.466  25.682  1.00  0.00    -0.258 OA
ATOM     30  O   UNL A   1      37.842  18.709  25.265  1.00  0.00    -0.258 OA
ENDBRANCH  23  28
ENDBRANCH  11  18
ENDBRANCH   4   7
ENDBRANCH   2   3
ENDBRANCH   1   2
BRANCH   1  31
ATOM     31  C   UNL A   1      31.620  29.022  25.969  1.00  0.00     0.023 C 
BRANCH  31  32
ATOM     32  C   UNL A   1      32.829  29.919  26.178  1.00  0.00     0.116 C 
BRANCH  32  33
ATOM     33  N   UNL A   1      32.471  31.286  26.523  1.00  0.00    -0.352 N 
ATOM     34  C   UNL A   1      33.151  32.174  27.323  1.00  0.00     0.251 C 
ATOM     35  H   UNL A   1      31.631  31.620  26.133  1.00  0.00     0.163 HD
ATOM     36  O   UNL A   1      32.650  33.254  27.612  1.00  0.00    -0.269 OA
BRANCH  34  37
ATOM     37  C   UNL A   1      34.474  31.787  27.855  1.00  0.00     0.039 A 
ATOM     38  C   UNL A   1      35.483  32.749  27.934  1.00  0.00     0.014 A 
ATOM     39  C   UNL A   1      34.685  30.490  28.333  1.00  0.00     0.014 A 
ATOM     40  C   UNL A   1      36.686  32.430  28.567  1.00  0.00     0.010 A 
ATOM     41  C   UNL A   1      35.854  30.198  29.023  1.00  0.00     0.010 A 
ATOM     42  C   UNL A   1      36.862  31.166  29.150  1.00  0.00    -0.014 A 
BRANCH  42  43
ATOM     43  C   UNL A   1      38.101  30.807  29.885  1.00  0.00     0.031 A 
ATOM     44  C   UNL A   1      39.071  29.845  29.260  1.00  0.00     0.074 A 
ATOM     45  C   UNL A   1      38.294  31.254  31.140  1.00  0.00     0.049 A 
ATOM     46  N   UNL A   1      40.101  29.241  29.791  1.00  0.00    -0.248 NA
ATOM     47  C   UNL A   1      38.810  29.478  27.860  1.00  0.00     0.031 C 
ATOM     48  C   UNL A   1      37.401  32.159  31.867  1.00  0.00     0.029 A 
ATOM     49  N   UNL A   1      39.297  30.986  32.037  1.00  0.00    -0.354 N 
ATOM     50  C   UNL A   1      40.587  28.389  28.805  1.00  0.00     0.074 A 
ATOM     51  C   UNL A   1      39.709  28.528  27.662  1.00  0.00     0.031 C 
ATOM     52  C   UNL A   1      37.903  32.379  33.094  1.00  0.00     0.029 A 
ATOM     53  C   UNL A   1      39.126  31.601  33.255  1.00  0.00     0.049 A 
ATOM     54  H   UNL A   1      40.066  30.409  31.828  1.00  0.00     0.167 HD
ATOM     55  C   UNL A   1      41.671  27.576  28.847  1.00  0.00     0.034 A 
ATOM     56  C   UNL A   1      39.866  31.529  34.378  1.00  0.00     0.034 A 
ATOM     57  C   UNL A   1      42.556  27.480  29.981  1.00  0.00     0.049 A 
ATOM     58  C   UNL A   1      41.094  30.659  34.387  1.00  0.00     0.074 A 
ATOM     59  C   UNL A   1      43.708  26.726  30.122  1.00  0.00     0.029 A 
ATOM     60  N   UNL A   1      42.387  28.173  31.174  1.00  0.00    -0.354 N 
ATOM     61  N   UNL A   1      41.548  29.865  33.446  1.00  0.00    -0.248 NA
ATOM     62  C   UNL A   1      41.913  30.683  35.606  1.00  0.00     0.031 C 
ATOM     63  C   UNL A   1      44.219  26.941  31.409  1.00  0.00     0.029 A 
ATOM     64  C   UNL A   1      43.410  27.863  32.055  1.00  0.00     0.049 A 
ATOM     65  H   UNL A   1      41.648  28.795  31.365  1.00  0.00     0.167 HD
ATOM     66  C   UNL A   1      42.719  29.312  33.951  1.00  0.00     0.074 A 
ATOM     67  C   UNL A   1      42.903  29.866  35.277  1.00  0.00     0.031 C 
ATOM     68  C   UNL A   1      43.570  28.429  33.371  1.00  0.00     0.034 A 
BRANCH  55  69
ATOM     69  C   UNL A   1      41.924  26.711  27.637  1.00  0.00     0.023 A 
ATOM     70  C   UNL A   1      41.674  25.328  27.656  1.00  0.00     0.031 A 
ATOM     71  C   UNL A   1      42.491  27.263  26.474  1.00  0.00     0.131 A 
ATOM     72  C   UNL A   1      42.081  24.530  26.577  1.00  0.00     0.055 A 
ATOM     73  C   UNL A   1      42.812  26.475  25.368  1.00  0.00     0.041 A 
ATOM     74  F   UNL A   1      42.770  28.575  26.406  1.00  0.00    -0.206 F 
ATOM     75  C   UNL A   1      42.626  25.096  25.423  1.00  0.00     0.022 A 
BRANCH  72  76
ATOM     76  S   UNL A   1      42.037  22.727  26.774  1.00  0.00     0.124 S 
ATOM     77  O   UNL A   1      40.842  22.552  27.597  1.00  0.00    -0.237 OA
ATOM     78  O   UNL A   1      41.938  22.261  25.397  1.00  0.00    -0.237 OA
ATOM     79  O   UNL A   1      43.298  22.426  27.447  1.00  0.00    -0.744 OA
ENDBRANCH  72  76
ENDBRANCH  55  69
BRANCH  56  80
ATOM     80  C   UNL A   1      39.468  32.294  35.589  1.00  0.00     0.023 A 
ATOM     81  C   UNL A   1      38.681  31.699  36.587  1.00  0.00     0.031 A 
ATOM     82  C   UNL A   1      39.850  33.636  35.756  1.00  0.00     0.131 A 
ATOM     83  C   UNL A   1      38.267  32.457  37.693  1.00  0.00     0.055 A 
ATOM     84  C   UNL A   1      39.466  34.375  36.875  1.00  0.00     0.041 A 
ATOM     85  F   UNL A   1      40.615  34.242  34.834  1.00  0.00    -0.206 F 
ATOM     86  C   UNL A   1      38.661  33.787  37.848  1.00  0.00     0.022 A 
BRANCH  83  87
ATOM     87  S   UNL A   1      37.160  31.687  38.906  1.00  0.00     0.124 S 
ATOM     88  O   UNL A   1      35.985  32.547  38.827  1.00  0.00    -0.237 OA
ATOM     89  O   UNL A   1      37.007  30.341  38.363  1.00  0.00    -0.237 OA
ATOM     90  O   UNL A   1      37.914  31.770  40.155  1.00  0.00    -0.744 OA
ENDBRANCH  83  87
ENDBRANCH  56  80
BRANCH  68  91
ATOM     91  C   UNL A   1      44.801  28.063  34.154  1.00  0.00     0.023 A 
ATOM     92  C   UNL A   1      44.806  26.985  35.055  1.00  0.00     0.031 A 
ATOM     93  C   UNL A   1      45.978  28.815  34.001  1.00  0.00     0.131 A 
ATOM     94  C   UNL A   1      45.962  26.711  35.801  1.00  0.00     0.055 A 
ATOM     95  C   UNL A   1      47.135  28.515  34.718  1.00  0.00     0.041 A 
ATOM     96  F   UNL A   1      46.018  29.855  33.153  1.00  0.00    -0.206 F 
ATOM     97  C   UNL A   1      47.129  27.462  35.630  1.00  0.00     0.022 A 
BRANCH  94  98
ATOM     98  S   UNL A   1      45.906  25.389  37.041  1.00  0.00     0.124 S 
ATOM     99  O   UNL A   1      44.705  25.731  37.796  1.00  0.00    -0.237 OA
ATOM    100  O   UNL A   1      45.820  24.188  36.216  1.00  0.00    -0.237 OA
ATOM    101  O   UNL A   1      47.164  25.549  37.769  1.00  0.00    -0.744 OA
ENDBRANCH  94  98
ENDBRANCH  68  91
ENDBRANCH  42  43
ENDBRANCH  34  37
ENDBRANCH  32  33
ENDBRANCH  31  32
ENDBRANCH   1  31
TORSDOF 20
ENDMDL
