MODEL 1
REMARK VINA RESULT:     -11.2      0.000      0.000
REMARK SMILES CCC[C@H](c1ccccc1)[C@@](C)(O)C(=O)NCCCCNC(=O)c1ccc(-c2c3nc(c(-c4cc(S(=O)(=O)[O-])ccc4F)c4ccc([nH]4)c(-c4cc(S(=O)(=O)[O-])ccc4F)c4nc(c(-c5cc(S(=O)(=O)[O-])ccc5F)c5ccc2[nH]5)C=C4)C=C3)cc1
REMARK SMILES IDX 18 1 17 2 16 3 14 4 15 5 11 7 12 8 4 9 3 10 2 11 1 12 5 13
REMARK SMILES IDX 6 14 10 15 7 16 9 17 8 18 13 19 19 21 20 22 21 23 22 24
REMARK SMILES IDX 23 26 24 27 25 28 86 29 26 30 85 31 27 32 28 33 29 34 79 35
REMARK SMILES IDX 30 36 84 37 78 38 80 39 31 40 83 41 77 42 76 43 32 45 64 46
REMARK SMILES IDX 44 47 63 48 45 49 48 50 62 51 81 52 46 53 47 54 61 56 82 57
REMARK SMILES IDX 49 58 33 59 34 60 42 61 35 62 41 63 43 64 40 65 36 66 37 67
REMARK SMILES IDX 38 68 39 69 65 70 66 71 74 72 67 73 73 74 75 75 72 76 68 77
REMARK SMILES IDX 69 78 70 79 71 80 50 81 51 82 59 83 52 84 58 85 60 86 57 87
REMARK SMILES IDX 53 88 54 89 55 90 56 91
REMARK H PARENT 16 6 13 20 21 25 80 44 48 55
REMARK Flexibility Score: inf
ROOT
ATOM      1  C   UNL A   1      32.656  27.819  26.907  1.00  0.00     0.023 C 
ENDROOT
BRANCH   1   2
ATOM      2  C   UNL A   1      32.882  26.869  25.732  1.00  0.00     0.116 C 
BRANCH   2   3
ATOM      3  N   UNL A   1      33.352  27.561  24.550  1.00  0.00    -0.354 N 
ATOM      4  C   UNL A   1      32.899  27.552  23.265  1.00  0.00     0.252 C 
ATOM      5  O   UNL A   1      33.615  28.138  22.448  1.00  0.00    -0.272 OA
ATOM      6  H   UNL A   1      34.134  28.140  24.701  1.00  0.00     0.163 HD
BRANCH   4   7
ATOM      7  C   UNL A   1      31.560  26.855  22.866  1.00  0.00     0.147 C 
ATOM      8  C   UNL A   1      31.691  25.327  22.713  1.00  0.00     0.053 C 
BRANCH   7   9
ATOM      9  C   UNL A   1      30.383  27.224  23.862  1.00  0.00     0.060 C 
BRANCH   9  10
ATOM     10  C   UNL A   1      29.558  25.945  24.242  1.00  0.00     0.011 C 
BRANCH  10  11
ATOM     11  C   UNL A   1      29.569  25.592  25.741  1.00  0.00    -0.003 C 
ATOM     12  C   UNL A   1      30.458  24.412  26.108  1.00  0.00     0.004 C 
ENDBRANCH  10  11
ENDBRANCH   9  10
BRANCH   9  13
ATOM     13  C   UNL A   1      29.468  28.429  23.549  1.00  0.00    -0.042 A 
ATOM     14  C   UNL A   1      29.883  29.771  23.603  1.00  0.00     0.004 A 
ATOM     15  C   UNL A   1      28.116  28.205  23.220  1.00  0.00     0.004 A 
ATOM     16  C   UNL A   1      29.003  30.828  23.344  1.00  0.00     0.000 A 
ATOM     17  C   UNL A   1      27.241  29.258  22.929  1.00  0.00     0.000 A 
ATOM     18  C   UNL A   1      27.683  30.572  22.999  1.00  0.00     0.000 A 
ENDBRANCH   9  13
ENDBRANCH   7   9
BRANCH   7  19
ATOM     19  O   UNL A   1      31.218  27.342  21.546  1.00  0.00    -0.380 OA
ATOM     20  H   UNL A   1      32.030  27.554  21.059  1.00  0.00     0.212 HD
ENDBRANCH   7  19
ENDBRANCH   4   7
ENDBRANCH   2   3
ENDBRANCH   1   2
BRANCH   1  21
ATOM     21  C   UNL A   1      31.848  29.081  26.593  1.00  0.00     0.023 C 
BRANCH  21  22
ATOM     22  C   UNL A   1      32.618  30.219  25.930  1.00  0.00     0.116 C 
BRANCH  22  23
ATOM     23  N   UNL A   1      32.276  31.529  26.461  1.00  0.00    -0.352 N 
ATOM     24  C   UNL A   1      32.967  32.321  27.348  1.00  0.00     0.251 C 
ATOM     25  H   UNL A   1      31.424  31.903  26.138  1.00  0.00     0.163 HD
ATOM     26  O   UNL A   1      32.458  33.354  27.766  1.00  0.00    -0.269 OA
BRANCH  24  27
ATOM     27  C   UNL A   1      34.301  31.896  27.826  1.00  0.00     0.039 A 
ATOM     28  C   UNL A   1      35.283  32.869  28.032  1.00  0.00     0.014 A 
ATOM     29  C   UNL A   1      34.572  30.554  28.105  1.00  0.00     0.014 A 
ATOM     30  C   UNL A   1      36.505  32.509  28.606  1.00  0.00     0.010 A 
ATOM     31  C   UNL A   1      35.764  30.209  28.738  1.00  0.00     0.010 A 
ATOM     32  C   UNL A   1      36.735  31.185  29.010  1.00  0.00    -0.014 A 
BRANCH  32  33
ATOM     33  C   UNL A   1      37.969  30.803  29.749  1.00  0.00     0.031 A 
ATOM     34  C   UNL A   1      38.938  29.828  29.144  1.00  0.00     0.074 A 
ATOM     35  C   UNL A   1      38.166  31.268  31.000  1.00  0.00     0.049 A 
ATOM     36  N   UNL A   1      40.000  29.278  29.676  1.00  0.00    -0.248 NA
ATOM     37  C   UNL A   1      38.659  29.390  27.769  1.00  0.00     0.031 C 
ATOM     38  C   UNL A   1      37.275  32.191  31.709  1.00  0.00     0.029 A 
ATOM     39  N   UNL A   1      39.166  31.014  31.906  1.00  0.00    -0.354 N 
ATOM     40  C   UNL A   1      40.506  28.417  28.709  1.00  0.00     0.074 A 
ATOM     41  C   UNL A   1      39.603  28.482  27.579  1.00  0.00     0.031 C 
ATOM     42  C   UNL A   1      37.775  32.432  32.932  1.00  0.00     0.029 A 
ATOM     43  C   UNL A   1      38.991  31.647  33.115  1.00  0.00     0.049 A 
ATOM     44  H   UNL A   1      39.937  30.434  31.708  1.00  0.00     0.167 HD
ATOM     45  C   UNL A   1      41.629  27.657  28.754  1.00  0.00     0.034 A 
ATOM     46  C   UNL A   1      39.713  31.584  34.252  1.00  0.00     0.034 A 
ATOM     47  C   UNL A   1      42.526  27.616  29.884  1.00  0.00     0.049 A 
ATOM     48  C   UNL A   1      40.939  30.707  34.290  1.00  0.00     0.074 A 
ATOM     49  C   UNL A   1      43.727  26.939  30.006  1.00  0.00     0.029 A 
ATOM     50  N   UNL A   1      42.316  28.269  31.091  1.00  0.00    -0.354 N 
ATOM     51  N   UNL A   1      41.434  29.940  33.346  1.00  0.00    -0.248 NA
ATOM     52  C   UNL A   1      41.705  30.691  35.544  1.00  0.00     0.031 C 
ATOM     53  C   UNL A   1      44.209  27.128  31.306  1.00  0.00     0.029 A 
ATOM     54  C   UNL A   1      43.345  27.981  31.975  1.00  0.00     0.049 A 
ATOM     55  H   UNL A   1      41.548  28.852  31.290  1.00  0.00     0.167 HD
ATOM     56  C   UNL A   1      42.583  29.369  33.886  1.00  0.00     0.074 A 
ATOM     57  C   UNL A   1      42.714  29.890  35.231  1.00  0.00     0.031 C 
ATOM     58  C   UNL A   1      43.454  28.496  33.319  1.00  0.00     0.034 A 
BRANCH  45  59
ATOM     59  C   UNL A   1      41.930  26.790  27.556  1.00  0.00     0.023 A 
ATOM     60  C   UNL A   1      41.599  25.424  27.531  1.00  0.00     0.031 A 
ATOM     61  C   UNL A   1      42.579  27.330  26.431  1.00  0.00     0.131 A 
ATOM     62  C   UNL A   1      41.982  24.630  26.439  1.00  0.00     0.055 A 
ATOM     63  C   UNL A   1      42.885  26.552  25.314  1.00  0.00     0.041 A 
ATOM     64  F   UNL A   1      42.936  28.624  26.405  1.00  0.00    -0.206 F 
ATOM     65  C   UNL A   1      42.602  25.189  25.319  1.00  0.00     0.022 A 
BRANCH  62  66
ATOM     66  S   UNL A   1      41.782  22.831  26.564  1.00  0.00     0.124 S 
ATOM     67  O   UNL A   1      42.261  22.391  25.256  1.00  0.00    -0.237 OA
ATOM     68  O   UNL A   1      42.631  22.498  27.701  1.00  0.00    -0.237 OA
ATOM     69  O   UNL A   1      40.347  22.661  26.783  1.00  0.00    -0.744 OA
ENDBRANCH  62  66
ENDBRANCH  45  59
BRANCH  46  70
ATOM     70  C   UNL A   1      39.288  32.346  35.461  1.00  0.00     0.023 A 
ATOM     71  C   UNL A   1      39.709  33.669  35.666  1.00  0.00     0.031 A 
ATOM     72  C   UNL A   1      38.487  31.746  36.449  1.00  0.00     0.131 A 
ATOM     73  C   UNL A   1      39.365  34.336  36.852  1.00  0.00     0.055 A 
ATOM     74  C   UNL A   1      38.105  32.431  37.604  1.00  0.00     0.041 A 
ATOM     75  F   UNL A   1      38.053  30.485  36.300  1.00  0.00    -0.206 F 
ATOM     76  C   UNL A   1      38.555  33.730  37.817  1.00  0.00     0.022 A 
BRANCH  73  77
ATOM     77  S   UNL A   1      40.059  35.985  37.154  1.00  0.00     0.124 S 
ATOM     78  O   UNL A   1      39.339  36.394  38.355  1.00  0.00    -0.237 OA
ATOM     79  O   UNL A   1      41.477  35.689  37.324  1.00  0.00    -0.237 OA
ATOM     80  O   UNL A   1      39.719  36.725  35.940  1.00  0.00    -0.744 OA
ENDBRANCH  73  77
ENDBRANCH  46  70
BRANCH  58  81
ATOM     81  C   UNL A   1      44.646  28.084  34.146  1.00  0.00     0.023 A 
ATOM     82  C   UNL A   1      44.625  26.928  34.945  1.00  0.00     0.031 A 
ATOM     83  C   UNL A   1      45.817  28.862  34.133  1.00  0.00     0.131 A 
ATOM     84  C   UNL A   1      45.741  26.604  35.732  1.00  0.00     0.055 A 
ATOM     85  C   UNL A   1      46.942  28.506  34.876  1.00  0.00     0.041 A 
ATOM     86  F   UNL A   1      45.889  29.977  33.389  1.00  0.00    -0.206 F 
ATOM     87  C   UNL A   1      46.904  27.377  35.691  1.00  0.00     0.022 A 
BRANCH  84  88
ATOM     88  S   UNL A   1      45.629  25.194  36.867  1.00  0.00     0.124 S 
ATOM     89  O   UNL A   1      44.363  25.449  37.546  1.00  0.00    -0.237 OA
ATOM     90  O   UNL A   1      45.646  24.055  35.954  1.00  0.00    -0.237 OA
ATOM     91  O   UNL A   1      46.821  25.332  37.704  1.00  0.00    -0.744 OA
ENDBRANCH  84  88
ENDBRANCH  58  81
ENDBRANCH  32  33
ENDBRANCH  24  27
ENDBRANCH  22  23
ENDBRANCH  21  22
ENDBRANCH   1  21
TORSDOF 19
ENDMDL
MODEL 2
REMARK VINA RESULT:     -11.0      5.739     10.280
REMARK SMILES CCC[C@H](c1ccccc1)[C@@](C)(O)C(=O)NCCCCNC(=O)c1ccc(-c2c3nc(c(-c4cc(S(=O)(=O)[O-])ccc4F)c4ccc([nH]4)c(-c4cc(S(=O)(=O)[O-])ccc4F)c4nc(c(-c5cc(S(=O)(=O)[O-])ccc5F)c5ccc2[nH]5)C=C4)C=C3)cc1
REMARK SMILES IDX 18 1 17 2 16 3 14 4 15 5 11 7 12 8 4 9 3 10 2 11 1 12 5 13
REMARK SMILES IDX 6 14 10 15 7 16 9 17 8 18 13 19 19 21 20 22 21 23 22 24
REMARK SMILES IDX 23 26 24 27 25 28 86 29 26 30 85 31 27 32 28 33 29 34 79 35
REMARK SMILES IDX 30 36 84 37 78 38 80 39 31 40 83 41 77 42 76 43 32 45 64 46
REMARK SMILES IDX 44 47 63 48 45 49 48 50 62 51 81 52 46 53 47 54 61 56 82 57
REMARK SMILES IDX 49 58 33 59 34 60 42 61 35 62 41 63 43 64 40 65 36 66 37 67
REMARK SMILES IDX 38 68 39 69 65 70 66 71 74 72 67 73 73 74 75 75 72 76 68 77
REMARK SMILES IDX 69 78 70 79 71 80 50 81 51 82 59 83 52 84 58 85 60 86 57 87
REMARK SMILES IDX 53 88 54 89 55 90 56 91
REMARK H PARENT 16 6 13 20 21 25 80 44 48 55
REMARK Flexibility Score: inf
ROOT
ATOM      1  C   UNL A   1      42.371  19.668  26.780  1.00  0.00     0.023 C 
ENDROOT
BRANCH   1   2
ATOM      2  C   UNL A   1      43.625  20.033  25.989  1.00  0.00     0.116 C 
BRANCH   2   3
ATOM      3  N   UNL A   1      43.366  21.042  24.983  1.00  0.00    -0.354 N 
ATOM      4  C   UNL A   1      44.037  22.183  24.662  1.00  0.00     0.252 C 
ATOM      5  O   UNL A   1      43.472  22.917  23.847  1.00  0.00    -0.272 OA
ATOM      6  H   UNL A   1      42.565  20.874  24.436  1.00  0.00     0.163 HD
BRANCH   4   7
ATOM      7  C   UNL A   1      45.430  22.524  25.280  1.00  0.00     0.147 C 
ATOM      8  C   UNL A   1      46.518  22.790  24.221  1.00  0.00     0.053 C 
BRANCH   7   9
ATOM      9  C   UNL A   1      45.340  23.726  26.311  1.00  0.00     0.060 C 
BRANCH   9  10
ATOM     10  C   UNL A   1      46.766  24.308  26.609  1.00  0.00     0.011 C 
BRANCH  10  11
ATOM     11  C   UNL A   1      46.878  25.838  26.482  1.00  0.00    -0.003 C 
ATOM     12  C   UNL A   1      46.268  26.415  25.212  1.00  0.00     0.004 C 
ENDBRANCH  10  11
ENDBRANCH   9  10
BRANCH   9  13
ATOM     13  C   UNL A   1      44.500  23.566  27.598  1.00  0.00    -0.042 A 
ATOM     14  C   UNL A   1      43.099  23.456  27.619  1.00  0.00     0.004 A 
ATOM     15  C   UNL A   1      45.147  23.563  28.850  1.00  0.00     0.004 A 
ATOM     16  C   UNL A   1      42.384  23.348  28.818  1.00  0.00     0.000 A 
ATOM     17  C   UNL A   1      44.438  23.423  30.049  1.00  0.00     0.000 A 
ATOM     18  C   UNL A   1      43.053  23.323  30.033  1.00  0.00     0.000 A 
ENDBRANCH   9  13
ENDBRANCH   7   9
BRANCH   7  19
ATOM     19  O   UNL A   1      45.869  21.340  25.989  1.00  0.00    -0.380 OA
ATOM     20  H   UNL A   1      45.145  20.695  26.021  1.00  0.00     0.212 HD
ENDBRANCH   7  19
ENDBRANCH   4   7
ENDBRANCH   2   3
ENDBRANCH   1   2
BRANCH   1  21
ATOM     21  C   UNL A   1      41.044  20.117  26.162  1.00  0.00     0.023 C 
BRANCH  21  22
ATOM     22  C   UNL A   1      40.325  21.256  26.878  1.00  0.00     0.116 C 
BRANCH  22  23
ATOM     23  N   UNL A   1      39.074  21.634  26.241  1.00  0.00    -0.352 N 
ATOM     24  C   UNL A   1      38.467  22.866  26.169  1.00  0.00     0.251 C 
ATOM     25  H   UNL A   1      38.589  20.900  25.798  1.00  0.00     0.163 HD
ATOM     26  O   UNL A   1      37.348  22.967  25.680  1.00  0.00    -0.269 OA
BRANCH  24  27
ATOM     27  C   UNL A   1      39.152  24.056  26.723  1.00  0.00     0.039 A 
ATOM     28  C   UNL A   1      39.957  24.823  25.877  1.00  0.00     0.014 A 
ATOM     29  C   UNL A   1      38.972  24.433  28.056  1.00  0.00     0.014 A 
ATOM     30  C   UNL A   1      40.507  26.020  26.343  1.00  0.00     0.010 A 
ATOM     31  C   UNL A   1      39.464  25.659  28.497  1.00  0.00     0.010 A 
ATOM     32  C   UNL A   1      40.222  26.473  27.641  1.00  0.00    -0.014 A 
BRANCH  32  33
ATOM     33  C   UNL A   1      40.679  27.807  28.114  1.00  0.00     0.031 A 
ATOM     34  C   UNL A   1      42.147  28.097  28.254  1.00  0.00     0.074 A 
ATOM     35  C   UNL A   1      39.767  28.724  28.500  1.00  0.00     0.049 A 
ATOM     36  N   UNL A   1      42.739  29.147  28.762  1.00  0.00    -0.248 NA
ATOM     37  C   UNL A   1      43.070  27.052  27.787  1.00  0.00     0.031 C 
ATOM     38  C   UNL A   1      38.314  28.544  28.448  1.00  0.00     0.029 A 
ATOM     39  N   UNL A   1      39.925  29.979  29.034  1.00  0.00    -0.354 N 
ATOM     40  C   UNL A   1      44.103  28.884  28.693  1.00  0.00     0.074 A 
ATOM     41  C   UNL A   1      44.243  27.553  28.141  1.00  0.00     0.031 C 
ATOM     42  C   UNL A   1      37.717  29.651  28.917  1.00  0.00     0.029 A 
ATOM     43  C   UNL A   1      38.738  30.599  29.351  1.00  0.00     0.049 A 
ATOM     44  H   UNL A   1      40.805  30.397  29.175  1.00  0.00     0.167 HD
ATOM     45  C   UNL A   1      45.139  29.686  29.043  1.00  0.00     0.034 A 
ATOM     46  C   UNL A   1      38.498  31.784  29.947  1.00  0.00     0.034 A 
ATOM     47  C   UNL A   1      44.980  31.017  29.578  1.00  0.00     0.049 A 
ATOM     48  C   UNL A   1      39.667  32.645  30.357  1.00  0.00     0.074 A 
ATOM     49  C   UNL A   1      45.961  31.940  29.896  1.00  0.00     0.029 A 
ATOM     50  N   UNL A   1      43.763  31.610  29.887  1.00  0.00    -0.354 N 
ATOM     51  N   UNL A   1      40.952  32.404  30.234  1.00  0.00    -0.248 NA
ATOM     52  C   UNL A   1      39.353  33.938  30.980  1.00  0.00     0.031 C 
ATOM     53  C   UNL A   1      45.343  33.063  30.457  1.00  0.00     0.029 A 
ATOM     54  C   UNL A   1      43.971  32.871  30.426  1.00  0.00     0.049 A 
ATOM     55  H   UNL A   1      42.882  31.196  29.744  1.00  0.00     0.167 HD
ATOM     56  C   UNL A   1      41.598  33.526  30.744  1.00  0.00     0.074 A 
ATOM     57  C   UNL A   1      40.562  34.448  31.162  1.00  0.00     0.031 C 
ATOM     58  C   UNL A   1      42.928  33.773  30.852  1.00  0.00     0.034 A 
BRANCH  45  59
ATOM     59  C   UNL A   1      46.533  29.131  28.880  1.00  0.00     0.023 A 
ATOM     60  C   UNL A   1      47.137  28.346  29.878  1.00  0.00     0.031 A 
ATOM     61  C   UNL A   1      47.279  29.408  27.720  1.00  0.00     0.131 A 
ATOM     62  C   UNL A   1      48.469  27.929  29.732  1.00  0.00     0.055 A 
ATOM     63  C   UNL A   1      48.576  28.923  27.546  1.00  0.00     0.041 A 
ATOM     64  F   UNL A   1      46.762  30.167  26.741  1.00  0.00    -0.206 F 
ATOM     65  C   UNL A   1      49.185  28.191  28.562  1.00  0.00     0.022 A 
BRANCH  62  66
ATOM     66  S   UNL A   1      49.295  27.158  31.150  1.00  0.00     0.124 S 
ATOM     67  O   UNL A   1      49.638  25.844  30.611  1.00  0.00    -0.237 OA
ATOM     68  O   UNL A   1      50.413  28.061  31.393  1.00  0.00    -0.237 OA
ATOM     69  O   UNL A   1      48.263  27.149  32.184  1.00  0.00    -0.744 OA
ENDBRANCH  62  66
ENDBRANCH  45  59
BRANCH  46  70
ATOM     70  C   UNL A   1      37.100  32.223  30.222  1.00  0.00     0.023 A 
ATOM     71  C   UNL A   1      36.344  32.885  29.244  1.00  0.00     0.031 A 
ATOM     72  C   UNL A   1      36.515  32.021  31.485  1.00  0.00     0.131 A 
ATOM     73  C   UNL A   1      35.061  33.362  29.554  1.00  0.00     0.055 A 
ATOM     74  C   UNL A   1      35.219  32.453  31.775  1.00  0.00     0.041 A 
ATOM     75  F   UNL A   1      37.193  31.388  32.456  1.00  0.00    -0.206 F 
ATOM     76  C   UNL A   1      34.489  33.139  30.810  1.00  0.00     0.022 A 
BRANCH  73  77
ATOM     77  S   UNL A   1      34.179  34.352  28.317  1.00  0.00     0.124 S 
ATOM     78  O   UNL A   1      35.175  34.457  27.256  1.00  0.00    -0.237 OA
ATOM     79  O   UNL A   1      33.020  33.514  28.030  1.00  0.00    -0.237 OA
ATOM     80  O   UNL A   1      33.884  35.597  29.023  1.00  0.00    -0.744 OA
ENDBRANCH  73  77
ENDBRANCH  46  70
BRANCH  58  81
ATOM     81  C   UNL A   1      43.331  35.114  31.412  1.00  0.00     0.023 A 
ATOM     82  C   UNL A   1      43.587  36.216  30.578  1.00  0.00     0.031 A 
ATOM     83  C   UNL A   1      43.461  35.290  32.801  1.00  0.00     0.131 A 
ATOM     84  C   UNL A   1      44.001  37.434  31.138  1.00  0.00     0.055 A 
ATOM     85  C   UNL A   1      43.821  36.518  33.356  1.00  0.00     0.041 A 
ATOM     86  F   UNL A   1      43.231  34.269  33.643  1.00  0.00    -0.206 F 
ATOM     87  C   UNL A   1      44.104  37.596  32.522  1.00  0.00     0.022 A 
BRANCH  84  88
ATOM     88  S   UNL A   1      44.470  38.790  30.029  1.00  0.00     0.124 S 
ATOM     89  O   UNL A   1      45.535  39.445  30.782  1.00  0.00    -0.237 OA
ATOM     90  O   UNL A   1      44.886  38.080  28.824  1.00  0.00    -0.237 OA
ATOM     91  O   UNL A   1      43.238  39.566  29.894  1.00  0.00    -0.744 OA
ENDBRANCH  84  88
ENDBRANCH  58  81
ENDBRANCH  32  33
ENDBRANCH  24  27
ENDBRANCH  22  23
ENDBRANCH  21  22
ENDBRANCH   1  21
TORSDOF 19
ENDMDL
MODEL 3
REMARK VINA RESULT:     -10.9      1.734      3.127
REMARK SMILES CCC[C@H](c1ccccc1)[C@@](C)(O)C(=O)NCCCCNC(=O)c1ccc(-c2c3nc(c(-c4cc(S(=O)(=O)[O-])ccc4F)c4ccc([nH]4)c(-c4cc(S(=O)(=O)[O-])ccc4F)c4nc(c(-c5cc(S(=O)(=O)[O-])ccc5F)c5ccc2[nH]5)C=C4)C=C3)cc1
REMARK SMILES IDX 18 1 17 2 16 3 14 4 15 5 11 7 12 8 4 9 3 10 2 11 1 12 5 13
REMARK SMILES IDX 6 14 10 15 7 16 9 17 8 18 13 19 19 21 20 22 21 23 22 24
REMARK SMILES IDX 23 26 24 27 25 28 86 29 26 30 85 31 27 32 28 33 29 34 79 35
REMARK SMILES IDX 30 36 84 37 78 38 80 39 31 40 83 41 77 42 76 43 32 45 64 46
REMARK SMILES IDX 44 47 63 48 45 49 48 50 62 51 81 52 46 53 47 54 61 56 82 57
REMARK SMILES IDX 49 58 33 59 34 60 42 61 35 62 41 63 43 64 40 65 36 66 37 67
REMARK SMILES IDX 38 68 39 69 65 70 66 71 74 72 67 73 73 74 75 75 72 76 68 77
REMARK SMILES IDX 69 78 70 79 71 80 50 81 51 82 59 83 52 84 58 85 60 86 57 87
REMARK SMILES IDX 53 88 54 89 55 90 56 91
REMARK H PARENT 16 6 13 20 21 25 80 44 48 55
REMARK Flexibility Score: inf
ROOT
ATOM      1  C   UNL A   1      31.894  27.985  27.305  1.00  0.00     0.023 C 
ENDROOT
BRANCH   1   2
ATOM      2  C   UNL A   1      31.645  26.840  26.325  1.00  0.00     0.116 C 
BRANCH   2   3
ATOM      3  N   UNL A   1      31.550  25.557  26.992  1.00  0.00    -0.354 N 
ATOM      4  C   UNL A   1      31.622  24.286  26.508  1.00  0.00     0.252 C 
ATOM      5  O   UNL A   1      31.350  23.396  27.319  1.00  0.00    -0.272 OA
ATOM      6  H   UNL A   1      31.411  25.615  27.965  1.00  0.00     0.163 HD
BRANCH   4   7
ATOM      7  C   UNL A   1      32.031  23.986  25.031  1.00  0.00     0.147 C 
ATOM      8  C   UNL A   1      30.880  24.190  24.027  1.00  0.00     0.053 C 
BRANCH   7   9
ATOM      9  C   UNL A   1      33.313  24.812  24.595  1.00  0.00     0.060 C 
BRANCH   9  10
ATOM     10  C   UNL A   1      33.026  25.632  23.290  1.00  0.00     0.011 C 
BRANCH  10  11
ATOM     11  C   UNL A   1      33.727  27.001  23.220  1.00  0.00    -0.003 C 
ATOM     12  C   UNL A   1      32.948  28.075  22.475  1.00  0.00     0.004 C 
ENDBRANCH  10  11
ENDBRANCH   9  10
BRANCH   9  13
ATOM     13  C   UNL A   1      34.690  24.112  24.547  1.00  0.00    -0.042 A 
ATOM     14  C   UNL A   1      35.608  24.098  25.611  1.00  0.00     0.004 A 
ATOM     15  C   UNL A   1      35.098  23.469  23.361  1.00  0.00     0.004 A 
ATOM     16  C   UNL A   1      36.858  23.478  25.502  1.00  0.00     0.000 A 
ATOM     17  C   UNL A   1      36.335  22.821  23.258  1.00  0.00     0.000 A 
ATOM     18  C   UNL A   1      37.220  22.832  24.328  1.00  0.00     0.000 A 
ENDBRANCH   9  13
ENDBRANCH   7   9
BRANCH   7  19
ATOM     19  O   UNL A   1      32.347  22.575  24.968  1.00  0.00    -0.380 OA
ATOM     20  H   UNL A   1      32.229  22.257  24.059  1.00  0.00     0.212 HD
ENDBRANCH   7  19
ENDBRANCH   4   7
ENDBRANCH   2   3
ENDBRANCH   1   2
BRANCH   1  21
ATOM     21  C   UNL A   1      31.399  29.362  26.854  1.00  0.00     0.023 C 
BRANCH  21  22
ATOM     22  C   UNL A   1      32.458  30.295  26.274  1.00  0.00     0.116 C 
BRANCH  22  23
ATOM     23  N   UNL A   1      32.260  31.687  26.646  1.00  0.00    -0.352 N 
ATOM     24  C   UNL A   1      33.054  32.508  27.412  1.00  0.00     0.251 C 
ATOM     25  H   UNL A   1      31.437  32.102  26.299  1.00  0.00     0.163 HD
ATOM     26  O   UNL A   1      32.661  33.630  27.711  1.00  0.00    -0.269 OA
BRANCH  24  27
ATOM     27  C   UNL A   1      34.358  32.015  27.908  1.00  0.00     0.039 A 
ATOM     28  C   UNL A   1      35.444  32.895  27.935  1.00  0.00     0.014 A 
ATOM     29  C   UNL A   1      34.501  30.707  28.378  1.00  0.00     0.014 A 
ATOM     30  C   UNL A   1      36.647  32.491  28.520  1.00  0.00     0.010 A 
ATOM     31  C   UNL A   1      35.678  30.330  29.020  1.00  0.00     0.010 A 
ATOM     32  C   UNL A   1      36.757  31.223  29.113  1.00  0.00    -0.014 A 
BRANCH  32  33
ATOM     33  C   UNL A   1      37.977  30.821  29.863  1.00  0.00     0.031 A 
ATOM     34  C   UNL A   1      38.931  29.822  29.272  1.00  0.00     0.074 A 
ATOM     35  C   UNL A   1      38.174  31.290  31.112  1.00  0.00     0.049 A 
ATOM     36  N   UNL A   1      39.977  29.255  29.815  1.00  0.00    -0.248 NA
ATOM     37  C   UNL A   1      38.653  29.382  27.897  1.00  0.00     0.031 C 
ATOM     38  C   UNL A   1      37.297  32.235  31.809  1.00  0.00     0.029 A 
ATOM     39  N   UNL A   1      39.162  31.022  32.027  1.00  0.00    -0.354 N 
ATOM     40  C   UNL A   1      40.473  28.378  28.857  1.00  0.00     0.074 A 
ATOM     41  C   UNL A   1      39.580  28.453  27.720  1.00  0.00     0.031 C 
ATOM     42  C   UNL A   1      37.793  32.474  33.034  1.00  0.00     0.029 A 
ATOM     43  C   UNL A   1      38.991  31.666  33.232  1.00  0.00     0.049 A 
ATOM     44  H   UNL A   1      39.923  30.425  31.839  1.00  0.00     0.167 HD
ATOM     45  C   UNL A   1      41.580  27.595  28.916  1.00  0.00     0.034 A 
ATOM     46  C   UNL A   1      39.703  31.595  34.374  1.00  0.00     0.034 A 
ATOM     47  C   UNL A   1      42.468  27.543  30.052  1.00  0.00     0.049 A 
ATOM     48  C   UNL A   1      40.911  30.694  34.427  1.00  0.00     0.074 A 
ATOM     49  C   UNL A   1      43.654  26.843  30.188  1.00  0.00     0.029 A 
ATOM     50  N   UNL A   1      42.262  28.208  31.253  1.00  0.00    -0.354 N 
ATOM     51  N   UNL A   1      41.398  29.911  33.492  1.00  0.00    -0.248 NA
ATOM     52  C   UNL A   1      41.667  30.670  35.686  1.00  0.00     0.031 C 
ATOM     53  C   UNL A   1      44.130  27.031  31.490  1.00  0.00     0.029 A 
ATOM     54  C   UNL A   1      43.278  27.905  32.147  1.00  0.00     0.049 A 
ATOM     55  H   UNL A   1      41.504  28.808  31.444  1.00  0.00     0.167 HD
ATOM     56  C   UNL A   1      42.530  29.320  34.044  1.00  0.00     0.074 A 
ATOM     57  C   UNL A   1      42.662  29.847  35.387  1.00  0.00     0.031 C 
ATOM     58  C   UNL A   1      43.387  28.426  33.488  1.00  0.00     0.034 A 
BRANCH  45  59
ATOM     59  C   UNL A   1      41.873  26.715  27.725  1.00  0.00     0.023 A 
ATOM     60  C   UNL A   1      41.533  25.350  27.714  1.00  0.00     0.031 A 
ATOM     61  C   UNL A   1      42.521  27.240  26.593  1.00  0.00     0.131 A 
ATOM     62  C   UNL A   1      41.908  24.543  26.629  1.00  0.00     0.055 A 
ATOM     63  C   UNL A   1      42.820  26.449  25.483  1.00  0.00     0.041 A 
ATOM     64  F   UNL A   1      42.886  28.531  26.553  1.00  0.00    -0.206 F 
ATOM     65  C   UNL A   1      42.528  25.088  25.502  1.00  0.00     0.022 A 
BRANCH  62  66
ATOM     66  S   UNL A   1      41.697  22.748  26.772  1.00  0.00     0.124 S 
ATOM     67  O   UNL A   1      41.981  22.309  25.408  1.00  0.00    -0.237 OA
ATOM     68  O   UNL A   1      42.690  22.393  27.778  1.00  0.00    -0.237 OA
ATOM     69  O   UNL A   1      40.304  22.599  27.188  1.00  0.00    -0.744 OA
ENDBRANCH  62  66
ENDBRANCH  45  59
BRANCH  46  70
ATOM     70  C   UNL A   1      39.285  32.373  35.575  1.00  0.00     0.023 A 
ATOM     71  C   UNL A   1      39.746  33.682  35.785  1.00  0.00     0.031 A 
ATOM     72  C   UNL A   1      38.449  31.802  36.552  1.00  0.00     0.131 A 
ATOM     73  C   UNL A   1      39.406  34.363  36.964  1.00  0.00     0.055 A 
ATOM     74  C   UNL A   1      38.071  32.501  37.699  1.00  0.00     0.041 A 
ATOM     75  F   UNL A   1      37.976  30.556  36.397  1.00  0.00    -0.206 F 
ATOM     76  C   UNL A   1      38.561  33.786  37.917  1.00  0.00     0.022 A 
BRANCH  73  77
ATOM     77  S   UNL A   1      40.149  35.988  37.275  1.00  0.00     0.124 S 
ATOM     78  O   UNL A   1      39.509  36.373  38.528  1.00  0.00    -0.237 OA
ATOM     79  O   UNL A   1      41.569  35.661  37.352  1.00  0.00    -0.237 OA
ATOM     80  O   UNL A   1      39.755  36.771  36.105  1.00  0.00    -0.744 OA
ENDBRANCH  73  77
ENDBRANCH  46  70
BRANCH  58  81
ATOM     81  C   UNL A   1      44.564  27.996  34.327  1.00  0.00     0.023 A 
ATOM     82  C   UNL A   1      44.495  26.879  35.179  1.00  0.00     0.031 A 
ATOM     83  C   UNL A   1      45.772  28.714  34.272  1.00  0.00     0.131 A 
ATOM     84  C   UNL A   1      45.600  26.539  35.974  1.00  0.00     0.055 A 
ATOM     85  C   UNL A   1      46.884  28.339  35.025  1.00  0.00     0.041 A 
ATOM     86  F   UNL A   1      45.891  29.789  33.477  1.00  0.00    -0.206 F 
ATOM     87  C   UNL A   1      46.799  27.252  35.890  1.00  0.00     0.022 A 
BRANCH  84  88
ATOM     88  S   UNL A   1      45.429  25.189  37.173  1.00  0.00     0.124 S 
ATOM     89  O   UNL A   1      46.512  24.293  36.779  1.00  0.00    -0.237 OA
ATOM     90  O   UNL A   1      45.604  25.879  38.448  1.00  0.00    -0.237 OA
ATOM     91  O   UNL A   1      44.081  24.679  36.927  1.00  0.00    -0.744 OA
ENDBRANCH  84  88
ENDBRANCH  58  81
ENDBRANCH  32  33
ENDBRANCH  24  27
ENDBRANCH  22  23
ENDBRANCH  21  22
ENDBRANCH   1  21
TORSDOF 19
ENDMDL
