MODEL 1
REMARK VINA RESULT:     -12.7      0.000      0.000
REMARK SMILES CC(=O)N1CCC(C(=O)Nc2sccc2C(=O)NCCCCNC(=O)c2ccc(-c3c4nc(c(-c5cc(S(=O)(=O)[O-])ccc5F)c5ccc([nH]5)c(-c5cc(S(=O)(=O)[O-])ccc5F)c5nc(c(-c6cc(S(=O)(=O)[O-])ccc6F)c6ccc3[nH]6)C=C5)C=C4)cc2)CC1
REMARK SMILES IDX 21 1 20 2 19 3 18 4 16 5 17 6 15 8 11 9 12 10 13 11 14 12
REMARK SMILES IDX 10 13 8 14 9 15 7 17 1 18 2 19 3 20 4 21 5 22 90 23 6 24
REMARK SMILES IDX 89 25 22 26 23 27 24 28 25 30 26 31 27 32 88 33 28 34 87 35
REMARK SMILES IDX 29 36 30 37 31 38 81 39 32 40 86 41 80 42 82 43 33 44 85 45
REMARK SMILES IDX 79 46 78 47 34 49 66 50 46 51 65 52 47 53 50 54 64 55 83 56
REMARK SMILES IDX 48 57 49 58 63 60 84 61 51 62 35 63 36 64 44 65 37 66 43 67
REMARK SMILES IDX 45 68 42 69 38 70 39 71 40 72 41 73 67 74 68 75 76 76 69 77
REMARK SMILES IDX 75 78 77 79 74 80 70 81 71 82 72 83 73 84 52 85 53 86 61 87
REMARK SMILES IDX 54 88 60 89 62 90 59 91 55 92 56 93 57 94 58 95
REMARK H PARENT 18 7 10 16 23 29 82 48 50 59
REMARK Flexibility Score: inf
ROOT
ATOM      1  C   UNL A   1      31.596  31.823  26.817  1.00  0.00     0.023 C 
ENDROOT
BRANCH   1   2
ATOM      2  C   UNL A   1      31.838  30.490  26.102  1.00  0.00     0.023 C 
BRANCH   2   3
ATOM      3  C   UNL A   1      32.173  29.315  27.014  1.00  0.00     0.116 C 
BRANCH   3   4
ATOM      4  N   UNL A   1      32.991  28.296  26.401  1.00  0.00    -0.352 N 
ATOM      5  C   UNL A   1      32.665  27.318  25.496  1.00  0.00     0.254 C 
ATOM      6  O   UNL A   1      33.572  26.531  25.207  1.00  0.00    -0.269 OA
ATOM      7  H   UNL A   1      33.936  28.304  26.677  1.00  0.00     0.163 HD
BRANCH   5   8
ATOM      8  C   UNL A   1      31.317  27.143  24.917  1.00  0.00     0.074 A 
ATOM      9  C   UNL A   1      30.262  26.292  25.223  1.00  0.00     0.108 A 
ATOM     10  S   UNL A   1      29.114  26.194  23.953  1.00  0.00    -0.126 S 
ATOM     11  C   UNL A   1      29.731  27.595  23.211  1.00  0.00     0.068 A 
ATOM     12  C   UNL A   1      30.901  27.993  23.812  1.00  0.00     0.028 A 
BRANCH   9  13
ATOM     13  N   UNL A   1      29.940  25.400  26.216  1.00  0.00    -0.317 N 
ATOM     14  C   UNL A   1      30.363  24.124  26.451  1.00  0.00     0.228 C 
ATOM     15  O   UNL A   1      29.755  23.500  27.331  1.00  0.00    -0.274 OA
ATOM     16  H   UNL A   1      29.288  25.739  26.872  1.00  0.00     0.170 HD
BRANCH  14  17
ATOM     17  C   UNL A   1      31.582  23.475  25.794  1.00  0.00     0.082 C 
ATOM     18  C   UNL A   1      32.503  19.115  23.334  1.00  0.00     0.114 C 
ATOM     19  C   UNL A   1      32.529  19.722  24.713  1.00  0.00     0.219 C 
ATOM     20  O   UNL A   1      32.419  19.006  25.707  1.00  0.00    -0.275 OA
ATOM     21  N   UNL A   1      32.794  21.080  24.785  1.00  0.00    -0.343 N 
ATOM     22  C   UNL A   1      33.357  21.640  26.003  1.00  0.00     0.120 C 
ATOM     23  C   UNL A   1      32.340  22.066  23.817  1.00  0.00     0.120 C 
ATOM     24  C   UNL A   1      32.362  22.541  26.711  1.00  0.00     0.035 C 
ATOM     25  C   UNL A   1      31.200  22.874  24.431  1.00  0.00     0.035 C 
ENDBRANCH  14  17
ENDBRANCH   9  13
ENDBRANCH   5   8
ENDBRANCH   3   4
ENDBRANCH   2   3
ENDBRANCH   1   2
BRANCH   1  26
ATOM     26  C   UNL A   1      32.841  32.567  27.306  1.00  0.00     0.116 C 
BRANCH  26  27
ATOM     27  N   UNL A   1      32.596  33.965  27.627  1.00  0.00    -0.352 N 
ATOM     28  C   UNL A   1      33.160  34.773  28.587  1.00  0.00     0.251 C 
ATOM     29  H   UNL A   1      31.917  34.404  27.066  1.00  0.00     0.163 HD
ATOM     30  O   UNL A   1      32.677  35.883  28.807  1.00  0.00    -0.269 OA
BRANCH  28  31
ATOM     31  C   UNL A   1      34.322  34.309  29.379  1.00  0.00     0.039 A 
ATOM     32  C   UNL A   1      34.102  33.712  30.623  1.00  0.00     0.014 A 
ATOM     33  C   UNL A   1      35.629  34.473  28.911  1.00  0.00     0.014 A 
ATOM     34  C   UNL A   1      35.181  33.196  31.347  1.00  0.00     0.010 A 
ATOM     35  C   UNL A   1      36.693  33.879  29.591  1.00  0.00     0.010 A 
ATOM     36  C   UNL A   1      36.482  33.225  30.813  1.00  0.00    -0.014 A 
BRANCH  36  37
ATOM     37  C   UNL A   1      37.610  32.547  31.511  1.00  0.00     0.031 A 
ATOM     38  C   UNL A   1      38.334  31.393  30.870  1.00  0.00     0.074 A 
ATOM     39  C   UNL A   1      37.951  32.943  32.756  1.00  0.00     0.049 A 
ATOM     40  N   UNL A   1      39.323  30.674  31.337  1.00  0.00    -0.248 NA
ATOM     41  C   UNL A   1      37.865  30.974  29.543  1.00  0.00     0.031 C 
ATOM     42  C   UNL A   1      37.289  34.011  33.510  1.00  0.00     0.029 A 
ATOM     43  N   UNL A   1      38.933  32.500  33.606  1.00  0.00    -0.354 N 
ATOM     44  C   UNL A   1      39.590  29.714  30.368  1.00  0.00     0.074 A 
ATOM     45  C   UNL A   1      38.611  29.902  29.318  1.00  0.00     0.031 C 
ATOM     46  C   UNL A   1      37.909  34.165  34.691  1.00  0.00     0.029 A 
ATOM     47  C   UNL A   1      38.977  33.178  34.803  1.00  0.00     0.049 A 
ATOM     48  H   UNL A   1      39.550  31.765  33.382  1.00  0.00     0.167 HD
ATOM     49  C   UNL A   1      40.575  28.779  30.341  1.00  0.00     0.034 A 
ATOM     50  C   UNL A   1      39.778  33.020  35.877  1.00  0.00     0.034 A 
ATOM     51  C   UNL A   1      41.545  28.605  31.397  1.00  0.00     0.049 A 
ATOM     52  C   UNL A   1      40.848  31.960  35.837  1.00  0.00     0.074 A 
ATOM     53  C   UNL A   1      42.620  27.734  31.445  1.00  0.00     0.029 A 
ATOM     54  N   UNL A   1      41.549  29.300  32.601  1.00  0.00    -0.354 N 
ATOM     55  N   UNL A   1      41.133  31.109  34.878  1.00  0.00    -0.248 NA
ATOM     56  C   UNL A   1      41.712  31.850  37.018  1.00  0.00     0.031 C 
ATOM     57  C   UNL A   1      43.220  27.842  32.704  1.00  0.00     0.029 A 
ATOM     58  C   UNL A   1      42.581  28.847  33.412  1.00  0.00     0.049 A 
ATOM     59  H   UNL A   1      40.914  30.012  32.842  1.00  0.00     0.167 HD
ATOM     60  C   UNL A   1      42.227  30.378  35.334  1.00  0.00     0.074 A 
ATOM     61  C   UNL A   1      42.564  30.908  36.639  1.00  0.00     0.031 C 
ATOM     62  C   UNL A   1      42.894  29.362  34.727  1.00  0.00     0.034 A 
BRANCH  49  63
ATOM     63  C   UNL A   1      40.627  27.856  29.143  1.00  0.00     0.023 A 
ATOM     64  C   UNL A   1      41.570  28.029  28.113  1.00  0.00     0.031 A 
ATOM     65  C   UNL A   1      39.704  26.802  29.012  1.00  0.00     0.131 A 
ATOM     66  C   UNL A   1      41.513  27.225  26.965  1.00  0.00     0.055 A 
ATOM     67  C   UNL A   1      39.711  25.947  27.909  1.00  0.00     0.041 A 
ATOM     68  F   UNL A   1      38.765  26.596  29.949  1.00  0.00    -0.206 F 
ATOM     69  C   UNL A   1      40.608  26.166  26.868  1.00  0.00     0.022 A 
BRANCH  66  70
ATOM     70  S   UNL A   1      42.525  27.689  25.533  1.00  0.00     0.124 S 
ATOM     71  O   UNL A   1      42.438  26.487  24.707  1.00  0.00    -0.237 OA
ATOM     72  O   UNL A   1      41.831  28.867  25.024  1.00  0.00    -0.237 OA
ATOM     73  O   UNL A   1      43.843  27.941  26.112  1.00  0.00    -0.744 OA
ENDBRANCH  66  70
ENDBRANCH  49  63
BRANCH  50  74
ATOM     74  C   UNL A   1      39.596  33.878  37.085  1.00  0.00     0.023 A 
ATOM     75  C   UNL A   1      38.983  33.380  38.247  1.00  0.00     0.031 A 
ATOM     76  C   UNL A   1      40.005  35.224  37.083  1.00  0.00     0.131 A 
ATOM     77  C   UNL A   1      38.759  34.231  39.340  1.00  0.00     0.055 A 
ATOM     78  C   UNL A   1      39.832  36.050  38.193  1.00  0.00     0.041 A 
ATOM     79  F   UNL A   1      40.597  35.752  36.000  1.00  0.00    -0.206 F 
ATOM     80  C   UNL A   1      39.194  35.559  39.328  1.00  0.00     0.022 A 
BRANCH  77  81
ATOM     81  S   UNL A   1      37.814  33.602  40.754  1.00  0.00     0.124 S 
ATOM     82  O   UNL A   1      36.972  32.591  40.124  1.00  0.00    -0.237 OA
ATOM     83  O   UNL A   1      38.871  33.102  41.628  1.00  0.00    -0.237 OA
ATOM     84  O   UNL A   1      37.110  34.784  41.246  1.00  0.00    -0.744 OA
ENDBRANCH  77  81
ENDBRANCH  50  74
BRANCH  62  85
ATOM     85  C   UNL A   1      44.079  28.782  35.466  1.00  0.00     0.023 A 
ATOM     86  C   UNL A   1      43.937  27.708  36.365  1.00  0.00     0.031 A 
ATOM     87  C   UNL A   1      45.362  29.330  35.294  1.00  0.00     0.131 A 
ATOM     88  C   UNL A   1      45.041  27.268  37.109  1.00  0.00     0.055 A 
ATOM     89  C   UNL A   1      46.472  28.836  35.981  1.00  0.00     0.041 A 
ATOM     90  F   UNL A   1      45.559  30.359  34.454  1.00  0.00    -0.206 F 
ATOM     91  C   UNL A   1      46.312  27.811  36.908  1.00  0.00     0.022 A 
BRANCH  88  92
ATOM     92  S   UNL A   1      44.771  26.059  38.435  1.00  0.00     0.124 S 
ATOM     93  O   UNL A   1      46.138  25.723  38.819  1.00  0.00    -0.237 OA
ATOM     94  O   UNL A   1      44.007  26.831  39.410  1.00  0.00    -0.237 OA
ATOM     95  O   UNL A   1      44.031  24.986  37.776  1.00  0.00    -0.744 OA
ENDBRANCH  88  92
ENDBRANCH  62  85
ENDBRANCH  36  37
ENDBRANCH  28  31
ENDBRANCH  26  27
ENDBRANCH   1  26
TORSDOF 16
ENDMDL
MODEL 2
REMARK VINA RESULT:     -12.7      3.632      9.111
REMARK SMILES CC(=O)N1CCC(C(=O)Nc2sccc2C(=O)NCCCCNC(=O)c2ccc(-c3c4nc(c(-c5cc(S(=O)(=O)[O-])ccc5F)c5ccc([nH]5)c(-c5cc(S(=O)(=O)[O-])ccc5F)c5nc(c(-c6cc(S(=O)(=O)[O-])ccc6F)c6ccc3[nH]6)C=C5)C=C4)cc2)CC1
REMARK SMILES IDX 21 1 20 2 19 3 18 4 16 5 17 6 15 8 11 9 12 10 13 11 14 12
REMARK SMILES IDX 10 13 8 14 9 15 7 17 1 18 2 19 3 20 4 21 5 22 90 23 6 24
REMARK SMILES IDX 89 25 22 26 23 27 24 28 25 30 26 31 27 32 88 33 28 34 87 35
REMARK SMILES IDX 29 36 30 37 31 38 81 39 32 40 86 41 80 42 82 43 33 44 85 45
REMARK SMILES IDX 79 46 78 47 34 49 66 50 46 51 65 52 47 53 50 54 64 55 83 56
REMARK SMILES IDX 48 57 49 58 63 60 84 61 51 62 35 63 36 64 44 65 37 66 43 67
REMARK SMILES IDX 45 68 42 69 38 70 39 71 40 72 41 73 67 74 68 75 76 76 69 77
REMARK SMILES IDX 75 78 77 79 74 80 70 81 71 82 72 83 73 84 52 85 53 86 61 87
REMARK SMILES IDX 54 88 60 89 62 90 59 91 55 92 56 93 57 94 58 95
REMARK H PARENT 18 7 10 16 23 29 82 48 50 59
REMARK Flexibility Score: inf
ROOT
ATOM      1  C   UNL A   1      33.647  27.813  26.875  1.00  0.00     0.023 C 
ENDROOT
BRANCH   1   2
ATOM      2  C   UNL A   1      32.501  27.004  26.258  1.00  0.00     0.023 C 
BRANCH   2   3
ATOM      3  C   UNL A   1      32.777  25.515  26.086  1.00  0.00     0.116 C 
BRANCH   3   4
ATOM      4  N   UNL A   1      34.155  25.190  25.807  1.00  0.00    -0.352 N 
ATOM      5  C   UNL A   1      34.696  24.178  25.056  1.00  0.00     0.254 C 
ATOM      6  O   UNL A   1      35.930  24.106  25.063  1.00  0.00    -0.269 OA
ATOM      7  H   UNL A   1      34.813  25.792  26.223  1.00  0.00     0.163 HD
BRANCH   5   8
ATOM      8  C   UNL A   1      33.898  23.181  24.313  1.00  0.00     0.074 A 
ATOM      9  C   UNL A   1      33.365  23.167  23.030  1.00  0.00     0.108 A 
ATOM     10  S   UNL A   1      32.148  21.972  22.843  1.00  0.00    -0.126 S 
ATOM     11  C   UNL A   1      32.637  21.173  24.263  1.00  0.00     0.068 A 
ATOM     12  C   UNL A   1      33.562  21.919  24.952  1.00  0.00     0.028 A 
BRANCH   9  13
ATOM     13  N   UNL A   1      33.449  23.931  21.892  1.00  0.00    -0.317 N 
ATOM     14  C   UNL A   1      32.903  25.141  21.579  1.00  0.00     0.228 C 
ATOM     15  O   UNL A   1      33.010  25.501  20.399  1.00  0.00    -0.274 OA
ATOM     16  H   UNL A   1      33.998  23.536  21.177  1.00  0.00     0.170 HD
BRANCH  14  17
ATOM     17  C   UNL A   1      32.285  26.107  22.592  1.00  0.00     0.082 C 
ATOM     18  C   UNL A   1      28.074  28.959  22.804  1.00  0.00     0.114 C 
ATOM     19  C   UNL A   1      29.519  29.014  22.380  1.00  0.00     0.219 C 
ATOM     20  O   UNL A   1      29.882  29.815  21.519  1.00  0.00    -0.275 OA
ATOM     21  N   UNL A   1      30.401  28.212  23.085  1.00  0.00    -0.343 N 
ATOM     22  C   UNL A   1      31.811  28.565  23.138  1.00  0.00     0.120 C 
ATOM     23  C   UNL A   1      30.086  26.889  23.603  1.00  0.00     0.120 C 
ATOM     24  C   UNL A   1      32.661  27.567  22.372  1.00  0.00     0.035 C 
ATOM     25  C   UNL A   1      30.777  25.841  22.736  1.00  0.00     0.035 C 
ENDBRANCH  14  17
ENDBRANCH   9  13
ENDBRANCH   5   8
ENDBRANCH   3   4
ENDBRANCH   2   3
ENDBRANCH   1   2
BRANCH   1  26
ATOM     26  C   UNL A   1      34.198  28.964  26.027  1.00  0.00     0.116 C 
BRANCH  26  27
ATOM     27  N   UNL A   1      33.803  30.280  26.505  1.00  0.00    -0.352 N 
ATOM     28  C   UNL A   1      34.322  31.057  27.515  1.00  0.00     0.251 C 
ATOM     29  H   UNL A   1      33.041  30.681  26.027  1.00  0.00     0.163 HD
ATOM     30  O   UNL A   1      33.720  32.068  27.873  1.00  0.00    -0.269 OA
BRANCH  28  31
ATOM     31  C   UNL A   1      35.580  30.671  28.195  1.00  0.00     0.039 A 
ATOM     32  C   UNL A   1      35.527  29.765  29.258  1.00  0.00     0.014 A 
ATOM     33  C   UNL A   1      36.809  31.207  27.804  1.00  0.00     0.014 A 
ATOM     34  C   UNL A   1      36.711  29.328  29.859  1.00  0.00     0.010 A 
ATOM     35  C   UNL A   1      37.994  30.704  28.342  1.00  0.00     0.010 A 
ATOM     36  C   UNL A   1      37.961  29.751  29.371  1.00  0.00    -0.014 A 
BRANCH  36  37
ATOM     37  C   UNL A   1      39.226  29.177  29.909  1.00  0.00     0.031 A 
ATOM     38  C   UNL A   1      39.886  29.767  31.127  1.00  0.00     0.074 A 
ATOM     39  C   UNL A   1      39.811  28.147  29.263  1.00  0.00     0.049 A 
ATOM     40  N   UNL A   1      40.997  29.410  31.721  1.00  0.00    -0.248 NA
ATOM     41  C   UNL A   1      39.227  30.929  31.739  1.00  0.00     0.031 C 
ATOM     42  C   UNL A   1      39.303  27.524  28.038  1.00  0.00     0.029 A 
ATOM     43  N   UNL A   1      40.957  27.443  29.539  1.00  0.00    -0.354 N 
ATOM     44  C   UNL A   1      41.174  30.305  32.770  1.00  0.00     0.074 A 
ATOM     45  C   UNL A   1      40.092  31.263  32.686  1.00  0.00     0.031 C 
ATOM     46  C   UNL A   1      40.108  26.507  27.694  1.00  0.00     0.029 A 
ATOM     47  C   UNL A   1      41.218  26.435  28.638  1.00  0.00     0.049 A 
ATOM     48  H   UNL A   1      41.537  27.639  30.310  1.00  0.00     0.167 HD
ATOM     49  C   UNL A   1      42.135  30.314  33.730  1.00  0.00     0.034 A 
ATOM     50  C   UNL A   1      42.239  25.556  28.571  1.00  0.00     0.034 A 
ATOM     51  C   UNL A   1      43.208  29.350  33.801  1.00  0.00     0.049 A 
ATOM     52  C   UNL A   1      43.308  25.600  29.632  1.00  0.00     0.074 A 
ATOM     53  C   UNL A   1      44.195  29.228  34.764  1.00  0.00     0.029 A 
ATOM     54  N   UNL A   1      43.449  28.352  32.863  1.00  0.00    -0.354 N 
ATOM     55  N   UNL A   1      43.419  26.409  30.661  1.00  0.00    -0.248 NA
ATOM     56  C   UNL A   1      44.380  24.603  29.530  1.00  0.00     0.031 C 
ATOM     57  C   UNL A   1      45.078  28.218  34.366  1.00  0.00     0.029 A 
ATOM     58  C   UNL A   1      44.592  27.641  33.203  1.00  0.00     0.049 A 
ATOM     59  H   UNL A   1      42.890  28.175  32.073  1.00  0.00     0.167 HD
ATOM     60  C   UNL A   1      44.563  26.000  31.342  1.00  0.00     0.074 A 
ATOM     61  C   UNL A   1      45.087  24.858  30.621  1.00  0.00     0.031 C 
ATOM     62  C   UNL A   1      45.127  26.520  32.464  1.00  0.00     0.034 A 
BRANCH  49  63
ATOM     63  C   UNL A   1      42.080  31.421  34.760  1.00  0.00     0.023 A 
ATOM     64  C   UNL A   1      41.102  31.444  35.773  1.00  0.00     0.031 A 
ATOM     65  C   UNL A   1      42.999  32.485  34.716  1.00  0.00     0.131 A 
ATOM     66  C   UNL A   1      41.013  32.546  36.638  1.00  0.00     0.055 A 
ATOM     67  C   UNL A   1      42.961  33.533  35.638  1.00  0.00     0.041 A 
ATOM     68  F   UNL A   1      43.942  32.534  33.762  1.00  0.00    -0.206 F 
ATOM     69  C   UNL A   1      41.953  33.577  36.595  1.00  0.00     0.022 A 
BRANCH  66  70
ATOM     70  S   UNL A   1      39.553  32.690  37.705  1.00  0.00     0.124 S 
ATOM     71  O   UNL A   1      38.725  31.587  37.223  1.00  0.00    -0.237 OA
ATOM     72  O   UNL A   1      40.119  32.531  39.039  1.00  0.00    -0.237 OA
ATOM     73  O   UNL A   1      39.036  34.023  37.399  1.00  0.00    -0.744 OA
ENDBRANCH  66  70
ENDBRANCH  49  63
BRANCH  50  74
ATOM     74  C   UNL A   1      42.309  24.567  27.455  1.00  0.00     0.023 A 
ATOM     75  C   UNL A   1      41.522  23.404  27.462  1.00  0.00     0.031 A 
ATOM     76  C   UNL A   1      43.191  24.757  26.376  1.00  0.00     0.131 A 
ATOM     77  C   UNL A   1      41.663  22.456  26.437  1.00  0.00     0.055 A 
ATOM     78  C   UNL A   1      43.286  23.839  25.329  1.00  0.00     0.041 A 
ATOM     79  F   UNL A   1      43.965  25.852  26.317  1.00  0.00    -0.206 F 
ATOM     80  C   UNL A   1      42.528  22.673  25.362  1.00  0.00     0.022 A 
BRANCH  77  81
ATOM     81  S   UNL A   1      40.759  20.889  26.568  1.00  0.00     0.124 S 
ATOM     82  O   UNL A   1      40.778  20.654  28.008  1.00  0.00    -0.237 OA
ATOM     83  O   UNL A   1      39.465  21.236  25.992  1.00  0.00    -0.237 OA
ATOM     84  O   UNL A   1      41.564  19.964  25.773  1.00  0.00    -0.744 OA
ENDBRANCH  77  81
ENDBRANCH  50  74
BRANCH  62  85
ATOM     85  C   UNL A   1      46.364  25.829  32.991  1.00  0.00     0.023 A 
ATOM     86  C   UNL A   1      47.642  26.100  32.469  1.00  0.00     0.031 A 
ATOM     87  C   UNL A   1      46.260  24.865  34.009  1.00  0.00     0.131 A 
ATOM     88  C   UNL A   1      48.750  25.363  32.914  1.00  0.00     0.055 A 
ATOM     89  C   UNL A   1      47.378  24.189  34.501  1.00  0.00     0.041 A 
ATOM     90  F   UNL A   1      45.066  24.560  34.543  1.00  0.00    -0.206 F 
ATOM     91  C   UNL A   1      48.629  24.423  33.940  1.00  0.00     0.022 A 
BRANCH  88  92
ATOM     92  S   UNL A   1      50.331  25.558  32.045  1.00  0.00     0.124 S 
ATOM     93  O   UNL A   1      50.528  24.228  31.476  1.00  0.00    -0.237 OA
ATOM     94  O   UNL A   1      50.033  26.621  31.091  1.00  0.00    -0.237 OA
ATOM     95  O   UNL A   1      51.264  25.922  33.108  1.00  0.00    -0.744 OA
ENDBRANCH  88  92
ENDBRANCH  62  85
ENDBRANCH  36  37
ENDBRANCH  28  31
ENDBRANCH  26  27
ENDBRANCH   1  26
TORSDOF 16
ENDMDL
MODEL 3
REMARK VINA RESULT:     -12.6      3.946      8.933
REMARK SMILES CC(=O)N1CCC(C(=O)Nc2sccc2C(=O)NCCCCNC(=O)c2ccc(-c3c4nc(c(-c5cc(S(=O)(=O)[O-])ccc5F)c5ccc([nH]5)c(-c5cc(S(=O)(=O)[O-])ccc5F)c5nc(c(-c6cc(S(=O)(=O)[O-])ccc6F)c6ccc3[nH]6)C=C5)C=C4)cc2)CC1
REMARK SMILES IDX 21 1 20 2 19 3 18 4 16 5 17 6 15 8 11 9 12 10 13 11 14 12
REMARK SMILES IDX 10 13 8 14 9 15 7 17 1 18 2 19 3 20 4 21 5 22 90 23 6 24
REMARK SMILES IDX 89 25 22 26 23 27 24 28 25 30 26 31 27 32 88 33 28 34 87 35
REMARK SMILES IDX 29 36 30 37 31 38 81 39 32 40 86 41 80 42 82 43 33 44 85 45
REMARK SMILES IDX 79 46 78 47 34 49 66 50 46 51 65 52 47 53 50 54 64 55 83 56
REMARK SMILES IDX 48 57 49 58 63 60 84 61 51 62 35 63 36 64 44 65 37 66 43 67
REMARK SMILES IDX 45 68 42 69 38 70 39 71 40 72 41 73 67 74 68 75 76 76 69 77
REMARK SMILES IDX 75 78 77 79 74 80 70 81 71 82 72 83 73 84 52 85 53 86 61 87
REMARK SMILES IDX 54 88 60 89 62 90 59 91 55 92 56 93 57 94 58 95
REMARK H PARENT 18 7 10 16 23 29 82 48 50 59
REMARK Flexibility Score: inf
ROOT
ATOM      1  C   UNL A   1      34.044  27.598  25.168  1.00  0.00     0.023 C 
ENDROOT
BRANCH   1   2
ATOM      2  C   UNL A   1      33.916  28.717  24.129  1.00  0.00     0.023 C 
BRANCH   2   3
ATOM      3  C   UNL A   1      33.623  28.253  22.707  1.00  0.00     0.116 C 
BRANCH   3   4
ATOM      4  N   UNL A   1      32.285  28.535  22.250  1.00  0.00    -0.352 N 
ATOM      5  C   UNL A   1      31.103  27.884  22.500  1.00  0.00     0.254 C 
ATOM      6  O   UNL A   1      30.114  28.317  21.899  1.00  0.00    -0.269 OA
ATOM      7  H   UNL A   1      32.206  29.321  21.663  1.00  0.00     0.163 HD
BRANCH   5   8
ATOM      8  C   UNL A   1      30.978  26.704  23.381  1.00  0.00     0.074 A 
ATOM      9  C   UNL A   1      31.356  25.375  23.236  1.00  0.00     0.108 A 
ATOM     10  S   UNL A   1      30.567  24.348  24.360  1.00  0.00    -0.126 S 
ATOM     11  C   UNL A   1      30.103  25.668  25.327  1.00  0.00     0.068 A 
ATOM     12  C   UNL A   1      30.371  26.857  24.694  1.00  0.00     0.028 A 
BRANCH   9  13
ATOM     13  N   UNL A   1      32.095  24.625  22.355  1.00  0.00    -0.317 N 
ATOM     14  C   UNL A   1      33.217  23.871  22.536  1.00  0.00     0.228 C 
ATOM     15  O   UNL A   1      33.764  23.449  21.509  1.00  0.00    -0.274 OA
ATOM     16  H   UNL A   1      31.756  24.634  21.430  1.00  0.00     0.170 HD
BRANCH  14  17
ATOM     17  C   UNL A   1      33.759  23.429  23.897  1.00  0.00     0.082 C 
ATOM     18  C   UNL A   1      38.377  22.806  25.948  1.00  0.00     0.114 C 
ATOM     19  C   UNL A   1      37.305  22.057  25.199  1.00  0.00     0.219 C 
ATOM     20  O   UNL A   1      37.595  21.070  24.526  1.00  0.00    -0.275 OA
ATOM     21  N   UNL A   1      36.000  22.472  25.410  1.00  0.00    -0.343 N 
ATOM     22  C   UNL A   1      34.905  21.540  25.193  1.00  0.00     0.120 C 
ATOM     23  C   UNL A   1      35.591  23.853  25.611  1.00  0.00     0.120 C 
ATOM     24  C   UNL A   1      34.064  21.939  23.994  1.00  0.00     0.035 C 
ATOM     25  C   UNL A   1      34.903  24.355  24.344  1.00  0.00     0.035 C 
ENDBRANCH  14  17
ENDBRANCH   9  13
ENDBRANCH   5   8
ENDBRANCH   3   4
ENDBRANCH   2   3
ENDBRANCH   1   2
BRANCH   1  26
ATOM     26  C   UNL A   1      33.832  28.002  26.630  1.00  0.00     0.116 C 
BRANCH  26  27
ATOM     27  N   UNL A   1      33.549  29.417  26.808  1.00  0.00    -0.352 N 
ATOM     28  C   UNL A   1      34.242  30.388  27.494  1.00  0.00     0.251 C 
ATOM     29  H   UNL A   1      32.728  29.733  26.364  1.00  0.00     0.163 HD
ATOM     30  O   UNL A   1      33.728  31.492  27.668  1.00  0.00    -0.269 OA
BRANCH  28  31
ATOM     31  C   UNL A   1      35.585  30.107  28.051  1.00  0.00     0.039 A 
ATOM     32  C   UNL A   1      35.693  29.672  29.375  1.00  0.00     0.014 A 
ATOM     33  C   UNL A   1      36.739  30.284  27.285  1.00  0.00     0.014 A 
ATOM     34  C   UNL A   1      36.945  29.324  29.892  1.00  0.00     0.010 A 
ATOM     35  C   UNL A   1      37.974  29.854  27.772  1.00  0.00     0.010 A 
ATOM     36  C   UNL A   1      38.091  29.360  29.079  1.00  0.00    -0.014 A 
BRANCH  36  37
ATOM     37  C   UNL A   1      39.400  28.853  29.579  1.00  0.00     0.031 A 
ATOM     38  C   UNL A   1      40.126  29.555  30.695  1.00  0.00     0.074 A 
ATOM     39  C   UNL A   1      39.962  27.778  28.986  1.00  0.00     0.049 A 
ATOM     40  N   UNL A   1      41.280  29.267  31.243  1.00  0.00    -0.248 NA
ATOM     41  C   UNL A   1      39.486  30.757  31.247  1.00  0.00     0.031 C 
ATOM     42  C   UNL A   1      39.387  27.043  27.857  1.00  0.00     0.029 A 
ATOM     43  N   UNL A   1      41.136  27.117  29.245  1.00  0.00    -0.354 N 
ATOM     44  C   UNL A   1      41.508  30.252  32.196  1.00  0.00     0.074 A 
ATOM     45  C   UNL A   1      40.404  31.184  32.102  1.00  0.00     0.031 C 
ATOM     46  C   UNL A   1      40.188  26.011  27.548  1.00  0.00     0.029 A 
ATOM     47  C   UNL A   1      41.358  26.038  28.420  1.00  0.00     0.049 A 
ATOM     48  H   UNL A   1      41.762  27.387  29.956  1.00  0.00     0.167 HD
ATOM     49  C   UNL A   1      42.528  30.358  33.086  1.00  0.00     0.034 A 
ATOM     50  C   UNL A   1      42.390  25.170  28.360  1.00  0.00     0.034 A 
ATOM     51  C   UNL A   1      43.622  29.419  33.168  1.00  0.00     0.049 A 
ATOM     52  C   UNL A   1      43.524  25.321  29.340  1.00  0.00     0.074 A 
ATOM     53  C   UNL A   1      44.673  29.395  34.070  1.00  0.00     0.029 A 
ATOM     54  N   UNL A   1      43.821  28.346  32.306  1.00  0.00    -0.354 N 
ATOM     55  N   UNL A   1      43.686  26.218  30.286  1.00  0.00    -0.248 NA
ATOM     56  C   UNL A   1      44.606  24.333  29.253  1.00  0.00     0.031 C 
ATOM     57  C   UNL A   1      45.547  28.366  33.703  1.00  0.00     0.029 A 
ATOM     58  C   UNL A   1      44.998  27.684  32.629  1.00  0.00     0.049 A 
ATOM     59  H   UNL A   1      43.215  28.093  31.573  1.00  0.00     0.167 HD
ATOM     60  C   UNL A   1      44.879  25.885  30.923  1.00  0.00     0.074 A 
ATOM     61  C   UNL A   1      45.378  24.693  30.269  1.00  0.00     0.031 C 
ATOM     62  C   UNL A   1      45.505  26.509  31.955  1.00  0.00     0.034 A 
BRANCH  49  63
ATOM     63  C   UNL A   1      42.519  31.550  34.019  1.00  0.00     0.023 A 
ATOM     64  C   UNL A   1      41.973  31.474  35.314  1.00  0.00     0.031 A 
ATOM     65  C   UNL A   1      43.038  32.789  33.600  1.00  0.00     0.131 A 
ATOM     66  C   UNL A   1      41.879  32.630  36.105  1.00  0.00     0.055 A 
ATOM     67  C   UNL A   1      43.024  33.913  34.428  1.00  0.00     0.041 A 
ATOM     68  F   UNL A   1      43.553  32.933  32.369  1.00  0.00    -0.206 F 
ATOM     69  C   UNL A   1      42.425  33.842  35.682  1.00  0.00     0.022 A 
BRANCH  66  70
ATOM     70  S   UNL A   1      40.882  32.561  37.619  1.00  0.00     0.124 S 
ATOM     71  O   UNL A   1      41.744  31.781  38.505  1.00  0.00    -0.237 OA
ATOM     72  O   UNL A   1      40.724  33.970  37.958  1.00  0.00    -0.237 OA
ATOM     73  O   UNL A   1      39.661  31.878  37.195  1.00  0.00    -0.744 OA
ENDBRANCH  66  70
ENDBRANCH  49  63
BRANCH  50  74
ATOM     74  C   UNL A   1      42.406  24.089  27.332  1.00  0.00     0.023 A 
ATOM     75  C   UNL A   1      41.825  22.835  27.583  1.00  0.00     0.031 A 
ATOM     76  C   UNL A   1      43.034  24.284  26.088  1.00  0.00     0.131 A 
ATOM     77  C   UNL A   1      41.921  21.813  26.626  1.00  0.00     0.055 A 
ATOM     78  C   UNL A   1      43.076  23.284  25.116  1.00  0.00     0.041 A 
ATOM     79  F   UNL A   1      43.603  25.464  25.793  1.00  0.00    -0.206 F 
ATOM     80  C   UNL A   1      42.528  22.034  25.387  1.00  0.00     0.022 A 
BRANCH  77  81
ATOM     81  S   UNL A   1      41.312  20.159  27.053  1.00  0.00     0.124 S 
ATOM     82  O   UNL A   1      42.525  19.357  26.939  1.00  0.00    -0.237 OA
ATOM     83  O   UNL A   1      40.803  20.363  28.404  1.00  0.00    -0.237 OA
ATOM     84  O   UNL A   1      40.293  19.899  26.038  1.00  0.00    -0.744 OA
ENDBRANCH  77  81
ENDBRANCH  50  74
BRANCH  62  85
ATOM     85  C   UNL A   1      46.787  25.884  32.457  1.00  0.00     0.023 A 
ATOM     86  C   UNL A   1      48.023  26.125  31.829  1.00  0.00     0.031 A 
ATOM     87  C   UNL A   1      46.769  25.012  33.559  1.00  0.00     0.131 A 
ATOM     88  C   UNL A   1      49.171  25.445  32.261  1.00  0.00     0.055 A 
ATOM     89  C   UNL A   1      47.929  24.397  34.032  1.00  0.00     0.041 A 
ATOM     90  F   UNL A   1      45.618  24.739  34.197  1.00  0.00    -0.206 F 
ATOM     91  C   UNL A   1      49.136  24.598  33.371  1.00  0.00     0.022 A 
BRANCH  88  92
ATOM     92  S   UNL A   1      50.688  25.584  31.274  1.00  0.00     0.124 S 
ATOM     93  O   UNL A   1      50.882  27.030  31.224  1.00  0.00    -0.237 OA
ATOM     94  O   UNL A   1      51.652  24.839  32.076  1.00  0.00    -0.237 OA
ATOM     95  O   UNL A   1      50.327  24.964  30.001  1.00  0.00    -0.744 OA
ENDBRANCH  88  92
ENDBRANCH  62  85
ENDBRANCH  36  37
ENDBRANCH  28  31
ENDBRANCH  26  27
ENDBRANCH   1  26
TORSDOF 16
ENDMDL
