MODEL 1
REMARK VINA RESULT:     -12.4      0.000      0.000
REMARK SMILES C[C@@H]1CCC[C@@H](N(C)C(=O)N2CCC(CC(=O)NCCCCNC(=O)c3ccc(-c4c5nc(c(-c6cc(S(=O)(=O)[O-])ccc6F)c6ccc([nH]6)c(-c6cc(S(=O)(=O)[O-])ccc6F)c6nc(c(-c7cc(S(=O)(=O)[O-])ccc7F)c7ccc4[nH]7)C=C6)C=C5)cc3)CC2)C1
REMARK SMILES IDX 20 1 19 2 18 3 16 4 17 5 15 7 14 8 9 9 10 10 11 11 12 12
REMARK SMILES IDX 90 13 13 14 89 15 7 16 8 17 6 18 1 19 2 20 3 21 91 22 4 23
REMARK SMILES IDX 5 24 21 25 22 26 23 27 24 28 25 30 26 31 27 32 88 33 28 34
REMARK SMILES IDX 87 35 29 36 30 37 31 38 81 39 32 40 86 41 80 42 82 43 33 44
REMARK SMILES IDX 85 45 79 46 78 47 34 49 66 50 46 51 65 52 47 53 50 54 64 55
REMARK SMILES IDX 83 56 48 57 49 58 63 60 84 61 51 62 35 63 36 64 44 65 37 66
REMARK SMILES IDX 43 67 45 68 42 69 38 70 39 71 40 72 41 73 67 74 68 75 76 76
REMARK SMILES IDX 69 77 75 78 77 79 74 80 70 81 71 82 72 83 73 84 52 85 53 86
REMARK SMILES IDX 61 87 54 88 60 89 62 90 59 91 55 92 56 93 57 94 58 95
REMARK H PARENT 18 6 23 29 82 48 50 59
REMARK Flexibility Score: inf
ROOT
ATOM      1  C   UNL A   1      32.284  28.999  24.310  1.00  0.00     0.023 C 
ENDROOT
BRANCH   1   2
ATOM      2  C   UNL A   1      31.603  27.683  23.917  1.00  0.00     0.116 C 
BRANCH   2   3
ATOM      3  N   UNL A   1      31.228  26.908  25.091  1.00  0.00    -0.356 N 
ATOM      4  C   UNL A   1      31.996  26.215  25.981  1.00  0.00     0.220 C 
ATOM      5  O   UNL A   1      31.427  25.559  26.857  1.00  0.00    -0.275 OA
ATOM      6  H   UNL A   1      30.261  26.879  25.273  1.00  0.00     0.163 HD
BRANCH   4   7
ATOM      7  C   UNL A   1      33.517  26.240  25.903  1.00  0.00     0.103 C 
BRANCH   7   8
ATOM      8  C   UNL A   1      34.142  24.897  25.468  1.00  0.00     0.002 C 
ATOM      9  C   UNL A   1      32.577  21.273  24.949  1.00  0.00     0.319 C 
ATOM     10  O   UNL A   1      31.653  21.492  25.726  1.00  0.00    -0.248 OA
ATOM     11  N   UNL A   1      33.715  22.061  24.939  1.00  0.00    -0.325 N 
ATOM     12  C   UNL A   1      34.332  22.431  26.186  1.00  0.00     0.121 C 
ATOM     13  C   UNL A   1      33.967  22.960  23.823  1.00  0.00     0.121 C 
ATOM     14  C   UNL A   1      33.992  23.852  26.572  1.00  0.00     0.026 C 
ATOM     15  C   UNL A   1      33.510  24.385  24.160  1.00  0.00     0.026 C 
BRANCH   9  16
ATOM     16  N   UNL A   1      32.599  20.229  24.033  1.00  0.00    -0.325 N 
ATOM     17  C   UNL A   1      32.099  20.396  22.674  1.00  0.00     0.149 C 
BRANCH  16  18
ATOM     18  C   UNL A   1      33.195  18.929  24.357  1.00  0.00     0.086 C 
ATOM     19  C   UNL A   1      32.573  15.960  25.288  1.00  0.00     0.008 C 
ATOM     20  C   UNL A   1      33.236  16.407  23.981  1.00  0.00    -0.012 C 
ATOM     21  C   UNL A   1      34.770  16.447  24.106  1.00  0.00     0.003 C 
ATOM     22  C   UNL A   1      32.683  17.761  23.498  1.00  0.00     0.028 C 
ATOM     23  C   UNL A   1      35.295  17.654  24.885  1.00  0.00     0.002 C 
ATOM     24  C   UNL A   1      34.727  18.970  24.354  1.00  0.00     0.025 C 
ENDBRANCH  16  18
ENDBRANCH   9  16
ENDBRANCH   7   8
ENDBRANCH   4   7
ENDBRANCH   2   3
ENDBRANCH   1   2
BRANCH   1  25
ATOM     25  C   UNL A   1      31.482  29.920  25.207  1.00  0.00     0.023 C 
BRANCH  25  26
ATOM     26  C   UNL A   1      32.218  30.384  26.445  1.00  0.00     0.116 C 
BRANCH  26  27
ATOM     27  N   UNL A   1      32.079  31.810  26.710  1.00  0.00    -0.352 N 
ATOM     28  C   UNL A   1      32.950  32.641  27.381  1.00  0.00     0.251 C 
ATOM     29  H   UNL A   1      31.260  32.232  26.367  1.00  0.00     0.163 HD
ATOM     30  O   UNL A   1      32.645  33.804  27.609  1.00  0.00    -0.269 OA
BRANCH  28  31
ATOM     31  C   UNL A   1      34.232  32.084  27.864  1.00  0.00     0.039 A 
ATOM     32  C   UNL A   1      35.333  32.929  27.996  1.00  0.00     0.014 A 
ATOM     33  C   UNL A   1      34.311  30.750  28.270  1.00  0.00     0.014 A 
ATOM     34  C   UNL A   1      36.493  32.450  28.606  1.00  0.00     0.010 A 
ATOM     35  C   UNL A   1      35.415  30.316  28.988  1.00  0.00     0.010 A 
ATOM     36  C   UNL A   1      36.528  31.153  29.145  1.00  0.00    -0.014 A 
BRANCH  36  37
ATOM     37  C   UNL A   1      37.736  30.630  29.830  1.00  0.00     0.031 A 
ATOM     38  C   UNL A   1      38.024  31.058  31.246  1.00  0.00     0.074 A 
ATOM     39  C   UNL A   1      38.594  29.832  29.166  1.00  0.00     0.049 A 
ATOM     40  N   UNL A   1      39.050  30.772  32.005  1.00  0.00    -0.248 NA
ATOM     41  C   UNL A   1      37.052  31.969  31.872  1.00  0.00     0.031 C 
ATOM     42  C   UNL A   1      38.453  29.410  27.769  1.00  0.00     0.029 A 
ATOM     43  N   UNL A   1      39.757  29.229  29.576  1.00  0.00    -0.354 N 
ATOM     44  C   UNL A   1      38.854  31.485  33.184  1.00  0.00     0.074 A 
ATOM     45  C   UNL A   1      37.662  32.282  33.003  1.00  0.00     0.031 C 
ATOM     46  C   UNL A   1      39.465  28.584  27.454  1.00  0.00     0.029 A 
ATOM     47  C   UNL A   1      40.346  28.448  28.609  1.00  0.00     0.049 A 
ATOM     48  H   UNL A   1      40.133  29.344  30.478  1.00  0.00     0.167 HD
ATOM     49  C   UNL A   1      39.581  31.449  34.328  1.00  0.00     0.034 A 
ATOM     50  C   UNL A   1      41.468  27.702  28.654  1.00  0.00     0.034 A 
ATOM     51  C   UNL A   1      40.747  30.620  34.498  1.00  0.00     0.049 A 
ATOM     52  C   UNL A   1      42.243  27.650  29.947  1.00  0.00     0.074 A 
ATOM     53  C   UNL A   1      41.533  30.455  35.624  1.00  0.00     0.029 A 
ATOM     54  N   UNL A   1      41.293  29.809  33.510  1.00  0.00    -0.354 N 
ATOM     55  N   UNL A   1      42.014  28.284  31.076  1.00  0.00    -0.248 NA
ATOM     56  C   UNL A   1      43.412  26.764  29.980  1.00  0.00     0.031 C 
ATOM     57  C   UNL A   1      42.585  29.590  35.301  1.00  0.00     0.029 A 
ATOM     58  C   UNL A   1      42.413  29.155  33.995  1.00  0.00     0.049 A 
ATOM     59  H   UNL A   1      40.934  29.713  32.598  1.00  0.00     0.167 HD
ATOM     60  C   UNL A   1      42.992  27.845  31.963  1.00  0.00     0.074 A 
ATOM     61  C   UNL A   1      43.799  26.880  31.242  1.00  0.00     0.031 C 
ATOM     62  C   UNL A   1      43.204  28.200  33.256  1.00  0.00     0.034 A 
BRANCH  49  63
ATOM     63  C   UNL A   1      39.133  32.343  35.462  1.00  0.00     0.023 A 
ATOM     64  C   UNL A   1      39.573  33.676  35.571  1.00  0.00     0.031 A 
ATOM     65  C   UNL A   1      38.294  31.847  36.475  1.00  0.00     0.131 A 
ATOM     66  C   UNL A   1      39.251  34.432  36.707  1.00  0.00     0.055 A 
ATOM     67  C   UNL A   1      37.903  32.635  37.559  1.00  0.00     0.041 A 
ATOM     68  F   UNL A   1      37.859  30.577  36.441  1.00  0.00    -0.206 F 
ATOM     69  C   UNL A   1      38.396  33.930  37.689  1.00  0.00     0.022 A 
BRANCH  66  70
ATOM     70  S   UNL A   1      40.093  36.018  36.958  1.00  0.00     0.124 S 
ATOM     71  O   UNL A   1      39.378  36.551  38.115  1.00  0.00    -0.237 OA
ATOM     72  O   UNL A   1      41.473  35.611  37.190  1.00  0.00    -0.237 OA
ATOM     73  O   UNL A   1      39.856  36.734  35.705  1.00  0.00    -0.744 OA
ENDBRANCH  66  70
ENDBRANCH  49  63
BRANCH  50  74
ATOM     74  C   UNL A   1      41.916  26.930  27.460  1.00  0.00     0.023 A 
ATOM     75  C   UNL A   1      41.712  25.543  27.376  1.00  0.00     0.031 A 
ATOM     76  C   UNL A   1      42.591  27.561  26.400  1.00  0.00     0.131 A 
ATOM     77  C   UNL A   1      42.221  24.824  26.283  1.00  0.00     0.055 A 
ATOM     78  C   UNL A   1      43.048  26.849  25.289  1.00  0.00     0.041 A 
ATOM     79  F   UNL A   1      42.804  28.887  26.424  1.00  0.00    -0.206 F 
ATOM     80  C   UNL A   1      42.877  25.469  25.233  1.00  0.00     0.022 A 
BRANCH  77  81
ATOM     81  S   UNL A   1      42.083  23.015  26.293  1.00  0.00     0.124 S 
ATOM     82  O   UNL A   1      42.664  22.665  25.001  1.00  0.00    -0.237 OA
ATOM     83  O   UNL A   1      42.870  22.658  27.468  1.00  0.00    -0.237 OA
ATOM     84  O   UNL A   1      40.645  22.784  26.415  1.00  0.00    -0.744 OA
ENDBRANCH  77  81
ENDBRANCH  50  74
BRANCH  62  85
ATOM     85  C   UNL A   1      44.324  27.494  33.981  1.00  0.00     0.023 A 
ATOM     86  C   UNL A   1      44.122  26.271  34.643  1.00  0.00     0.031 A 
ATOM     87  C   UNL A   1      45.606  28.070  34.028  1.00  0.00     0.131 A 
ATOM     88  C   UNL A   1      45.168  25.696  35.379  1.00  0.00     0.055 A 
ATOM     89  C   UNL A   1      46.660  27.460  34.708  1.00  0.00     0.041 A 
ATOM     90  F   UNL A   1      45.854  29.238  33.413  1.00  0.00    -0.206 F 
ATOM     91  C   UNL A   1      46.439  26.274  35.402  1.00  0.00     0.022 A 
BRANCH  88  92
ATOM     92  S   UNL A   1      44.813  24.239  36.399  1.00  0.00     0.124 S 
ATOM     93  O   UNL A   1      43.888  23.493  35.552  1.00  0.00    -0.237 OA
ATOM     94  O   UNL A   1      46.137  23.649  36.570  1.00  0.00    -0.237 OA
ATOM     95  O   UNL A   1      44.226  24.804  37.612  1.00  0.00    -0.744 OA
ENDBRANCH  88  92
ENDBRANCH  62  85
ENDBRANCH  36  37
ENDBRANCH  28  31
ENDBRANCH  26  27
ENDBRANCH  25  26
ENDBRANCH   1  25
TORSDOF 17
ENDMDL
MODEL 2
REMARK VINA RESULT:     -12.3      4.754     10.610
REMARK SMILES C[C@@H]1CCC[C@@H](N(C)C(=O)N2CCC(CC(=O)NCCCCNC(=O)c3ccc(-c4c5nc(c(-c6cc(S(=O)(=O)[O-])ccc6F)c6ccc([nH]6)c(-c6cc(S(=O)(=O)[O-])ccc6F)c6nc(c(-c7cc(S(=O)(=O)[O-])ccc7F)c7ccc4[nH]7)C=C6)C=C5)cc3)CC2)C1
REMARK SMILES IDX 20 1 19 2 18 3 16 4 17 5 15 7 14 8 9 9 10 10 11 11 12 12
REMARK SMILES IDX 90 13 13 14 89 15 7 16 8 17 6 18 1 19 2 20 3 21 91 22 4 23
REMARK SMILES IDX 5 24 21 25 22 26 23 27 24 28 25 30 26 31 27 32 88 33 28 34
REMARK SMILES IDX 87 35 29 36 30 37 31 38 81 39 32 40 86 41 80 42 82 43 33 44
REMARK SMILES IDX 85 45 79 46 78 47 34 49 66 50 46 51 65 52 47 53 50 54 64 55
REMARK SMILES IDX 83 56 48 57 49 58 63 60 84 61 51 62 35 63 36 64 44 65 37 66
REMARK SMILES IDX 43 67 45 68 42 69 38 70 39 71 40 72 41 73 67 74 68 75 76 76
REMARK SMILES IDX 69 77 75 78 77 79 74 80 70 81 71 82 72 83 73 84 52 85 53 86
REMARK SMILES IDX 61 87 54 88 60 89 62 90 59 91 55 92 56 93 57 94 58 95
REMARK H PARENT 18 6 23 29 82 48 50 59
REMARK Flexibility Score: inf
ROOT
ATOM      1  C   UNL A   1      34.991  21.745  24.414  1.00  0.00     0.023 C 
ENDROOT
BRANCH   1   2
ATOM      2  C   UNL A   1      33.635  21.038  24.314  1.00  0.00     0.116 C 
BRANCH   2   3
ATOM      3  N   UNL A   1      32.640  21.885  23.674  1.00  0.00    -0.356 N 
ATOM      4  C   UNL A   1      31.666  22.675  24.212  1.00  0.00     0.220 C 
ATOM      5  O   UNL A   1      30.881  23.239  23.447  1.00  0.00    -0.275 OA
ATOM      6  H   UNL A   1      32.674  21.889  22.690  1.00  0.00     0.163 HD
BRANCH   4   7
ATOM      7  C   UNL A   1      31.540  22.862  25.719  1.00  0.00     0.103 C 
BRANCH   7   8
ATOM      8  C   UNL A   1      31.789  24.311  26.191  1.00  0.00     0.002 C 
ATOM      9  C   UNL A   1      31.725  27.791  24.260  1.00  0.00     0.319 C 
ATOM     10  O   UNL A   1      31.970  27.268  23.178  1.00  0.00    -0.248 OA
ATOM     11  N   UNL A   1      31.952  27.127  25.453  1.00  0.00    -0.325 N 
ATOM     12  C   UNL A   1      33.183  26.404  25.639  1.00  0.00     0.121 C 
ATOM     13  C   UNL A   1      30.828  26.669  26.256  1.00  0.00     0.121 C 
ATOM     14  C   UNL A   1      32.984  24.917  25.459  1.00  0.00     0.026 C 
ATOM     15  C   UNL A   1      30.539  25.187  25.987  1.00  0.00     0.026 C 
BRANCH   9  16
ATOM     16  N   UNL A   1      31.228  29.080  24.411  1.00  0.00    -0.325 N 
ATOM     17  C   UNL A   1      31.915  30.072  25.229  1.00  0.00     0.149 C 
BRANCH  16  18
ATOM     18  C   UNL A   1      30.030  29.535  23.698  1.00  0.00     0.086 C 
ATOM     19  C   UNL A   1      28.559  32.062  22.465  1.00  0.00     0.008 C 
ATOM     20  C   UNL A   1      29.032  30.806  21.726  1.00  0.00    -0.012 C 
ATOM     21  C   UNL A   1      27.922  29.742  21.644  1.00  0.00     0.003 C 
ATOM     22  C   UNL A   1      30.313  30.225  22.353  1.00  0.00     0.028 C 
ATOM     23  C   UNL A   1      27.694  28.987  22.955  1.00  0.00     0.002 C 
ATOM     24  C   UNL A   1      28.993  28.420  23.524  1.00  0.00     0.025 C 
ENDBRANCH  16  18
ENDBRANCH   9  16
ENDBRANCH   7   8
ENDBRANCH   4   7
ENDBRANCH   2   3
ENDBRANCH   1   2
BRANCH   1  25
ATOM     25  C   UNL A   1      35.731  21.580  25.728  1.00  0.00     0.023 C 
BRANCH  25  26
ATOM     26  C   UNL A   1      37.107  22.208  25.753  1.00  0.00     0.116 C 
BRANCH  26  27
ATOM     27  N   UNL A   1      38.191  21.242  25.866  1.00  0.00    -0.352 N 
ATOM     28  C   UNL A   1      39.470  21.445  26.338  1.00  0.00     0.251 C 
ATOM     29  H   UNL A   1      37.983  20.327  25.567  1.00  0.00     0.163 HD
ATOM     30  O   UNL A   1      40.302  20.551  26.278  1.00  0.00    -0.269 OA
BRANCH  28  31
ATOM     31  C   UNL A   1      39.826  22.780  26.865  1.00  0.00     0.039 A 
ATOM     32  C   UNL A   1      40.753  22.875  27.903  1.00  0.00     0.014 A 
ATOM     33  C   UNL A   1      39.311  23.933  26.268  1.00  0.00     0.014 A 
ATOM     34  C   UNL A   1      41.218  24.132  28.291  1.00  0.00     0.010 A 
ATOM     35  C   UNL A   1      39.868  25.167  26.568  1.00  0.00     0.010 A 
ATOM     36  C   UNL A   1      40.811  25.285  27.598  1.00  0.00    -0.014 A 
BRANCH  36  37
ATOM     37  C   UNL A   1      41.318  26.630  27.966  1.00  0.00     0.031 A 
ATOM     38  C   UNL A   1      42.732  27.009  27.612  1.00  0.00     0.074 A 
ATOM     39  C   UNL A   1      40.535  27.475  28.665  1.00  0.00     0.049 A 
ATOM     40  N   UNL A   1      43.392  28.102  27.892  1.00  0.00    -0.248 NA
ATOM     41  C   UNL A   1      43.525  26.001  26.889  1.00  0.00     0.031 C 
ATOM     42  C   UNL A   1      39.173  27.188  29.124  1.00  0.00     0.029 A 
ATOM     43  N   UNL A   1      40.770  28.751  29.112  1.00  0.00    -0.354 N 
ATOM     44  C   UNL A   1      44.678  27.902  27.400  1.00  0.00     0.074 A 
ATOM     45  C   UNL A   1      44.727  26.552  26.885  1.00  0.00     0.031 C 
ATOM     46  C   UNL A   1      38.681  28.271  29.749  1.00  0.00     0.029 A 
ATOM     47  C   UNL A   1      39.700  29.313  29.770  1.00  0.00     0.049 A 
ATOM     48  H   UNL A   1      41.624  29.220  28.974  1.00  0.00     0.167 HD
ATOM     49  C   UNL A   1      45.712  28.776  27.347  1.00  0.00     0.034 A 
ATOM     50  C   UNL A   1      39.560  30.535  30.320  1.00  0.00     0.034 A 
ATOM     51  C   UNL A   1      45.630  30.129  27.835  1.00  0.00     0.049 A 
ATOM     52  C   UNL A   1      40.711  31.505  30.220  1.00  0.00     0.074 A 
ATOM     53  C   UNL A   1      46.588  31.126  27.787  1.00  0.00     0.029 A 
ATOM     54  N   UNL A   1      44.516  30.679  28.459  1.00  0.00    -0.354 N 
ATOM     55  N   UNL A   1      41.903  31.322  29.698  1.00  0.00    -0.248 NA
ATOM     56  C   UNL A   1      40.489  32.851  30.761  1.00  0.00     0.031 C 
ATOM     57  C   UNL A   1      46.075  32.258  28.431  1.00  0.00     0.029 A 
ATOM     58  C   UNL A   1      44.769  31.993  28.815  1.00  0.00     0.049 A 
ATOM     59  H   UNL A   1      43.670  30.203  28.623  1.00  0.00     0.167 HD
ATOM     60  C   UNL A   1      42.561  32.543  29.818  1.00  0.00     0.074 A 
ATOM     61  C   UNL A   1      41.625  33.456  30.443  1.00  0.00     0.031 C 
ATOM     62  C   UNL A   1      43.820  32.883  29.442  1.00  0.00     0.034 A 
BRANCH  49  63
ATOM     63  C   UNL A   1      47.010  28.279  26.753  1.00  0.00     0.023 A 
ATOM     64  C   UNL A   1      47.231  28.266  25.363  1.00  0.00     0.031 A 
ATOM     65  C   UNL A   1      48.024  27.764  27.581  1.00  0.00     0.131 A 
ATOM     66  C   UNL A   1      48.388  27.670  24.840  1.00  0.00     0.055 A 
ATOM     67  C   UNL A   1      49.214  27.254  27.057  1.00  0.00     0.041 A 
ATOM     68  F   UNL A   1      47.865  27.727  28.913  1.00  0.00    -0.206 F 
ATOM     69  C   UNL A   1      49.394  27.189  25.679  1.00  0.00     0.022 A 
BRANCH  66  70
ATOM     70  S   UNL A   1      48.483  27.390  23.051  1.00  0.00     0.124 S 
ATOM     71  O   UNL A   1      49.802  27.934  22.738  1.00  0.00    -0.237 OA
ATOM     72  O   UNL A   1      48.346  25.942  22.949  1.00  0.00    -0.237 OA
ATOM     73  O   UNL A   1      47.359  28.162  22.523  1.00  0.00    -0.744 OA
ENDBRANCH  66  70
ENDBRANCH  49  63
BRANCH  50  74
ATOM     74  C   UNL A   1      38.286  30.925  30.991  1.00  0.00     0.023 A 
ATOM     75  C   UNL A   1      37.268  31.586  30.286  1.00  0.00     0.031 A 
ATOM     76  C   UNL A   1      38.082  30.675  32.360  1.00  0.00     0.131 A 
ATOM     77  C   UNL A   1      36.116  32.021  30.959  1.00  0.00     0.055 A 
ATOM     78  C   UNL A   1      36.911  31.063  33.014  1.00  0.00     0.041 A 
ATOM     79  F   UNL A   1      39.019  30.037  33.081  1.00  0.00    -0.206 F 
ATOM     80  C   UNL A   1      35.925  31.753  32.316  1.00  0.00     0.022 A 
BRANCH  77  81
ATOM     81  S   UNL A   1      34.902  33.018  30.051  1.00  0.00     0.124 S 
ATOM     82  O   UNL A   1      34.007  33.444  31.121  1.00  0.00    -0.237 OA
ATOM     83  O   UNL A   1      35.741  34.056  29.464  1.00  0.00    -0.237 OA
ATOM     84  O   UNL A   1      34.329  32.069  29.097  1.00  0.00    -0.744 OA
ENDBRANCH  77  81
ENDBRANCH  50  74
BRANCH  62  85
ATOM     85  C   UNL A   1      44.229  34.321  29.652  1.00  0.00     0.023 A 
ATOM     86  C   UNL A   1      43.901  35.326  28.727  1.00  0.00     0.031 A 
ATOM     87  C   UNL A   1      44.977  34.682  30.787  1.00  0.00     0.131 A 
ATOM     88  C   UNL A   1      44.378  36.632  28.918  1.00  0.00     0.055 A 
ATOM     89  C   UNL A   1      45.393  35.995  31.005  1.00  0.00     0.041 A 
ATOM     90  F   UNL A   1      45.317  33.760  31.702  1.00  0.00    -0.206 F 
ATOM     91  C   UNL A   1      45.108  36.975  30.059  1.00  0.00     0.022 A 
BRANCH  88  92
ATOM     92  S   UNL A   1      44.127  37.850  27.599  1.00  0.00     0.124 S 
ATOM     93  O   UNL A   1      43.128  37.191  26.763  1.00  0.00    -0.237 OA
ATOM     94  O   UNL A   1      43.666  39.020  28.339  1.00  0.00    -0.237 OA
ATOM     95  O   UNL A   1      45.452  37.980  26.996  1.00  0.00    -0.744 OA
ENDBRANCH  88  92
ENDBRANCH  62  85
ENDBRANCH  36  37
ENDBRANCH  28  31
ENDBRANCH  26  27
ENDBRANCH  25  26
ENDBRANCH   1  25
TORSDOF 17
ENDMDL
MODEL 3
REMARK VINA RESULT:     -12.0      2.086      7.918
REMARK SMILES C[C@@H]1CCC[C@@H](N(C)C(=O)N2CCC(CC(=O)NCCCCNC(=O)c3ccc(-c4c5nc(c(-c6cc(S(=O)(=O)[O-])ccc6F)c6ccc([nH]6)c(-c6cc(S(=O)(=O)[O-])ccc6F)c6nc(c(-c7cc(S(=O)(=O)[O-])ccc7F)c7ccc4[nH]7)C=C6)C=C5)cc3)CC2)C1
REMARK SMILES IDX 20 1 19 2 18 3 16 4 17 5 15 7 14 8 9 9 10 10 11 11 12 12
REMARK SMILES IDX 90 13 13 14 89 15 7 16 8 17 6 18 1 19 2 20 3 21 91 22 4 23
REMARK SMILES IDX 5 24 21 25 22 26 23 27 24 28 25 30 26 31 27 32 88 33 28 34
REMARK SMILES IDX 87 35 29 36 30 37 31 38 81 39 32 40 86 41 80 42 82 43 33 44
REMARK SMILES IDX 85 45 79 46 78 47 34 49 66 50 46 51 65 52 47 53 50 54 64 55
REMARK SMILES IDX 83 56 48 57 49 58 63 60 84 61 51 62 35 63 36 64 44 65 37 66
REMARK SMILES IDX 43 67 45 68 42 69 38 70 39 71 40 72 41 73 67 74 68 75 76 76
REMARK SMILES IDX 69 77 75 78 77 79 74 80 70 81 71 82 72 83 73 84 52 85 53 86
REMARK SMILES IDX 61 87 54 88 60 89 62 90 59 91 55 92 56 93 57 94 58 95
REMARK H PARENT 18 6 23 29 82 48 50 59
REMARK Flexibility Score: inf
ROOT
ATOM      1  C   UNL A   1      31.437  30.808  26.075  1.00  0.00     0.023 C 
ENDROOT
BRANCH   1   2
ATOM      2  C   UNL A   1      31.666  29.496  26.834  1.00  0.00     0.116 C 
BRANCH   2   3
ATOM      3  N   UNL A   1      33.049  29.367  27.267  1.00  0.00    -0.356 N 
ATOM      4  C   UNL A   1      34.135  28.843  26.628  1.00  0.00     0.220 C 
ATOM      5  O   UNL A   1      35.199  28.770  27.247  1.00  0.00    -0.275 OA
ATOM      6  H   UNL A   1      33.232  29.715  28.169  1.00  0.00     0.163 HD
BRANCH   4   7
ATOM      7  C   UNL A   1      34.048  28.354  25.188  1.00  0.00     0.103 C 
BRANCH   7   8
ATOM      8  C   UNL A   1      33.216  27.065  25.015  1.00  0.00     0.002 C 
ATOM      9  C   UNL A   1      34.221  23.214  25.092  1.00  0.00     0.319 C 
ATOM     10  O   UNL A   1      35.382  23.445  24.772  1.00  0.00    -0.248 OA
ATOM     11  N   UNL A   1      33.220  24.151  24.908  1.00  0.00    -0.325 N 
ATOM     12  C   UNL A   1      33.144  24.874  23.665  1.00  0.00     0.121 C 
ATOM     13  C   UNL A   1      32.626  24.818  26.058  1.00  0.00     0.121 C 
ATOM     14  C   UNL A   1      33.700  26.272  23.803  1.00  0.00     0.026 C 
ATOM     15  C   UNL A   1      33.273  26.190  26.281  1.00  0.00     0.026 C 
BRANCH   9  16
ATOM     16  N   UNL A   1      33.785  22.014  25.641  1.00  0.00    -0.325 N 
ATOM     17  C   UNL A   1      33.489  21.888  27.062  1.00  0.00     0.149 C 
BRANCH  16  18
ATOM     18  C   UNL A   1      33.525  20.834  24.810  1.00  0.00     0.086 C 
ATOM     19  C   UNL A   1      34.434  17.857  24.191  1.00  0.00     0.008 C 
ATOM     20  C   UNL A   1      33.061  18.330  24.682  1.00  0.00    -0.012 C 
ATOM     21  C   UNL A   1      32.101  18.601  23.511  1.00  0.00     0.003 C 
ATOM     22  C   UNL A   1      33.180  19.561  25.600  1.00  0.00     0.028 C 
ATOM     23  C   UNL A   1      32.382  19.911  22.772  1.00  0.00     0.002 C 
ATOM     24  C   UNL A   1      32.473  21.100  23.727  1.00  0.00     0.025 C 
ENDBRANCH  16  18
ENDBRANCH   9  16
ENDBRANCH   7   8
ENDBRANCH   4   7
ENDBRANCH   2   3
ENDBRANCH   1   2
BRANCH   1  25
ATOM     25  C   UNL A   1      31.382  32.065  26.922  1.00  0.00     0.023 C 
BRANCH  25  26
ATOM     26  C   UNL A   1      32.710  32.774  27.073  1.00  0.00     0.116 C 
BRANCH  26  27
ATOM     27  N   UNL A   1      32.597  34.121  27.617  1.00  0.00    -0.352 N 
ATOM     28  C   UNL A   1      33.349  34.705  28.613  1.00  0.00     0.251 C 
ATOM     29  H   UNL A   1      31.893  34.685  27.223  1.00  0.00     0.163 HD
ATOM     30  O   UNL A   1      33.068  35.819  29.031  1.00  0.00    -0.269 OA
BRANCH  28  31
ATOM     31  C   UNL A   1      34.468  33.934  29.200  1.00  0.00     0.039 A 
ATOM     32  C   UNL A   1      35.777  34.348  28.958  1.00  0.00     0.014 A 
ATOM     33  C   UNL A   1      34.210  32.865  30.060  1.00  0.00     0.014 A 
ATOM     34  C   UNL A   1      36.826  33.730  29.640  1.00  0.00     0.010 A 
ATOM     35  C   UNL A   1      35.238  32.342  30.830  1.00  0.00     0.010 A 
ATOM     36  C   UNL A   1      36.561  32.751  30.613  1.00  0.00    -0.014 A 
BRANCH  36  37
ATOM     37  C   UNL A   1      37.654  32.104  31.379  1.00  0.00     0.031 A 
ATOM     38  C   UNL A   1      38.465  31.013  30.730  1.00  0.00     0.074 A 
ATOM     39  C   UNL A   1      37.873  32.451  32.663  1.00  0.00     0.049 A 
ATOM     40  N   UNL A   1      39.420  30.277  31.237  1.00  0.00    -0.248 NA
ATOM     41  C   UNL A   1      38.122  30.672  29.340  1.00  0.00     0.031 C 
ATOM     42  C   UNL A   1      37.103  33.445  33.416  1.00  0.00     0.029 A 
ATOM     43  N   UNL A   1      38.809  32.009  33.563  1.00  0.00    -0.354 N 
ATOM     44  C   UNL A   1      39.771  29.375  30.237  1.00  0.00     0.074 A 
ATOM     45  C   UNL A   1      38.868  29.600  29.130  1.00  0.00     0.031 C 
ATOM     46  C   UNL A   1      37.626  33.565  34.648  1.00  0.00     0.029 A 
ATOM     47  C   UNL A   1      38.739  32.634  34.787  1.00  0.00     0.049 A 
ATOM     48  H   UNL A   1      39.469  31.309  33.353  1.00  0.00     0.167 HD
ATOM     49  C   UNL A   1      40.779  28.469  30.226  1.00  0.00     0.034 A 
ATOM     50  C   UNL A   1      39.495  32.476  35.891  1.00  0.00     0.034 A 
ATOM     51  C   UNL A   1      41.689  28.287  31.328  1.00  0.00     0.049 A 
ATOM     52  C   UNL A   1      40.633  31.486  35.847  1.00  0.00     0.074 A 
ATOM     53  C   UNL A   1      42.782  27.443  31.416  1.00  0.00     0.029 A 
ATOM     54  N   UNL A   1      41.615  28.967  32.538  1.00  0.00    -0.354 N 
ATOM     55  N   UNL A   1      40.992  30.681  34.872  1.00  0.00    -0.248 NA
ATOM     56  C   UNL A   1      41.481  31.402  37.041  1.00  0.00     0.031 C 
ATOM     57  C   UNL A   1      43.332  27.572  32.697  1.00  0.00     0.029 A 
ATOM     58  C   UNL A   1      42.630  28.551  33.382  1.00  0.00     0.049 A 
ATOM     59  H   UNL A   1      40.939  29.647  32.761  1.00  0.00     0.167 HD
ATOM     60  C   UNL A   1      42.129  30.020  35.325  1.00  0.00     0.074 A 
ATOM     61  C   UNL A   1      42.405  30.536  36.651  1.00  0.00     0.031 C 
ATOM     62  C   UNL A   1      42.883  29.077  34.703  1.00  0.00     0.034 A 
BRANCH  49  63
ATOM     63  C   UNL A   1      40.926  27.611  28.991  1.00  0.00     0.023 A 
ATOM     64  C   UNL A   1      41.927  27.859  28.033  1.00  0.00     0.031 A 
ATOM     65  C   UNL A   1      40.027  26.559  28.740  1.00  0.00     0.131 A 
ATOM     66  C   UNL A   1      41.947  27.133  26.833  1.00  0.00     0.055 A 
ATOM     67  C   UNL A   1      40.110  25.780  27.584  1.00  0.00     0.041 A 
ATOM     68  F   UNL A   1      39.037  26.286  29.604  1.00  0.00    -0.206 F 
ATOM     69  C   UNL A   1      41.063  26.076  26.614  1.00  0.00     0.022 A 
BRANCH  66  70
ATOM     70  S   UNL A   1      43.042  27.694  25.500  1.00  0.00     0.124 S 
ATOM     71  O   UNL A   1      43.561  26.427  24.993  1.00  0.00    -0.237 OA
ATOM     72  O   UNL A   1      42.128  28.411  24.620  1.00  0.00    -0.237 OA
ATOM     73  O   UNL A   1      44.025  28.528  26.192  1.00  0.00    -0.744 OA
ENDBRANCH  66  70
ENDBRANCH  49  63
BRANCH  50  74
ATOM     74  C   UNL A   1      39.226  33.278  37.119  1.00  0.00     0.023 A 
ATOM     75  C   UNL A   1      39.844  34.523  37.321  1.00  0.00     0.031 A 
ATOM     76  C   UNL A   1      38.373  32.796  38.127  1.00  0.00     0.131 A 
ATOM     77  C   UNL A   1      39.642  35.219  38.523  1.00  0.00     0.055 A 
ATOM     78  C   UNL A   1      38.134  33.517  39.299  1.00  0.00     0.041 A 
ATOM     79  F   UNL A   1      37.747  31.616  37.982  1.00  0.00    -0.206 F 
ATOM     80  C   UNL A   1      38.782  34.730  39.509  1.00  0.00     0.022 A 
BRANCH  77  81
ATOM     81  S   UNL A   1      40.589  36.739  38.816  1.00  0.00     0.124 S 
ATOM     82  O   UNL A   1      41.320  36.404  40.033  1.00  0.00    -0.237 OA
ATOM     83  O   UNL A   1      41.384  36.841  37.598  1.00  0.00    -0.237 OA
ATOM     84  O   UNL A   1      39.553  37.759  38.971  1.00  0.00    -0.744 OA
ENDBRANCH  77  81
ENDBRANCH  50  74
BRANCH  62  85
ATOM     85  C   UNL A   1      44.106  28.589  35.439  1.00  0.00     0.023 A 
ATOM     86  C   UNL A   1      44.036  27.555  36.389  1.00  0.00     0.031 A 
ATOM     87  C   UNL A   1      45.357  29.185  35.200  1.00  0.00     0.131 A 
ATOM     88  C   UNL A   1      45.182  27.194  37.113  1.00  0.00     0.055 A 
ATOM     89  C   UNL A   1      46.507  28.778  35.876  1.00  0.00     0.041 A 
ATOM     90  F   UNL A   1      45.481  30.177  34.303  1.00  0.00    -0.206 F 
ATOM     91  C   UNL A   1      46.419  27.788  36.851  1.00  0.00     0.022 A 
BRANCH  88  92
ATOM     92  S   UNL A   1      45.010  26.017  38.481  1.00  0.00     0.124 S 
ATOM     93  O   UNL A   1      44.300  24.912  37.843  1.00  0.00    -0.237 OA
ATOM     94  O   UNL A   1      46.399  25.755  38.843  1.00  0.00    -0.237 OA
ATOM     95  O   UNL A   1      44.238  26.758  39.476  1.00  0.00    -0.744 OA
ENDBRANCH  88  92
ENDBRANCH  62  85
ENDBRANCH  36  37
ENDBRANCH  28  31
ENDBRANCH  26  27
ENDBRANCH  25  26
ENDBRANCH   1  25
TORSDOF 17
ENDMDL
