MODEL 1
REMARK VINA RESULT:     -12.6      0.000      0.000
REMARK SMILES C[C@H]1[C@@H](C(=O)NCCCCNC(=O)c2ccc(-c3c4nc(c(-c5cc(S(=O)(=O)[O-])ccc5F)c5ccc([nH]5)c(-c5cc(S(=O)(=O)[O-])ccc5F)c5nc(c(-c6cc(S(=O)(=O)[O-])ccc6F)c6ccc3[nH]6)C=C5)C=C4)cc2)CCN1C(=O)/C=C/c1cccc(F)c1
REMARK SMILES IDX 8 1 7 2 6 3 4 4 5 5 3 7 1 8 2 9 79 10 77 11 78 12 80 13
REMARK SMILES IDX 81 14 82 15 83 16 84 17 85 18 90 19 86 20 88 21 87 22 89 23
REMARK SMILES IDX 9 24 10 25 11 26 12 27 13 29 14 30 15 31 76 32 16 33 75 34
REMARK SMILES IDX 17 35 18 36 19 37 69 38 20 39 74 40 68 41 70 42 21 43 73 44
REMARK SMILES IDX 67 45 66 46 22 48 54 49 34 50 53 51 35 52 38 53 52 54 71 55
REMARK SMILES IDX 36 56 37 57 51 59 72 60 39 61 23 62 24 63 32 64 25 65 31 66
REMARK SMILES IDX 33 67 30 68 26 69 27 70 28 71 29 72 55 73 56 74 64 75 57 76
REMARK SMILES IDX 63 77 65 78 62 79 58 80 59 81 60 82 61 83 40 84 41 85 49 86
REMARK SMILES IDX 42 87 48 88 50 89 47 90 43 91 44 92 45 93 46 94
REMARK H PARENT 6 6 11 28 70 47 38 58
REMARK Flexibility Score: inf
ROOT
ATOM      1  C   UNL A   1      32.659  29.328  24.359  1.00  0.00     0.023 C 
ENDROOT
BRANCH   1   2
ATOM      2  C   UNL A   1      33.911  28.463  24.185  1.00  0.00     0.116 C 
BRANCH   2   3
ATOM      3  N   UNL A   1      33.843  27.738  22.931  1.00  0.00    -0.356 N 
ATOM      4  C   UNL A   1      33.238  26.558  22.616  1.00  0.00     0.225 C 
ATOM      5  O   UNL A   1      33.496  26.078  21.511  1.00  0.00    -0.275 OA
ATOM      6  H   UNL A   1      34.311  28.171  22.181  1.00  0.00     0.163 HD
BRANCH   4   7
ATOM      7  C   UNL A   1      32.204  25.923  23.548  1.00  0.00     0.102 C 
ATOM      8  C   UNL A   1      34.119  24.590  24.763  1.00  0.00     0.032 C 
ATOM      9  C   UNL A   1      32.670  25.059  24.744  1.00  0.00     0.094 C 
ATOM     10  N   UNL A   1      31.810  23.875  24.719  1.00  0.00    -0.336 N 
ATOM     11  C   UNL A   1      31.196  25.021  22.789  1.00  0.00     0.037 C 
ATOM     12  C   UNL A   1      31.375  23.630  23.365  1.00  0.00     0.121 C 
BRANCH  10  13
ATOM     13  C   UNL A   1      31.643  22.931  25.715  1.00  0.00     0.246 C 
ATOM     14  O   UNL A   1      31.239  23.194  26.844  1.00  0.00    -0.270 OA
BRANCH  13  15
ATOM     15  C   UNL A   1      31.837  21.506  25.328  1.00  0.00     0.072 C 
ATOM     16  C   UNL A   1      33.010  21.054  24.862  1.00  0.00     0.014 C 
BRANCH  16  17
ATOM     17  C   UNL A   1      33.253  19.731  24.256  1.00  0.00    -0.023 A 
ATOM     18  C   UNL A   1      32.394  19.303  23.228  1.00  0.00     0.008 A 
ATOM     19  C   UNL A   1      34.240  18.842  24.704  1.00  0.00     0.047 A 
ATOM     20  C   UNL A   1      32.514  18.028  22.665  1.00  0.00     0.004 A 
ATOM     21  C   UNL A   1      34.355  17.575  24.133  1.00  0.00     0.123 A 
ATOM     22  C   UNL A   1      33.500  17.158  23.122  1.00  0.00     0.039 A 
ATOM     23  F   UNL A   1      35.304  16.740  24.577  1.00  0.00    -0.207 F 
ENDBRANCH  16  17
ENDBRANCH  13  15
ENDBRANCH  10  13
ENDBRANCH   4   7
ENDBRANCH   2   3
ENDBRANCH   1   2
BRANCH   1  24
ATOM     24  C   UNL A   1      31.820  29.044  25.591  1.00  0.00     0.023 C 
BRANCH  24  25
ATOM     25  C   UNL A   1      32.375  29.634  26.871  1.00  0.00     0.116 C 
BRANCH  25  26
ATOM     26  N   UNL A   1      32.268  31.088  26.948  1.00  0.00    -0.352 N 
ATOM     27  C   UNL A   1      33.216  32.002  27.349  1.00  0.00     0.251 C 
ATOM     28  H   UNL A   1      31.401  31.466  26.677  1.00  0.00     0.163 HD
ATOM     29  O   UNL A   1      32.936  33.194  27.429  1.00  0.00    -0.269 OA
BRANCH  27  30
ATOM     30  C   UNL A   1      34.553  31.507  27.731  1.00  0.00     0.039 A 
ATOM     31  C   UNL A   1      35.573  32.423  27.993  1.00  0.00     0.014 A 
ATOM     32  C   UNL A   1      34.742  30.144  27.961  1.00  0.00     0.014 A 
ATOM     33  C   UNL A   1      36.752  31.975  28.594  1.00  0.00     0.010 A 
ATOM     34  C   UNL A   1      35.854  29.727  28.675  1.00  0.00     0.010 A 
ATOM     35  C   UNL A   1      36.876  30.634  28.994  1.00  0.00    -0.014 A 
BRANCH  35  36
ATOM     36  C   UNL A   1      38.071  30.138  29.722  1.00  0.00     0.031 A 
ATOM     37  C   UNL A   1      38.304  30.587  31.140  1.00  0.00     0.074 A 
ATOM     38  C   UNL A   1      38.986  29.379  29.086  1.00  0.00     0.049 A 
ATOM     39  N   UNL A   1      39.344  30.404  31.911  1.00  0.00    -0.248 NA
ATOM     40  C   UNL A   1      37.245  31.408  31.749  1.00  0.00     0.031 C 
ATOM     41  C   UNL A   1      38.907  28.939  27.690  1.00  0.00     0.029 A 
ATOM     42  N   UNL A   1      40.172  28.848  29.530  1.00  0.00    -0.354 N 
ATOM     43  C   UNL A   1      39.079  31.117  33.075  1.00  0.00     0.074 A 
ATOM     44  C   UNL A   1      37.823  31.803  32.872  1.00  0.00     0.031 C 
ATOM     45  C   UNL A   1      39.977  28.177  27.406  1.00  0.00     0.029 A 
ATOM     46  C   UNL A   1      40.839  28.109  28.580  1.00  0.00     0.049 A 
ATOM     47  H   UNL A   1      40.513  28.985  30.444  1.00  0.00     0.167 HD
ATOM     48  C   UNL A   1      39.798  31.166  34.223  1.00  0.00     0.034 A 
ATOM     49  C   UNL A   1      42.015  27.454  28.652  1.00  0.00     0.034 A 
ATOM     50  C   UNL A   1      41.020  30.430  34.422  1.00  0.00     0.049 A 
ATOM     51  C   UNL A   1      42.780  27.487  29.952  1.00  0.00     0.074 A 
ATOM     52  C   UNL A   1      41.797  30.336  35.563  1.00  0.00     0.029 A 
ATOM     53  N   UNL A   1      41.640  29.650  33.454  1.00  0.00    -0.354 N 
ATOM     54  N   UNL A   1      42.490  28.123  31.064  1.00  0.00    -0.248 NA
ATOM     55  C   UNL A   1      44.020  26.705  30.009  1.00  0.00     0.031 C 
ATOM     56  C   UNL A   1      42.910  29.541  35.270  1.00  0.00     0.029 A 
ATOM     57  C   UNL A   1      42.797  29.086  33.966  1.00  0.00     0.049 A 
ATOM     58  H   UNL A   1      41.306  29.517  32.538  1.00  0.00     0.167 HD
ATOM     59  C   UNL A   1      43.500  27.792  31.962  1.00  0.00     0.074 A 
ATOM     60  C   UNL A   1      44.396  26.890  31.267  1.00  0.00     0.031 C 
ATOM     61  C   UNL A   1      43.674  28.193  33.248  1.00  0.00     0.034 A 
BRANCH  48  62
ATOM     62  C   UNL A   1      39.273  32.048  35.329  1.00  0.00     0.023 A 
ATOM     63  C   UNL A   1      39.655  33.397  35.440  1.00  0.00     0.031 A 
ATOM     64  C   UNL A   1      38.429  31.523  36.323  1.00  0.00     0.131 A 
ATOM     65  C   UNL A   1      39.282  34.142  36.568  1.00  0.00     0.055 A 
ATOM     66  C   UNL A   1      37.981  32.300  37.394  1.00  0.00     0.041 A 
ATOM     67  F   UNL A   1      38.044  30.238  36.285  1.00  0.00    -0.206 F 
ATOM     68  C   UNL A   1      38.424  33.612  37.533  1.00  0.00     0.022 A 
BRANCH  65  69
ATOM     69  S   UNL A   1      40.070  35.754  36.837  1.00  0.00     0.124 S 
ATOM     70  O   UNL A   1      41.484  35.388  36.859  1.00  0.00    -0.237 OA
ATOM     71  O   UNL A   1      39.627  36.520  35.677  1.00  0.00    -0.237 OA
ATOM     72  O   UNL A   1      39.526  36.193  38.120  1.00  0.00    -0.744 OA
ENDBRANCH  65  69
ENDBRANCH  48  62
BRANCH  49  73
ATOM     73  C   UNL A   1      42.542  26.705  27.476  1.00  0.00     0.023 A 
ATOM     74  C   UNL A   1      42.236  25.348  27.291  1.00  0.00     0.031 A 
ATOM     75  C   UNL A   1      43.387  27.323  26.538  1.00  0.00     0.131 A 
ATOM     76  C   UNL A   1      42.808  24.638  26.223  1.00  0.00     0.055 A 
ATOM     77  C   UNL A   1      43.918  26.625  25.451  1.00  0.00     0.041 A 
ATOM     78  F   UNL A   1      43.703  28.622  26.661  1.00  0.00    -0.206 F 
ATOM     79  C   UNL A   1      43.640  25.271  25.296  1.00  0.00     0.022 A 
BRANCH  76  80
ATOM     80  S   UNL A   1      42.512  22.852  26.109  1.00  0.00     0.124 S 
ATOM     81  O   UNL A   1      42.986  22.556  24.763  1.00  0.00    -0.237 OA
ATOM     82  O   UNL A   1      43.329  22.340  27.205  1.00  0.00    -0.237 OA
ATOM     83  O   UNL A   1      41.069  22.734  26.304  1.00  0.00    -0.744 OA
ENDBRANCH  76  80
ENDBRANCH  49  73
BRANCH  61  84
ATOM     84  C   UNL A   1      44.855  27.617  33.987  1.00  0.00     0.023 A 
ATOM     85  C   UNL A   1      44.756  26.417  34.712  1.00  0.00     0.031 A 
ATOM     86  C   UNL A   1      46.091  28.285  33.968  1.00  0.00     0.131 A 
ATOM     87  C   UNL A   1      45.864  25.947  35.433  1.00  0.00     0.055 A 
ATOM     88  C   UNL A   1      47.205  27.783  34.641  1.00  0.00     0.041 A 
ATOM     89  F   UNL A   1      46.237  29.434  33.289  1.00  0.00    -0.206 F 
ATOM     90  C   UNL A   1      47.091  26.615  35.389  1.00  0.00     0.022 A 
BRANCH  87  91
ATOM     91  S   UNL A   1      45.654  24.493  36.495  1.00  0.00     0.124 S 
ATOM     92  O   UNL A   1      44.218  24.253  36.401  1.00  0.00    -0.237 OA
ATOM     93  O   UNL A   1      46.509  23.505  35.845  1.00  0.00    -0.237 OA
ATOM     94  O   UNL A   1      46.121  24.953  37.802  1.00  0.00    -0.744 OA
ENDBRANCH  87  91
ENDBRANCH  61  84
ENDBRANCH  35  36
ENDBRANCH  27  30
ENDBRANCH  25  26
ENDBRANCH  24  25
ENDBRANCH   1  24
TORSDOF 17
ENDMDL
MODEL 2
REMARK VINA RESULT:     -12.5      5.188      8.282
REMARK SMILES C[C@H]1[C@@H](C(=O)NCCCCNC(=O)c2ccc(-c3c4nc(c(-c5cc(S(=O)(=O)[O-])ccc5F)c5ccc([nH]5)c(-c5cc(S(=O)(=O)[O-])ccc5F)c5nc(c(-c6cc(S(=O)(=O)[O-])ccc6F)c6ccc3[nH]6)C=C5)C=C4)cc2)CCN1C(=O)/C=C/c1cccc(F)c1
REMARK SMILES IDX 8 1 7 2 6 3 4 4 5 5 3 7 1 8 2 9 79 10 77 11 78 12 80 13
REMARK SMILES IDX 81 14 82 15 83 16 84 17 85 18 90 19 86 20 88 21 87 22 89 23
REMARK SMILES IDX 9 24 10 25 11 26 12 27 13 29 14 30 15 31 76 32 16 33 75 34
REMARK SMILES IDX 17 35 18 36 19 37 69 38 20 39 74 40 68 41 70 42 21 43 73 44
REMARK SMILES IDX 67 45 66 46 22 48 54 49 34 50 53 51 35 52 38 53 52 54 71 55
REMARK SMILES IDX 36 56 37 57 51 59 72 60 39 61 23 62 24 63 32 64 25 65 31 66
REMARK SMILES IDX 33 67 30 68 26 69 27 70 28 71 29 72 55 73 56 74 64 75 57 76
REMARK SMILES IDX 63 77 65 78 62 79 58 80 59 81 60 82 61 83 40 84 41 85 49 86
REMARK SMILES IDX 42 87 48 88 50 89 47 90 43 91 44 92 45 93 46 94
REMARK H PARENT 6 6 11 28 70 47 38 58
REMARK Flexibility Score: inf
ROOT
ATOM      1  C   UNL A   1      33.940  20.994  24.965  1.00  0.00     0.023 C 
ENDROOT
BRANCH   1   2
ATOM      2  C   UNL A   1      32.429  21.211  25.076  1.00  0.00     0.116 C 
BRANCH   2   3
ATOM      3  N   UNL A   1      32.120  21.939  26.292  1.00  0.00    -0.356 N 
ATOM      4  C   UNL A   1      31.741  23.235  26.482  1.00  0.00     0.225 C 
ATOM      5  O   UNL A   1      31.722  23.644  27.644  1.00  0.00    -0.275 OA
ATOM      6  H   UNL A   1      32.196  21.409  27.118  1.00  0.00     0.163 HD
BRANCH   4   7
ATOM      7  C   UNL A   1      31.254  24.098  25.317  1.00  0.00     0.102 C 
ATOM      8  C   UNL A   1      33.713  24.951  24.926  1.00  0.00     0.032 C 
ATOM      9  C   UNL A   1      32.280  24.835  24.422  1.00  0.00     0.094 C 
ATOM     10  N   UNL A   1      31.745  26.188  24.260  1.00  0.00    -0.336 N 
ATOM     11  C   UNL A   1      30.271  25.208  25.771  1.00  0.00     0.037 C 
ATOM     12  C   UNL A   1      30.936  26.521  25.407  1.00  0.00     0.121 C 
BRANCH  10  13
ATOM     13  C   UNL A   1      32.141  27.148  23.348  1.00  0.00     0.246 C 
ATOM     14  O   UNL A   1      32.958  26.948  22.454  1.00  0.00    -0.270 OA
BRANCH  13  15
ATOM     15  C   UNL A   1      31.417  28.449  23.389  1.00  0.00     0.072 C 
ATOM     16  C   UNL A   1      30.234  28.619  22.781  1.00  0.00     0.014 C 
BRANCH  16  17
ATOM     17  C   UNL A   1      29.536  29.903  22.578  1.00  0.00    -0.023 A 
ATOM     18  C   UNL A   1      29.286  30.708  23.703  1.00  0.00     0.008 A 
ATOM     19  C   UNL A   1      29.035  30.326  21.340  1.00  0.00     0.047 A 
ATOM     20  C   UNL A   1      28.558  31.898  23.598  1.00  0.00     0.004 A 
ATOM     21  C   UNL A   1      28.315  31.517  21.243  1.00  0.00     0.123 A 
ATOM     22  C   UNL A   1      28.068  32.304  22.360  1.00  0.00     0.039 A 
ATOM     23  F   UNL A   1      27.842  31.902  20.050  1.00  0.00    -0.207 F 
ENDBRANCH  16  17
ENDBRANCH  13  15
ENDBRANCH  10  13
ENDBRANCH   4   7
ENDBRANCH   2   3
ENDBRANCH   1   2
BRANCH   1  24
ATOM     24  C   UNL A   1      34.769  21.475  26.141  1.00  0.00     0.023 C 
BRANCH  24  25
ATOM     25  C   UNL A   1      36.124  22.035  25.760  1.00  0.00     0.116 C 
BRANCH  25  26
ATOM     26  N   UNL A   1      37.132  21.014  25.488  1.00  0.00    -0.352 N 
ATOM     27  C   UNL A   1      38.486  21.053  25.731  1.00  0.00     0.251 C 
ATOM     28  H   UNL A   1      36.797  20.186  25.074  1.00  0.00     0.163 HD
ATOM     29  O   UNL A   1      39.211  20.131  25.367  1.00  0.00    -0.269 OA
BRANCH  27  30
ATOM     30  C   UNL A   1      39.049  22.249  26.387  1.00  0.00     0.039 A 
ATOM     31  C   UNL A   1      40.147  22.111  27.237  1.00  0.00     0.014 A 
ATOM     32  C   UNL A   1      38.569  23.513  26.041  1.00  0.00     0.014 A 
ATOM     33  C   UNL A   1      40.833  23.255  27.653  1.00  0.00     0.010 A 
ATOM     34  C   UNL A   1      39.327  24.631  26.347  1.00  0.00     0.010 A 
ATOM     35  C   UNL A   1      40.464  24.518  27.163  1.00  0.00    -0.014 A 
BRANCH  35  36
ATOM     36  C   UNL A   1      41.225  25.747  27.503  1.00  0.00     0.031 A 
ATOM     37  C   UNL A   1      40.571  26.801  28.357  1.00  0.00     0.074 A 
ATOM     38  C   UNL A   1      42.444  25.960  26.968  1.00  0.00     0.049 A 
ATOM     39  N   UNL A   1      40.983  28.005  28.654  1.00  0.00    -0.248 NA
ATOM     40  C   UNL A   1      39.243  26.471  28.900  1.00  0.00     0.031 C 
ATOM     41  C   UNL A   1      43.151  25.046  26.067  1.00  0.00     0.029 A 
ATOM     42  N   UNL A   1      43.303  27.023  27.097  1.00  0.00    -0.354 N 
ATOM     43  C   UNL A   1      39.949  28.587  29.381  1.00  0.00     0.074 A 
ATOM     44  C   UNL A   1      38.863  27.634  29.405  1.00  0.00     0.031 C 
ATOM     45  C   UNL A   1      44.349  25.571  25.757  1.00  0.00     0.029 A 
ATOM     46  C   UNL A   1      44.479  26.875  26.397  1.00  0.00     0.049 A 
ATOM     47  H   UNL A   1      43.097  27.818  27.641  1.00  0.00     0.167 HD
ATOM     48  C   UNL A   1      39.923  29.790  30.005  1.00  0.00     0.034 A 
ATOM     49  C   UNL A   1      45.538  27.701  26.286  1.00  0.00     0.034 A 
ATOM     50  C   UNL A   1      41.039  30.700  30.014  1.00  0.00     0.049 A 
ATOM     51  C   UNL A   1      45.506  29.017  27.021  1.00  0.00     0.074 A 
ATOM     52  C   UNL A   1      41.163  31.910  30.673  1.00  0.00     0.029 A 
ATOM     53  N   UNL A   1      42.234  30.493  29.335  1.00  0.00    -0.354 N 
ATOM     54  N   UNL A   1      44.543  29.532  27.751  1.00  0.00    -0.248 NA
ATOM     55  C   UNL A   1      46.707  29.856  26.928  1.00  0.00     0.031 C 
ATOM     56  C   UNL A   1      42.411  32.457  30.354  1.00  0.00     0.029 A 
ATOM     57  C   UNL A   1      43.092  31.560  29.546  1.00  0.00     0.049 A 
ATOM     58  H   UNL A   1      42.441  29.703  28.786  1.00  0.00     0.167 HD
ATOM     59  C   UNL A   1      45.035  30.742  28.227  1.00  0.00     0.074 A 
ATOM     60  C   UNL A   1      46.384  30.873  27.715  1.00  0.00     0.031 C 
ATOM     61  C   UNL A   1      44.432  31.665  29.019  1.00  0.00     0.034 A 
BRANCH  48  62
ATOM     62  C   UNL A   1      38.646  30.172  30.713  1.00  0.00     0.023 A 
ATOM     63  C   UNL A   1      37.619  30.870  30.053  1.00  0.00     0.031 A 
ATOM     64  C   UNL A   1      38.475  29.894  32.080  1.00  0.00     0.131 A 
ATOM     65  C   UNL A   1      36.520  31.353  30.778  1.00  0.00     0.055 A 
ATOM     66  C   UNL A   1      37.332  30.295  32.775  1.00  0.00     0.041 A 
ATOM     67  F   UNL A   1      39.428  29.249  32.771  1.00  0.00    -0.206 F 
ATOM     68  C   UNL A   1      36.355  31.047  32.130  1.00  0.00     0.022 A 
BRANCH  65  69
ATOM     69  S   UNL A   1      35.400  32.527  29.966  1.00  0.00     0.124 S 
ATOM     70  O   UNL A   1      34.361  32.688  30.981  1.00  0.00    -0.237 OA
ATOM     71  O   UNL A   1      36.260  33.683  29.745  1.00  0.00    -0.237 OA
ATOM     72  O   UNL A   1      34.978  31.820  28.758  1.00  0.00    -0.744 OA
ENDBRANCH  65  69
ENDBRANCH  48  62
BRANCH  49  73
ATOM     73  C   UNL A   1      46.719  27.315  25.462  1.00  0.00     0.023 A 
ATOM     74  C   UNL A   1      46.947  27.908  24.210  1.00  0.00     0.031 A 
ATOM     75  C   UNL A   1      47.616  26.323  25.894  1.00  0.00     0.131 A 
ATOM     76  C   UNL A   1      48.017  27.473  23.412  1.00  0.00     0.055 A 
ATOM     77  C   UNL A   1      48.707  25.926  25.116  1.00  0.00     0.041 A 
ATOM     78  F   UNL A   1      47.450  25.731  27.087  1.00  0.00    -0.206 F 
ATOM     79  C   UNL A   1      48.904  26.492  23.861  1.00  0.00     0.022 A 
BRANCH  76  80
ATOM     80  S   UNL A   1      48.186  28.155  21.739  1.00  0.00     0.124 S 
ATOM     81  O   UNL A   1      47.121  29.149  21.713  1.00  0.00    -0.237 OA
ATOM     82  O   UNL A   1      49.550  28.675  21.761  1.00  0.00    -0.237 OA
ATOM     83  O   UNL A   1      47.979  26.994  20.876  1.00  0.00    -0.744 OA
ENDBRANCH  76  80
ENDBRANCH  49  73
BRANCH  61  84
ATOM     84  C   UNL A   1      45.251  32.869  29.409  1.00  0.00     0.023 A 
ATOM     85  C   UNL A   1      45.200  34.064  28.672  1.00  0.00     0.031 A 
ATOM     86  C   UNL A   1      46.097  32.812  30.529  1.00  0.00     0.131 A 
ATOM     87  C   UNL A   1      46.022  35.141  29.036  1.00  0.00     0.055 A 
ATOM     88  C   UNL A   1      46.870  33.906  30.919  1.00  0.00     0.041 A 
ATOM     89  F   UNL A   1      46.180  31.693  31.267  1.00  0.00    -0.206 F 
ATOM     90  C   UNL A   1      46.845  35.073  30.163  1.00  0.00     0.022 A 
BRANCH  87  91
ATOM     91  S   UNL A   1      46.061  36.604  27.965  1.00  0.00     0.124 S 
ATOM     92  O   UNL A   1      45.957  37.691  28.934  1.00  0.00    -0.237 OA
ATOM     93  O   UNL A   1      47.350  36.468  27.296  1.00  0.00    -0.237 OA
ATOM     94  O   UNL A   1      44.893  36.429  27.103  1.00  0.00    -0.744 OA
ENDBRANCH  87  91
ENDBRANCH  61  84
ENDBRANCH  35  36
ENDBRANCH  27  30
ENDBRANCH  25  26
ENDBRANCH  24  25
ENDBRANCH   1  24
TORSDOF 17
ENDMDL
MODEL 3
REMARK VINA RESULT:     -12.5      4.840     10.527
REMARK SMILES C[C@H]1[C@@H](C(=O)NCCCCNC(=O)c2ccc(-c3c4nc(c(-c5cc(S(=O)(=O)[O-])ccc5F)c5ccc([nH]5)c(-c5cc(S(=O)(=O)[O-])ccc5F)c5nc(c(-c6cc(S(=O)(=O)[O-])ccc6F)c6ccc3[nH]6)C=C5)C=C4)cc2)CCN1C(=O)/C=C/c1cccc(F)c1
REMARK SMILES IDX 8 1 7 2 6 3 4 4 5 5 3 7 1 8 2 9 79 10 77 11 78 12 80 13
REMARK SMILES IDX 81 14 82 15 83 16 84 17 85 18 90 19 86 20 88 21 87 22 89 23
REMARK SMILES IDX 9 24 10 25 11 26 12 27 13 29 14 30 15 31 76 32 16 33 75 34
REMARK SMILES IDX 17 35 18 36 19 37 69 38 20 39 74 40 68 41 70 42 21 43 73 44
REMARK SMILES IDX 67 45 66 46 22 48 54 49 34 50 53 51 35 52 38 53 52 54 71 55
REMARK SMILES IDX 36 56 37 57 51 59 72 60 39 61 23 62 24 63 32 64 25 65 31 66
REMARK SMILES IDX 33 67 30 68 26 69 27 70 28 71 29 72 55 73 56 74 64 75 57 76
REMARK SMILES IDX 63 77 65 78 62 79 58 80 59 81 60 82 61 83 40 84 41 85 49 86
REMARK SMILES IDX 42 87 48 88 50 89 47 90 43 91 44 92 45 93 46 94
REMARK H PARENT 6 6 11 28 70 47 38 58
REMARK Flexibility Score: inf
ROOT
ATOM      1  C   UNL A   1      34.879  20.388  24.933  1.00  0.00     0.023 C 
ENDROOT
BRANCH   1   2
ATOM      2  C   UNL A   1      33.367  20.484  25.151  1.00  0.00     0.116 C 
BRANCH   2   3
ATOM      3  N   UNL A   1      33.089  21.044  26.460  1.00  0.00    -0.356 N 
ATOM      4  C   UNL A   1      32.569  22.251  26.820  1.00  0.00     0.225 C 
ATOM      5  O   UNL A   1      32.613  22.541  28.017  1.00  0.00    -0.275 OA
ATOM      6  H   UNL A   1      33.313  20.452  27.215  1.00  0.00     0.163 HD
BRANCH   4   7
ATOM      7  C   UNL A   1      31.865  23.148  25.800  1.00  0.00     0.102 C 
ATOM      8  C   UNL A   1      34.122  24.431  25.374  1.00  0.00     0.032 C 
ATOM      9  C   UNL A   1      32.690  24.138  24.944  1.00  0.00     0.094 C 
ATOM     10  N   UNL A   1      31.940  25.394  24.981  1.00  0.00    -0.336 N 
ATOM     11  C   UNL A   1      30.758  24.024  26.444  1.00  0.00     0.037 C 
ATOM     12  C   UNL A   1      31.181  25.460  26.205  1.00  0.00     0.121 C 
BRANCH  10  13
ATOM     13  C   UNL A   1      32.109  26.503  24.173  1.00  0.00     0.246 C 
ATOM     14  O   UNL A   1      32.906  26.554  23.240  1.00  0.00    -0.270 OA
BRANCH  13  15
ATOM     15  C   UNL A   1      31.161  27.632  24.378  1.00  0.00     0.072 C 
ATOM     16  C   UNL A   1      30.257  27.975  23.449  1.00  0.00     0.014 C 
BRANCH  16  17
ATOM     17  C   UNL A   1      29.422  29.191  23.453  1.00  0.00    -0.023 A 
ATOM     18  C   UNL A   1      28.115  29.100  22.943  1.00  0.00     0.008 A 
ATOM     19  C   UNL A   1      29.885  30.449  23.859  1.00  0.00     0.047 A 
ATOM     20  C   UNL A   1      27.295  30.229  22.839  1.00  0.00     0.004 A 
ATOM     21  C   UNL A   1      29.060  31.568  23.757  1.00  0.00     0.123 A 
ATOM     22  C   UNL A   1      27.772  31.472  23.247  1.00  0.00     0.039 A 
ATOM     23  F   UNL A   1      29.523  32.763  24.148  1.00  0.00    -0.207 F 
ENDBRANCH  16  17
ENDBRANCH  13  15
ENDBRANCH  10  13
ENDBRANCH   4   7
ENDBRANCH   2   3
ENDBRANCH   1   2
BRANCH   1  24
ATOM     24  C   UNL A   1      35.735  21.290  25.802  1.00  0.00     0.023 C 
BRANCH  24  25
ATOM     25  C   UNL A   1      37.083  21.636  25.202  1.00  0.00     0.116 C 
BRANCH  25  26
ATOM     26  N   UNL A   1      38.113  20.629  25.438  1.00  0.00    -0.352 N 
ATOM     27  C   UNL A   1      39.325  20.768  26.076  1.00  0.00     0.251 C 
ATOM     28  H   UNL A   1      37.913  19.727  25.096  1.00  0.00     0.163 HD
ATOM     29  O   UNL A   1      40.115  19.830  26.122  1.00  0.00    -0.269 OA
BRANCH  27  30
ATOM     30  C   UNL A   1      39.670  22.083  26.649  1.00  0.00     0.039 A 
ATOM     31  C   UNL A   1      40.688  22.169  27.601  1.00  0.00     0.014 A 
ATOM     32  C   UNL A   1      39.077  23.236  26.134  1.00  0.00     0.014 A 
ATOM     33  C   UNL A   1      41.185  23.426  27.954  1.00  0.00     0.010 A 
ATOM     34  C   UNL A   1      39.660  24.467  26.386  1.00  0.00     0.010 A 
ATOM     35  C   UNL A   1      40.716  24.580  27.304  1.00  0.00    -0.014 A 
BRANCH  35  36
ATOM     36  C   UNL A   1      41.284  25.924  27.579  1.00  0.00     0.031 A 
ATOM     37  C   UNL A   1      42.671  26.246  27.091  1.00  0.00     0.074 A 
ATOM     38  C   UNL A   1      40.606  26.804  28.343  1.00  0.00     0.049 A 
ATOM     39  N   UNL A   1      43.419  27.289  27.340  1.00  0.00    -0.248 NA
ATOM     40  C   UNL A   1      43.327  25.225  26.258  1.00  0.00     0.031 C 
ATOM     41  C   UNL A   1      39.284  26.578  28.934  1.00  0.00     0.029 A 
ATOM     42  N   UNL A   1      40.941  28.067  28.763  1.00  0.00    -0.354 N 
ATOM     43  C   UNL A   1      44.642  27.029  26.729  1.00  0.00     0.074 A 
ATOM     44  C   UNL A   1      44.560  25.696  26.174  1.00  0.00     0.031 C 
ATOM     45  C   UNL A   1      38.907  27.678  29.608  1.00  0.00     0.029 A 
ATOM     46  C   UNL A   1      39.975  28.670  29.535  1.00  0.00     0.049 A 
ATOM     47  H   UNL A   1      41.795  28.501  28.533  1.00  0.00     0.167 HD
ATOM     48  C   UNL A   1      45.721  27.840  26.608  1.00  0.00     0.034 A 
ATOM     49  C   UNL A   1      39.956  29.885  30.118  1.00  0.00     0.034 A 
ATOM     50  C   UNL A   1      45.759  29.185  27.123  1.00  0.00     0.049 A 
ATOM     51  C   UNL A   1      41.150  30.789  29.938  1.00  0.00     0.074 A 
ATOM     52  C   UNL A   1      46.762  30.130  26.997  1.00  0.00     0.029 A 
ATOM     53  N   UNL A   1      44.740  29.781  27.856  1.00  0.00    -0.354 N 
ATOM     54  N   UNL A   1      42.279  30.550  29.311  1.00  0.00    -0.248 NA
ATOM     55  C   UNL A   1      41.061  32.128  30.531  1.00  0.00     0.031 C 
ATOM     56  C   UNL A   1      46.370  31.278  27.695  1.00  0.00     0.029 A 
ATOM     57  C   UNL A   1      45.097  31.074  28.203  1.00  0.00     0.049 A 
ATOM     58  H   UNL A   1      43.889  29.348  28.093  1.00  0.00     0.167 HD
ATOM     59  C   UNL A   1      43.022  31.722  29.411  1.00  0.00     0.074 A 
ATOM     60  C   UNL A   1      42.208  32.669  30.144  1.00  0.00     0.031 C 
ATOM     61  C   UNL A   1      44.266  31.996  28.939  1.00  0.00     0.034 A 
BRANCH  48  62
ATOM     62  C   UNL A   1      46.931  27.279  25.902  1.00  0.00     0.023 A 
ATOM     63  C   UNL A   1      47.924  26.566  26.595  1.00  0.00     0.031 A 
ATOM     64  C   UNL A   1      47.129  27.512  24.529  1.00  0.00     0.131 A 
ATOM     65  C   UNL A   1      49.111  26.202  25.944  1.00  0.00     0.055 A 
ATOM     66  C   UNL A   1      48.271  27.061  23.864  1.00  0.00     0.041 A 
ATOM     67  F   UNL A   1      46.227  28.204  23.815  1.00  0.00    -0.206 F 
ATOM     68  C   UNL A   1      49.281  26.420  24.575  1.00  0.00     0.022 A 
BRANCH  65  69
ATOM     69  S   UNL A   1      50.494  25.593  26.948  1.00  0.00     0.124 S 
ATOM     70  O   UNL A   1      49.883  24.453  27.626  1.00  0.00    -0.237 OA
ATOM     71  O   UNL A   1      51.499  25.272  25.940  1.00  0.00    -0.237 OA
ATOM     72  O   UNL A   1      50.816  26.726  27.813  1.00  0.00    -0.744 OA
ENDBRANCH  65  69
ENDBRANCH  48  62
BRANCH  49  73
ATOM     73  C   UNL A   1      38.777  30.328  30.915  1.00  0.00     0.023 A 
ATOM     74  C   UNL A   1      37.719  31.023  30.308  1.00  0.00     0.031 A 
ATOM     75  C   UNL A   1      38.705  30.098  32.300  1.00  0.00     0.131 A 
ATOM     76  C   UNL A   1      36.656  31.505  31.089  1.00  0.00     0.055 A 
ATOM     77  C   UNL A   1      37.624  30.539  33.066  1.00  0.00     0.041 A 
ATOM     78  F   UNL A   1      39.685  29.429  32.928  1.00  0.00    -0.206 F 
ATOM     79  C   UNL A   1      36.597  31.260  32.462  1.00  0.00     0.022 A 
BRANCH  76  80
ATOM     80  S   UNL A   1      35.389  32.531  30.293  1.00  0.00     0.124 S 
ATOM     81  O   UNL A   1      36.146  33.728  29.948  1.00  0.00    -0.237 OA
ATOM     82  O   UNL A   1      34.977  31.688  29.175  1.00  0.00    -0.237 OA
ATOM     83  O   UNL A   1      34.385  32.705  31.341  1.00  0.00    -0.744 OA
ENDBRANCH  76  80
ENDBRANCH  49  73
BRANCH  61  84
ATOM     84  C   UNL A   1      44.789  33.390  29.168  1.00  0.00     0.023 A 
ATOM     85  C   UNL A   1      44.482  34.446  28.293  1.00  0.00     0.031 A 
ATOM     86  C   UNL A   1      45.613  33.660  30.274  1.00  0.00     0.131 A 
ATOM     87  C   UNL A   1      45.037  35.715  28.512  1.00  0.00     0.055 A 
ATOM     88  C   UNL A   1      46.117  34.938  30.517  1.00  0.00     0.041 A 
ATOM     89  F   UNL A   1      45.936  32.686  31.140  1.00  0.00    -0.206 F 
ATOM     90  C   UNL A   1      45.840  35.970  29.626  1.00  0.00     0.022 A 
BRANCH  87  91
ATOM     91  S   UNL A   1      44.760  37.009  27.272  1.00  0.00     0.124 S 
ATOM     92  O   UNL A   1      44.542  38.186  28.106  1.00  0.00    -0.237 OA
ATOM     93  O   UNL A   1      46.006  36.987  26.514  1.00  0.00    -0.237 OA
ATOM     94  O   UNL A   1      43.583  36.539  26.543  1.00  0.00    -0.744 OA
ENDBRANCH  87  91
ENDBRANCH  61  84
ENDBRANCH  35  36
ENDBRANCH  27  30
ENDBRANCH  25  26
ENDBRANCH  24  25
ENDBRANCH   1  24
TORSDOF 17
ENDMDL
