MODEL 1
REMARK VINA RESULT:     -11.9      0.000      0.000
REMARK SMILES O=C(C[N@@H+]1C[C@@]2([N+](=O)[O-])CC=C(Cl)[C@@]([N+](=O)[O-])(C1)C2)NCCCCNC(=O)c1ccc(-c2c3nc(c(-c4cc(S(=O)(=O)[O-])ccc4F)c4ccc([nH]4)c(-c4cc(S(=O)(=O)[O-])ccc4F)c4nc(c(-c5cc(S(=O)(=O)[O-])ccc5F)c5ccc2[nH]5)C=C4)C=C3)cc1
REMARK SMILES IDX 23 1 22 2 21 3 20 4 1 5 2 6 3 8 4 9 5 10 18 11 6 13 14 14
REMARK SMILES IDX 10 15 19 16 12 17 11 18 13 19 7 20 8 21 9 22 15 23 16 24
REMARK SMILES IDX 17 25 24 26 25 27 26 28 27 30 28 31 29 32 90 33 30 34 89 35
REMARK SMILES IDX 31 36 32 37 33 38 83 39 34 40 88 41 82 42 84 43 35 44 87 45
REMARK SMILES IDX 81 46 80 47 36 49 68 50 48 51 67 52 49 53 52 54 66 55 85 56
REMARK SMILES IDX 50 57 51 58 65 60 86 61 53 62 37 63 38 64 46 65 39 66 45 67
REMARK SMILES IDX 47 68 44 69 40 70 41 71 42 72 43 73 69 74 70 75 78 76 71 77
REMARK SMILES IDX 77 78 79 79 76 80 72 81 73 82 74 83 75 84 54 85 55 86 63 87
REMARK SMILES IDX 56 88 62 89 64 90 61 91 57 92 58 93 59 94 60 95
REMARK H PARENT 20 7 4 12 25 29 84 48 52 59
REMARK Flexibility Score: inf
ROOT
ATOM      1  C   UNL A   1      31.527  31.643  26.655  1.00  0.00     0.023 C 
ENDROOT
BRANCH   1   2
ATOM      2  C   UNL A   1      31.776  30.424  25.759  1.00  0.00     0.023 C 
BRANCH   2   3
ATOM      3  C   UNL A   1      30.915  30.346  24.500  1.00  0.00     0.116 C 
BRANCH   3   4
ATOM      4  N   UNL A   1      30.767  28.993  24.008  1.00  0.00    -0.351 N 
ATOM      5  O   UNL A   1      29.933  29.578  21.940  1.00  0.00    -0.269 OA
ATOM      6  C   UNL A   1      30.344  28.723  22.718  1.00  0.00     0.275 C 
ATOM      7  H   UNL A   1      30.973  28.241  24.610  1.00  0.00     0.163 HD
BRANCH   6   8
ATOM      8  C   UNL A   1      30.551  27.263  22.304  1.00  0.00     0.363 C 
BRANCH   8   9
ATOM      9  N   UNL A   1      31.367  26.475  23.261  1.00  0.00    -0.315 N 
ATOM     10  C   UNL A   1      32.253  25.457  22.668  1.00  0.00     0.350 C 
ATOM     11  C   UNL A   1      30.569  25.925  24.386  1.00  0.00     0.356 C 
ATOM     12  H   UNL A   1      32.007  27.172  23.642  1.00  0.00     0.348 HD
ATOM     13  C   UNL A   1      33.165  24.771  23.708  1.00  0.00     0.280 C 
ATOM     14  C   UNL A   1      31.481  25.265  25.464  1.00  0.00     0.311 C 
ATOM     15  C   UNL A   1      34.188  25.742  24.356  1.00  0.00     0.121 C 
ATOM     16  C   UNL A   1      32.295  24.130  24.800  1.00  0.00     0.191 C 
ATOM     17  C   UNL A   1      32.427  26.299  26.060  1.00  0.00     0.097 C 
ATOM     18  C   UNL A   1      33.654  26.506  25.548  1.00  0.00     0.004 C 
ATOM     19  Cl  UNL A   1      31.873  27.306  27.352  1.00  0.00    -0.081 Cl
BRANCH  13  20
ATOM     20  N   UNL A   1      33.926  23.710  22.929  1.00  0.00     0.032 N 
ATOM     21  O   UNL A   1      35.163  23.747  22.981  1.00  0.00    -0.264 OA
ATOM     22  O   UNL A   1      33.269  22.933  22.225  1.00  0.00    -0.264 OA
ENDBRANCH  13  20
BRANCH  14  23
ATOM     23  N   UNL A   1      30.626  24.637  26.559  1.00  0.00     0.038 N 
ATOM     24  O   UNL A   1      31.155  23.802  27.307  1.00  0.00    -0.263 OA
ATOM     25  O   UNL A   1      29.450  25.018  26.655  1.00  0.00    -0.263 OA
ENDBRANCH  14  23
ENDBRANCH   8   9
ENDBRANCH   6   8
ENDBRANCH   3   4
ENDBRANCH   2   3
ENDBRANCH   1   2
BRANCH   1  26
ATOM     26  C   UNL A   1      32.777  32.310  27.231  1.00  0.00     0.116 C 
BRANCH  26  27
ATOM     27  N   UNL A   1      32.560  33.710  27.555  1.00  0.00    -0.352 N 
ATOM     28  C   UNL A   1      33.148  34.497  28.517  1.00  0.00     0.251 C 
ATOM     29  H   UNL A   1      31.888  34.166  26.999  1.00  0.00     0.163 HD
ATOM     30  O   UNL A   1      32.675  35.611  28.746  1.00  0.00    -0.269 OA
BRANCH  28  31
ATOM     31  C   UNL A   1      34.311  34.012  29.297  1.00  0.00     0.039 A 
ATOM     32  C   UNL A   1      34.090  33.120  30.352  1.00  0.00     0.014 A 
ATOM     33  C   UNL A   1      35.610  34.442  29.017  1.00  0.00     0.014 A 
ATOM     34  C   UNL A   1      35.173  32.606  31.072  1.00  0.00     0.010 A 
ATOM     35  C   UNL A   1      36.694  33.873  29.687  1.00  0.00     0.010 A 
ATOM     36  C   UNL A   1      36.490  32.944  30.720  1.00  0.00    -0.014 A 
BRANCH  36  37
ATOM     37  C   UNL A   1      37.656  32.328  31.413  1.00  0.00     0.031 A 
ATOM     38  C   UNL A   1      38.406  31.187  30.776  1.00  0.00     0.074 A 
ATOM     39  C   UNL A   1      38.008  32.758  32.642  1.00  0.00     0.049 A 
ATOM     40  N   UNL A   1      39.395  30.476  31.256  1.00  0.00    -0.248 NA
ATOM     41  C   UNL A   1      37.967  30.775  29.435  1.00  0.00     0.031 C 
ATOM     42  C   UNL A   1      37.347  33.838  33.380  1.00  0.00     0.029 A 
ATOM     43  N   UNL A   1      39.002  32.342  33.493  1.00  0.00    -0.354 N 
ATOM     44  C   UNL A   1      39.692  29.529  30.281  1.00  0.00     0.074 A 
ATOM     45  C   UNL A   1      38.736  29.720  29.211  1.00  0.00     0.031 C 
ATOM     46  C   UNL A   1      37.969  34.014  34.555  1.00  0.00     0.029 A 
ATOM     47  C   UNL A   1      39.036  33.029  34.687  1.00  0.00     0.049 A 
ATOM     48  H   UNL A   1      39.632  31.618  33.271  1.00  0.00     0.167 HD
ATOM     49  C   UNL A   1      40.681  28.599  30.271  1.00  0.00     0.034 A 
ATOM     50  C   UNL A   1      39.825  32.874  35.770  1.00  0.00     0.034 A 
ATOM     51  C   UNL A   1      41.631  28.425  31.343  1.00  0.00     0.049 A 
ATOM     52  C   UNL A   1      40.887  31.802  35.753  1.00  0.00     0.074 A 
ATOM     53  C   UNL A   1      42.703  27.549  31.409  1.00  0.00     0.029 A 
ATOM     54  N   UNL A   1      41.624  29.127  32.541  1.00  0.00    -0.354 N 
ATOM     55  N   UNL A   1      41.182  30.945  34.802  1.00  0.00    -0.248 NA
ATOM     56  C   UNL A   1      41.727  31.682  36.952  1.00  0.00     0.031 C 
ATOM     57  C   UNL A   1      43.288  27.664  32.674  1.00  0.00     0.029 A 
ATOM     58  C   UNL A   1      42.645  28.677  33.365  1.00  0.00     0.049 A 
ATOM     59  H   UNL A   1      40.987  29.842  32.772  1.00  0.00     0.167 HD
ATOM     60  C   UNL A   1      42.268  30.212  35.276  1.00  0.00     0.074 A 
ATOM     61  C   UNL A   1      42.582  30.737  36.588  1.00  0.00     0.031 C 
ATOM     62  C   UNL A   1      42.947  29.201  34.678  1.00  0.00     0.034 A 
BRANCH  49  63
ATOM     63  C   UNL A   1      40.764  27.679  29.075  1.00  0.00     0.023 A 
ATOM     64  C   UNL A   1      41.708  27.879  28.050  1.00  0.00     0.031 A 
ATOM     65  C   UNL A   1      39.882  26.591  28.951  1.00  0.00     0.131 A 
ATOM     66  C   UNL A   1      41.699  27.049  26.919  1.00  0.00     0.055 A 
ATOM     67  C   UNL A   1      39.936  25.718  27.863  1.00  0.00     0.041 A 
ATOM     68  F   UNL A   1      38.945  26.360  29.886  1.00  0.00    -0.206 F 
ATOM     69  C   UNL A   1      40.838  25.953  26.830  1.00  0.00     0.022 A 
BRANCH  66  70
ATOM     70  S   UNL A   1      42.732  27.510  25.500  1.00  0.00     0.124 S 
ATOM     71  O   UNL A   1      42.738  26.271  24.726  1.00  0.00    -0.237 OA
ATOM     72  O   UNL A   1      41.990  28.623  24.919  1.00  0.00    -0.237 OA
ATOM     73  O   UNL A   1      44.013  27.861  26.110  1.00  0.00    -0.744 OA
ENDBRANCH  66  70
ENDBRANCH  49  63
BRANCH  50  74
ATOM     74  C   UNL A   1      39.639  33.736  36.975  1.00  0.00     0.023 A 
ATOM     75  C   UNL A   1      39.010  33.242  38.129  1.00  0.00     0.031 A 
ATOM     76  C   UNL A   1      40.034  35.086  36.970  1.00  0.00     0.131 A 
ATOM     77  C   UNL A   1      38.742  34.103  39.205  1.00  0.00     0.055 A 
ATOM     78  C   UNL A   1      39.823  35.922  38.068  1.00  0.00     0.041 A 
ATOM     79  F   UNL A   1      40.639  35.614  35.893  1.00  0.00    -0.206 F 
ATOM     80  C   UNL A   1      39.159  35.435  39.189  1.00  0.00     0.022 A 
BRANCH  77  81
ATOM     81  S   UNL A   1      37.744  33.481  40.587  1.00  0.00     0.124 S 
ATOM     82  O   UNL A   1      36.647  32.826  39.885  1.00  0.00    -0.237 OA
ATOM     83  O   UNL A   1      38.687  32.602  41.270  1.00  0.00    -0.237 OA
ATOM     84  O   UNL A   1      37.384  34.694  41.317  1.00  0.00    -0.744 OA
ENDBRANCH  77  81
ENDBRANCH  50  74
BRANCH  62  85
ATOM     85  C   UNL A   1      44.133  28.630  35.420  1.00  0.00     0.023 A 
ATOM     86  C   UNL A   1      44.006  27.545  36.305  1.00  0.00     0.031 A 
ATOM     87  C   UNL A   1      45.411  29.192  35.245  1.00  0.00     0.131 A 
ATOM     88  C   UNL A   1      45.123  27.095  37.026  1.00  0.00     0.055 A 
ATOM     89  C   UNL A   1      46.532  28.695  35.911  1.00  0.00     0.041 A 
ATOM     90  F   UNL A   1      45.592  30.233  34.417  1.00  0.00    -0.206 F 
ATOM     91  C   UNL A   1      46.389  27.649  36.819  1.00  0.00     0.022 A 
BRANCH  88  92
ATOM     92  S   UNL A   1      44.883  25.841  38.314  1.00  0.00     0.124 S 
ATOM     93  O   UNL A   1      44.055  26.554  39.281  1.00  0.00    -0.237 OA
ATOM     94  O   UNL A   1      44.223  24.764  37.582  1.00  0.00    -0.237 OA
ATOM     95  O   UNL A   1      46.242  25.543  38.760  1.00  0.00    -0.744 OA
ENDBRANCH  88  92
ENDBRANCH  62  85
ENDBRANCH  36  37
ENDBRANCH  28  31
ENDBRANCH  26  27
ENDBRANCH   1  26
TORSDOF 17
ENDMDL
MODEL 2
REMARK VINA RESULT:     -11.7      1.473      2.035
REMARK SMILES O=C(C[N@@H+]1C[C@@]2([N+](=O)[O-])CC=C(Cl)[C@@]([N+](=O)[O-])(C1)C2)NCCCCNC(=O)c1ccc(-c2c3nc(c(-c4cc(S(=O)(=O)[O-])ccc4F)c4ccc([nH]4)c(-c4cc(S(=O)(=O)[O-])ccc4F)c4nc(c(-c5cc(S(=O)(=O)[O-])ccc5F)c5ccc2[nH]5)C=C4)C=C3)cc1
REMARK SMILES IDX 23 1 22 2 21 3 20 4 1 5 2 6 3 8 4 9 5 10 18 11 6 13 14 14
REMARK SMILES IDX 10 15 19 16 12 17 11 18 13 19 7 20 8 21 9 22 15 23 16 24
REMARK SMILES IDX 17 25 24 26 25 27 26 28 27 30 28 31 29 32 90 33 30 34 89 35
REMARK SMILES IDX 31 36 32 37 33 38 83 39 34 40 88 41 82 42 84 43 35 44 87 45
REMARK SMILES IDX 81 46 80 47 36 49 68 50 48 51 67 52 49 53 52 54 66 55 85 56
REMARK SMILES IDX 50 57 51 58 65 60 86 61 53 62 37 63 38 64 46 65 39 66 45 67
REMARK SMILES IDX 47 68 44 69 40 70 41 71 42 72 43 73 69 74 70 75 78 76 71 77
REMARK SMILES IDX 77 78 79 79 76 80 72 81 73 82 74 83 75 84 54 85 55 86 63 87
REMARK SMILES IDX 56 88 62 89 64 90 61 91 57 92 58 93 59 94 60 95
REMARK H PARENT 20 7 4 12 25 29 84 48 52 59
REMARK Flexibility Score: inf
ROOT
ATOM      1  C   UNL A   1      31.604  31.560  26.507  1.00  0.00     0.023 C 
ENDROOT
BRANCH   1   2
ATOM      2  C   UNL A   1      31.787  30.096  26.090  1.00  0.00     0.023 C 
BRANCH   2   3
ATOM      3  C   UNL A   1      31.791  29.082  27.232  1.00  0.00     0.116 C 
BRANCH   3   4
ATOM      4  N   UNL A   1      31.438  27.747  26.795  1.00  0.00    -0.351 N 
ATOM      5  O   UNL A   1      33.598  27.040  26.408  1.00  0.00    -0.269 OA
ATOM      6  C   UNL A   1      32.396  26.800  26.480  1.00  0.00     0.275 C 
ATOM      7  H   UNL A   1      30.486  27.507  26.719  1.00  0.00     0.163 HD
BRANCH   6   8
ATOM      8  C   UNL A   1      31.828  25.384  26.344  1.00  0.00     0.363 C 
BRANCH   8   9
ATOM      9  N   UNL A   1      32.394  24.613  25.210  1.00  0.00    -0.315 N 
ATOM     10  C   UNL A   1      32.259  25.230  23.878  1.00  0.00     0.350 C 
ATOM     11  C   UNL A   1      31.965  23.191  25.206  1.00  0.00     0.356 C 
ATOM     12  H   UNL A   1      33.397  24.637  25.397  1.00  0.00     0.348 HD
ATOM     13  C   UNL A   1      32.985  24.438  22.770  1.00  0.00     0.280 C 
ATOM     14  C   UNL A   1      32.720  22.371  24.117  1.00  0.00     0.311 C 
ATOM     15  C   UNL A   1      34.526  24.410  22.949  1.00  0.00     0.121 C 
ATOM     16  C   UNL A   1      32.440  23.003  22.734  1.00  0.00     0.191 C 
ATOM     17  C   UNL A   1      34.218  22.377  24.394  1.00  0.00     0.097 C 
ATOM     18  C   UNL A   1      35.027  23.309  23.858  1.00  0.00     0.004 C 
ATOM     19  Cl  UNL A   1      34.876  21.232  25.510  1.00  0.00    -0.081 Cl
BRANCH  13  20
ATOM     20  N   UNL A   1      32.658  25.174  21.479  1.00  0.00     0.032 N 
ATOM     21  O   UNL A   1      31.759  26.024  21.523  1.00  0.00    -0.264 OA
ATOM     22  O   UNL A   1      33.248  24.818  20.451  1.00  0.00    -0.264 OA
ENDBRANCH  13  20
BRANCH  14  23
ATOM     23  N   UNL A   1      32.195  20.939  24.083  1.00  0.00     0.038 N 
ATOM     24  O   UNL A   1      31.772  20.446  25.139  1.00  0.00    -0.263 OA
ATOM     25  O   UNL A   1      32.200  20.355  22.990  1.00  0.00    -0.263 OA
ENDBRANCH  14  23
ENDBRANCH   8   9
ENDBRANCH   6   8
ENDBRANCH   3   4
ENDBRANCH   2   3
ENDBRANCH   1   2
BRANCH   1  26
ATOM     26  C   UNL A   1      32.789  32.197  27.232  1.00  0.00     0.116 C 
BRANCH  26  27
ATOM     27  N   UNL A   1      32.559  33.597  27.549  1.00  0.00    -0.352 N 
ATOM     28  C   UNL A   1      33.147  34.397  28.500  1.00  0.00     0.251 C 
ATOM     29  H   UNL A   1      31.877  34.042  26.996  1.00  0.00     0.163 HD
ATOM     30  O   UNL A   1      32.664  35.507  28.725  1.00  0.00    -0.269 OA
BRANCH  28  31
ATOM     31  C   UNL A   1      34.323  33.931  29.272  1.00  0.00     0.039 A 
ATOM     32  C   UNL A   1      34.121  33.049  30.339  1.00  0.00     0.014 A 
ATOM     33  C   UNL A   1      35.615  34.370  28.973  1.00  0.00     0.014 A 
ATOM     34  C   UNL A   1      35.216  32.553  31.053  1.00  0.00     0.010 A 
ATOM     35  C   UNL A   1      36.711  33.817  29.637  1.00  0.00     0.010 A 
ATOM     36  C   UNL A   1      36.526  32.899  30.683  1.00  0.00    -0.014 A 
BRANCH  36  37
ATOM     37  C   UNL A   1      37.705  32.301  31.370  1.00  0.00     0.031 A 
ATOM     38  C   UNL A   1      38.461  31.162  30.735  1.00  0.00     0.074 A 
ATOM     39  C   UNL A   1      38.064  32.744  32.592  1.00  0.00     0.049 A 
ATOM     40  N   UNL A   1      39.462  30.466  31.212  1.00  0.00    -0.248 NA
ATOM     41  C   UNL A   1      38.015  30.735  29.401  1.00  0.00     0.031 C 
ATOM     42  C   UNL A   1      37.398  33.823  33.327  1.00  0.00     0.029 A 
ATOM     43  N   UNL A   1      39.070  32.345  33.438  1.00  0.00    -0.354 N 
ATOM     44  C   UNL A   1      39.760  29.514  30.241  1.00  0.00     0.074 A 
ATOM     45  C   UNL A   1      38.792  29.686  29.179  1.00  0.00     0.031 C 
ATOM     46  C   UNL A   1      38.029  34.015  34.496  1.00  0.00     0.029 A 
ATOM     47  C   UNL A   1      39.108  33.042  34.625  1.00  0.00     0.049 A 
ATOM     48  H   UNL A   1      39.705  31.627  33.216  1.00  0.00     0.167 HD
ATOM     49  C   UNL A   1      40.759  28.595  30.230  1.00  0.00     0.034 A 
ATOM     50  C   UNL A   1      39.908  32.905  35.703  1.00  0.00     0.034 A 
ATOM     51  C   UNL A   1      41.721  28.439  31.294  1.00  0.00     0.049 A 
ATOM     52  C   UNL A   1      40.981  31.844  35.684  1.00  0.00     0.074 A 
ATOM     53  C   UNL A   1      42.802  27.575  31.358  1.00  0.00     0.029 A 
ATOM     54  N   UNL A   1      41.717  29.151  32.487  1.00  0.00    -0.354 N 
ATOM     55  N   UNL A   1      41.277  30.983  34.737  1.00  0.00    -0.248 NA
ATOM     56  C   UNL A   1      41.834  31.743  36.876  1.00  0.00     0.031 C 
ATOM     57  C   UNL A   1      43.398  27.707  32.616  1.00  0.00     0.029 A 
ATOM     58  C   UNL A   1      42.750  28.719  33.305  1.00  0.00     0.049 A 
ATOM     59  H   UNL A   1      41.075  29.861  32.718  1.00  0.00     0.167 HD
ATOM     60  C   UNL A   1      42.375  30.265  35.207  1.00  0.00     0.074 A 
ATOM     61  C   UNL A   1      42.695  30.803  36.512  1.00  0.00     0.031 C 
ATOM     62  C   UNL A   1      43.058  29.256  34.611  1.00  0.00     0.034 A 
BRANCH  49  63
ATOM     63  C   UNL A   1      40.841  27.666  29.041  1.00  0.00     0.023 A 
ATOM     64  C   UNL A   1      41.770  27.869  28.004  1.00  0.00     0.031 A 
ATOM     65  C   UNL A   1      39.972  26.566  28.936  1.00  0.00     0.131 A 
ATOM     66  C   UNL A   1      41.760  27.030  26.879  1.00  0.00     0.055 A 
ATOM     67  C   UNL A   1      40.025  25.684  27.854  1.00  0.00     0.041 A 
ATOM     68  F   UNL A   1      39.049  26.330  29.882  1.00  0.00    -0.206 F 
ATOM     69  C   UNL A   1      40.912  25.922  26.809  1.00  0.00     0.022 A 
BRANCH  66  70
ATOM     70  S   UNL A   1      42.771  27.492  25.446  1.00  0.00     0.124 S 
ATOM     71  O   UNL A   1      42.728  26.268  24.649  1.00  0.00    -0.237 OA
ATOM     72  O   UNL A   1      42.044  28.634  24.902  1.00  0.00    -0.237 OA
ATOM     73  O   UNL A   1      44.074  27.800  26.031  1.00  0.00    -0.744 OA
ENDBRANCH  66  70
ENDBRANCH  49  63
BRANCH  50  74
ATOM     74  C   UNL A   1      39.724  33.775  36.902  1.00  0.00     0.023 A 
ATOM     75  C   UNL A   1      39.134  33.276  38.074  1.00  0.00     0.031 A 
ATOM     76  C   UNL A   1      40.081  35.135  36.874  1.00  0.00     0.131 A 
ATOM     77  C   UNL A   1      38.865  34.141  39.147  1.00  0.00     0.055 A 
ATOM     78  C   UNL A   1      39.871  35.977  37.968  1.00  0.00     0.041 A 
ATOM     79  F   UNL A   1      40.648  35.667  35.779  1.00  0.00    -0.206 F 
ATOM     80  C   UNL A   1      39.245  35.484  39.108  1.00  0.00     0.022 A 
BRANCH  77  81
ATOM     81  S   UNL A   1      37.915  33.508  40.556  1.00  0.00     0.124 S 
ATOM     82  O   UNL A   1      38.826  32.507  41.100  1.00  0.00    -0.237 OA
ATOM     83  O   UNL A   1      37.726  34.711  41.360  1.00  0.00    -0.237 OA
ATOM     84  O   UNL A   1      36.702  32.978  39.936  1.00  0.00    -0.744 OA
ENDBRANCH  77  81
ENDBRANCH  50  74
BRANCH  62  85
ATOM     85  C   UNL A   1      44.258  28.704  35.347  1.00  0.00     0.023 A 
ATOM     86  C   UNL A   1      44.159  27.596  36.206  1.00  0.00     0.031 A 
ATOM     87  C   UNL A   1      45.519  29.307  35.191  1.00  0.00     0.131 A 
ATOM     88  C   UNL A   1      45.285  27.163  36.923  1.00  0.00     0.055 A 
ATOM     89  C   UNL A   1      46.651  28.828  35.852  1.00  0.00     0.041 A 
ATOM     90  F   UNL A   1      45.674  30.371  34.388  1.00  0.00    -0.206 F 
ATOM     91  C   UNL A   1      46.535  27.759  36.735  1.00  0.00     0.022 A 
BRANCH  88  92
ATOM     92  S   UNL A   1      45.075  25.873  38.181  1.00  0.00     0.124 S 
ATOM     93  O   UNL A   1      43.792  25.289  37.806  1.00  0.00    -0.237 OA
ATOM     94  O   UNL A   1      46.247  25.031  37.964  1.00  0.00    -0.237 OA
ATOM     95  O   UNL A   1      45.074  26.619  39.438  1.00  0.00    -0.744 OA
ENDBRANCH  88  92
ENDBRANCH  62  85
ENDBRANCH  36  37
ENDBRANCH  28  31
ENDBRANCH  26  27
ENDBRANCH   1  26
TORSDOF 17
ENDMDL
MODEL 3
REMARK VINA RESULT:     -11.7      3.309      8.686
REMARK SMILES O=C(C[N@@H+]1C[C@@]2([N+](=O)[O-])CC=C(Cl)[C@@]([N+](=O)[O-])(C1)C2)NCCCCNC(=O)c1ccc(-c2c3nc(c(-c4cc(S(=O)(=O)[O-])ccc4F)c4ccc([nH]4)c(-c4cc(S(=O)(=O)[O-])ccc4F)c4nc(c(-c5cc(S(=O)(=O)[O-])ccc5F)c5ccc2[nH]5)C=C4)C=C3)cc1
REMARK SMILES IDX 23 1 22 2 21 3 20 4 1 5 2 6 3 8 4 9 5 10 18 11 6 13 14 14
REMARK SMILES IDX 10 15 19 16 12 17 11 18 13 19 7 20 8 21 9 22 15 23 16 24
REMARK SMILES IDX 17 25 24 26 25 27 26 28 27 30 28 31 29 32 90 33 30 34 89 35
REMARK SMILES IDX 31 36 32 37 33 38 83 39 34 40 88 41 82 42 84 43 35 44 87 45
REMARK SMILES IDX 81 46 80 47 36 49 68 50 48 51 67 52 49 53 52 54 66 55 85 56
REMARK SMILES IDX 50 57 51 58 65 60 86 61 53 62 37 63 38 64 46 65 39 66 45 67
REMARK SMILES IDX 47 68 44 69 40 70 41 71 42 72 43 73 69 74 70 75 78 76 71 77
REMARK SMILES IDX 77 78 79 79 76 80 72 81 73 82 74 83 75 84 54 85 55 86 63 87
REMARK SMILES IDX 56 88 62 89 64 90 61 91 57 92 58 93 59 94 60 95
REMARK H PARENT 20 7 4 12 25 29 84 48 52 59
REMARK Flexibility Score: inf
ROOT
ATOM      1  C   UNL A   1      33.032  28.143  27.183  1.00  0.00     0.023 C 
ENDROOT
BRANCH   1   2
ATOM      2  C   UNL A   1      31.527  28.088  26.892  1.00  0.00     0.023 C 
BRANCH   2   3
ATOM      3  C   UNL A   1      31.017  26.773  26.308  1.00  0.00     0.116 C 
BRANCH   3   4
ATOM      4  N   UNL A   1      31.707  25.618  26.845  1.00  0.00    -0.351 N 
ATOM      5  O   UNL A   1      29.950  24.147  26.589  1.00  0.00    -0.269 OA
ATOM      6  C   UNL A   1      31.123  24.364  26.875  1.00  0.00     0.275 C 
ATOM      7  H   UNL A   1      32.619  25.730  27.199  1.00  0.00     0.163 HD
BRANCH   6   8
ATOM      8  C   UNL A   1      32.117  23.240  27.188  1.00  0.00     0.363 C 
BRANCH   8   9
ATOM      9  N   UNL A   1      32.751  22.646  25.986  1.00  0.00    -0.315 N 
ATOM     10  C   UNL A   1      32.716  21.174  25.898  1.00  0.00     0.350 C 
ATOM     11  C   UNL A   1      34.112  23.182  25.725  1.00  0.00     0.356 C 
ATOM     12  H   UNL A   1      32.142  22.956  25.229  1.00  0.00     0.348 HD
ATOM     13  C   UNL A   1      33.275  20.636  24.564  1.00  0.00     0.280 C 
ATOM     14  C   UNL A   1      34.672  22.678  24.361  1.00  0.00     0.311 C 
ATOM     15  C   UNL A   1      32.421  21.046  23.335  1.00  0.00     0.121 C 
ATOM     16  C   UNL A   1      34.717  21.132  24.382  1.00  0.00     0.191 C 
ATOM     17  C   UNL A   1      33.785  23.153  23.218  1.00  0.00     0.097 C 
ATOM     18  C   UNL A   1      32.766  22.403  22.761  1.00  0.00     0.004 C 
ATOM     19  Cl  UNL A   1      34.022  24.738  22.567  1.00  0.00    -0.081 Cl
BRANCH  13  20
ATOM     20  N   UNL A   1      33.236  19.121  24.700  1.00  0.00     0.032 N 
ATOM     21  O   UNL A   1      32.153  18.608  25.010  1.00  0.00    -0.264 OA
ATOM     22  O   UNL A   1      34.303  18.507  24.581  1.00  0.00    -0.264 OA
ENDBRANCH  13  20
BRANCH  14  23
ATOM     23  N   UNL A   1      36.100  23.177  24.165  1.00  0.00     0.038 N 
ATOM     24  O   UNL A   1      36.538  24.022  24.959  1.00  0.00    -0.263 OA
ATOM     25  O   UNL A   1      36.752  22.688  23.231  1.00  0.00    -0.263 OA
ENDBRANCH  14  23
ENDBRANCH   8   9
ENDBRANCH   6   8
ENDBRANCH   3   4
ENDBRANCH   2   3
ENDBRANCH   1   2
BRANCH   1  26
ATOM     26  C   UNL A   1      33.841  29.106  26.315  1.00  0.00     0.116 C 
BRANCH  26  27
ATOM     27  N   UNL A   1      33.634  30.496  26.687  1.00  0.00    -0.352 N 
ATOM     28  C   UNL A   1      34.317  31.283  27.584  1.00  0.00     0.251 C 
ATOM     29  H   UNL A   1      32.889  30.944  26.225  1.00  0.00     0.163 HD
ATOM     30  O   UNL A   1      33.852  32.382  27.888  1.00  0.00    -0.269 OA
BRANCH  28  31
ATOM     31  C   UNL A   1      35.577  30.815  28.209  1.00  0.00     0.039 A 
ATOM     32  C   UNL A   1      35.513  29.826  29.196  1.00  0.00     0.014 A 
ATOM     33  C   UNL A   1      36.815  31.354  27.850  1.00  0.00     0.014 A 
ATOM     34  C   UNL A   1      36.690  29.329  29.766  1.00  0.00     0.010 A 
ATOM     35  C   UNL A   1      37.991  30.806  28.364  1.00  0.00     0.010 A 
ATOM     36  C   UNL A   1      37.944  29.783  29.326  1.00  0.00    -0.014 A 
BRANCH  36  37
ATOM     37  C   UNL A   1      39.206  29.192  29.852  1.00  0.00     0.031 A 
ATOM     38  C   UNL A   1      39.894  29.803  31.045  1.00  0.00     0.074 A 
ATOM     39  C   UNL A   1      39.766  28.139  29.222  1.00  0.00     0.049 A 
ATOM     40  N   UNL A   1      41.034  29.476  31.600  1.00  0.00    -0.248 NA
ATOM     41  C   UNL A   1      39.223  30.946  31.681  1.00  0.00     0.031 C 
ATOM     42  C   UNL A   1      39.214  27.472  28.040  1.00  0.00     0.029 A 
ATOM     43  N   UNL A   1      40.922  27.444  29.479  1.00  0.00    -0.354 N 
ATOM     44  C   UNL A   1      41.222  30.378  32.644  1.00  0.00     0.074 A 
ATOM     45  C   UNL A   1      40.107  31.300  32.602  1.00  0.00     0.031 C 
ATOM     46  C   UNL A   1      40.015  26.453  27.694  1.00  0.00     0.029 A 
ATOM     47  C   UNL A   1      41.167  26.423  28.588  1.00  0.00     0.049 A 
ATOM     48  H   UNL A   1      41.522  27.658  30.230  1.00  0.00     0.167 HD
ATOM     49  C   UNL A   1      42.221  30.421  33.561  1.00  0.00     0.034 A 
ATOM     50  C   UNL A   1      42.207  25.569  28.491  1.00  0.00     0.034 A 
ATOM     51  C   UNL A   1      43.324  29.490  33.594  1.00  0.00     0.049 A 
ATOM     52  C   UNL A   1      43.328  25.667  29.496  1.00  0.00     0.074 A 
ATOM     53  C   UNL A   1      44.359  29.414  34.511  1.00  0.00     0.029 A 
ATOM     54  N   UNL A   1      43.546  28.480  32.666  1.00  0.00    -0.354 N 
ATOM     55  N   UNL A   1      43.466  26.498  30.504  1.00  0.00    -0.248 NA
ATOM     56  C   UNL A   1      44.431  24.707  29.354  1.00  0.00     0.031 C 
ATOM     57  C   UNL A   1      45.246  28.417  34.092  1.00  0.00     0.029 A 
ATOM     58  C   UNL A   1      44.719  27.805  32.967  1.00  0.00     0.049 A 
ATOM     59  H   UNL A   1      42.955  28.273  31.906  1.00  0.00     0.167 HD
ATOM     60  C   UNL A   1      44.652  26.133  31.137  1.00  0.00     0.074 A 
ATOM     61  C   UNL A   1      45.181  25.001  30.406  1.00  0.00     0.031 C 
ATOM     62  C   UNL A   1      45.246  26.681  32.227  1.00  0.00     0.034 A 
BRANCH  49  63
ATOM     63  C   UNL A   1      42.182  31.530  34.586  1.00  0.00     0.023 A 
ATOM     64  C   UNL A   1      41.262  31.524  35.651  1.00  0.00     0.031 A 
ATOM     65  C   UNL A   1      43.071  32.615  34.496  1.00  0.00     0.131 A 
ATOM     66  C   UNL A   1      41.205  32.613  36.535  1.00  0.00     0.055 A 
ATOM     67  C   UNL A   1      43.067  33.654  35.429  1.00  0.00     0.041 A 
ATOM     68  F   UNL A   1      43.960  32.690  33.491  1.00  0.00    -0.206 F 
ATOM     69  C   UNL A   1      42.120  33.665  36.448  1.00  0.00     0.022 A 
BRANCH  66  70
ATOM     70  S   UNL A   1      39.827  32.701  37.711  1.00  0.00     0.124 S 
ATOM     71  O   UNL A   1      40.487  32.344  38.965  1.00  0.00    -0.237 OA
ATOM     72  O   UNL A   1      39.397  34.090  37.588  1.00  0.00    -0.237 OA
ATOM     73  O   UNL A   1      38.883  31.706  37.207  1.00  0.00    -0.744 OA
ENDBRANCH  66  70
ENDBRANCH  49  63
BRANCH  50  74
ATOM     74  C   UNL A   1      42.258  24.555  27.396  1.00  0.00     0.023 A 
ATOM     75  C   UNL A   1      41.554  23.345  27.496  1.00  0.00     0.031 A 
ATOM     76  C   UNL A   1      43.060  24.756  26.258  1.00  0.00     0.131 A 
ATOM     77  C   UNL A   1      41.709  22.359  26.508  1.00  0.00     0.055 A 
ATOM     78  C   UNL A   1      43.160  23.799  25.246  1.00  0.00     0.041 A 
ATOM     79  F   UNL A   1      43.756  25.894  26.108  1.00  0.00    -0.206 F 
ATOM     80  C   UNL A   1      42.494  22.585  25.376  1.00  0.00     0.022 A 
BRANCH  77  81
ATOM     81  S   UNL A   1      40.952  20.733  26.778  1.00  0.00     0.124 S 
ATOM     82  O   UNL A   1      41.972  19.840  26.241  1.00  0.00    -0.237 OA
ATOM     83  O   UNL A   1      40.780  20.716  28.227  1.00  0.00    -0.237 OA
ATOM     84  O   UNL A   1      39.714  20.804  26.006  1.00  0.00    -0.744 OA
ENDBRANCH  77  81
ENDBRANCH  50  74
BRANCH  62  85
ATOM     85  C   UNL A   1      46.513  26.025  32.727  1.00  0.00     0.023 A 
ATOM     86  C   UNL A   1      46.487  24.936  33.616  1.00  0.00     0.031 A 
ATOM     87  C   UNL A   1      47.767  26.509  32.313  1.00  0.00     0.131 A 
ATOM     88  C   UNL A   1      47.690  24.405  34.108  1.00  0.00     0.055 A 
ATOM     89  C   UNL A   1      48.960  25.932  32.751  1.00  0.00     0.041 A 
ATOM     90  F   UNL A   1      47.854  27.550  31.470  1.00  0.00    -0.206 F 
ATOM     91  C   UNL A   1      48.926  24.883  33.665  1.00  0.00     0.022 A 
BRANCH  88  92
ATOM     92  S   UNL A   1      47.618  23.148  35.413  1.00  0.00     0.124 S 
ATOM     93  O   UNL A   1      48.985  22.639  35.419  1.00  0.00    -0.237 OA
ATOM     94  O   UNL A   1      47.224  23.931  36.580  1.00  0.00    -0.237 OA
ATOM     95  O   UNL A   1      46.608  22.208  34.929  1.00  0.00    -0.744 OA
ENDBRANCH  88  92
ENDBRANCH  62  85
ENDBRANCH  36  37
ENDBRANCH  28  31
ENDBRANCH  26  27
ENDBRANCH   1  26
TORSDOF 17
ENDMDL
