MODEL 1
REMARK VINA RESULT:     -11.8      0.000      0.000
REMARK SMILES Cn1ccnc(N[C@H]2C=C[C@H](C(=O)NCCCCNC(=O)c3ccc(-c4c5nc(c(-c6cc(S(=O)(=O)[O-])ccc6F)c6ccc([nH]6)c(-c6cc(S(=O)(=O)[O-])ccc6F)c6nc(c(-c7cc(S(=O)(=O)[O-])ccc7F)c7ccc4[nH]7)C=C6)C=C5)cc3)C2)c1=O
REMARK SMILES IDX 17 1 16 2 15 3 14 4 12 5 13 6 11 8 8 9 9 10 85 11 10 12 7 13
REMARK SMILES IDX 6 15 1 16 2 17 3 18 86 19 4 20 87 21 5 22 18 23 19 24 20 25
REMARK SMILES IDX 21 27 22 28 23 29 84 30 24 31 83 32 25 33 26 34 27 35 77 36
REMARK SMILES IDX 28 37 82 38 76 39 78 40 29 41 81 42 75 43 74 44 30 46 62 47
REMARK SMILES IDX 42 48 61 49 43 50 46 51 60 52 79 53 44 54 45 55 59 57 80 58
REMARK SMILES IDX 47 59 31 60 32 61 40 62 33 63 39 64 41 65 38 66 34 67 35 68
REMARK SMILES IDX 36 69 37 70 63 71 64 72 72 73 65 74 71 75 73 76 70 77 66 78
REMARK SMILES IDX 67 79 68 80 69 81 48 82 49 83 57 84 50 85 56 86 58 87 55 88
REMARK SMILES IDX 51 89 52 90 53 91 54 92
REMARK H PARENT 14 7 7 14 19 26 78 45 46 56
REMARK Flexibility Score: inf
ROOT
ATOM      1  C   UNL A   1      31.780  29.570  27.239  1.00  0.00     0.023 C 
ENDROOT
BRANCH   1   2
ATOM      2  C   UNL A   1      32.451  28.217  27.458  1.00  0.00     0.023 C 
BRANCH   2   3
ATOM      3  C   UNL A   1      33.628  27.923  26.535  1.00  0.00     0.116 C 
BRANCH   3   4
ATOM      4  N   UNL A   1      33.436  26.727  25.732  1.00  0.00    -0.356 N 
ATOM      5  C   UNL A   1      32.685  26.586  24.593  1.00  0.00     0.227 C 
ATOM      6  O   UNL A   1      32.735  25.523  23.976  1.00  0.00    -0.274 OA
ATOM      7  H   UNL A   1      33.902  25.919  26.044  1.00  0.00     0.163 HD
BRANCH   5   8
ATOM      8  C   UNL A   1      31.821  27.766  24.159  1.00  0.00     0.103 C 
ATOM      9  C   UNL A   1      29.659  27.659  22.999  1.00  0.00     0.104 C 
ATOM     10  C   UNL A   1      30.763  27.947  22.051  1.00  0.00    -0.006 C 
ATOM     11  C   UNL A   1      30.310  27.566  24.379  1.00  0.00     0.046 C 
ATOM     12  C   UNL A   1      31.945  27.976  22.671  1.00  0.00    -0.016 C 
BRANCH   9  13
ATOM     13  N   UNL A   1      28.603  28.630  22.893  1.00  0.00    -0.359 N 
ATOM     14  H   UNL A   1      27.740  28.304  23.237  1.00  0.00     0.162 HD
BRANCH  13  15
ATOM     15  C   UNL A   1      28.547  29.920  22.413  1.00  0.00     0.193 A 
ATOM     16  C   UNL A   1      29.147  33.628  23.217  1.00  0.00     0.153 C 
ATOM     17  N   UNL A   1      28.784  32.402  22.537  1.00  0.00    -0.314 N 
ATOM     18  C   UNL A   1      28.248  32.417  21.275  1.00  0.00     0.109 A 
ATOM     19  C   UNL A   1      29.002  31.196  23.198  1.00  0.00     0.293 A 
ATOM     20  C   UNL A   1      27.922  31.276  20.662  1.00  0.00     0.131 A 
ATOM     21  O   UNL A   1      29.508  31.139  24.309  1.00  0.00    -0.265 OA
ATOM     22  N   UNL A   1      28.056  30.024  21.197  1.00  0.00    -0.233 NA
ENDBRANCH  13  15
ENDBRANCH   9  13
ENDBRANCH   5   8
ENDBRANCH   3   4
ENDBRANCH   2   3
ENDBRANCH   1   2
BRANCH   1  23
ATOM     23  C   UNL A   1      32.551  30.544  26.354  1.00  0.00     0.116 C 
BRANCH  23  24
ATOM     24  N   UNL A   1      32.429  31.926  26.796  1.00  0.00    -0.352 N 
ATOM     25  C   UNL A   1      33.273  32.668  27.590  1.00  0.00     0.251 C 
ATOM     26  H   UNL A   1      31.625  32.399  26.479  1.00  0.00     0.163 HD
ATOM     27  O   UNL A   1      32.919  33.773  27.988  1.00  0.00    -0.269 OA
BRANCH  25  28
ATOM     28  C   UNL A   1      34.582  32.111  27.996  1.00  0.00     0.039 A 
ATOM     29  C   UNL A   1      35.696  32.953  28.017  1.00  0.00     0.014 A 
ATOM     30  C   UNL A   1      34.704  30.776  28.394  1.00  0.00     0.014 A 
ATOM     31  C   UNL A   1      36.905  32.485  28.536  1.00  0.00     0.010 A 
ATOM     32  C   UNL A   1      35.887  30.336  28.983  1.00  0.00     0.010 A 
ATOM     33  C   UNL A   1      36.993  31.193  29.081  1.00  0.00    -0.014 A 
BRANCH  33  34
ATOM     34  C   UNL A   1      38.208  30.747  29.813  1.00  0.00     0.031 A 
ATOM     35  C   UNL A   1      39.154  29.756  29.195  1.00  0.00     0.074 A 
ATOM     36  C   UNL A   1      38.416  31.181  31.073  1.00  0.00     0.049 A 
ATOM     37  N   UNL A   1      40.218  29.194  29.712  1.00  0.00    -0.248 NA
ATOM     38  C   UNL A   1      38.848  29.323  27.825  1.00  0.00     0.031 C 
ATOM     39  C   UNL A   1      37.550  32.118  31.794  1.00  0.00     0.029 A 
ATOM     40  N   UNL A   1      39.410  30.892  31.974  1.00  0.00    -0.354 N 
ATOM     41  C   UNL A   1      40.707  28.338  28.732  1.00  0.00     0.074 A 
ATOM     42  C   UNL A   1      39.785  28.410  27.618  1.00  0.00     0.031 C 
ATOM     43  C   UNL A   1      38.068  32.348  33.010  1.00  0.00     0.029 A 
ATOM     44  C   UNL A   1      39.264  31.531  33.183  1.00  0.00     0.049 A 
ATOM     45  H   UNL A   1      40.157  30.282  31.773  1.00  0.00     0.167 HD
ATOM     46  C   UNL A   1      41.834  27.581  28.754  1.00  0.00     0.034 A 
ATOM     47  C   UNL A   1      39.996  31.455  34.314  1.00  0.00     0.034 A 
ATOM     48  C   UNL A   1      42.735  27.515  29.881  1.00  0.00     0.049 A 
ATOM     49  C   UNL A   1      41.196  30.544  34.343  1.00  0.00     0.074 A 
ATOM     50  C   UNL A   1      43.932  26.826  29.988  1.00  0.00     0.029 A 
ATOM     51  N   UNL A   1      42.530  28.141  31.104  1.00  0.00    -0.354 N 
ATOM     52  N   UNL A   1      41.682  29.788  33.386  1.00  0.00    -0.248 NA
ATOM     53  C   UNL A   1      41.943  30.475  35.605  1.00  0.00     0.031 C 
ATOM     54  C   UNL A   1      44.401  26.962  31.298  1.00  0.00     0.029 A 
ATOM     55  C   UNL A   1      43.548  27.807  31.989  1.00  0.00     0.049 A 
ATOM     56  H   UNL A   1      41.773  28.733  31.315  1.00  0.00     0.167 HD
ATOM     57  C   UNL A   1      42.804  29.167  33.927  1.00  0.00     0.074 A 
ATOM     58  C   UNL A   1      42.933  29.655  35.286  1.00  0.00     0.031 C 
ATOM     59  C   UNL A   1      43.651  28.275  33.352  1.00  0.00     0.034 A 
BRANCH  46  60
ATOM     60  C   UNL A   1      42.126  26.739  27.533  1.00  0.00     0.023 A 
ATOM     61  C   UNL A   1      41.790  25.374  27.482  1.00  0.00     0.031 A 
ATOM     62  C   UNL A   1      42.780  27.295  26.419  1.00  0.00     0.131 A 
ATOM     63  C   UNL A   1      42.191  24.594  26.386  1.00  0.00     0.055 A 
ATOM     64  C   UNL A   1      43.093  26.533  25.291  1.00  0.00     0.041 A 
ATOM     65  F   UNL A   1      43.145  28.587  26.414  1.00  0.00    -0.206 F 
ATOM     66  C   UNL A   1      42.815  25.169  25.278  1.00  0.00     0.022 A 
BRANCH  63  67
ATOM     67  S   UNL A   1      42.041  22.791  26.512  1.00  0.00     0.124 S 
ATOM     68  O   UNL A   1      42.433  22.368  25.168  1.00  0.00    -0.237 OA
ATOM     69  O   UNL A   1      42.979  22.470  27.581  1.00  0.00    -0.237 OA
ATOM     70  O   UNL A   1      40.631  22.586  26.833  1.00  0.00    -0.744 OA
ENDBRANCH  63  67
ENDBRANCH  46  60
BRANCH  47  71
ATOM     71  C   UNL A   1      39.603  32.242  35.518  1.00  0.00     0.023 A 
ATOM     72  C   UNL A   1      38.789  31.679  36.513  1.00  0.00     0.031 A 
ATOM     73  C   UNL A   1      40.016  33.577  35.680  1.00  0.00     0.131 A 
ATOM     74  C   UNL A   1      38.384  32.458  37.607  1.00  0.00     0.055 A 
ATOM     75  C   UNL A   1      39.657  34.330  36.799  1.00  0.00     0.041 A 
ATOM     76  F   UNL A   1      40.795  34.164  34.757  1.00  0.00    -0.206 F 
ATOM     77  C   UNL A   1      38.826  33.775  37.766  1.00  0.00     0.022 A 
BRANCH  74  78
ATOM     78  S   UNL A   1      37.204  31.750  38.788  1.00  0.00     0.124 S 
ATOM     79  O   UNL A   1      36.051  32.627  38.617  1.00  0.00    -0.237 OA
ATOM     80  O   UNL A   1      37.054  30.387  38.288  1.00  0.00    -0.237 OA
ATOM     81  O   UNL A   1      37.894  31.868  40.071  1.00  0.00    -0.744 OA
ENDBRANCH  74  78
ENDBRANCH  47  71
BRANCH  59  82
ATOM     82  C   UNL A   1      44.803  27.780  34.194  1.00  0.00     0.023 A 
ATOM     83  C   UNL A   1      44.717  26.583  34.928  1.00  0.00     0.031 A 
ATOM     84  C   UNL A   1      46.001  28.512  34.265  1.00  0.00     0.131 A 
ATOM     85  C   UNL A   1      45.789  26.180  35.738  1.00  0.00     0.055 A 
ATOM     86  C   UNL A   1      47.088  28.073  35.020  1.00  0.00     0.041 A 
ATOM     87  F   UNL A   1      46.138  29.666  33.592  1.00  0.00    -0.206 F 
ATOM     88  C   UNL A   1      46.983  26.906  35.771  1.00  0.00     0.022 A 
BRANCH  85  89
ATOM     89  S   UNL A   1      45.574  24.737  36.815  1.00  0.00     0.124 S 
ATOM     90  O   UNL A   1      45.282  23.681  35.851  1.00  0.00    -0.237 OA
ATOM     91  O   UNL A   1      46.868  24.649  37.484  1.00  0.00    -0.237 OA
ATOM     92  O   UNL A   1      44.457  25.116  37.677  1.00  0.00    -0.744 OA
ENDBRANCH  85  89
ENDBRANCH  59  82
ENDBRANCH  33  34
ENDBRANCH  25  28
ENDBRANCH  23  24
ENDBRANCH   1  23
TORSDOF 16
ENDMDL
MODEL 2
REMARK VINA RESULT:     -11.7      2.097      4.166
REMARK SMILES Cn1ccnc(N[C@H]2C=C[C@H](C(=O)NCCCCNC(=O)c3ccc(-c4c5nc(c(-c6cc(S(=O)(=O)[O-])ccc6F)c6ccc([nH]6)c(-c6cc(S(=O)(=O)[O-])ccc6F)c6nc(c(-c7cc(S(=O)(=O)[O-])ccc7F)c7ccc4[nH]7)C=C6)C=C5)cc3)C2)c1=O
REMARK SMILES IDX 17 1 16 2 15 3 14 4 12 5 13 6 11 8 8 9 9 10 85 11 10 12 7 13
REMARK SMILES IDX 6 15 1 16 2 17 3 18 86 19 4 20 87 21 5 22 18 23 19 24 20 25
REMARK SMILES IDX 21 27 22 28 23 29 84 30 24 31 83 32 25 33 26 34 27 35 77 36
REMARK SMILES IDX 28 37 82 38 76 39 78 40 29 41 81 42 75 43 74 44 30 46 62 47
REMARK SMILES IDX 42 48 61 49 43 50 46 51 60 52 79 53 44 54 45 55 59 57 80 58
REMARK SMILES IDX 47 59 31 60 32 61 40 62 33 63 39 64 41 65 38 66 34 67 35 68
REMARK SMILES IDX 36 69 37 70 63 71 64 72 72 73 65 74 71 75 73 76 70 77 66 78
REMARK SMILES IDX 67 79 68 80 69 81 48 82 49 83 57 84 50 85 56 86 58 87 55 88
REMARK SMILES IDX 51 89 52 90 53 91 54 92
REMARK H PARENT 14 7 7 14 19 26 78 45 46 56
REMARK Flexibility Score: inf
ROOT
ATOM      1  C   UNL A   1      32.232  29.797  25.236  1.00  0.00     0.023 C 
ENDROOT
BRANCH   1   2
ATOM      2  C   UNL A   1      31.028  29.096  24.612  1.00  0.00     0.023 C 
BRANCH   2   3
ATOM      3  C   UNL A   1      31.007  29.083  23.088  1.00  0.00     0.116 C 
BRANCH   3   4
ATOM      4  N   UNL A   1      32.336  29.028  22.502  1.00  0.00    -0.356 N 
ATOM      5  C   UNL A   1      33.151  27.935  22.358  1.00  0.00     0.227 C 
ATOM      6  O   UNL A   1      34.200  28.054  21.727  1.00  0.00    -0.274 OA
ATOM      7  H   UNL A   1      32.696  29.880  22.166  1.00  0.00     0.163 HD
BRANCH   5   8
ATOM      8  C   UNL A   1      32.706  26.625  23.001  1.00  0.00     0.103 C 
ATOM      9  C   UNL A   1      34.154  24.803  23.785  1.00  0.00     0.104 C 
ATOM     10  C   UNL A   1      33.581  24.497  22.451  1.00  0.00    -0.006 C 
ATOM     11  C   UNL A   1      33.581  26.164  24.182  1.00  0.00     0.046 C 
ATOM     12  C   UNL A   1      32.817  25.498  22.007  1.00  0.00    -0.016 C 
BRANCH   9  13
ATOM     13  N   UNL A   1      33.903  23.744  24.725  1.00  0.00    -0.359 N 
ATOM     14  H   UNL A   1      33.454  24.051  25.546  1.00  0.00     0.162 HD
BRANCH  13  15
ATOM     15  C   UNL A   1      34.157  22.390  24.717  1.00  0.00     0.193 A 
ATOM     16  C   UNL A   1      32.656  18.888  24.224  1.00  0.00     0.153 C 
ATOM     17  N   UNL A   1      33.578  19.971  24.496  1.00  0.00    -0.314 N 
ATOM     18  C   UNL A   1      34.876  19.729  24.864  1.00  0.00     0.109 A 
ATOM     19  C   UNL A   1      33.112  21.278  24.367  1.00  0.00     0.293 A 
ATOM     20  C   UNL A   1      35.714  20.741  25.108  1.00  0.00     0.131 A 
ATOM     21  O   UNL A   1      31.972  21.535  24.010  1.00  0.00    -0.265 OA
ATOM     22  N   UNL A   1      35.390  22.068  25.046  1.00  0.00    -0.233 NA
ENDBRANCH  13  15
ENDBRANCH   9  13
ENDBRANCH   5   8
ENDBRANCH   3   4
ENDBRANCH   2   3
ENDBRANCH   1   2
BRANCH   1  23
ATOM     23  C   UNL A   1      32.060  30.215  26.693  1.00  0.00     0.116 C 
BRANCH  23  24
ATOM     24  N   UNL A   1      32.010  31.660  26.863  1.00  0.00    -0.352 N 
ATOM     25  C   UNL A   1      32.926  32.504  27.449  1.00  0.00     0.251 C 
ATOM     26  H   UNL A   1      31.204  32.098  26.505  1.00  0.00     0.163 HD
ATOM     27  O   UNL A   1      32.633  33.679  27.642  1.00  0.00    -0.269 OA
BRANCH  25  28
ATOM     28  C   UNL A   1      34.240  31.979  27.882  1.00  0.00     0.039 A 
ATOM     29  C   UNL A   1      35.310  32.866  28.016  1.00  0.00     0.014 A 
ATOM     30  C   UNL A   1      34.405  30.627  28.196  1.00  0.00     0.014 A 
ATOM     31  C   UNL A   1      36.514  32.418  28.562  1.00  0.00     0.010 A 
ATOM     32  C   UNL A   1      35.579  30.200  28.813  1.00  0.00     0.010 A 
ATOM     33  C   UNL A   1      36.637  31.096  29.024  1.00  0.00    -0.014 A 
BRANCH  33  34
ATOM     34  C   UNL A   1      37.837  30.655  29.785  1.00  0.00     0.031 A 
ATOM     35  C   UNL A   1      38.820  29.696  29.176  1.00  0.00     0.074 A 
ATOM     36  C   UNL A   1      37.995  31.063  31.060  1.00  0.00     0.049 A 
ATOM     37  N   UNL A   1      39.877  29.142  29.714  1.00  0.00    -0.248 NA
ATOM     38  C   UNL A   1      38.568  29.290  27.786  1.00  0.00     0.031 C 
ATOM     39  C   UNL A   1      37.089  31.967  31.774  1.00  0.00     0.029 A 
ATOM     40  N   UNL A   1      38.964  30.770  31.987  1.00  0.00    -0.354 N 
ATOM     41  C   UNL A   1      40.414  28.318  28.732  1.00  0.00     0.074 A 
ATOM     42  C   UNL A   1      39.528  28.399  27.590  1.00  0.00     0.031 C 
ATOM     43  C   UNL A   1      37.562  32.177  33.012  1.00  0.00     0.029 A 
ATOM     44  C   UNL A   1      38.767  31.378  33.205  1.00  0.00     0.049 A 
ATOM     45  H   UNL A   1      39.729  30.179  31.797  1.00  0.00     0.167 HD
ATOM     46  C   UNL A   1      41.554  27.581  28.773  1.00  0.00     0.034 A 
ATOM     47  C   UNL A   1      39.463  31.288  34.357  1.00  0.00     0.034 A 
ATOM     48  C   UNL A   1      42.419  27.505  29.927  1.00  0.00     0.049 A 
ATOM     49  C   UNL A   1      40.679  30.399  34.405  1.00  0.00     0.074 A 
ATOM     50  C   UNL A   1      43.624  26.836  30.057  1.00  0.00     0.029 A 
ATOM     51  N   UNL A   1      42.163  28.098  31.157  1.00  0.00    -0.354 N 
ATOM     52  N   UNL A   1      41.210  29.675  33.447  1.00  0.00    -0.248 NA
ATOM     53  C   UNL A   1      41.386  30.314  35.688  1.00  0.00     0.031 C 
ATOM     54  C   UNL A   1      44.049  26.949  31.385  1.00  0.00     0.029 A 
ATOM     55  C   UNL A   1      43.157  27.762  32.066  1.00  0.00     0.049 A 
ATOM     56  H   UNL A   1      41.388  28.671  31.356  1.00  0.00     0.167 HD
ATOM     57  C   UNL A   1      42.325  29.062  34.010  1.00  0.00     0.074 A 
ATOM     58  C   UNL A   1      42.401  29.520  35.383  1.00  0.00     0.031 C 
ATOM     59  C   UNL A   1      43.208  28.199  33.443  1.00  0.00     0.034 A 
BRANCH  46  60
ATOM     60  C   UNL A   1      41.901  26.774  27.543  1.00  0.00     0.023 A 
ATOM     61  C   UNL A   1      41.546  25.418  27.427  1.00  0.00     0.031 A 
ATOM     62  C   UNL A   1      42.628  27.353  26.487  1.00  0.00     0.131 A 
ATOM     63  C   UNL A   1      41.995  24.667  26.330  1.00  0.00     0.055 A 
ATOM     64  C   UNL A   1      42.992  26.622  25.354  1.00  0.00     0.041 A 
ATOM     65  F   UNL A   1      43.014  28.637  26.546  1.00  0.00    -0.206 F 
ATOM     66  C   UNL A   1      42.692  25.265  25.280  1.00  0.00     0.022 A 
BRANCH  63  67
ATOM     67  S   UNL A   1      41.807  22.863  26.387  1.00  0.00     0.124 S 
ATOM     68  O   UNL A   1      42.514  22.455  25.174  1.00  0.00    -0.237 OA
ATOM     69  O   UNL A   1      42.452  22.518  27.648  1.00  0.00    -0.237 OA
ATOM     70  O   UNL A   1      40.360  22.668  26.350  1.00  0.00    -0.744 OA
ENDBRANCH  63  67
ENDBRANCH  46  60
BRANCH  47  71
ATOM     71  C   UNL A   1      39.017  32.039  35.565  1.00  0.00     0.023 A 
ATOM     72  C   UNL A   1      38.343  31.389  36.610  1.00  0.00     0.031 A 
ATOM     73  C   UNL A   1      39.236  33.424  35.683  1.00  0.00     0.131 A 
ATOM     74  C   UNL A   1      37.880  32.128  37.710  1.00  0.00     0.055 A 
ATOM     75  C   UNL A   1      38.824  34.145  36.805  1.00  0.00     0.041 A 
ATOM     76  F   UNL A   1      39.876  34.096  34.711  1.00  0.00    -0.206 F 
ATOM     77  C   UNL A   1      38.131  33.498  37.823  1.00  0.00     0.022 A 
BRANCH  74  78
ATOM     78  S   UNL A   1      36.875  31.284  38.962  1.00  0.00     0.124 S 
ATOM     79  O   UNL A   1      37.716  31.405  40.148  1.00  0.00    -0.237 OA
ATOM     80  O   UNL A   1      35.653  32.080  38.958  1.00  0.00    -0.237 OA
ATOM     81  O   UNL A   1      36.736  29.930  38.430  1.00  0.00    -0.744 OA
ENDBRANCH  74  78
ENDBRANCH  47  71
BRANCH  59  82
ATOM     82  C   UNL A   1      44.341  27.705  34.310  1.00  0.00     0.023 A 
ATOM     83  C   UNL A   1      44.259  26.485  35.004  1.00  0.00     0.031 A 
ATOM     84  C   UNL A   1      45.517  28.463  34.447  1.00  0.00     0.131 A 
ATOM     85  C   UNL A   1      45.311  26.081  35.840  1.00  0.00     0.055 A 
ATOM     86  C   UNL A   1      46.587  28.026  35.228  1.00  0.00     0.041 A 
ATOM     87  F   UNL A   1      45.649  29.641  33.814  1.00  0.00    -0.206 F 
ATOM     88  C   UNL A   1      46.484  26.834  35.939  1.00  0.00     0.022 A 
BRANCH  85  89
ATOM     89  S   UNL A   1      45.094  24.601  36.864  1.00  0.00     0.124 S 
ATOM     90  O   UNL A   1      46.471  24.155  37.047  1.00  0.00    -0.237 OA
ATOM     91  O   UNL A   1      44.433  25.135  38.050  1.00  0.00    -0.237 OA
ATOM     92  O   UNL A   1      44.265  23.728  36.034  1.00  0.00    -0.744 OA
ENDBRANCH  85  89
ENDBRANCH  59  82
ENDBRANCH  33  34
ENDBRANCH  25  28
ENDBRANCH  23  24
ENDBRANCH   1  23
TORSDOF 16
ENDMDL
MODEL 3
REMARK VINA RESULT:     -11.5      1.952      2.596
REMARK SMILES Cn1ccnc(N[C@H]2C=C[C@H](C(=O)NCCCCNC(=O)c3ccc(-c4c5nc(c(-c6cc(S(=O)(=O)[O-])ccc6F)c6ccc([nH]6)c(-c6cc(S(=O)(=O)[O-])ccc6F)c6nc(c(-c7cc(S(=O)(=O)[O-])ccc7F)c7ccc4[nH]7)C=C6)C=C5)cc3)C2)c1=O
REMARK SMILES IDX 17 1 16 2 15 3 14 4 12 5 13 6 11 8 8 9 9 10 85 11 10 12 7 13
REMARK SMILES IDX 6 15 1 16 2 17 3 18 86 19 4 20 87 21 5 22 18 23 19 24 20 25
REMARK SMILES IDX 21 27 22 28 23 29 84 30 24 31 83 32 25 33 26 34 27 35 77 36
REMARK SMILES IDX 28 37 82 38 76 39 78 40 29 41 81 42 75 43 74 44 30 46 62 47
REMARK SMILES IDX 42 48 61 49 43 50 46 51 60 52 79 53 44 54 45 55 59 57 80 58
REMARK SMILES IDX 47 59 31 60 32 61 40 62 33 63 39 64 41 65 38 66 34 67 35 68
REMARK SMILES IDX 36 69 37 70 63 71 64 72 72 73 65 74 71 75 73 76 70 77 66 78
REMARK SMILES IDX 67 79 68 80 69 81 48 82 49 83 57 84 50 85 56 86 58 87 55 88
REMARK SMILES IDX 51 89 52 90 53 91 54 92
REMARK H PARENT 14 7 7 14 19 26 78 45 46 56
REMARK Flexibility Score: inf
ROOT
ATOM      1  C   UNL A   1      32.254  30.768  26.952  1.00  0.00     0.023 C 
ENDROOT
BRANCH   1   2
ATOM      2  C   UNL A   1      32.553  29.316  27.315  1.00  0.00     0.023 C 
BRANCH   2   3
ATOM      3  C   UNL A   1      33.835  28.751  26.714  1.00  0.00     0.116 C 
BRANCH   3   4
ATOM      4  N   UNL A   1      33.654  27.435  26.124  1.00  0.00    -0.356 N 
ATOM      5  C   UNL A   1      32.857  27.088  25.063  1.00  0.00     0.227 C 
ATOM      6  O   UNL A   1      32.921  25.941  24.622  1.00  0.00    -0.274 OA
ATOM      7  H   UNL A   1      34.166  26.703  26.536  1.00  0.00     0.163 HD
BRANCH   5   8
ATOM      8  C   UNL A   1      31.928  28.153  24.490  1.00  0.00     0.103 C 
ATOM      9  C   UNL A   1      29.936  27.779  23.104  1.00  0.00     0.104 C 
ATOM     10  C   UNL A   1      31.104  28.163  22.273  1.00  0.00    -0.006 C 
ATOM     11  C   UNL A   1      30.432  27.794  24.550  1.00  0.00     0.046 C 
ATOM     12  C   UNL A   1      32.197  28.338  23.019  1.00  0.00    -0.016 C 
BRANCH   9  13
ATOM     13  N   UNL A   1      28.802  28.625  22.845  1.00  0.00    -0.359 N 
ATOM     14  H   UNL A   1      27.940  28.191  23.042  1.00  0.00     0.162 HD
BRANCH  13  15
ATOM     15  C   UNL A   1      28.668  29.915  22.381  1.00  0.00     0.193 A 
ATOM     16  C   UNL A   1      29.078  33.641  23.219  1.00  0.00     0.153 C 
ATOM     17  N   UNL A   1      28.772  32.405  22.531  1.00  0.00    -0.314 N 
ATOM     18  C   UNL A   1      28.216  32.404  21.277  1.00  0.00     0.109 A 
ATOM     19  C   UNL A   1      29.065  31.205  23.174  1.00  0.00     0.293 A 
ATOM     20  C   UNL A   1      27.943  31.254  20.655  1.00  0.00     0.131 A 
ATOM     21  O   UNL A   1      29.591  31.164  24.277  1.00  0.00    -0.265 OA
ATOM     22  N   UNL A   1      28.153  30.006  21.173  1.00  0.00    -0.233 NA
ENDBRANCH  13  15
ENDBRANCH   9  13
ENDBRANCH   5   8
ENDBRANCH   3   4
ENDBRANCH   2   3
ENDBRANCH   1   2
BRANCH   1  23
ATOM     23  C   UNL A   1      33.352  31.767  27.304  1.00  0.00     0.116 C 
BRANCH  23  24
ATOM     24  N   UNL A   1      32.843  33.113  27.516  1.00  0.00    -0.352 N 
ATOM     25  C   UNL A   1      33.201  34.046  28.463  1.00  0.00     0.251 C 
ATOM     26  H   UNL A   1      32.139  33.400  26.889  1.00  0.00     0.163 HD
ATOM     27  O   UNL A   1      32.542  35.073  28.586  1.00  0.00    -0.269 OA
BRANCH  25  28
ATOM     28  C   UNL A   1      34.351  33.783  29.357  1.00  0.00     0.039 A 
ATOM     29  C   UNL A   1      34.154  33.001  30.497  1.00  0.00     0.014 A 
ATOM     30  C   UNL A   1      35.626  34.268  29.050  1.00  0.00     0.014 A 
ATOM     31  C   UNL A   1      35.252  32.619  31.270  1.00  0.00     0.010 A 
ATOM     32  C   UNL A   1      36.727  33.823  29.777  1.00  0.00     0.010 A 
ATOM     33  C   UNL A   1      36.554  32.975  30.881  1.00  0.00    -0.014 A 
BRANCH  33  34
ATOM     34  C   UNL A   1      37.745  32.418  31.576  1.00  0.00     0.031 A 
ATOM     35  C   UNL A   1      38.523  31.283  30.972  1.00  0.00     0.074 A 
ATOM     36  C   UNL A   1      38.078  32.889  32.795  1.00  0.00     0.049 A 
ATOM     37  N   UNL A   1      39.537  30.619  31.468  1.00  0.00    -0.248 NA
ATOM     38  C   UNL A   1      38.087  30.819  29.648  1.00  0.00     0.031 C 
ATOM     39  C   UNL A   1      37.379  33.966  33.501  1.00  0.00     0.029 A 
ATOM     40  N   UNL A   1      39.079  32.524  33.660  1.00  0.00    -0.354 N 
ATOM     41  C   UNL A   1      39.859  29.656  30.518  1.00  0.00     0.074 A 
ATOM     42  C   UNL A   1      38.890  29.784  29.450  1.00  0.00     0.031 C 
ATOM     43  C   UNL A   1      37.991  34.194  34.673  1.00  0.00     0.029 A 
ATOM     44  C   UNL A   1      39.084  33.242  34.834  1.00  0.00     0.049 A 
ATOM     45  H   UNL A   1      39.732  31.815  33.459  1.00  0.00     0.167 HD
ATOM     46  C   UNL A   1      40.882  28.764  30.528  1.00  0.00     0.034 A 
ATOM     47  C   UNL A   1      39.866  33.134  35.928  1.00  0.00     0.034 A 
ATOM     48  C   UNL A   1      41.833  28.645  31.609  1.00  0.00     0.049 A 
ATOM     49  C   UNL A   1      40.943  32.081  35.952  1.00  0.00     0.074 A 
ATOM     50  C   UNL A   1      42.939  27.816  31.697  1.00  0.00     0.029 A 
ATOM     51  N   UNL A   1      41.778  29.356  32.801  1.00  0.00    -0.354 N 
ATOM     52  N   UNL A   1      41.275  31.219  35.019  1.00  0.00    -0.248 NA
ATOM     53  C   UNL A   1      41.748  31.986  37.176  1.00  0.00     0.031 C 
ATOM     54  C   UNL A   1      43.497  27.961  32.971  1.00  0.00     0.029 A 
ATOM     55  C   UNL A   1      42.796  28.944  33.651  1.00  0.00     0.049 A 
ATOM     56  H   UNL A   1      41.114  30.051  33.014  1.00  0.00     0.167 HD
ATOM     57  C   UNL A   1      42.341  30.490  35.539  1.00  0.00     0.074 A 
ATOM     58  C   UNL A   1      42.609  31.031  36.857  1.00  0.00     0.031 C 
ATOM     59  C   UNL A   1      43.036  29.468  34.977  1.00  0.00     0.034 A 
BRANCH  46  60
ATOM     60  C   UNL A   1      40.996  27.827  29.347  1.00  0.00     0.023 A 
ATOM     61  C   UNL A   1      41.966  28.018  28.346  1.00  0.00     0.031 A 
ATOM     62  C   UNL A   1      40.105  26.750  29.199  1.00  0.00     0.131 A 
ATOM     63  C   UNL A   1      41.961  27.206  27.201  1.00  0.00     0.055 A 
ATOM     64  C   UNL A   1      40.166  25.887  28.101  1.00  0.00     0.041 A 
ATOM     65  F   UNL A   1      39.144  26.525  30.109  1.00  0.00    -0.206 F 
ATOM     66  C   UNL A   1      41.086  26.126  27.084  1.00  0.00     0.022 A 
BRANCH  63  67
ATOM     67  S   UNL A   1      42.996  27.695  25.794  1.00  0.00     0.124 S 
ATOM     68  O   UNL A   1      44.284  27.107  26.157  1.00  0.00    -0.237 OA
ATOM     69  O   UNL A   1      42.307  27.078  24.667  1.00  0.00    -0.237 OA
ATOM     70  O   UNL A   1      42.955  29.154  25.829  1.00  0.00    -0.744 OA
ENDBRANCH  63  67
ENDBRANCH  46  60
BRANCH  47  71
ATOM     71  C   UNL A   1      39.645  34.028  37.101  1.00  0.00     0.023 A 
ATOM     72  C   UNL A   1      39.030  33.549  38.268  1.00  0.00     0.031 A 
ATOM     73  C   UNL A   1      40.022  35.383  37.063  1.00  0.00     0.131 A 
ATOM     74  C   UNL A   1      38.779  34.424  39.335  1.00  0.00     0.055 A 
ATOM     75  C   UNL A   1      39.821  36.236  38.149  1.00  0.00     0.041 A 
ATOM     76  F   UNL A   1      40.613  35.894  35.970  1.00  0.00    -0.206 F 
ATOM     77  C   UNL A   1      39.186  35.760  39.291  1.00  0.00     0.022 A 
BRANCH  74  78
ATOM     78  S   UNL A   1      37.841  33.808  40.760  1.00  0.00     0.124 S 
ATOM     79  O   UNL A   1      38.821  32.942  41.408  1.00  0.00    -0.237 OA
ATOM     80  O   UNL A   1      37.512  35.043  41.464  1.00  0.00    -0.237 OA
ATOM     81  O   UNL A   1      36.707  33.120  40.149  1.00  0.00    -0.744 OA
ENDBRANCH  74  78
ENDBRANCH  47  71
BRANCH  59  82
ATOM     82  C   UNL A   1      44.165  28.877  35.787  1.00  0.00     0.023 A 
ATOM     83  C   UNL A   1      43.981  27.726  36.576  1.00  0.00     0.031 A 
ATOM     84  C   UNL A   1      45.440  29.469  35.773  1.00  0.00     0.131 A 
ATOM     85  C   UNL A   1      45.039  27.234  37.354  1.00  0.00     0.055 A 
ATOM     86  C   UNL A   1      46.507  28.937  36.498  1.00  0.00     0.041 A 
ATOM     87  F   UNL A   1      45.673  30.574  35.045  1.00  0.00    -0.206 F 
ATOM     88  C   UNL A   1      46.307  27.820  37.303  1.00  0.00     0.022 A 
BRANCH  85  89
ATOM     89  S   UNL A   1      44.716  25.867  38.500  1.00  0.00     0.124 S 
ATOM     90  O   UNL A   1      46.036  25.256  38.622  1.00  0.00    -0.237 OA
ATOM     91  O   UNL A   1      44.224  26.562  39.686  1.00  0.00    -0.237 OA
ATOM     92  O   UNL A   1      43.721  25.059  37.799  1.00  0.00    -0.744 OA
ENDBRANCH  85  89
ENDBRANCH  59  82
ENDBRANCH  33  34
ENDBRANCH  25  28
ENDBRANCH  23  24
ENDBRANCH   1  23
TORSDOF 16
ENDMDL
