MODEL 1
REMARK VINA RESULT:     -13.3      0.000      0.000
REMARK SMILES NS(=O)(=O)c1ccc(-n2nc(C(=O)NCCCCNC(=O)c3ccc(-c4c5nc(c(-c6cc(S(=O)(=O)[O-])ccc6F)c6ccc([nH]6)c(-c6cc(S(=O)(=O)[O-])ccc6F)c6nc(c(-c7cc(S(=O)(=O)[O-])ccc7F)c7ccc4[nH]7)C=C6)C=C5)cc3)cc2-c2ccc(Cl)s2)cc1
REMARK SMILES IDX 16 1 15 2 14 3 12 4 13 5 11 7 9 8 10 9 86 10 85 11 8 12 5 13
REMARK SMILES IDX 6 14 94 15 7 16 93 17 2 18 3 19 4 20 1 21 87 24 88 25 92 26
REMARK SMILES IDX 89 27 90 28 91 29 17 30 18 31 19 32 20 33 21 35 22 36 23 37
REMARK SMILES IDX 84 38 24 39 83 40 25 41 26 42 27 43 77 44 28 45 82 46 76 47
REMARK SMILES IDX 78 48 29 49 81 50 75 51 74 52 30 54 62 55 42 56 61 57 43 58
REMARK SMILES IDX 46 59 60 60 79 61 44 62 45 63 59 65 80 66 47 67 31 68 32 69
REMARK SMILES IDX 40 70 33 71 39 72 41 73 38 74 34 75 35 76 36 77 37 78 63 79
REMARK SMILES IDX 64 80 72 81 65 82 71 83 73 84 70 85 66 86 67 87 68 88 69 89
REMARK SMILES IDX 48 90 49 91 57 92 50 93 56 94 58 95 55 96 51 97 52 98 53 99
REMARK SMILES IDX 54 100
REMARK H PARENT 14 6 1 22 1 23 19 34 78 53 46 64
REMARK Flexibility Score: inf
ROOT
ATOM      1  C   UNL A   1      32.558  28.736  27.349  1.00  0.00     0.023 C 
ENDROOT
BRANCH   1   2
ATOM      2  C   UNL A   1      31.652  27.612  26.831  1.00  0.00     0.116 C 
BRANCH   2   3
ATOM      3  N   UNL A   1      31.306  27.782  25.433  1.00  0.00    -0.351 N 
ATOM      4  C   UNL A   1      31.623  27.094  24.281  1.00  0.00     0.271 C 
ATOM      5  O   UNL A   1      31.130  27.549  23.245  1.00  0.00    -0.267 OA
ATOM      6  H   UNL A   1      30.719  28.556  25.272  1.00  0.00     0.163 HD
BRANCH   4   7
ATOM      7  C   UNL A   1      32.482  25.885  24.275  1.00  0.00     0.151 A 
ATOM      8  N   UNL A   1      32.929  23.771  24.246  1.00  0.00    -0.231 N 
ATOM      9  N   UNL A   1      31.946  24.670  24.009  1.00  0.00    -0.162 NA
ATOM     10  C   UNL A   1      34.144  24.393  24.457  1.00  0.00     0.085 A 
ATOM     11  C   UNL A   1      33.876  25.743  24.471  1.00  0.00     0.066 A 
BRANCH   8  12
ATOM     12  C   UNL A   1      32.679  22.376  24.176  1.00  0.00     0.065 A 
ATOM     13  C   UNL A   1      32.541  19.610  23.944  1.00  0.00     0.082 A 
ATOM     14  C   UNL A   1      32.777  20.182  25.197  1.00  0.00     0.024 A 
ATOM     15  C   UNL A   1      32.304  20.411  22.821  1.00  0.00     0.024 A 
ATOM     16  C   UNL A   1      32.863  21.570  25.310  1.00  0.00     0.030 A 
ATOM     17  C   UNL A   1      32.344  21.803  22.944  1.00  0.00     0.030 A 
BRANCH  13  18
ATOM     18  S   UNL A   1      32.576  17.849  23.781  1.00  0.00     0.238 S 
ATOM     19  O   UNL A   1      31.650  17.250  24.702  1.00  0.00    -0.207 OA
ATOM     20  O   UNL A   1      33.955  17.412  23.659  1.00  0.00    -0.207 OA
BRANCH  18  21
ATOM     21  N   UNL A   1      31.894  17.629  22.259  1.00  0.00    -0.225 NA
ATOM     22  H   UNL A   1      32.159  16.713  21.896  1.00  0.00     0.137 HD
ATOM     23  H   UNL A   1      32.231  18.355  21.626  1.00  0.00     0.137 HD
ENDBRANCH  18  21
ENDBRANCH  13  18
ENDBRANCH   8  12
BRANCH  10  24
ATOM     24  C   UNL A   1      35.434  23.776  24.518  1.00  0.00     0.054 A 
ATOM     25  C   UNL A   1      36.029  23.007  23.539  1.00  0.00     0.024 A 
ATOM     26  S   UNL A   1      36.383  23.833  25.946  1.00  0.00    -0.122 S 
ATOM     27  C   UNL A   1      37.274  22.457  23.970  1.00  0.00     0.033 A 
ATOM     28  C   UNL A   1      37.558  22.832  25.257  1.00  0.00     0.094 A 
ATOM     29  Cl  UNL A   1      38.932  22.373  26.180  1.00  0.00    -0.072 Cl
ENDBRANCH  10  24
ENDBRANCH   4   7
ENDBRANCH   2   3
ENDBRANCH   1   2
BRANCH   1  30
ATOM     30  C   UNL A   1      33.805  29.015  26.491  1.00  0.00     0.023 C 
BRANCH  30  31
ATOM     31  C   UNL A   1      35.150  28.815  27.191  1.00  0.00     0.116 C 
BRANCH  31  32
ATOM     32  N   UNL A   1      35.344  29.696  28.347  1.00  0.00    -0.352 N 
ATOM     33  C   UNL A   1      36.372  29.667  29.279  1.00  0.00     0.251 C 
ATOM     34  H   UNL A   1      34.661  30.393  28.478  1.00  0.00     0.163 HD
ATOM     35  O   UNL A   1      36.206  30.125  30.403  1.00  0.00    -0.269 OA
BRANCH  33  36
ATOM     36  C   UNL A   1      37.671  29.101  28.874  1.00  0.00     0.039 A 
ATOM     37  C   UNL A   1      38.365  29.525  27.737  1.00  0.00     0.014 A 
ATOM     38  C   UNL A   1      38.214  28.137  29.714  1.00  0.00     0.014 A 
ATOM     39  C   UNL A   1      39.650  29.026  27.513  1.00  0.00     0.010 A 
ATOM     40  C   UNL A   1      39.535  27.797  29.600  1.00  0.00     0.010 A 
ATOM     41  C   UNL A   1      40.236  28.174  28.464  1.00  0.00    -0.014 A 
BRANCH  41  42
ATOM     42  C   UNL A   1      41.632  27.754  28.373  1.00  0.00     0.031 A 
ATOM     43  C   UNL A   1      41.823  26.477  27.637  1.00  0.00     0.074 A 
ATOM     44  C   UNL A   1      42.669  28.565  28.686  1.00  0.00     0.049 A 
ATOM     45  N   UNL A   1      42.102  25.316  28.128  1.00  0.00    -0.248 NA
ATOM     46  C   UNL A   1      41.468  26.441  26.208  1.00  0.00     0.031 C 
ATOM     47  C   UNL A   1      42.620  29.975  29.099  1.00  0.00     0.029 A 
ATOM     48  N   UNL A   1      44.008  28.338  28.594  1.00  0.00    -0.354 N 
ATOM     49  C   UNL A   1      42.249  24.472  27.031  1.00  0.00     0.074 A 
ATOM     50  C   UNL A   1      41.593  25.138  25.941  1.00  0.00     0.031 C 
ATOM     51  C   UNL A   1      43.848  30.529  28.991  1.00  0.00     0.029 A 
ATOM     52  C   UNL A   1      44.804  29.480  28.689  1.00  0.00     0.049 A 
ATOM     53  H   UNL A   1      44.385  27.437  28.469  1.00  0.00     0.167 HD
ATOM     54  C   UNL A   1      43.160  23.458  27.050  1.00  0.00     0.034 A 
ATOM     55  C   UNL A   1      46.153  29.570  28.531  1.00  0.00     0.034 A 
ATOM     56  C   UNL A   1      43.618  23.217  28.403  1.00  0.00     0.049 A 
ATOM     57  C   UNL A   1      46.684  28.205  28.763  1.00  0.00     0.074 A 
ATOM     58  C   UNL A   1      43.007  22.874  29.594  1.00  0.00     0.029 A 
ATOM     59  N   UNL A   1      44.847  23.733  28.752  1.00  0.00    -0.354 N 
ATOM     60  N   UNL A   1      46.578  27.579  29.906  1.00  0.00    -0.248 NA
ATOM     61  C   UNL A   1      46.886  27.348  27.606  1.00  0.00     0.031 C 
ATOM     62  C   UNL A   1      43.683  23.643  30.589  1.00  0.00     0.029 A 
ATOM     63  C   UNL A   1      44.731  24.337  29.978  1.00  0.00     0.049 A 
ATOM     64  H   UNL A   1      45.670  23.677  28.213  1.00  0.00     0.167 HD
ATOM     65  C   UNL A   1      46.261  26.270  29.571  1.00  0.00     0.074 A 
ATOM     66  C   UNL A   1      46.568  26.167  28.145  1.00  0.00     0.031 C 
ATOM     67  C   UNL A   1      45.517  25.485  30.406  1.00  0.00     0.034 A 
BRANCH  54  68
ATOM     68  C   UNL A   1      43.954  22.974  25.849  1.00  0.00     0.023 A 
ATOM     69  C   UNL A   1      43.987  21.582  25.628  1.00  0.00     0.031 A 
ATOM     70  C   UNL A   1      44.891  23.727  25.104  1.00  0.00     0.131 A 
ATOM     71  C   UNL A   1      44.977  20.997  24.820  1.00  0.00     0.055 A 
ATOM     72  C   UNL A   1      45.833  23.145  24.250  1.00  0.00     0.041 A 
ATOM     73  F   UNL A   1      45.018  25.053  25.215  1.00  0.00    -0.206 F 
ATOM     74  C   UNL A   1      45.905  21.769  24.131  1.00  0.00     0.022 A 
BRANCH  71  75
ATOM     75  S   UNL A   1      45.143  19.193  24.836  1.00  0.00     0.124 S 
ATOM     76  O   UNL A   1      44.903  18.868  23.435  1.00  0.00    -0.237 OA
ATOM     77  O   UNL A   1      46.510  19.024  25.315  1.00  0.00    -0.237 OA
ATOM     78  O   UNL A   1      44.099  18.767  25.765  1.00  0.00    -0.744 OA
ENDBRANCH  71  75
ENDBRANCH  54  68
BRANCH  55  79
ATOM     79  C   UNL A   1      46.899  30.649  27.813  1.00  0.00     0.023 A 
ATOM     80  C   UNL A   1      46.273  31.723  27.140  1.00  0.00     0.031 A 
ATOM     81  C   UNL A   1      48.298  30.753  27.995  1.00  0.00     0.131 A 
ATOM     82  C   UNL A   1      47.039  32.829  26.686  1.00  0.00     0.055 A 
ATOM     83  C   UNL A   1      49.047  31.845  27.548  1.00  0.00     0.041 A 
ATOM     84  F   UNL A   1      48.976  29.826  28.691  1.00  0.00    -0.206 F 
ATOM     85  C   UNL A   1      48.418  32.893  26.897  1.00  0.00     0.022 A 
BRANCH  82  86
ATOM     86  S   UNL A   1      46.241  34.245  25.853  1.00  0.00     0.124 S 
ATOM     87  O   UNL A   1      45.173  33.603  25.096  1.00  0.00    -0.237 OA
ATOM     88  O   UNL A   1      45.830  35.077  26.978  1.00  0.00    -0.237 OA
ATOM     89  O   UNL A   1      47.315  34.812  25.034  1.00  0.00    -0.744 OA
ENDBRANCH  82  86
ENDBRANCH  55  79
BRANCH  67  90
ATOM     90  C   UNL A   1      45.357  25.903  31.856  1.00  0.00     0.023 A 
ATOM     91  C   UNL A   1      44.176  26.406  32.450  1.00  0.00     0.031 A 
ATOM     92  C   UNL A   1      46.450  25.635  32.701  1.00  0.00     0.131 A 
ATOM     93  C   UNL A   1      44.128  26.611  33.848  1.00  0.00     0.055 A 
ATOM     94  C   UNL A   1      46.389  25.816  34.081  1.00  0.00     0.041 A 
ATOM     95  F   UNL A   1      47.592  25.140  32.196  1.00  0.00    -0.206 F 
ATOM     96  C   UNL A   1      45.227  26.306  34.659  1.00  0.00     0.022 A 
BRANCH  93  97
ATOM     97  S   UNL A   1      42.632  27.282  34.651  1.00  0.00     0.124 S 
ATOM     98  O   UNL A   1      43.166  28.068  35.758  1.00  0.00    -0.237 OA
ATOM     99  O   UNL A   1      42.002  28.040  33.573  1.00  0.00    -0.237 OA
ATOM    100  O   UNL A   1      41.894  26.083  35.059  1.00  0.00    -0.744 OA
ENDBRANCH  93  97
ENDBRANCH  67  90
ENDBRANCH  41  42
ENDBRANCH  33  36
ENDBRANCH  31  32
ENDBRANCH  30  31
ENDBRANCH   1  30
TORSDOF 18
ENDMDL
MODEL 2
REMARK VINA RESULT:     -12.4      1.812      2.850
REMARK SMILES NS(=O)(=O)c1ccc(-n2nc(C(=O)NCCCCNC(=O)c3ccc(-c4c5nc(c(-c6cc(S(=O)(=O)[O-])ccc6F)c6ccc([nH]6)c(-c6cc(S(=O)(=O)[O-])ccc6F)c6nc(c(-c7cc(S(=O)(=O)[O-])ccc7F)c7ccc4[nH]7)C=C6)C=C5)cc3)cc2-c2ccc(Cl)s2)cc1
REMARK SMILES IDX 16 1 15 2 14 3 12 4 13 5 11 7 9 8 10 9 86 10 85 11 8 12 5 13
REMARK SMILES IDX 6 14 94 15 7 16 93 17 2 18 3 19 4 20 1 21 87 24 88 25 92 26
REMARK SMILES IDX 89 27 90 28 91 29 17 30 18 31 19 32 20 33 21 35 22 36 23 37
REMARK SMILES IDX 84 38 24 39 83 40 25 41 26 42 27 43 77 44 28 45 82 46 76 47
REMARK SMILES IDX 78 48 29 49 81 50 75 51 74 52 30 54 62 55 42 56 61 57 43 58
REMARK SMILES IDX 46 59 60 60 79 61 44 62 45 63 59 65 80 66 47 67 31 68 32 69
REMARK SMILES IDX 40 70 33 71 39 72 41 73 38 74 34 75 35 76 36 77 37 78 63 79
REMARK SMILES IDX 64 80 72 81 65 82 71 83 73 84 70 85 66 86 67 87 68 88 69 89
REMARK SMILES IDX 48 90 49 91 57 92 50 93 56 94 58 95 55 96 51 97 52 98 53 99
REMARK SMILES IDX 54 100
REMARK H PARENT 14 6 1 22 1 23 19 34 78 53 46 64
REMARK Flexibility Score: inf
ROOT
ATOM      1  C   UNL A   1      32.721  28.872  26.865  1.00  0.00     0.023 C 
ENDROOT
BRANCH   1   2
ATOM      2  C   UNL A   1      32.077  27.696  26.122  1.00  0.00     0.116 C 
BRANCH   2   3
ATOM      3  N   UNL A   1      32.340  27.732  24.697  1.00  0.00    -0.351 N 
ATOM      4  C   UNL A   1      32.884  26.834  23.804  1.00  0.00     0.271 C 
ATOM      5  O   UNL A   1      32.951  27.228  22.635  1.00  0.00    -0.267 OA
ATOM      6  H   UNL A   1      32.074  28.581  24.276  1.00  0.00     0.163 HD
BRANCH   4   7
ATOM      7  C   UNL A   1      33.345  25.481  24.201  1.00  0.00     0.151 A 
ATOM      8  N   UNL A   1      34.778  23.939  24.687  1.00  0.00    -0.231 N 
ATOM      9  N   UNL A   1      34.637  25.278  24.550  1.00  0.00    -0.162 NA
ATOM     10  C   UNL A   1      33.559  23.294  24.638  1.00  0.00     0.085 A 
ATOM     11  C   UNL A   1      32.633  24.266  24.336  1.00  0.00     0.066 A 
BRANCH   8  12
ATOM     12  C   UNL A   1      36.047  23.357  24.940  1.00  0.00     0.065 A 
ATOM     13  C   UNL A   1      38.372  22.041  25.710  1.00  0.00     0.082 A 
ATOM     14  C   UNL A   1      37.581  21.500  24.692  1.00  0.00     0.024 A 
ATOM     15  C   UNL A   1      38.046  23.270  26.296  1.00  0.00     0.024 A 
ATOM     16  C   UNL A   1      36.406  22.152  24.317  1.00  0.00     0.030 A 
ATOM     17  C   UNL A   1      36.893  23.947  25.888  1.00  0.00     0.030 A 
BRANCH  13  18
ATOM     18  S   UNL A   1      39.781  21.137  26.279  1.00  0.00     0.238 S 
ATOM     19  O   UNL A   1      39.661  19.753  25.911  1.00  0.00    -0.207 OA
ATOM     20  O   UNL A   1      40.105  21.565  27.627  1.00  0.00    -0.207 OA
BRANCH  18  21
ATOM     21  N   UNL A   1      41.005  21.753  25.301  1.00  0.00    -0.225 NA
ATOM     22  H   UNL A   1      41.416  22.573  25.748  1.00  0.00     0.137 HD
ATOM     23  H   UNL A   1      40.617  22.018  24.396  1.00  0.00     0.137 HD
ENDBRANCH  18  21
ENDBRANCH  13  18
ENDBRANCH   8  12
BRANCH  10  24
ATOM     24  C   UNL A   1      33.288  21.926  24.962  1.00  0.00     0.054 A 
ATOM     25  C   UNL A   1      33.515  21.303  26.173  1.00  0.00     0.024 A 
ATOM     26  S   UNL A   1      32.731  20.821  23.774  1.00  0.00    -0.122 S 
ATOM     27  C   UNL A   1      33.232  19.905  26.119  1.00  0.00     0.033 A 
ATOM     28  C   UNL A   1      32.809  19.536  24.869  1.00  0.00     0.094 A 
ATOM     29  Cl  UNL A   1      32.394  17.952  24.352  1.00  0.00    -0.072 Cl
ENDBRANCH  10  24
ENDBRANCH   4   7
ENDBRANCH   2   3
ENDBRANCH   1   2
BRANCH   1  30
ATOM     30  C   UNL A   1      34.134  29.251  26.385  1.00  0.00     0.023 C 
BRANCH  30  31
ATOM     31  C   UNL A   1      35.284  28.785  27.278  1.00  0.00     0.116 C 
BRANCH  31  32
ATOM     32  N   UNL A   1      35.452  29.596  28.487  1.00  0.00    -0.352 N 
ATOM     33  C   UNL A   1      36.468  29.525  29.429  1.00  0.00     0.251 C 
ATOM     34  H   UNL A   1      34.758  30.275  28.651  1.00  0.00     0.163 HD
ATOM     35  O   UNL A   1      36.283  29.911  30.576  1.00  0.00    -0.269 OA
BRANCH  33  36
ATOM     36  C   UNL A   1      37.781  29.002  29.008  1.00  0.00     0.039 A 
ATOM     37  C   UNL A   1      38.451  29.456  27.868  1.00  0.00     0.014 A 
ATOM     38  C   UNL A   1      38.360  28.047  29.835  1.00  0.00     0.014 A 
ATOM     39  C   UNL A   1      39.748  28.997  27.628  1.00  0.00     0.010 A 
ATOM     40  C   UNL A   1      39.689  27.748  29.706  1.00  0.00     0.010 A 
ATOM     41  C   UNL A   1      40.368  28.155  28.567  1.00  0.00    -0.014 A 
BRANCH  41  42
ATOM     42  C   UNL A   1      41.775  27.778  28.460  1.00  0.00     0.031 A 
ATOM     43  C   UNL A   1      41.996  26.502  27.731  1.00  0.00     0.074 A 
ATOM     44  C   UNL A   1      42.791  28.624  28.753  1.00  0.00     0.049 A 
ATOM     45  N   UNL A   1      42.318  25.355  28.227  1.00  0.00    -0.248 NA
ATOM     46  C   UNL A   1      41.623  26.443  26.307  1.00  0.00     0.031 C 
ATOM     47  C   UNL A   1      42.703  30.035  29.156  1.00  0.00     0.029 A 
ATOM     48  N   UNL A   1      44.135  28.438  28.644  1.00  0.00    -0.354 N 
ATOM     49  C   UNL A   1      42.476  24.506  27.135  1.00  0.00     0.074 A 
ATOM     50  C   UNL A   1      41.785  25.143  26.049  1.00  0.00     0.031 C 
ATOM     51  C   UNL A   1      43.911  30.626  29.027  1.00  0.00     0.029 A 
ATOM     52  C   UNL A   1      44.895  29.605  28.719  1.00  0.00     0.049 A 
ATOM     53  H   UNL A   1      44.538  27.548  28.521  1.00  0.00     0.167 HD
ATOM     54  C   UNL A   1      43.419  23.521  27.149  1.00  0.00     0.034 A 
ATOM     55  C   UNL A   1      46.238  29.736  28.542  1.00  0.00     0.034 A 
ATOM     56  C   UNL A   1      43.902  23.306  28.497  1.00  0.00     0.049 A 
ATOM     57  C   UNL A   1      46.815  28.390  28.778  1.00  0.00     0.074 A 
ATOM     58  C   UNL A   1      43.319  22.953  29.699  1.00  0.00     0.029 A 
ATOM     59  N   UNL A   1      45.119  23.862  28.825  1.00  0.00    -0.354 N 
ATOM     60  N   UNL A   1      46.745  27.770  29.926  1.00  0.00    -0.248 NA
ATOM     61  C   UNL A   1      47.029  27.530  27.624  1.00  0.00     0.031 C 
ATOM     62  C   UNL A   1      43.983  23.751  30.678  1.00  0.00     0.029 A 
ATOM     63  C   UNL A   1      45.000  24.473  30.048  1.00  0.00     0.049 A 
ATOM     64  H   UNL A   1      45.936  23.828  28.275  1.00  0.00     0.167 HD
ATOM     65  C   UNL A   1      46.464  26.449  29.605  1.00  0.00     0.074 A 
ATOM     66  C   UNL A   1      46.755  26.344  28.176  1.00  0.00     0.031 C 
ATOM     67  C   UNL A   1      45.756  25.647  30.457  1.00  0.00     0.034 A 
BRANCH  54  68
ATOM     68  C   UNL A   1      44.212  23.053  25.940  1.00  0.00     0.023 A 
ATOM     69  C   UNL A   1      44.295  21.660  25.736  1.00  0.00     0.031 A 
ATOM     70  C   UNL A   1      45.106  23.832  25.170  1.00  0.00     0.131 A 
ATOM     71  C   UNL A   1      45.294  21.104  24.919  1.00  0.00     0.055 A 
ATOM     72  C   UNL A   1      46.056  23.275  24.308  1.00  0.00     0.041 A 
ATOM     73  F   UNL A   1      45.182  25.163  25.262  1.00  0.00    -0.206 F 
ATOM     74  C   UNL A   1      46.180  21.903  24.205  1.00  0.00     0.022 A 
BRANCH  71  75
ATOM     75  S   UNL A   1      45.531  19.308  24.956  1.00  0.00     0.124 S 
ATOM     76  O   UNL A   1      44.279  18.864  25.561  1.00  0.00    -0.237 OA
ATOM     77  O   UNL A   1      45.710  19.002  23.541  1.00  0.00    -0.237 OA
ATOM     78  O   UNL A   1      46.720  19.142  25.787  1.00  0.00    -0.744 OA
ENDBRANCH  71  75
ENDBRANCH  54  68
BRANCH  55  79
ATOM     79  C   UNL A   1      46.941  30.832  27.806  1.00  0.00     0.023 A 
ATOM     80  C   UNL A   1      46.272  31.857  27.099  1.00  0.00     0.031 A 
ATOM     81  C   UNL A   1      48.331  31.008  28.001  1.00  0.00     0.131 A 
ATOM     82  C   UNL A   1      46.990  32.987  26.626  1.00  0.00     0.055 A 
ATOM     83  C   UNL A   1      49.032  32.123  27.535  1.00  0.00     0.041 A 
ATOM     84  F   UNL A   1      49.044  30.132  28.727  1.00  0.00    -0.206 F 
ATOM     85  C   UNL A   1      48.362  33.123  26.851  1.00  0.00     0.022 A 
BRANCH  82  86
ATOM     86  S   UNL A   1      46.135  34.342  25.749  1.00  0.00     0.124 S 
ATOM     87  O   UNL A   1      47.211  34.934  24.962  1.00  0.00    -0.237 OA
ATOM     88  O   UNL A   1      45.102  33.630  25.006  1.00  0.00    -0.237 OA
ATOM     89  O   UNL A   1      45.634  35.190  26.833  1.00  0.00    -0.744 OA
ENDBRANCH  82  86
ENDBRANCH  55  79
BRANCH  67  90
ATOM     90  C   UNL A   1      45.603  26.073  31.905  1.00  0.00     0.023 A 
ATOM     91  C   UNL A   1      44.437  26.616  32.493  1.00  0.00     0.031 A 
ATOM     92  C   UNL A   1      46.681  25.767  32.757  1.00  0.00     0.131 A 
ATOM     93  C   UNL A   1      44.388  26.823  33.890  1.00  0.00     0.055 A 
ATOM     94  C   UNL A   1      46.619  25.951  34.136  1.00  0.00     0.041 A 
ATOM     95  F   UNL A   1      47.808  25.233  32.258  1.00  0.00    -0.206 F 
ATOM     96  C   UNL A   1      45.471  26.482  34.708  1.00  0.00     0.022 A 
BRANCH  93  97
ATOM     97  S   UNL A   1      42.912  27.546  34.685  1.00  0.00     0.124 S 
ATOM     98  O   UNL A   1      42.372  28.430  33.657  1.00  0.00    -0.237 OA
ATOM     99  O   UNL A   1      42.109  26.368  35.001  1.00  0.00    -0.237 OA
ATOM    100  O   UNL A   1      43.457  28.239  35.855  1.00  0.00    -0.744 OA
ENDBRANCH  93  97
ENDBRANCH  67  90
ENDBRANCH  41  42
ENDBRANCH  33  36
ENDBRANCH  31  32
ENDBRANCH  30  31
ENDBRANCH   1  30
TORSDOF 18
ENDMDL
MODEL 3
REMARK VINA RESULT:     -12.0      9.003     16.307
REMARK SMILES NS(=O)(=O)c1ccc(-n2nc(C(=O)NCCCCNC(=O)c3ccc(-c4c5nc(c(-c6cc(S(=O)(=O)[O-])ccc6F)c6ccc([nH]6)c(-c6cc(S(=O)(=O)[O-])ccc6F)c6nc(c(-c7cc(S(=O)(=O)[O-])ccc7F)c7ccc4[nH]7)C=C6)C=C5)cc3)cc2-c2ccc(Cl)s2)cc1
REMARK SMILES IDX 16 1 15 2 14 3 12 4 13 5 11 7 9 8 10 9 86 10 85 11 8 12 5 13
REMARK SMILES IDX 6 14 94 15 7 16 93 17 2 18 3 19 4 20 1 21 87 24 88 25 92 26
REMARK SMILES IDX 89 27 90 28 91 29 17 30 18 31 19 32 20 33 21 35 22 36 23 37
REMARK SMILES IDX 84 38 24 39 83 40 25 41 26 42 27 43 77 44 28 45 82 46 76 47
REMARK SMILES IDX 78 48 29 49 81 50 75 51 74 52 30 54 62 55 42 56 61 57 43 58
REMARK SMILES IDX 46 59 60 60 79 61 44 62 45 63 59 65 80 66 47 67 31 68 32 69
REMARK SMILES IDX 40 70 33 71 39 72 41 73 38 74 34 75 35 76 36 77 37 78 63 79
REMARK SMILES IDX 64 80 72 81 65 82 71 83 73 84 70 85 66 86 67 87 68 88 69 89
REMARK SMILES IDX 48 90 49 91 57 92 50 93 56 94 58 95 55 96 51 97 52 98 53 99
REMARK SMILES IDX 54 100
REMARK H PARENT 14 6 1 22 1 23 19 34 78 53 46 64
REMARK Flexibility Score: inf
ROOT
ATOM      1  C   UNL A   1      41.309  39.966  26.491  1.00  0.00     0.023 C 
ENDROOT
BRANCH   1   2
ATOM      2  C   UNL A   1      42.341  40.750  25.671  1.00  0.00     0.116 C 
BRANCH   2   3
ATOM      3  N   UNL A   1      43.154  41.622  26.496  1.00  0.00    -0.351 N 
ATOM      4  C   UNL A   1      44.175  42.509  26.229  1.00  0.00     0.271 C 
ATOM      5  O   UNL A   1      44.641  43.088  27.215  1.00  0.00    -0.267 OA
ATOM      6  H   UNL A   1      42.930  41.568  27.453  1.00  0.00     0.163 HD
BRANCH   4   7
ATOM      7  C   UNL A   1      44.678  42.770  24.858  1.00  0.00     0.151 A 
ATOM      8  N   UNL A   1      44.542  43.170  22.739  1.00  0.00    -0.231 N 
ATOM      9  N   UNL A   1      43.830  43.189  23.890  1.00  0.00    -0.162 NA
ATOM     10  C   UNL A   1      45.883  42.949  22.978  1.00  0.00     0.085 A 
ATOM     11  C   UNL A   1      45.987  42.700  24.327  1.00  0.00     0.066 A 
BRANCH   8  12
ATOM     12  C   UNL A   1      43.926  43.444  21.491  1.00  0.00     0.065 A 
ATOM     13  C   UNL A   1      42.527  44.235  19.223  1.00  0.00     0.082 A 
ATOM     14  C   UNL A   1      43.785  44.787  19.480  1.00  0.00     0.024 A 
ATOM     15  C   UNL A   1      41.995  43.240  20.052  1.00  0.00     0.024 A 
ATOM     16  C   UNL A   1      44.480  44.402  20.627  1.00  0.00     0.030 A 
ATOM     17  C   UNL A   1      42.712  42.821  21.177  1.00  0.00     0.030 A 
BRANCH  13  18
ATOM     18  S   UNL A   1      41.590  44.832  17.847  1.00  0.00     0.238 S 
ATOM     19  O   UNL A   1      41.603  46.269  17.827  1.00  0.00    -0.207 OA
ATOM     20  O   UNL A   1      40.368  44.057  17.735  1.00  0.00    -0.207 OA
BRANCH  18  21
ATOM     21  N   UNL A   1      42.547  44.361  16.545  1.00  0.00    -0.225 NA
ATOM     22  H   UNL A   1      41.981  44.339  15.697  1.00  0.00     0.137 HD
ATOM     23  H   UNL A   1      42.930  43.433  16.722  1.00  0.00     0.137 HD
ENDBRANCH  18  21
ENDBRANCH  13  18
ENDBRANCH   8  12
BRANCH  10  24
ATOM     24  C   UNL A   1      46.963  43.079  22.046  1.00  0.00     0.054 A 
ATOM     25  C   UNL A   1      47.394  42.128  21.143  1.00  0.00     0.024 A 
ATOM     26  S   UNL A   1      47.969  44.469  22.035  1.00  0.00    -0.122 S 
ATOM     27  C   UNL A   1      48.565  42.546  20.442  1.00  0.00     0.033 A 
ATOM     28  C   UNL A   1      48.966  43.791  20.850  1.00  0.00     0.094 A 
ATOM     29  Cl  UNL A   1      50.339  44.660  20.296  1.00  0.00    -0.072 Cl
ENDBRANCH  10  24
ENDBRANCH   4   7
ENDBRANCH   2   3
ENDBRANCH   1   2
BRANCH   1  30
ATOM     30  C   UNL A   1      41.869  38.752  27.254  1.00  0.00     0.023 C 
BRANCH  30  31
ATOM     31  C   UNL A   1      43.362  38.803  27.577  1.00  0.00     0.116 C 
BRANCH  31  32
ATOM     32  N   UNL A   1      44.154  37.816  26.837  1.00  0.00    -0.352 N 
ATOM     33  C   UNL A   1      44.605  36.580  27.277  1.00  0.00     0.251 C 
ATOM     34  H   UNL A   1      44.396  38.061  25.915  1.00  0.00     0.163 HD
ATOM     35  O   UNL A   1      45.591  36.059  26.769  1.00  0.00    -0.269 OA
BRANCH  33  36
ATOM     36  C   UNL A   1      43.854  35.898  28.346  1.00  0.00     0.039 A 
ATOM     37  C   UNL A   1      43.627  36.470  29.600  1.00  0.00     0.014 A 
ATOM     38  C   UNL A   1      43.327  34.650  28.032  1.00  0.00     0.014 A 
ATOM     39  C   UNL A   1      42.790  35.804  30.498  1.00  0.00     0.010 A 
ATOM     40  C   UNL A   1      42.362  34.097  28.828  1.00  0.00     0.010 A 
ATOM     41  C   UNL A   1      42.144  34.623  30.094  1.00  0.00    -0.014 A 
BRANCH  41  42
ATOM     42  C   UNL A   1      41.130  33.971  30.920  1.00  0.00     0.031 A 
ATOM     43  C   UNL A   1      41.513  33.853  32.351  1.00  0.00     0.074 A 
ATOM     44  C   UNL A   1      39.867  33.740  30.492  1.00  0.00     0.049 A 
ATOM     45  N   UNL A   1      41.887  32.792  32.983  1.00  0.00    -0.248 NA
ATOM     46  C   UNL A   1      41.693  35.093  33.125  1.00  0.00     0.031 C 
ATOM     47  C   UNL A   1      39.263  34.127  29.208  1.00  0.00     0.029 A 
ATOM     48  N   UNL A   1      38.808  33.207  31.160  1.00  0.00    -0.354 N 
ATOM     49  C   UNL A   1      42.061  33.187  34.306  1.00  0.00     0.074 A 
ATOM     50  C   UNL A   1      42.194  34.617  34.268  1.00  0.00     0.031 C 
ATOM     51  C   UNL A   1      37.917  34.031  29.285  1.00  0.00     0.029 A 
ATOM     52  C   UNL A   1      37.570  33.400  30.545  1.00  0.00     0.049 A 
ATOM     53  H   UNL A   1      38.908  32.723  32.011  1.00  0.00     0.167 HD
ATOM     54  C   UNL A   1      41.768  32.337  35.331  1.00  0.00     0.034 A 
ATOM     55  C   UNL A   1      36.341  33.070  31.028  1.00  0.00     0.034 A 
ATOM     56  C   UNL A   1      41.627  30.982  34.837  1.00  0.00     0.049 A 
ATOM     57  C   UNL A   1      36.570  32.019  32.049  1.00  0.00     0.074 A 
ATOM     58  C   UNL A   1      42.444  30.101  34.158  1.00  0.00     0.029 A 
ATOM     59  N   UNL A   1      40.344  30.507  34.665  1.00  0.00    -0.354 N 
ATOM     60  N   UNL A   1      37.083  30.850  31.772  1.00  0.00    -0.248 NA
ATOM     61  C   UNL A   1      36.696  32.435  33.437  1.00  0.00     0.031 C 
ATOM     62  C   UNL A   1      41.585  29.445  33.226  1.00  0.00     0.029 A 
ATOM     63  C   UNL A   1      40.275  29.881  33.447  1.00  0.00     0.049 A 
ATOM     64  H   UNL A   1      39.604  30.601  35.308  1.00  0.00     0.167 HD
ATOM     65  C   UNL A   1      37.963  30.587  32.813  1.00  0.00     0.074 A 
ATOM     66  C   UNL A   1      37.603  31.547  33.855  1.00  0.00     0.031 C 
ATOM     67  C   UNL A   1      39.077  29.817  32.623  1.00  0.00     0.034 A 
BRANCH  54  68
ATOM     68  C   UNL A   1      41.193  32.753  36.675  1.00  0.00     0.023 A 
ATOM     69  C   UNL A   1      39.891  32.303  36.974  1.00  0.00     0.031 A 
ATOM     70  C   UNL A   1      41.695  33.765  37.525  1.00  0.00     0.131 A 
ATOM     71  C   UNL A   1      39.118  32.926  37.969  1.00  0.00     0.055 A 
ATOM     72  C   UNL A   1      40.944  34.337  38.556  1.00  0.00     0.041 A 
ATOM     73  F   UNL A   1      42.897  34.326  37.364  1.00  0.00    -0.206 F 
ATOM     74  C   UNL A   1      39.634  33.945  38.761  1.00  0.00     0.022 A 
BRANCH  71  75
ATOM     75  S   UNL A   1      37.360  32.503  38.080  1.00  0.00     0.124 S 
ATOM     76  O   UNL A   1      37.040  32.949  39.432  1.00  0.00    -0.237 OA
ATOM     77  O   UNL A   1      36.795  33.288  36.989  1.00  0.00    -0.237 OA
ATOM     78  O   UNL A   1      37.348  31.056  37.880  1.00  0.00    -0.744 OA
ENDBRANCH  71  75
ENDBRANCH  54  68
BRANCH  55  79
ATOM     79  C   UNL A   1      35.094  33.891  30.936  1.00  0.00     0.023 A 
ATOM     80  C   UNL A   1      34.712  34.850  31.902  1.00  0.00     0.031 A 
ATOM     81  C   UNL A   1      34.365  33.897  29.724  1.00  0.00     0.131 A 
ATOM     82  C   UNL A   1      33.649  35.752  31.634  1.00  0.00     0.055 A 
ATOM     83  C   UNL A   1      33.321  34.789  29.465  1.00  0.00     0.041 A 
ATOM     84  F   UNL A   1      34.700  33.080  28.711  1.00  0.00    -0.206 F 
ATOM     85  C   UNL A   1      32.962  35.727  30.418  1.00  0.00     0.022 A 
BRANCH  82  86
ATOM     86  S   UNL A   1      33.169  37.025  32.853  1.00  0.00     0.124 S 
ATOM     87  O   UNL A   1      31.774  36.695  33.119  1.00  0.00    -0.237 OA
ATOM     88  O   UNL A   1      34.112  36.788  33.939  1.00  0.00    -0.237 OA
ATOM     89  O   UNL A   1      33.372  38.284  32.132  1.00  0.00    -0.744 OA
ENDBRANCH  82  86
ENDBRANCH  55  79
BRANCH  67  90
ATOM     90  C   UNL A   1      39.158  28.939  31.388  1.00  0.00     0.023 A 
ATOM     91  C   UNL A   1      39.816  29.265  30.178  1.00  0.00     0.031 A 
ATOM     92  C   UNL A   1      38.646  27.635  31.521  1.00  0.00     0.131 A 
ATOM     93  C   UNL A   1      39.943  28.288  29.165  1.00  0.00     0.055 A 
ATOM     94  C   UNL A   1      38.795  26.669  30.529  1.00  0.00     0.041 A 
ATOM     95  F   UNL A   1      38.028  27.263  32.653  1.00  0.00    -0.206 F 
ATOM     96  C   UNL A   1      39.443  26.993  29.346  1.00  0.00     0.022 A 
BRANCH  93  97
ATOM     97  S   UNL A   1      40.761  28.676  27.580  1.00  0.00     0.124 S 
ATOM     98  O   UNL A   1      39.705  29.310  26.799  1.00  0.00    -0.237 OA
ATOM     99  O   UNL A   1      41.861  29.544  27.991  1.00  0.00    -0.237 OA
ATOM    100  O   UNL A   1      41.181  27.364  27.080  1.00  0.00    -0.744 OA
ENDBRANCH  93  97
ENDBRANCH  67  90
ENDBRANCH  41  42
ENDBRANCH  33  36
ENDBRANCH  31  32
ENDBRANCH  30  31
ENDBRANCH   1  30
TORSDOF 18
ENDMDL
