MODEL 1
REMARK VINA RESULT:     -13.3      0.000      0.000
REMARK SMILES C[C@]1(C(=O)NCCCCNC(=O)c2ccc(-c3c4nc(c(-c5cc(S(=O)(=O)[O-])ccc5F)c5ccc([nH]5)c(-c5cc(S(=O)(=O)[O-])ccc5F)c5nc(c(-c6cc(S(=O)(=O)[O-])ccc6F)c6ccc3[nH]6)C=C5)C=C4)cc2)[NH2+]C2(C(=O)c3ccccc3C2=O)[C@@H]2C(=O)N(c3ccccc3)C(=O)[C@H]21
REMARK SMILES IDX 8 1 7 2 6 3 5 4 3 5 4 6 2 8 1 9 76 10 100 11 77 12 88 15
REMARK SMILES IDX 98 16 78 17 86 18 89 19 91 20 99 21 79 22 80 23 85 24 87 25
REMARK SMILES IDX 90 26 81 27 84 28 82 29 83 30 92 31 93 32 97 33 94 34 96 35
REMARK SMILES IDX 95 36 9 37 10 38 11 39 12 41 13 42 14 43 75 44 15 45 74 46
REMARK SMILES IDX 16 47 17 48 18 49 68 50 19 51 73 52 67 53 69 54 20 55 72 56
REMARK SMILES IDX 66 57 65 58 21 60 53 61 33 62 52 63 34 64 37 65 51 66 70 67
REMARK SMILES IDX 35 68 36 69 50 71 71 72 38 73 22 74 23 75 31 76 24 77 30 78
REMARK SMILES IDX 32 79 29 80 25 81 26 82 27 83 28 84 54 85 55 86 63 87 56 88
REMARK SMILES IDX 62 89 64 90 61 91 57 92 58 93 59 94 60 95 39 96 40 97 48 98
REMARK SMILES IDX 41 99 47 100 49 101 46 102 42 103 43 104 44 105 45 106
REMARK H PARENT 5 7 76 13 76 14 10 40 69 59 37 70
REMARK Flexibility Score: inf
ROOT
ATOM      1  C   UNL A   1      35.120  32.580  27.662  1.00  0.00     0.023 C 
ENDROOT
BRANCH   1   2
ATOM      2  C   UNL A   1      33.984  31.786  28.264  1.00  0.00     0.023 C 
BRANCH   2   3
ATOM      3  C   UNL A   1      33.245  30.860  27.308  1.00  0.00     0.116 C 
BRANCH   3   4
ATOM      4  N   UNL A   1      32.632  29.679  27.833  1.00  0.00    -0.351 N 
ATOM      5  C   UNL A   1      32.605  28.393  27.384  1.00  0.00     0.281 C 
ATOM      6  O   UNL A   1      32.005  27.626  28.155  1.00  0.00    -0.268 OA
ATOM      7  H   UNL A   1      32.139  29.822  28.674  1.00  0.00     0.163 HD
BRANCH   5   8
ATOM      8  C   UNL A   1      33.255  27.804  26.045  1.00  0.00     0.186 C 
ATOM      9  C   UNL A   1      34.581  28.590  25.863  1.00  0.00     0.091 C 
ATOM     10  N   UNL A   1      33.604  26.329  26.091  1.00  0.00    -0.314 N 
ATOM     11  C   UNL A   1      32.503  27.854  24.748  1.00  0.00     0.170 C 
ATOM     12  C   UNL A   1      32.637  25.552  25.205  1.00  0.00     0.236 C 
ATOM     13  H   UNL A   1      33.530  25.992  27.051  1.00  0.00     0.348 HD
ATOM     14  H   UNL A   1      34.557  26.194  25.756  1.00  0.00     0.348 HD
ATOM     15  C   UNL A   1      31.657  26.598  24.718  1.00  0.00     0.177 C 
ATOM     16  C   UNL A   1      31.529  28.885  24.324  1.00  0.00     0.244 C 
ATOM     17  C   UNL A   1      33.294  24.755  24.071  1.00  0.00     0.232 C 
ATOM     18  C   UNL A   1      32.108  24.394  26.086  1.00  0.00     0.232 C 
ATOM     19  C   UNL A   1      30.939  26.835  23.422  1.00  0.00     0.245 C 
ATOM     20  N   UNL A   1      30.728  28.221  23.398  1.00  0.00    -0.250 N 
ATOM     21  O   UNL A   1      31.517  30.050  24.686  1.00  0.00    -0.273 OA
ATOM     22  O   UNL A   1      34.043  25.195  23.217  1.00  0.00    -0.286 OA
ATOM     23  C   UNL A   1      32.880  23.338  24.186  1.00  0.00     0.036 A 
ATOM     24  C   UNL A   1      32.147  23.161  25.345  1.00  0.00     0.036 A 
ATOM     25  O   UNL A   1      31.846  24.357  27.275  1.00  0.00    -0.286 OA
ATOM     26  O   UNL A   1      30.511  25.959  22.694  1.00  0.00    -0.273 OA
ATOM     27  C   UNL A   1      33.154  22.246  23.386  1.00  0.00     0.013 A 
ATOM     28  C   UNL A   1      31.655  21.940  25.774  1.00  0.00     0.013 A 
ATOM     29  C   UNL A   1      32.661  20.991  23.789  1.00  0.00     0.001 A 
ATOM     30  C   UNL A   1      31.912  20.838  24.972  1.00  0.00     0.001 A 
BRANCH  20  31
ATOM     31  C   UNL A   1      29.697  28.894  22.720  1.00  0.00     0.052 A 
ATOM     32  C   UNL A   1      30.010  29.895  21.789  1.00  0.00     0.027 A 
ATOM     33  C   UNL A   1      28.366  28.708  23.108  1.00  0.00     0.027 A 
ATOM     34  C   UNL A   1      29.002  30.693  21.244  1.00  0.00     0.002 A 
ATOM     35  C   UNL A   1      27.368  29.547  22.602  1.00  0.00     0.002 A 
ATOM     36  C   UNL A   1      27.685  30.533  21.667  1.00  0.00     0.000 A 
ENDBRANCH  20  31
ENDBRANCH   5   8
ENDBRANCH   3   4
ENDBRANCH   2   3
ENDBRANCH   1   2
BRANCH   1  37
ATOM     37  C   UNL A   1      35.149  34.053  28.051  1.00  0.00     0.116 C 
BRANCH  37  38
ATOM     38  N   UNL A   1      33.884  34.598  28.554  1.00  0.00    -0.352 N 
ATOM     39  C   UNL A   1      33.466  34.774  29.862  1.00  0.00     0.251 C 
ATOM     40  H   UNL A   1      33.241  34.879  27.864  1.00  0.00     0.163 HD
ATOM     41  O   UNL A   1      32.356  35.233  30.111  1.00  0.00    -0.269 OA
BRANCH  39  42
ATOM     42  C   UNL A   1      34.364  34.327  30.947  1.00  0.00     0.039 A 
ATOM     43  C   UNL A   1      35.554  35.013  31.155  1.00  0.00     0.014 A 
ATOM     44  C   UNL A   1      34.129  33.102  31.573  1.00  0.00     0.014 A 
ATOM     45  C   UNL A   1      36.626  34.313  31.686  1.00  0.00     0.010 A 
ATOM     46  C   UNL A   1      35.170  32.481  32.271  1.00  0.00     0.010 A 
ATOM     47  C   UNL A   1      36.458  33.034  32.248  1.00  0.00    -0.014 A 
BRANCH  47  48
ATOM     48  C   UNL A   1      37.653  32.312  32.777  1.00  0.00     0.031 A 
ATOM     49  C   UNL A   1      38.379  31.270  31.959  1.00  0.00     0.074 A 
ATOM     50  C   UNL A   1      38.139  32.670  33.983  1.00  0.00     0.049 A 
ATOM     51  N   UNL A   1      39.433  30.561  32.282  1.00  0.00    -0.248 NA
ATOM     52  C   UNL A   1      37.859  30.969  30.614  1.00  0.00     0.031 C 
ATOM     53  C   UNL A   1      37.532  33.675  34.859  1.00  0.00     0.029 A 
ATOM     54  N   UNL A   1      39.263  32.278  34.666  1.00  0.00    -0.354 N 
ATOM     55  C   UNL A   1      39.673  29.708  31.209  1.00  0.00     0.074 A 
ATOM     56  C   UNL A   1      38.643  29.969  30.229  1.00  0.00     0.031 C 
ATOM     57  C   UNL A   1      38.337  33.897  35.902  1.00  0.00     0.029 A 
ATOM     58  C   UNL A   1      39.450  32.957  35.849  1.00  0.00     0.049 A 
ATOM     59  H   UNL A   1      39.876  31.580  34.341  1.00  0.00     0.167 HD
ATOM     60  C   UNL A   1      40.668  28.799  31.054  1.00  0.00     0.034 A 
ATOM     61  C   UNL A   1      40.388  32.826  36.809  1.00  0.00     0.034 A 
ATOM     62  C   UNL A   1      41.717  28.588  32.023  1.00  0.00     0.049 A 
ATOM     63  C   UNL A   1      41.468  31.800  36.620  1.00  0.00     0.074 A 
ATOM     64  C   UNL A   1      42.788  27.715  31.944  1.00  0.00     0.029 A 
ATOM     65  N   UNL A   1      41.841  29.258  33.232  1.00  0.00    -0.354 N 
ATOM     66  N   UNL A   1      41.679  31.008  35.596  1.00  0.00    -0.248 NA
ATOM     67  C   UNL A   1      42.431  31.636  37.717  1.00  0.00     0.031 C 
ATOM     68  C   UNL A   1      43.519  27.808  33.129  1.00  0.00     0.029 A 
ATOM     69  C   UNL A   1      42.953  28.796  33.919  1.00  0.00     0.049 A 
ATOM     70  H   UNL A   1      41.229  29.959  33.556  1.00  0.00     0.167 HD
ATOM     71  C   UNL A   1      42.801  30.254  35.921  1.00  0.00     0.074 A 
ATOM     72  C   UNL A   1      43.246  30.714  37.220  1.00  0.00     0.031 C 
ATOM     73  C   UNL A   1      43.396  29.262  35.212  1.00  0.00     0.034 A 
BRANCH  60  74
ATOM     74  C   UNL A   1      40.706  27.951  29.803  1.00  0.00     0.023 A 
ATOM     75  C   UNL A   1      41.630  28.252  28.780  1.00  0.00     0.031 A 
ATOM     76  C   UNL A   1      39.744  26.956  29.552  1.00  0.00     0.131 A 
ATOM     77  C   UNL A   1      41.545  27.595  27.545  1.00  0.00     0.055 A 
ATOM     78  C   UNL A   1      39.693  26.274  28.334  1.00  0.00     0.041 A 
ATOM     79  F   UNL A   1      38.839  26.633  30.489  1.00  0.00    -0.206 F 
ATOM     80  C   UNL A   1      40.587  26.603  27.320  1.00  0.00     0.022 A 
BRANCH  77  81
ATOM     81  S   UNL A   1      42.623  28.055  26.159  1.00  0.00     0.124 S 
ATOM     82  O   UNL A   1      42.474  29.510  26.134  1.00  0.00    -0.237 OA
ATOM     83  O   UNL A   1      43.925  27.569  26.610  1.00  0.00    -0.237 OA
ATOM     84  O   UNL A   1      42.048  27.354  25.018  1.00  0.00    -0.744 OA
ENDBRANCH  77  81
ENDBRANCH  60  74
BRANCH  61  85
ATOM     85  C   UNL A   1      40.321  33.713  38.007  1.00  0.00     0.023 A 
ATOM     86  C   UNL A   1      39.529  33.364  39.118  1.00  0.00     0.031 A 
ATOM     87  C   UNL A   1      40.923  34.981  38.002  1.00  0.00     0.131 A 
ATOM     88  C   UNL A   1      39.274  34.308  40.119  1.00  0.00     0.055 A 
ATOM     89  C   UNL A   1      40.740  35.887  39.048  1.00  0.00     0.041 A 
ATOM     90  F   UNL A   1      41.678  35.368  36.961  1.00  0.00    -0.206 F 
ATOM     91  C   UNL A   1      39.890  35.561  40.102  1.00  0.00     0.022 A 
BRANCH  88  92
ATOM     92  S   UNL A   1      37.995  34.005  41.372  1.00  0.00     0.124 S 
ATOM     93  O   UNL A   1      38.721  33.221  42.365  1.00  0.00    -0.237 OA
ATOM     94  O   UNL A   1      37.642  35.365  41.773  1.00  0.00    -0.237 OA
ATOM     95  O   UNL A   1      36.956  33.290  40.637  1.00  0.00    -0.744 OA
ENDBRANCH  88  92
ENDBRANCH  61  85
BRANCH  73  96
ATOM     96  C   UNL A   1      44.601  28.579  35.811  1.00  0.00     0.023 A 
ATOM     97  C   UNL A   1      44.432  27.560  36.767  1.00  0.00     0.031 A 
ATOM     98  C   UNL A   1      45.904  29.034  35.545  1.00  0.00     0.131 A 
ATOM     99  C   UNL A   1      45.544  27.061  37.456  1.00  0.00     0.055 A 
ATOM    100  C   UNL A   1      47.015  28.497  36.197  1.00  0.00     0.041 A 
ATOM    101  F   UNL A   1      46.116  30.010  34.647  1.00  0.00    -0.206 F 
ATOM    102  C   UNL A   1      46.835  27.517  37.169  1.00  0.00     0.022 A 
BRANCH  99 103
ATOM    103  S   UNL A   1      45.348  25.872  38.812  1.00  0.00     0.124 S 
ATOM    104  O   UNL A   1      44.268  26.476  39.588  1.00  0.00    -0.237 OA
ATOM    105  O   UNL A   1      44.994  24.649  38.098  1.00  0.00    -0.237 OA
ATOM    106  O   UNL A   1      46.653  25.863  39.465  1.00  0.00    -0.744 OA
ENDBRANCH  99 103
ENDBRANCH  73  96
ENDBRANCH  47  48
ENDBRANCH  39  42
ENDBRANCH  37  38
ENDBRANCH   1  37
TORSDOF 15
ENDMDL
MODEL 2
REMARK VINA RESULT:     -13.2      5.379      7.505
REMARK SMILES C[C@]1(C(=O)NCCCCNC(=O)c2ccc(-c3c4nc(c(-c5cc(S(=O)(=O)[O-])ccc5F)c5ccc([nH]5)c(-c5cc(S(=O)(=O)[O-])ccc5F)c5nc(c(-c6cc(S(=O)(=O)[O-])ccc6F)c6ccc3[nH]6)C=C5)C=C4)cc2)[NH2+]C2(C(=O)c3ccccc3C2=O)[C@@H]2C(=O)N(c3ccccc3)C(=O)[C@H]21
REMARK SMILES IDX 8 1 7 2 6 3 5 4 3 5 4 6 2 8 1 9 76 10 100 11 77 12 88 15
REMARK SMILES IDX 98 16 78 17 86 18 89 19 91 20 99 21 79 22 80 23 85 24 87 25
REMARK SMILES IDX 90 26 81 27 84 28 82 29 83 30 92 31 93 32 97 33 94 34 96 35
REMARK SMILES IDX 95 36 9 37 10 38 11 39 12 41 13 42 14 43 75 44 15 45 74 46
REMARK SMILES IDX 16 47 17 48 18 49 68 50 19 51 73 52 67 53 69 54 20 55 72 56
REMARK SMILES IDX 66 57 65 58 21 60 53 61 33 62 52 63 34 64 37 65 51 66 70 67
REMARK SMILES IDX 35 68 36 69 50 71 71 72 38 73 22 74 23 75 31 76 24 77 30 78
REMARK SMILES IDX 32 79 29 80 25 81 26 82 27 83 28 84 54 85 55 86 63 87 56 88
REMARK SMILES IDX 62 89 64 90 61 91 57 92 58 93 59 94 60 95 39 96 40 97 48 98
REMARK SMILES IDX 41 99 47 100 49 101 46 102 42 103 43 104 44 105 45 106
REMARK H PARENT 5 7 76 13 76 14 10 40 69 59 37 70
REMARK Flexibility Score: inf
ROOT
ATOM      1  C   UNL A   1      35.209  32.151  28.040  1.00  0.00     0.023 C 
ENDROOT
BRANCH   1   2
ATOM      2  C   UNL A   1      33.709  31.978  28.092  1.00  0.00     0.023 C 
BRANCH   2   3
ATOM      3  C   UNL A   1      33.135  30.903  27.181  1.00  0.00     0.116 C 
BRANCH   3   4
ATOM      4  N   UNL A   1      32.617  29.708  27.771  1.00  0.00    -0.351 N 
ATOM      5  C   UNL A   1      32.658  28.405  27.373  1.00  0.00     0.281 C 
ATOM      6  O   UNL A   1      32.135  27.634  28.192  1.00  0.00    -0.268 OA
ATOM      7  H   UNL A   1      32.143  29.853  28.622  1.00  0.00     0.163 HD
BRANCH   5   8
ATOM      8  C   UNL A   1      33.302  27.805  26.035  1.00  0.00     0.186 C 
ATOM      9  C   UNL A   1      34.623  28.595  25.836  1.00  0.00     0.091 C 
ATOM     10  N   UNL A   1      33.657  26.332  26.094  1.00  0.00    -0.314 N 
ATOM     11  C   UNL A   1      32.542  27.840  24.743  1.00  0.00     0.170 C 
ATOM     12  C   UNL A   1      32.688  25.543  25.222  1.00  0.00     0.236 C 
ATOM     13  H   UNL A   1      33.591  26.005  27.058  1.00  0.00     0.348 HD
ATOM     14  H   UNL A   1      34.609  26.198  25.754  1.00  0.00     0.348 HD
ATOM     15  C   UNL A   1      31.701  26.579  24.731  1.00  0.00     0.177 C 
ATOM     16  C   UNL A   1      31.560  28.862  24.314  1.00  0.00     0.244 C 
ATOM     17  C   UNL A   1      33.341  24.736  24.092  1.00  0.00     0.232 C 
ATOM     18  C   UNL A   1      32.169  24.392  26.119  1.00  0.00     0.232 C 
ATOM     19  C   UNL A   1      30.972  26.801  23.437  1.00  0.00     0.245 C 
ATOM     20  N   UNL A   1      30.756  28.185  23.401  1.00  0.00    -0.250 N 
ATOM     21  O   UNL A   1      31.546  30.031  24.665  1.00  0.00    -0.273 OA
ATOM     22  O   UNL A   1      34.083  25.171  23.229  1.00  0.00    -0.286 OA
ATOM     23  C   UNL A   1      32.933  23.320  24.224  1.00  0.00     0.036 A 
ATOM     24  C   UNL A   1      32.209  23.151  25.390  1.00  0.00     0.036 A 
ATOM     25  O   UNL A   1      31.916  24.366  27.309  1.00  0.00    -0.286 OA
ATOM     26  O   UNL A   1      30.544  25.915  22.721  1.00  0.00    -0.273 OA
ATOM     27  C   UNL A   1      33.206  22.220  23.433  1.00  0.00     0.013 A 
ATOM     28  C   UNL A   1      31.725  21.932  25.835  1.00  0.00     0.013 A 
ATOM     29  C   UNL A   1      32.721  20.967  23.852  1.00  0.00     0.001 A 
ATOM     30  C   UNL A   1      31.981  20.824  25.042  1.00  0.00     0.001 A 
BRANCH  20  31
ATOM     31  C   UNL A   1      29.717  28.847  22.723  1.00  0.00     0.052 A 
ATOM     32  C   UNL A   1      30.019  29.853  21.794  1.00  0.00     0.027 A 
ATOM     33  C   UNL A   1      28.388  28.644  23.109  1.00  0.00     0.027 A 
ATOM     34  C   UNL A   1      29.003  30.641  21.249  1.00  0.00     0.002 A 
ATOM     35  C   UNL A   1      27.382  29.472  22.604  1.00  0.00     0.002 A 
ATOM     36  C   UNL A   1      27.687  30.464  21.671  1.00  0.00     0.000 A 
ENDBRANCH  20  31
ENDBRANCH   5   8
ENDBRANCH   3   4
ENDBRANCH   2   3
ENDBRANCH   1   2
BRANCH   1  37
ATOM     37  C   UNL A   1      35.796  33.001  29.160  1.00  0.00     0.116 C 
BRANCH  37  38
ATOM     38  N   UNL A   1      35.138  32.869  30.463  1.00  0.00    -0.352 N 
ATOM     39  C   UNL A   1      35.429  32.008  31.508  1.00  0.00     0.251 C 
ATOM     40  H   UNL A   1      34.382  33.479  30.618  1.00  0.00     0.163 HD
ATOM     41  O   UNL A   1      34.760  32.016  32.535  1.00  0.00    -0.269 OA
BRANCH  39  42
ATOM     42  C   UNL A   1      36.521  31.031  31.321  1.00  0.00     0.039 A 
ATOM     43  C   UNL A   1      37.753  31.285  31.912  1.00  0.00     0.014 A 
ATOM     44  C   UNL A   1      36.382  30.015  30.374  1.00  0.00     0.014 A 
ATOM     45  C   UNL A   1      38.888  30.775  31.301  1.00  0.00     0.010 A 
ATOM     46  C   UNL A   1      37.524  29.369  29.892  1.00  0.00     0.010 A 
ATOM     47  C   UNL A   1      38.798  29.813  30.277  1.00  0.00    -0.014 A 
BRANCH  47  48
ATOM     48  C   UNL A   1      40.051  29.322  29.632  1.00  0.00     0.031 A 
ATOM     49  C   UNL A   1      40.113  27.987  28.929  1.00  0.00     0.074 A 
ATOM     50  C   UNL A   1      41.124  30.140  29.608  1.00  0.00     0.049 A 
ATOM     51  N   UNL A   1      41.130  27.428  28.320  1.00  0.00    -0.248 NA
ATOM     52  C   UNL A   1      38.893  27.163  28.913  1.00  0.00     0.031 C 
ATOM     53  C   UNL A   1      41.177  31.460  30.239  1.00  0.00     0.029 A 
ATOM     54  N   UNL A   1      42.349  30.017  29.002  1.00  0.00    -0.354 N 
ATOM     55  C   UNL A   1      40.688  26.179  27.889  1.00  0.00     0.074 A 
ATOM     56  C   UNL A   1      39.316  26.050  28.325  1.00  0.00     0.031 C 
ATOM     57  C   UNL A   1      42.320  32.065  29.903  1.00  0.00     0.029 A 
ATOM     58  C   UNL A   1      43.145  31.130  29.148  1.00  0.00     0.049 A 
ATOM     59  H   UNL A   1      42.631  29.211  28.511  1.00  0.00     0.167 HD
ATOM     60  C   UNL A   1      41.364  25.236  27.188  1.00  0.00     0.034 A 
ATOM     61  C   UNL A   1      44.412  31.374  28.752  1.00  0.00     0.034 A 
ATOM     62  C   UNL A   1      42.718  25.404  26.719  1.00  0.00     0.049 A 
ATOM     63  C   UNL A   1      45.143  30.305  27.992  1.00  0.00     0.074 A 
ATOM     64  C   UNL A   1      43.479  24.521  25.972  1.00  0.00     0.029 A 
ATOM     65  N   UNL A   1      43.509  26.525  26.932  1.00  0.00    -0.354 N 
ATOM     66  N   UNL A   1      44.705  29.135  27.592  1.00  0.00    -0.248 NA
ATOM     67  C   UNL A   1      46.542  30.576  27.639  1.00  0.00     0.031 C 
ATOM     68  C   UNL A   1      44.747  25.076  25.793  1.00  0.00     0.029 A 
ATOM     69  C   UNL A   1      44.758  26.341  26.358  1.00  0.00     0.049 A 
ATOM     70  H   UNL A   1      43.226  27.332  27.421  1.00  0.00     0.167 HD
ATOM     71  C   UNL A   1      45.771  28.531  26.936  1.00  0.00     0.074 A 
ATOM     72  C   UNL A   1      46.863  29.484  26.958  1.00  0.00     0.031 C 
ATOM     73  C   UNL A   1      45.841  27.296  26.379  1.00  0.00     0.034 A 
BRANCH  60  74
ATOM     74  C   UNL A   1      40.680  23.928  26.861  1.00  0.00     0.023 A 
ATOM     75  C   UNL A   1      39.455  23.932  26.162  1.00  0.00     0.031 A 
ATOM     76  C   UNL A   1      41.149  22.700  27.362  1.00  0.00     0.131 A 
ATOM     77  C   UNL A   1      38.724  22.744  26.022  1.00  0.00     0.055 A 
ATOM     78  C   UNL A   1      40.438  21.511  27.180  1.00  0.00     0.041 A 
ATOM     79  F   UNL A   1      42.308  22.639  28.037  1.00  0.00    -0.206 F 
ATOM     80  C   UNL A   1      39.213  21.534  26.521  1.00  0.00     0.022 A 
BRANCH  77  81
ATOM     81  S   UNL A   1      37.079  22.737  25.256  1.00  0.00     0.124 S 
ATOM     82  O   UNL A   1      37.375  22.238  23.915  1.00  0.00    -0.237 OA
ATOM     83  O   UNL A   1      36.345  21.814  26.117  1.00  0.00    -0.237 OA
ATOM     84  O   UNL A   1      36.655  24.131  25.319  1.00  0.00    -0.744 OA
ENDBRANCH  77  81
ENDBRANCH  60  74
BRANCH  61  85
ATOM     85  C   UNL A   1      45.025  32.696  29.073  1.00  0.00     0.023 A 
ATOM     86  C   UNL A   1      44.910  33.778  28.178  1.00  0.00     0.031 A 
ATOM     87  C   UNL A   1      45.852  32.856  30.195  1.00  0.00     0.131 A 
ATOM     88  C   UNL A   1      45.692  34.924  28.364  1.00  0.00     0.055 A 
ATOM     89  C   UNL A   1      46.560  34.037  30.425  1.00  0.00     0.041 A 
ATOM     90  F   UNL A   1      46.005  31.851  31.072  1.00  0.00    -0.206 F 
ATOM     91  C   UNL A   1      46.502  35.070  29.493  1.00  0.00     0.022 A 
BRANCH  88  92
ATOM     92  S   UNL A   1      45.821  36.177  27.056  1.00  0.00     0.124 S 
ATOM     93  O   UNL A   1      46.612  35.483  26.046  1.00  0.00    -0.237 OA
ATOM     94  O   UNL A   1      44.418  36.403  26.718  1.00  0.00    -0.237 OA
ATOM     95  O   UNL A   1      46.483  37.298  27.718  1.00  0.00    -0.744 OA
ENDBRANCH  88  92
ENDBRANCH  61  85
BRANCH  73  96
ATOM     96  C   UNL A   1      47.141  26.870  25.743  1.00  0.00     0.023 A 
ATOM     97  C   UNL A   1      48.128  26.229  26.516  1.00  0.00     0.031 A 
ATOM     98  C   UNL A   1      47.459  27.229  24.421  1.00  0.00     0.131 A 
ATOM     99  C   UNL A   1      49.400  26.006  25.974  1.00  0.00     0.055 A 
ATOM    100  C   UNL A   1      48.711  26.957  23.869  1.00  0.00     0.041 A 
ATOM    101  F   UNL A   1      46.554  27.850  23.647  1.00  0.00    -0.206 F 
ATOM    102  C   UNL A   1      49.693  26.357  24.652  1.00  0.00     0.022 A 
BRANCH  99 103
ATOM    103  S   UNL A   1      50.745  25.338  26.991  1.00  0.00     0.124 S 
ATOM    104  O   UNL A   1      51.164  26.515  27.748  1.00  0.00    -0.237 OA
ATOM    105  O   UNL A   1      50.060  24.308  27.768  1.00  0.00    -0.237 OA
ATOM    106  O   UNL A   1      51.714  24.848  26.017  1.00  0.00    -0.744 OA
ENDBRANCH  99 103
ENDBRANCH  73  96
ENDBRANCH  47  48
ENDBRANCH  39  42
ENDBRANCH  37  38
ENDBRANCH   1  37
TORSDOF 15
ENDMDL
MODEL 3
REMARK VINA RESULT:     -13.0      0.620      7.331
REMARK SMILES C[C@]1(C(=O)NCCCCNC(=O)c2ccc(-c3c4nc(c(-c5cc(S(=O)(=O)[O-])ccc5F)c5ccc([nH]5)c(-c5cc(S(=O)(=O)[O-])ccc5F)c5nc(c(-c6cc(S(=O)(=O)[O-])ccc6F)c6ccc3[nH]6)C=C5)C=C4)cc2)[NH2+]C2(C(=O)c3ccccc3C2=O)[C@@H]2C(=O)N(c3ccccc3)C(=O)[C@H]21
REMARK SMILES IDX 8 1 7 2 6 3 5 4 3 5 4 6 2 8 1 9 76 10 100 11 77 12 88 15
REMARK SMILES IDX 98 16 78 17 86 18 89 19 91 20 99 21 79 22 80 23 85 24 87 25
REMARK SMILES IDX 90 26 81 27 84 28 82 29 83 30 92 31 93 32 97 33 94 34 96 35
REMARK SMILES IDX 95 36 9 37 10 38 11 39 12 41 13 42 14 43 75 44 15 45 74 46
REMARK SMILES IDX 16 47 17 48 18 49 68 50 19 51 73 52 67 53 69 54 20 55 72 56
REMARK SMILES IDX 66 57 65 58 21 60 53 61 33 62 52 63 34 64 37 65 51 66 70 67
REMARK SMILES IDX 35 68 36 69 50 71 71 72 38 73 22 74 23 75 31 76 24 77 30 78
REMARK SMILES IDX 32 79 29 80 25 81 26 82 27 83 28 84 54 85 55 86 63 87 56 88
REMARK SMILES IDX 62 89 64 90 61 91 57 92 58 93 59 94 60 95 39 96 40 97 48 98
REMARK SMILES IDX 41 99 47 100 49 101 46 102 42 103 43 104 44 105 45 106
REMARK H PARENT 5 7 76 13 76 14 10 40 69 59 37 70
REMARK Flexibility Score: inf
ROOT
ATOM      1  C   UNL A   1      35.408  32.323  27.819  1.00  0.00     0.023 C 
ENDROOT
BRANCH   1   2
ATOM      2  C   UNL A   1      34.256  31.548  28.415  1.00  0.00     0.023 C 
BRANCH   2   3
ATOM      3  C   UNL A   1      33.401  30.769  27.426  1.00  0.00     0.116 C 
BRANCH   3   4
ATOM      4  N   UNL A   1      32.698  29.612  27.889  1.00  0.00    -0.351 N 
ATOM      5  C   UNL A   1      32.605  28.346  27.393  1.00  0.00     0.281 C 
ATOM      6  O   UNL A   1      31.934  27.593  28.117  1.00  0.00    -0.268 OA
ATOM      7  H   UNL A   1      32.187  29.757  28.718  1.00  0.00     0.163 HD
BRANCH   5   8
ATOM      8  C   UNL A   1      33.262  27.762  26.055  1.00  0.00     0.186 C 
ATOM      9  C   UNL A   1      34.591  28.547  25.885  1.00  0.00     0.091 C 
ATOM     10  N   UNL A   1      33.607  26.286  26.096  1.00  0.00    -0.314 N 
ATOM     11  C   UNL A   1      32.518  27.821  24.754  1.00  0.00     0.170 C 
ATOM     12  C   UNL A   1      32.645  25.516  25.200  1.00  0.00     0.236 C 
ATOM     13  H   UNL A   1      33.528  25.945  27.053  1.00  0.00     0.348 HD
ATOM     14  H   UNL A   1      34.562  26.151  25.765  1.00  0.00     0.348 HD
ATOM     15  C   UNL A   1      31.670  26.566  24.712  1.00  0.00     0.177 C 
ATOM     16  C   UNL A   1      31.549  28.856  24.329  1.00  0.00     0.244 C 
ATOM     17  C   UNL A   1      33.307  24.723  24.065  1.00  0.00     0.232 C 
ATOM     18  C   UNL A   1      32.108  24.355  26.072  1.00  0.00     0.232 C 
ATOM     19  C   UNL A   1      30.959  26.812  23.413  1.00  0.00     0.245 C 
ATOM     20  N   UNL A   1      30.752  28.198  23.395  1.00  0.00    -0.250 N 
ATOM     21  O   UNL A   1      31.537  30.019  24.697  1.00  0.00    -0.273 OA
ATOM     22  O   UNL A   1      34.062  25.166  23.218  1.00  0.00    -0.286 OA
ATOM     23  C   UNL A   1      32.889  23.307  24.170  1.00  0.00     0.036 A 
ATOM     24  C   UNL A   1      32.149  23.125  25.325  1.00  0.00     0.036 A 
ATOM     25  O   UNL A   1      31.839  24.312  27.259  1.00  0.00    -0.286 OA
ATOM     26  O   UNL A   1      30.534  25.940  22.678  1.00  0.00    -0.273 OA
ATOM     27  C   UNL A   1      33.165  22.218  23.367  1.00  0.00     0.013 A 
ATOM     28  C   UNL A   1      31.652  21.903  25.745  1.00  0.00     0.013 A 
ATOM     29  C   UNL A   1      32.667  20.962  23.760  1.00  0.00     0.001 A 
ATOM     30  C   UNL A   1      31.911  20.805  24.939  1.00  0.00     0.001 A 
BRANCH  20  31
ATOM     31  C   UNL A   1      29.726  28.877  22.714  1.00  0.00     0.052 A 
ATOM     32  C   UNL A   1      30.046  29.881  21.790  1.00  0.00     0.027 A 
ATOM     33  C   UNL A   1      28.392  28.692  23.094  1.00  0.00     0.027 A 
ATOM     34  C   UNL A   1      29.044  30.685  21.243  1.00  0.00     0.002 A 
ATOM     35  C   UNL A   1      27.400  29.536  22.587  1.00  0.00     0.002 A 
ATOM     36  C   UNL A   1      27.724  30.526  21.658  1.00  0.00     0.000 A 
ENDBRANCH  20  31
ENDBRANCH   5   8
ENDBRANCH   3   4
ENDBRANCH   2   3
ENDBRANCH   1   2
BRANCH   1  37
ATOM     37  C   UNL A   1      35.279  33.838  27.916  1.00  0.00     0.116 C 
BRANCH  37  38
ATOM     38  N   UNL A   1      34.023  34.329  28.491  1.00  0.00    -0.352 N 
ATOM     39  C   UNL A   1      33.682  34.516  29.820  1.00  0.00     0.251 C 
ATOM     40  H   UNL A   1      33.322  34.560  27.839  1.00  0.00     0.163 HD
ATOM     41  O   UNL A   1      32.568  34.923  30.132  1.00  0.00    -0.269 OA
BRANCH  39  42
ATOM     42  C   UNL A   1      34.671  34.142  30.852  1.00  0.00     0.039 A 
ATOM     43  C   UNL A   1      35.872  34.839  30.911  1.00  0.00     0.014 A 
ATOM     44  C   UNL A   1      34.496  32.962  31.576  1.00  0.00     0.014 A 
ATOM     45  C   UNL A   1      36.988  34.176  31.394  1.00  0.00     0.010 A 
ATOM     46  C   UNL A   1      35.596  32.389  32.224  1.00  0.00     0.010 A 
ATOM     47  C   UNL A   1      36.875  32.938  32.054  1.00  0.00    -0.014 A 
BRANCH  47  48
ATOM     48  C   UNL A   1      38.114  32.252  32.526  1.00  0.00     0.031 A 
ATOM     49  C   UNL A   1      38.712  32.535  33.884  1.00  0.00     0.074 A 
ATOM     50  C   UNL A   1      38.656  31.295  31.745  1.00  0.00     0.049 A 
ATOM     51  N   UNL A   1      39.782  32.015  34.433  1.00  0.00    -0.248 NA
ATOM     52  C   UNL A   1      38.039  33.531  34.735  1.00  0.00     0.031 C 
ATOM     53  C   UNL A   1      38.157  30.923  30.419  1.00  0.00     0.029 A 
ATOM     54  N   UNL A   1      39.701  30.430  31.956  1.00  0.00    -0.354 N 
ATOM     55  C   UNL A   1      39.935  32.647  35.665  1.00  0.00     0.074 A 
ATOM     56  C   UNL A   1      38.859  33.607  35.777  1.00  0.00     0.031 C 
ATOM     57  C   UNL A   1      38.820  29.848  29.983  1.00  0.00     0.029 A 
ATOM     58  C   UNL A   1      39.883  29.532  30.929  1.00  0.00     0.049 A 
ATOM     59  H   UNL A   1      40.265  30.451  32.762  1.00  0.00     0.167 HD
ATOM     60  C   UNL A   1      40.880  32.437  36.614  1.00  0.00     0.034 A 
ATOM     61  C   UNL A   1      40.817  28.577  30.740  1.00  0.00     0.034 A 
ATOM     62  C   UNL A   1      41.917  31.440  36.505  1.00  0.00     0.049 A 
ATOM     63  C   UNL A   1      41.863  28.378  31.800  1.00  0.00     0.074 A 
ATOM     64  C   UNL A   1      42.901  31.127  37.427  1.00  0.00     0.029 A 
ATOM     65  N   UNL A   1      42.100  30.585  35.426  1.00  0.00    -0.354 N 
ATOM     66  N   UNL A   1      41.985  28.983  32.957  1.00  0.00    -0.248 NA
ATOM     67  C   UNL A   1      42.904  27.379  31.529  1.00  0.00     0.031 C 
ATOM     68  C   UNL A   1      43.716  30.135  36.880  1.00  0.00     0.029 A 
ATOM     69  C   UNL A   1      43.198  29.769  35.648  1.00  0.00     0.049 A 
ATOM     70  H   UNL A   1      41.534  30.563  34.620  1.00  0.00     0.167 HD
ATOM     71  C   UNL A   1      43.114  28.437  33.557  1.00  0.00     0.074 A 
ATOM     72  C   UNL A   1      43.614  27.423  32.650  1.00  0.00     0.031 C 
ATOM     73  C   UNL A   1      43.689  28.757  34.743  1.00  0.00     0.034 A 
BRANCH  60  74
ATOM     74  C   UNL A   1      40.864  33.279  37.870  1.00  0.00     0.023 A 
ATOM     75  C   UNL A   1      39.918  33.012  38.881  1.00  0.00     0.031 A 
ATOM     76  C   UNL A   1      41.668  34.425  38.005  1.00  0.00     0.131 A 
ATOM     77  C   UNL A   1      39.772  33.899  39.957  1.00  0.00     0.055 A 
ATOM     78  C   UNL A   1      41.549  35.282  39.102  1.00  0.00     0.041 A 
ATOM     79  F   UNL A   1      42.582  34.729  37.070  1.00  0.00    -0.206 F 
ATOM     80  C   UNL A   1      40.588  35.028  40.075  1.00  0.00     0.022 A 
BRANCH  77  81
ATOM     81  S   UNL A   1      38.471  33.665  41.200  1.00  0.00     0.124 S 
ATOM     82  O   UNL A   1      37.419  33.021  40.414  1.00  0.00    -0.237 OA
ATOM     83  O   UNL A   1      39.133  32.806  42.178  1.00  0.00    -0.237 OA
ATOM     84  O   UNL A   1      38.167  35.018  41.651  1.00  0.00    -0.744 OA
ENDBRANCH  77  81
ENDBRANCH  60  74
BRANCH  61  85
ATOM     85  C   UNL A   1      40.764  27.753  29.497  1.00  0.00     0.023 A 
ATOM     86  C   UNL A   1      41.685  27.966  28.453  1.00  0.00     0.031 A 
ATOM     87  C   UNL A   1      39.712  26.851  29.273  1.00  0.00     0.131 A 
ATOM     88  C   UNL A   1      41.474  27.371  27.203  1.00  0.00     0.055 A 
ATOM     89  C   UNL A   1      39.558  26.189  28.054  1.00  0.00     0.041 A 
ATOM     90  F   UNL A   1      38.801  26.622  30.232  1.00  0.00    -0.206 F 
ATOM     91  C   UNL A   1      40.428  26.467  27.002  1.00  0.00     0.022 A 
BRANCH  88  92
ATOM     92  S   UNL A   1      42.439  27.892  25.756  1.00  0.00     0.124 S 
ATOM     93  O   UNL A   1      41.782  29.142  25.386  1.00  0.00    -0.237 OA
ATOM     94  O   UNL A   1      43.779  28.025  26.322  1.00  0.00    -0.237 OA
ATOM     95  O   UNL A   1      42.274  26.787  24.816  1.00  0.00    -0.744 OA
ENDBRANCH  88  92
ENDBRANCH  61  85
BRANCH  73  96
ATOM     96  C   UNL A   1      44.940  28.019  35.153  1.00  0.00     0.023 A 
ATOM     97  C   UNL A   1      44.845  26.838  35.913  1.00  0.00     0.031 A 
ATOM     98  C   UNL A   1      46.216  28.561  34.921  1.00  0.00     0.131 A 
ATOM     99  C   UNL A   1      46.002  26.262  36.450  1.00  0.00     0.055 A 
ATOM    100  C   UNL A   1      47.371  27.954  35.415  1.00  0.00     0.041 A 
ATOM    101  F   UNL A   1      46.358  29.692  34.209  1.00  0.00    -0.206 F 
ATOM    102  C   UNL A   1      47.265  26.808  36.198  1.00  0.00     0.022 A 
BRANCH  99 103
ATOM    103  S   UNL A   1      45.904  24.839  37.572  1.00  0.00     0.124 S 
ATOM    104  O   UNL A   1      45.130  23.885  36.781  1.00  0.00    -0.237 OA
ATOM    105  O   UNL A   1      47.312  24.498  37.758  1.00  0.00    -0.237 OA
ATOM    106  O   UNL A   1      45.225  25.365  38.751  1.00  0.00    -0.744 OA
ENDBRANCH  99 103
ENDBRANCH  73  96
ENDBRANCH  47  48
ENDBRANCH  39  42
ENDBRANCH  37  38
ENDBRANCH   1  37
TORSDOF 15
ENDMDL
