MODEL 1
REMARK VINA RESULT:     -13.8      0.000      0.000
REMARK SMILES Cc1ccc(-c2nc(C)cc(N3CCCC[C@H]3C(=O)NCCCCNC(=O)c3ccc(-c4c5nc(c(-c6cc(S(=O)(=O)[O-])ccc6F)c6ccc([nH]6)c(-c6cc(S(=O)(=O)[O-])ccc6F)c6nc(c(-c7cc(S(=O)(=O)[O-])ccc7F)c7ccc4[nH]7)C=C6)C=C5)cc3)n2)cc1
REMARK SMILES IDX 23 1 22 2 21 3 20 4 18 5 19 6 17 8 12 9 13 10 14 11 16 12
REMARK SMILES IDX 15 13 11 14 6 15 7 16 91 17 8 18 9 19 10 20 5 21 1 22 2 23
REMARK SMILES IDX 3 24 93 25 4 26 92 27 24 28 25 29 26 30 27 32 28 33 29 34
REMARK SMILES IDX 90 35 30 36 89 37 31 38 32 39 33 40 83 41 34 42 88 43 82 44
REMARK SMILES IDX 84 45 35 46 87 47 81 48 80 49 36 51 68 52 48 53 67 54 49 55
REMARK SMILES IDX 52 56 66 57 85 58 50 59 51 60 65 62 86 63 53 64 37 65 38 66
REMARK SMILES IDX 46 67 39 68 45 69 47 70 44 71 40 72 41 73 42 74 43 75 69 76
REMARK SMILES IDX 70 77 78 78 71 79 77 80 79 81 76 82 72 83 73 84 74 85 75 86
REMARK SMILES IDX 54 87 55 88 63 89 56 90 62 91 64 92 61 93 57 94 58 95 59 96
REMARK SMILES IDX 60 97
REMARK H PARENT 20 7 25 31 84 50 52 61
REMARK Flexibility Score: inf
ROOT
ATOM      1  C   UNL A   1      32.583  29.809  27.155  1.00  0.00     0.023 C 
ENDROOT
BRANCH   1   2
ATOM      2  C   UNL A   1      31.780  30.316  25.959  1.00  0.00     0.023 C 
BRANCH   2   3
ATOM      3  C   UNL A   1      31.379  29.260  24.918  1.00  0.00     0.116 C 
BRANCH   3   4
ATOM      4  N   UNL A   1      31.045  27.980  25.521  1.00  0.00    -0.354 N 
ATOM      5  C   UNL A   1      31.655  26.774  25.611  1.00  0.00     0.242 C 
ATOM      6  O   UNL A   1      31.040  25.951  26.315  1.00  0.00    -0.273 OA
ATOM      7  H   UNL A   1      30.169  27.993  25.970  1.00  0.00     0.163 HD
BRANCH   5   8
ATOM      8  C   UNL A   1      32.987  26.322  24.932  1.00  0.00     0.173 C 
ATOM      9  N   UNL A   1      32.800  24.950  24.396  1.00  0.00    -0.344 N 
ATOM     10  C   UNL A   1      32.109  24.842  23.119  1.00  0.00     0.119 C 
ATOM     11  C   UNL A   1      32.837  25.625  22.032  1.00  0.00     0.022 C 
ATOM     12  C   UNL A   1      33.723  27.151  23.873  1.00  0.00     0.035 C 
ATOM     13  C   UNL A   1      33.133  27.056  22.465  1.00  0.00     0.004 C 
BRANCH   9  14
ATOM     14  C   UNL A   1      33.781  24.013  24.689  1.00  0.00     0.133 A 
ATOM     15  C   UNL A   1      34.472  21.833  24.855  1.00  0.00     0.161 A 
ATOM     16  N   UNL A   1      35.672  22.150  25.372  1.00  0.00    -0.233 NA
ATOM     17  N   UNL A   1      33.508  22.709  24.529  1.00  0.00    -0.211 NA
ATOM     18  C   UNL A   1      35.927  23.464  25.514  1.00  0.00     0.043 A 
ATOM     19  C   UNL A   1      37.256  23.830  26.097  1.00  0.00     0.067 C 
ATOM     20  C   UNL A   1      35.007  24.435  25.167  1.00  0.00     0.070 A 
BRANCH  15  21
ATOM     21  C   UNL A   1      34.199  20.416  24.605  1.00  0.00     0.019 A 
ATOM     22  C   UNL A   1      33.385  16.222  23.899  1.00  0.00     0.044 C 
ATOM     23  C   UNL A   1      33.674  17.672  24.152  1.00  0.00    -0.051 A 
ATOM     24  C   UNL A   1      32.666  18.626  23.980  1.00  0.00     0.004 A 
ATOM     25  C   UNL A   1      34.949  18.093  24.541  1.00  0.00     0.004 A 
ATOM     26  C   UNL A   1      32.924  19.981  24.216  1.00  0.00     0.012 A 
ATOM     27  C   UNL A   1      35.208  19.451  24.759  1.00  0.00     0.012 A 
ENDBRANCH  15  21
ENDBRANCH   9  14
ENDBRANCH   5   8
ENDBRANCH   3   4
ENDBRANCH   2   3
ENDBRANCH   1   2
BRANCH   1  28
ATOM     28  C   UNL A   1      34.086  29.809  26.943  1.00  0.00     0.116 C 
BRANCH  28  29
ATOM     29  N   UNL A   1      34.791  31.029  27.308  1.00  0.00    -0.352 N 
ATOM     30  C   UNL A   1      35.985  31.178  28.006  1.00  0.00     0.251 C 
ATOM     31  H   UNL A   1      34.361  31.868  27.022  1.00  0.00     0.163 HD
ATOM     32  O   UNL A   1      36.332  32.283  28.391  1.00  0.00    -0.269 OA
BRANCH  30  33
ATOM     33  C   UNL A   1      36.887  30.006  28.198  1.00  0.00     0.039 A 
ATOM     34  C   UNL A   1      36.912  29.361  29.444  1.00  0.00     0.014 A 
ATOM     35  C   UNL A   1      37.827  29.666  27.237  1.00  0.00     0.014 A 
ATOM     36  C   UNL A   1      38.003  28.559  29.790  1.00  0.00     0.010 A 
ATOM     37  C   UNL A   1      38.977  29.028  27.629  1.00  0.00     0.010 A 
ATOM     38  C   UNL A   1      39.080  28.486  28.913  1.00  0.00    -0.014 A 
BRANCH  38  39
ATOM     39  C   UNL A   1      40.387  27.912  29.198  1.00  0.00     0.031 A 
ATOM     40  C   UNL A   1      40.696  26.540  28.733  1.00  0.00     0.074 A 
ATOM     41  C   UNL A   1      41.377  28.726  29.625  1.00  0.00     0.049 A 
ATOM     42  N   UNL A   1      41.763  25.891  29.043  1.00  0.00    -0.248 NA
ATOM     43  C   UNL A   1      39.796  25.768  27.880  1.00  0.00     0.031 C 
ATOM     44  C   UNL A   1      42.816  28.506  29.518  1.00  0.00     0.029 A 
ATOM     45  N   UNL A   1      41.257  29.829  30.470  1.00  0.00    -0.354 N 
ATOM     46  C   UNL A   1      41.837  24.777  28.240  1.00  0.00     0.074 A 
ATOM     47  C   UNL A   1      40.564  24.720  27.566  1.00  0.00     0.031 C 
ATOM     48  C   UNL A   1      43.442  29.251  30.440  1.00  0.00     0.029 A 
ATOM     49  C   UNL A   1      42.414  29.837  31.277  1.00  0.00     0.049 A 
ATOM     50  H   UNL A   1      40.514  30.474  30.497  1.00  0.00     0.167 HD
ATOM     51  C   UNL A   1      43.018  24.103  28.164  1.00  0.00     0.034 A 
ATOM     52  C   UNL A   1      42.322  29.663  32.629  1.00  0.00     0.034 A 
ATOM     53  C   UNL A   1      43.997  24.664  29.096  1.00  0.00     0.049 A 
ATOM     54  C   UNL A   1      43.065  28.450  33.145  1.00  0.00     0.074 A 
ATOM     55  C   UNL A   1      45.081  25.513  28.949  1.00  0.00     0.029 A 
ATOM     56  N   UNL A   1      43.748  24.575  30.458  1.00  0.00    -0.354 N 
ATOM     57  N   UNL A   1      43.478  27.463  32.398  1.00  0.00    -0.248 NA
ATOM     58  C   UNL A   1      43.398  28.254  34.550  1.00  0.00     0.031 C 
ATOM     59  C   UNL A   1      45.469  25.954  30.244  1.00  0.00     0.029 A 
ATOM     60  C   UNL A   1      44.638  25.349  31.172  1.00  0.00     0.049 A 
ATOM     61  H   UNL A   1      43.034  24.032  30.861  1.00  0.00     0.167 HD
ATOM     62  C   UNL A   1      44.098  26.512  33.174  1.00  0.00     0.074 A 
ATOM     63  C   UNL A   1      44.033  27.070  34.514  1.00  0.00     0.031 C 
ATOM     64  C   UNL A   1      44.589  25.352  32.629  1.00  0.00     0.034 A 
BRANCH  51  65
ATOM     65  C   UNL A   1      43.394  23.085  27.110  1.00  0.00     0.023 A 
ATOM     66  C   UNL A   1      42.759  21.823  27.136  1.00  0.00     0.031 A 
ATOM     67  C   UNL A   1      44.355  23.248  26.095  1.00  0.00     0.131 A 
ATOM     68  C   UNL A   1      43.134  20.787  26.263  1.00  0.00     0.055 A 
ATOM     69  C   UNL A   1      44.761  22.204  25.251  1.00  0.00     0.041 A 
ATOM     70  F   UNL A   1      44.910  24.435  25.825  1.00  0.00    -0.206 F 
ATOM     71  C   UNL A   1      44.157  20.960  25.338  1.00  0.00     0.022 A 
BRANCH  68  72
ATOM     72  S   UNL A   1      42.265  19.198  26.362  1.00  0.00     0.124 S 
ATOM     73  O   UNL A   1      42.285  18.925  27.795  1.00  0.00    -0.237 OA
ATOM     74  O   UNL A   1      40.966  19.519  25.782  1.00  0.00    -0.237 OA
ATOM     75  O   UNL A   1      43.097  18.307  25.553  1.00  0.00    -0.744 OA
ENDBRANCH  68  72
ENDBRANCH  51  65
BRANCH  52  76
ATOM     76  C   UNL A   1      41.061  30.228  33.189  1.00  0.00     0.023 A 
ATOM     77  C   UNL A   1      40.990  31.635  33.295  1.00  0.00     0.031 A 
ATOM     78  C   UNL A   1      39.858  29.510  33.156  1.00  0.00     0.131 A 
ATOM     79  C   UNL A   1      39.755  32.288  33.181  1.00  0.00     0.055 A 
ATOM     80  C   UNL A   1      38.622  30.167  33.112  1.00  0.00     0.041 A 
ATOM     81  F   UNL A   1      39.864  28.176  33.018  1.00  0.00    -0.206 F 
ATOM     82  C   UNL A   1      38.568  31.562  33.073  1.00  0.00     0.022 A 
BRANCH  79  83
ATOM     83  S   UNL A   1      39.761  34.084  32.893  1.00  0.00     0.124 S 
ATOM     84  O   UNL A   1      41.186  34.362  32.745  1.00  0.00    -0.237 OA
ATOM     85  O   UNL A   1      38.957  34.211  31.678  1.00  0.00    -0.237 OA
ATOM     86  O   UNL A   1      39.134  34.628  34.094  1.00  0.00    -0.744 OA
ENDBRANCH  79  83
ENDBRANCH  52  76
BRANCH  64  87
ATOM     87  C   UNL A   1      45.108  24.118  33.361  1.00  0.00     0.023 A 
ATOM     88  C   UNL A   1      46.406  23.988  33.870  1.00  0.00     0.031 A 
ATOM     89  C   UNL A   1      44.256  23.008  33.622  1.00  0.00     0.131 A 
ATOM     90  C   UNL A   1      46.819  22.828  34.557  1.00  0.00     0.055 A 
ATOM     91  C   UNL A   1      44.649  21.880  34.349  1.00  0.00     0.041 A 
ATOM     92  F   UNL A   1      42.987  22.964  33.193  1.00  0.00    -0.206 F 
ATOM     93  C   UNL A   1      45.944  21.779  34.819  1.00  0.00     0.022 A 
BRANCH  90  94
ATOM     94  S   UNL A   1      48.554  22.709  35.065  1.00  0.00     0.124 S 
ATOM     95  O   UNL A   1      49.054  24.045  34.753  1.00  0.00    -0.237 OA
ATOM     96  O   UNL A   1      48.440  22.393  36.486  1.00  0.00    -0.237 OA
ATOM     97  O   UNL A   1      49.088  21.635  34.231  1.00  0.00    -0.744 OA
ENDBRANCH  90  94
ENDBRANCH  64  87
ENDBRANCH  38  39
ENDBRANCH  30  33
ENDBRANCH  28  29
ENDBRANCH   1  28
TORSDOF 16
ENDMDL
MODEL 2
REMARK VINA RESULT:     -13.5      3.910     10.555
REMARK SMILES Cc1ccc(-c2nc(C)cc(N3CCCC[C@H]3C(=O)NCCCCNC(=O)c3ccc(-c4c5nc(c(-c6cc(S(=O)(=O)[O-])ccc6F)c6ccc([nH]6)c(-c6cc(S(=O)(=O)[O-])ccc6F)c6nc(c(-c7cc(S(=O)(=O)[O-])ccc7F)c7ccc4[nH]7)C=C6)C=C5)cc3)n2)cc1
REMARK SMILES IDX 23 1 22 2 21 3 20 4 18 5 19 6 17 8 12 9 13 10 14 11 16 12
REMARK SMILES IDX 15 13 11 14 6 15 7 16 91 17 8 18 9 19 10 20 5 21 1 22 2 23
REMARK SMILES IDX 3 24 93 25 4 26 92 27 24 28 25 29 26 30 27 32 28 33 29 34
REMARK SMILES IDX 90 35 30 36 89 37 31 38 32 39 33 40 83 41 34 42 88 43 82 44
REMARK SMILES IDX 84 45 35 46 87 47 81 48 80 49 36 51 68 52 48 53 67 54 49 55
REMARK SMILES IDX 52 56 66 57 85 58 50 59 51 60 65 62 86 63 53 64 37 65 38 66
REMARK SMILES IDX 46 67 39 68 45 69 47 70 44 71 40 72 41 73 42 74 43 75 69 76
REMARK SMILES IDX 70 77 78 78 71 79 77 80 79 81 76 82 72 83 73 84 74 85 75 86
REMARK SMILES IDX 54 87 55 88 63 89 56 90 62 91 64 92 61 93 57 94 58 95 59 96
REMARK SMILES IDX 60 97
REMARK H PARENT 20 7 25 31 84 50 52 61
REMARK Flexibility Score: inf
ROOT
ATOM      1  C   UNL A   1      37.382  21.881  24.579  1.00  0.00     0.023 C 
ENDROOT
BRANCH   1   2
ATOM      2  C   UNL A   1      36.359  20.826  24.994  1.00  0.00     0.023 C 
BRANCH   2   3
ATOM      3  C   UNL A   1      34.885  21.258  24.942  1.00  0.00     0.116 C 
BRANCH   3   4
ATOM      4  N   UNL A   1      34.624  22.229  23.893  1.00  0.00    -0.354 N 
ATOM      5  C   UNL A   1      34.191  23.512  23.859  1.00  0.00     0.242 C 
ATOM      6  O   UNL A   1      34.193  24.013  22.719  1.00  0.00    -0.273 OA
ATOM      7  H   UNL A   1      34.804  21.868  22.995  1.00  0.00     0.163 HD
BRANCH   5   8
ATOM      8  C   UNL A   1      33.691  24.385  25.053  1.00  0.00     0.173 C 
ATOM      9  N   UNL A   1      32.499  25.150  24.610  1.00  0.00    -0.344 N 
ATOM     10  C   UNL A   1      31.232  24.432  24.601  1.00  0.00     0.119 C 
ATOM     11  C   UNL A   1      30.897  23.893  25.987  1.00  0.00     0.022 C 
ATOM     12  C   UNL A   1      33.403  23.825  26.452  1.00  0.00     0.035 C 
ATOM     13  C   UNL A   1      32.058  23.110  26.589  1.00  0.00     0.004 C 
BRANCH   9  14
ATOM     14  C   UNL A   1      32.475  26.510  24.888  1.00  0.00     0.133 A 
ATOM     15  C   UNL A   1      31.695  28.623  24.457  1.00  0.00     0.161 A 
ATOM     16  N   UNL A   1      32.506  29.211  25.354  1.00  0.00    -0.233 NA
ATOM     17  N   UNL A   1      31.664  27.309  24.180  1.00  0.00    -0.211 NA
ATOM     18  C   UNL A   1      33.304  28.389  26.060  1.00  0.00     0.043 A 
ATOM     19  C   UNL A   1      34.218  29.033  27.056  1.00  0.00     0.067 C 
ATOM     20  C   UNL A   1      33.308  27.021  25.867  1.00  0.00     0.070 A 
BRANCH  15  21
ATOM     21  C   UNL A   1      30.752  29.480  23.737  1.00  0.00     0.019 A 
ATOM     22  C   UNL A   1      27.937  31.996  21.615  1.00  0.00     0.044 C 
ATOM     23  C   UNL A   1      28.909  31.116  22.344  1.00  0.00    -0.051 A 
ATOM     24  C   UNL A   1      29.195  31.356  23.692  1.00  0.00     0.004 A 
ATOM     25  C   UNL A   1      29.554  30.062  21.691  1.00  0.00     0.004 A 
ATOM     26  C   UNL A   1      30.098  30.540  24.383  1.00  0.00     0.012 A 
ATOM     27  C   UNL A   1      30.469  29.258  22.379  1.00  0.00     0.012 A 
ENDBRANCH  15  21
ENDBRANCH   9  14
ENDBRANCH   5   8
ENDBRANCH   3   4
ENDBRANCH   2   3
ENDBRANCH   1   2
BRANCH   1  28
ATOM     28  C   UNL A   1      37.873  22.757  25.717  1.00  0.00     0.116 C 
BRANCH  28  29
ATOM     29  N   UNL A   1      39.166  22.412  26.288  1.00  0.00    -0.352 N 
ATOM     30  C   UNL A   1      40.169  23.252  26.762  1.00  0.00     0.251 C 
ATOM     31  H   UNL A   1      39.359  21.448  26.346  1.00  0.00     0.163 HD
ATOM     32  O   UNL A   1      41.269  22.796  27.030  1.00  0.00    -0.269 OA
BRANCH  30  33
ATOM     33  C   UNL A   1      39.872  24.687  27.035  1.00  0.00     0.039 A 
ATOM     34  C   UNL A   1      40.444  25.671  26.212  1.00  0.00     0.014 A 
ATOM     35  C   UNL A   1      39.200  25.069  28.186  1.00  0.00     0.014 A 
ATOM     36  C   UNL A   1      40.534  26.990  26.667  1.00  0.00     0.010 A 
ATOM     37  C   UNL A   1      39.439  26.314  28.711  1.00  0.00     0.010 A 
ATOM     38  C   UNL A   1      40.122  27.277  27.963  1.00  0.00    -0.014 A 
BRANCH  38  39
ATOM     39  C   UNL A   1      40.360  28.516  28.689  1.00  0.00     0.031 A 
ATOM     40  C   UNL A   1      39.298  29.548  28.734  1.00  0.00     0.074 A 
ATOM     41  C   UNL A   1      41.415  28.586  29.531  1.00  0.00     0.049 A 
ATOM     42  N   UNL A   1      39.449  30.725  29.231  1.00  0.00    -0.248 NA
ATOM     43  C   UNL A   1      37.958  29.335  28.193  1.00  0.00     0.031 C 
ATOM     44  C   UNL A   1      41.582  29.480  30.672  1.00  0.00     0.029 A 
ATOM     45  N   UNL A   1      42.669  28.001  29.362  1.00  0.00    -0.354 N 
ATOM     46  C   UNL A   1      38.209  31.309  29.339  1.00  0.00     0.074 A 
ATOM     47  C   UNL A   1      37.318  30.421  28.635  1.00  0.00     0.031 C 
ATOM     48  C   UNL A   1      42.888  29.594  30.951  1.00  0.00     0.029 A 
ATOM     49  C   UNL A   1      43.606  28.914  29.890  1.00  0.00     0.049 A 
ATOM     50  H   UNL A   1      42.862  27.126  28.955  1.00  0.00     0.167 HD
ATOM     51  C   UNL A   1      38.076  32.422  30.113  1.00  0.00     0.034 A 
ATOM     52  C   UNL A   1      44.537  29.503  29.083  1.00  0.00     0.034 A 
ATOM     53  C   UNL A   1      39.377  32.867  30.611  1.00  0.00     0.049 A 
ATOM     54  C   UNL A   1      44.444  31.013  29.036  1.00  0.00     0.074 A 
ATOM     55  C   UNL A   1      40.029  32.746  31.828  1.00  0.00     0.029 A 
ATOM     56  N   UNL A   1      40.324  33.312  29.700  1.00  0.00    -0.354 N 
ATOM     57  N   UNL A   1      43.408  31.702  29.429  1.00  0.00    -0.248 NA
ATOM     58  C   UNL A   1      45.516  31.864  28.537  1.00  0.00     0.031 C 
ATOM     59  C   UNL A   1      41.391  33.102  31.631  1.00  0.00     0.029 A 
ATOM     60  C   UNL A   1      41.554  33.466  30.305  1.00  0.00     0.049 A 
ATOM     61  H   UNL A   1      40.143  33.493  28.751  1.00  0.00     0.167 HD
ATOM     62  C   UNL A   1      43.636  33.045  29.236  1.00  0.00     0.074 A 
ATOM     63  C   UNL A   1      44.981  33.089  28.689  1.00  0.00     0.031 C 
ATOM     64  C   UNL A   1      42.680  33.983  29.536  1.00  0.00     0.034 A 
BRANCH  51  65
ATOM     65  C   UNL A   1      36.773  33.000  30.621  1.00  0.00     0.023 A 
ATOM     66  C   UNL A   1      35.887  33.585  29.688  1.00  0.00     0.031 A 
ATOM     67  C   UNL A   1      36.345  33.048  31.960  1.00  0.00     0.131 A 
ATOM     68  C   UNL A   1      34.713  34.243  30.093  1.00  0.00     0.055 A 
ATOM     69  C   UNL A   1      35.196  33.741  32.372  1.00  0.00     0.041 A 
ATOM     70  F   UNL A   1      36.978  32.385  32.934  1.00  0.00    -0.206 F 
ATOM     71  C   UNL A   1      34.377  34.352  31.437  1.00  0.00     0.022 A 
BRANCH  68  72
ATOM     72  S   UNL A   1      33.631  34.966  28.829  1.00  0.00     0.124 S 
ATOM     73  O   UNL A   1      33.233  33.793  28.058  1.00  0.00    -0.237 OA
ATOM     74  O   UNL A   1      32.591  35.595  29.635  1.00  0.00    -0.237 OA
ATOM     75  O   UNL A   1      34.511  35.898  28.124  1.00  0.00    -0.744 OA
ENDBRANCH  68  72
ENDBRANCH  51  65
BRANCH  52  76
ATOM     76  C   UNL A   1      44.966  28.612  27.967  1.00  0.00     0.023 A 
ATOM     77  C   UNL A   1      45.840  27.554  28.302  1.00  0.00     0.031 A 
ATOM     78  C   UNL A   1      44.211  28.494  26.792  1.00  0.00     0.131 A 
ATOM     79  C   UNL A   1      45.803  26.355  27.577  1.00  0.00     0.055 A 
ATOM     80  C   UNL A   1      44.231  27.317  26.032  1.00  0.00     0.041 A 
ATOM     81  F   UNL A   1      43.337  29.450  26.444  1.00  0.00    -0.206 F 
ATOM     82  C   UNL A   1      44.990  26.222  26.450  1.00  0.00     0.022 A 
BRANCH  79  83
ATOM     83  S   UNL A   1      46.617  24.896  28.297  1.00  0.00     0.124 S 
ATOM     84  O   UNL A   1      46.958  24.121  27.109  1.00  0.00    -0.237 OA
ATOM     85  O   UNL A   1      47.743  25.487  29.018  1.00  0.00    -0.237 OA
ATOM     86  O   UNL A   1      45.587  24.314  29.154  1.00  0.00    -0.744 OA
ENDBRANCH  79  83
ENDBRANCH  52  76
BRANCH  64  87
ATOM     87  C   UNL A   1      42.684  35.470  29.193  1.00  0.00     0.023 A 
ATOM     88  C   UNL A   1      43.388  36.444  29.912  1.00  0.00     0.031 A 
ATOM     89  C   UNL A   1      41.989  35.962  28.052  1.00  0.00     0.131 A 
ATOM     90  C   UNL A   1      43.369  37.802  29.532  1.00  0.00     0.055 A 
ATOM     91  C   UNL A   1      42.014  37.299  27.644  1.00  0.00     0.041 A 
ATOM     92  F   UNL A   1      41.256  35.165  27.262  1.00  0.00    -0.206 F 
ATOM     93  C   UNL A   1      42.703  38.235  28.390  1.00  0.00     0.022 A 
BRANCH  90  94
ATOM     94  S   UNL A   1      44.210  38.999  30.600  1.00  0.00     0.124 S 
ATOM     95  O   UNL A   1      44.089  38.371  31.913  1.00  0.00    -0.237 OA
ATOM     96  O   UNL A   1      45.555  39.029  30.035  1.00  0.00    -0.237 OA
ATOM     97  O   UNL A   1      43.435  40.225  30.425  1.00  0.00    -0.744 OA
ENDBRANCH  90  94
ENDBRANCH  64  87
ENDBRANCH  38  39
ENDBRANCH  30  33
ENDBRANCH  28  29
ENDBRANCH   1  28
TORSDOF 16
ENDMDL
MODEL 3
REMARK VINA RESULT:     -13.4      3.991      9.961
REMARK SMILES Cc1ccc(-c2nc(C)cc(N3CCCC[C@H]3C(=O)NCCCCNC(=O)c3ccc(-c4c5nc(c(-c6cc(S(=O)(=O)[O-])ccc6F)c6ccc([nH]6)c(-c6cc(S(=O)(=O)[O-])ccc6F)c6nc(c(-c7cc(S(=O)(=O)[O-])ccc7F)c7ccc4[nH]7)C=C6)C=C5)cc3)n2)cc1
REMARK SMILES IDX 23 1 22 2 21 3 20 4 18 5 19 6 17 8 12 9 13 10 14 11 16 12
REMARK SMILES IDX 15 13 11 14 6 15 7 16 91 17 8 18 9 19 10 20 5 21 1 22 2 23
REMARK SMILES IDX 3 24 93 25 4 26 92 27 24 28 25 29 26 30 27 32 28 33 29 34
REMARK SMILES IDX 90 35 30 36 89 37 31 38 32 39 33 40 83 41 34 42 88 43 82 44
REMARK SMILES IDX 84 45 35 46 87 47 81 48 80 49 36 51 68 52 48 53 67 54 49 55
REMARK SMILES IDX 52 56 66 57 85 58 50 59 51 60 65 62 86 63 53 64 37 65 38 66
REMARK SMILES IDX 46 67 39 68 45 69 47 70 44 71 40 72 41 73 42 74 43 75 69 76
REMARK SMILES IDX 70 77 78 78 71 79 77 80 79 81 76 82 72 83 73 84 74 85 75 86
REMARK SMILES IDX 54 87 55 88 63 89 56 90 62 91 64 92 61 93 57 94 58 95 59 96
REMARK SMILES IDX 60 97
REMARK H PARENT 20 7 25 31 84 50 52 61
REMARK Flexibility Score: inf
ROOT
ATOM      1  C   UNL A   1      38.482  21.835  25.590  1.00  0.00     0.023 C 
ENDROOT
BRANCH   1   2
ATOM      2  C   UNL A   1      37.431  22.854  26.024  1.00  0.00     0.023 C 
BRANCH   2   3
ATOM      3  C   UNL A   1      35.974  22.368  26.016  1.00  0.00     0.116 C 
BRANCH   3   4
ATOM      4  N   UNL A   1      35.841  21.011  25.512  1.00  0.00    -0.354 N 
ATOM      5  C   UNL A   1      34.813  20.250  25.065  1.00  0.00     0.242 C 
ATOM      6  O   UNL A   1      35.163  19.137  24.631  1.00  0.00    -0.273 OA
ATOM      7  H   UNL A   1      36.700  20.533  25.490  1.00  0.00     0.163 HD
BRANCH   5   8
ATOM      8  C   UNL A   1      33.292  20.605  25.059  1.00  0.00     0.173 C 
ATOM      9  N   UNL A   1      33.138  22.008  24.601  1.00  0.00    -0.344 N 
ATOM     10  C   UNL A   1      33.198  22.231  23.163  1.00  0.00     0.119 C 
ATOM     11  C   UNL A   1      32.123  21.429  22.438  1.00  0.00     0.022 C 
ATOM     12  C   UNL A   1      32.225  19.755  24.359  1.00  0.00     0.035 C 
ATOM     13  C   UNL A   1      32.138  19.960  22.845  1.00  0.00     0.004 C 
BRANCH   9  14
ATOM     14  C   UNL A   1      32.322  22.839  25.356  1.00  0.00     0.133 A 
ATOM     15  C   UNL A   1      31.900  24.869  26.336  1.00  0.00     0.161 A 
ATOM     16  N   UNL A   1      30.774  24.454  26.941  1.00  0.00    -0.233 NA
ATOM     17  N   UNL A   1      32.701  24.107  25.572  1.00  0.00    -0.211 NA
ATOM     18  C   UNL A   1      30.409  23.181  26.702  1.00  0.00     0.043 A 
ATOM     19  C   UNL A   1      29.161  22.703  27.378  1.00  0.00     0.067 C 
ATOM     20  C   UNL A   1      31.152  22.338  25.897  1.00  0.00     0.070 A 
BRANCH  15  21
ATOM     21  C   UNL A   1      32.277  26.274  26.504  1.00  0.00     0.019 A 
ATOM     22  C   UNL A   1      33.402  30.423  27.031  1.00  0.00     0.044 C 
ATOM     23  C   UNL A   1      33.006  28.986  26.858  1.00  0.00    -0.051 A 
ATOM     24  C   UNL A   1      33.884  28.089  26.240  1.00  0.00     0.004 A 
ATOM     25  C   UNL A   1      31.759  28.527  27.290  1.00  0.00     0.004 A 
ATOM     26  C   UNL A   1      33.526  26.746  26.075  1.00  0.00     0.012 A 
ATOM     27  C   UNL A   1      31.397  27.187  27.109  1.00  0.00     0.012 A 
ENDBRANCH  15  21
ENDBRANCH   9  14
ENDBRANCH   5   8
ENDBRANCH   3   4
ENDBRANCH   2   3
ENDBRANCH   1   2
BRANCH   1  28
ATOM     28  C   UNL A   1      39.725  21.811  26.459  1.00  0.00     0.116 C 
BRANCH  28  29
ATOM     29  N   UNL A   1      40.741  20.830  26.109  1.00  0.00    -0.352 N 
ATOM     30  C   UNL A   1      42.127  20.956  26.127  1.00  0.00     0.251 C 
ATOM     31  H   UNL A   1      40.400  19.954  25.815  1.00  0.00     0.163 HD
ATOM     32  O   UNL A   1      42.824  20.094  25.617  1.00  0.00    -0.269 OA
BRANCH  30  33
ATOM     33  C   UNL A   1      42.762  22.092  26.856  1.00  0.00     0.039 A 
ATOM     34  C   UNL A   1      42.669  22.142  28.256  1.00  0.00     0.014 A 
ATOM     35  C   UNL A   1      43.274  23.182  26.168  1.00  0.00     0.014 A 
ATOM     36  C   UNL A   1      42.872  23.354  28.923  1.00  0.00     0.010 A 
ATOM     37  C   UNL A   1      43.303  24.405  26.790  1.00  0.00     0.010 A 
ATOM     38  C   UNL A   1      43.085  24.502  28.167  1.00  0.00    -0.014 A 
BRANCH  38  39
ATOM     39  C   UNL A   1      43.073  25.872  28.658  1.00  0.00     0.031 A 
ATOM     40  C   UNL A   1      41.848  26.690  28.504  1.00  0.00     0.074 A 
ATOM     41  C   UNL A   1      44.064  26.276  29.484  1.00  0.00     0.049 A 
ATOM     42  N   UNL A   1      41.773  27.944  28.780  1.00  0.00    -0.248 NA
ATOM     43  C   UNL A   1      40.590  26.150  27.996  1.00  0.00     0.031 C 
ATOM     44  C   UNL A   1      44.025  27.373  30.446  1.00  0.00     0.029 A 
ATOM     45  N   UNL A   1      45.407  25.903  29.437  1.00  0.00    -0.354 N 
ATOM     46  C   UNL A   1      40.447  28.309  28.767  1.00  0.00     0.074 A 
ATOM     47  C   UNL A   1      39.753  27.166  28.227  1.00  0.00     0.031 C 
ATOM     48  C   UNL A   1      45.280  27.765  30.712  1.00  0.00     0.029 A 
ATOM     49  C   UNL A   1      46.148  27.046  29.800  1.00  0.00     0.049 A 
ATOM     50  H   UNL A   1      45.765  25.018  29.199  1.00  0.00     0.167 HD
ATOM     51  C   UNL A   1      40.091  29.500  29.324  1.00  0.00     0.034 A 
ATOM     52  C   UNL A   1      46.997  27.639  28.909  1.00  0.00     0.034 A 
ATOM     53  C   UNL A   1      41.274  30.249  29.747  1.00  0.00     0.049 A 
ATOM     54  C   UNL A   1      46.647  29.075  28.588  1.00  0.00     0.074 A 
ATOM     55  C   UNL A   1      41.884  30.464  30.972  1.00  0.00     0.029 A 
ATOM     56  N   UNL A   1      42.167  30.687  28.780  1.00  0.00    -0.354 N 
ATOM     57  N   UNL A   1      45.492  29.629  28.838  1.00  0.00    -0.248 NA
ATOM     58  C   UNL A   1      47.576  30.001  27.953  1.00  0.00     0.031 C 
ATOM     59  C   UNL A   1      43.171  31.016  30.728  1.00  0.00     0.029 A 
ATOM     60  C   UNL A   1      43.325  31.161  29.360  1.00  0.00     0.049 A 
ATOM     61  H   UNL A   1      41.998  30.663  27.812  1.00  0.00     0.167 HD
ATOM     62  C   UNL A   1      45.492  30.935  28.407  1.00  0.00     0.074 A 
ATOM     63  C   UNL A   1      46.831  31.119  27.875  1.00  0.00     0.031 C 
ATOM     64  C   UNL A   1      44.376  31.726  28.521  1.00  0.00     0.034 A 
BRANCH  51  65
ATOM     65  C   UNL A   1      38.688  29.918  29.705  1.00  0.00     0.023 A 
ATOM     66  C   UNL A   1      38.208  31.164  29.242  1.00  0.00     0.031 A 
ATOM     67  C   UNL A   1      37.791  29.198  30.515  1.00  0.00     0.131 A 
ATOM     68  C   UNL A   1      36.961  31.674  29.644  1.00  0.00     0.055 A 
ATOM     69  C   UNL A   1      36.565  29.722  30.953  1.00  0.00     0.041 A 
ATOM     70  F   UNL A   1      38.022  27.932  30.881  1.00  0.00    -0.206 F 
ATOM     71  C   UNL A   1      36.147  30.971  30.525  1.00  0.00     0.022 A 
BRANCH  68  72
ATOM     72  S   UNL A   1      36.421  33.281  29.001  1.00  0.00     0.124 S 
ATOM     73  O   UNL A   1      35.890  32.926  27.690  1.00  0.00    -0.237 OA
ATOM     74  O   UNL A   1      35.448  33.703  30.002  1.00  0.00    -0.237 OA
ATOM     75  O   UNL A   1      37.655  34.066  28.975  1.00  0.00    -0.744 OA
ENDBRANCH  68  72
ENDBRANCH  51  65
BRANCH  52  76
ATOM     76  C   UNL A   1      47.620  26.654  27.979  1.00  0.00     0.023 A 
ATOM     77  C   UNL A   1      47.352  26.825  26.603  1.00  0.00     0.031 A 
ATOM     78  C   UNL A   1      48.763  25.927  28.341  1.00  0.00     0.131 A 
ATOM     79  C   UNL A   1      48.302  26.438  25.648  1.00  0.00     0.055 A 
ATOM     80  C   UNL A   1      49.675  25.481  27.376  1.00  0.00     0.041 A 
ATOM     81  F   UNL A   1      49.088  25.765  29.632  1.00  0.00    -0.206 F 
ATOM     82  C   UNL A   1      49.473  25.780  26.026  1.00  0.00     0.022 A 
BRANCH  79  83
ATOM     83  S   UNL A   1      48.108  27.060  23.949  1.00  0.00     0.124 S 
ATOM     84  O   UNL A   1      49.213  28.008  23.846  1.00  0.00    -0.237 OA
ATOM     85  O   UNL A   1      48.237  25.842  23.151  1.00  0.00    -0.237 OA
ATOM     86  O   UNL A   1      46.772  27.647  23.948  1.00  0.00    -0.744 OA
ENDBRANCH  79  83
ENDBRANCH  52  76
BRANCH  64  87
ATOM     87  C   UNL A   1      44.139  33.105  27.914  1.00  0.00     0.023 A 
ATOM     88  C   UNL A   1      44.054  34.290  28.655  1.00  0.00     0.031 A 
ATOM     89  C   UNL A   1      44.037  33.279  26.504  1.00  0.00     0.131 A 
ATOM     90  C   UNL A   1      43.853  35.540  28.032  1.00  0.00     0.055 A 
ATOM     91  C   UNL A   1      43.892  34.523  25.883  1.00  0.00     0.041 A 
ATOM     92  F   UNL A   1      44.086  32.247  25.651  1.00  0.00    -0.206 F 
ATOM     93  C   UNL A   1      43.792  35.669  26.649  1.00  0.00     0.022 A 
BRANCH  90  94
ATOM     94  S   UNL A   1      43.632  36.994  29.089  1.00  0.00     0.124 S 
ATOM     95  O   UNL A   1      43.436  36.388  30.402  1.00  0.00    -0.237 OA
ATOM     96  O   UNL A   1      44.892  37.707  28.903  1.00  0.00    -0.237 OA
ATOM     97  O   UNL A   1      42.457  37.656  28.527  1.00  0.00    -0.744 OA
ENDBRANCH  90  94
ENDBRANCH  64  87
ENDBRANCH  38  39
ENDBRANCH  30  33
ENDBRANCH  28  29
ENDBRANCH   1  28
TORSDOF 16
ENDMDL
