MODEL 1
REMARK VINA RESULT:     -12.0      0.000      0.000
REMARK SMILES C[C@H](c1ccc(Br)s1)[NH+]1CCC(CC(=O)NCCCCNC(=O)c2ccc(-c3c4nc(c(-c5cc(S(=O)(=O)[O-])ccc5F)c5ccc([nH]5)c(-c5cc(S(=O)(=O)[O-])ccc5F)c5nc(c(-c6cc(S(=O)(=O)[O-])ccc6F)c6ccc3[nH]6)C=C5)C=C4)cc2)CC1
REMARK SMILES IDX 18 1 17 2 16 3 14 4 15 5 13 7 12 8 9 9 10 10 88 11 11 13
REMARK SMILES IDX 87 14 2 15 1 16 3 17 4 18 8 19 5 20 6 21 7 22 19 23 20 24
REMARK SMILES IDX 21 25 22 26 23 28 24 29 25 30 86 31 26 32 85 33 27 34 28 35
REMARK SMILES IDX 29 36 79 37 30 38 84 39 78 40 80 41 31 42 83 43 77 44 76 45
REMARK SMILES IDX 32 47 64 48 44 49 63 50 45 51 48 52 62 53 81 54 46 55 47 56
REMARK SMILES IDX 61 58 82 59 49 60 33 61 34 62 42 63 35 64 41 65 43 66 40 67
REMARK SMILES IDX 36 68 37 69 38 70 39 71 65 72 66 73 74 74 67 75 73 76 75 77
REMARK SMILES IDX 72 78 68 79 69 80 70 81 71 82 50 83 51 84 59 85 52 86 58 87
REMARK SMILES IDX 60 88 57 89 53 90 54 91 55 92 56 93
REMARK H PARENT 16 6 9 12 21 27 80 46 48 57
REMARK Flexibility Score: inf
ROOT
ATOM      1  C   UNL A   1      33.280  29.215  24.772  1.00  0.00     0.023 C 
ENDROOT
BRANCH   1   2
ATOM      2  C   UNL A   1      33.106  29.035  23.258  1.00  0.00     0.116 C 
BRANCH   2   3
ATOM      3  N   UNL A   1      31.709  29.089  22.852  1.00  0.00    -0.356 N 
ATOM      4  C   UNL A   1      30.893  28.121  22.337  1.00  0.00     0.220 C 
ATOM      5  O   UNL A   1      29.732  28.422  22.052  1.00  0.00    -0.275 OA
ATOM      6  H   UNL A   1      31.281  29.967  22.968  1.00  0.00     0.163 HD
BRANCH   4   7
ATOM      7  C   UNL A   1      31.405  26.708  22.094  1.00  0.00     0.104 C 
BRANCH   7   8
ATOM      8  C   UNL A   1      31.580  25.883  23.385  1.00  0.00     0.009 C 
ATOM      9  N   UNL A   1      32.074  23.165  24.464  1.00  0.00    -0.328 N 
ATOM     10  C   UNL A   1      30.741  23.741  24.553  1.00  0.00     0.263 C 
ATOM     11  C   UNL A   1      33.101  24.214  24.564  1.00  0.00     0.263 C 
ATOM     12  H   UNL A   1      32.169  22.769  23.530  1.00  0.00     0.348 HD
ATOM     13  C   UNL A   1      30.541  24.778  23.465  1.00  0.00     0.066 C 
ATOM     14  C   UNL A   1      32.979  25.266  23.456  1.00  0.00     0.066 C 
BRANCH   9  15
ATOM     15  C   UNL A   1      32.296  21.943  25.285  1.00  0.00     0.222 C 
ATOM     16  C   UNL A   1      33.364  22.048  26.396  1.00  0.00     0.082 C 
BRANCH  15  17
ATOM     17  C   UNL A   1      32.548  20.689  24.471  1.00  0.00     0.063 A 
ATOM     18  C   UNL A   1      32.169  20.396  23.173  1.00  0.00     0.023 A 
ATOM     19  S   UNL A   1      33.374  19.359  25.191  1.00  0.00    -0.127 S 
ATOM     20  C   UNL A   1      32.446  19.041  22.821  1.00  0.00     0.028 A 
ATOM     21  C   UNL A   1      33.071  18.380  23.846  1.00  0.00     0.070 A 
ATOM     22  Br  UNL A   1      33.534  16.566  23.784  1.00  0.00    -0.039 Br
ENDBRANCH  15  17
ENDBRANCH   9  15
ENDBRANCH   7   8
ENDBRANCH   4   7
ENDBRANCH   2   3
ENDBRANCH   1   2
BRANCH   1  23
ATOM     23  C   UNL A   1      32.078  29.767  25.514  1.00  0.00     0.023 C 
BRANCH  23  24
ATOM     24  C   UNL A   1      32.384  30.256  26.917  1.00  0.00     0.116 C 
BRANCH  24  25
ATOM     25  N   UNL A   1      32.281  31.704  27.065  1.00  0.00    -0.352 N 
ATOM     26  C   UNL A   1      33.229  32.592  27.530  1.00  0.00     0.251 C 
ATOM     27  H   UNL A   1      31.420  32.100  26.798  1.00  0.00     0.163 HD
ATOM     28  O   UNL A   1      32.954  33.770  27.687  1.00  0.00    -0.269 OA
BRANCH  26  29
ATOM     29  C   UNL A   1      34.563  32.064  27.884  1.00  0.00     0.039 A 
ATOM     30  C   UNL A   1      35.645  32.944  27.952  1.00  0.00     0.014 A 
ATOM     31  C   UNL A   1      34.699  30.734  28.282  1.00  0.00     0.014 A 
ATOM     32  C   UNL A   1      36.837  32.514  28.534  1.00  0.00     0.010 A 
ATOM     33  C   UNL A   1      35.844  30.344  28.961  1.00  0.00     0.010 A 
ATOM     34  C   UNL A   1      36.921  31.232  29.104  1.00  0.00    -0.014 A 
BRANCH  34  35
ATOM     35  C   UNL A   1      38.115  30.792  29.868  1.00  0.00     0.031 A 
ATOM     36  C   UNL A   1      39.069  29.810  29.250  1.00  0.00     0.074 A 
ATOM     37  C   UNL A   1      38.279  31.193  31.145  1.00  0.00     0.049 A 
ATOM     38  N   UNL A   1      40.091  29.196  29.787  1.00  0.00    -0.248 NA
ATOM     39  C   UNL A   1      38.807  29.433  27.852  1.00  0.00     0.031 C 
ATOM     40  C   UNL A   1      37.386  32.100  31.872  1.00  0.00     0.029 A 
ATOM     41  N   UNL A   1      39.246  30.879  32.066  1.00  0.00    -0.354 N 
ATOM     42  C   UNL A   1      40.579  28.346  28.799  1.00  0.00     0.074 A 
ATOM     43  C   UNL A   1      39.693  28.469  27.663  1.00  0.00     0.031 C 
ATOM     44  C   UNL A   1      37.864  32.292  33.112  1.00  0.00     0.029 A 
ATOM     45  C   UNL A   1      39.066  31.484  33.289  1.00  0.00     0.049 A 
ATOM     46  H   UNL A   1      40.001  30.278  31.869  1.00  0.00     0.167 HD
ATOM     47  C   UNL A   1      41.684  27.561  28.829  1.00  0.00     0.034 A 
ATOM     48  C   UNL A   1      39.778  31.383  34.429  1.00  0.00     0.034 A 
ATOM     49  C   UNL A   1      42.567  27.474  29.964  1.00  0.00     0.049 A 
ATOM     50  C   UNL A   1      40.984  30.480  34.450  1.00  0.00     0.074 A 
ATOM     51  C   UNL A   1      43.760  26.783  30.079  1.00  0.00     0.029 A 
ATOM     52  N   UNL A   1      42.346  28.090  31.189  1.00  0.00    -0.354 N 
ATOM     53  N   UNL A   1      41.472  29.733  33.487  1.00  0.00    -0.248 NA
ATOM     54  C   UNL A   1      41.731  30.404  35.711  1.00  0.00     0.031 C 
ATOM     55  C   UNL A   1      44.225  26.928  31.390  1.00  0.00     0.029 A 
ATOM     56  C   UNL A   1      43.358  27.762  32.078  1.00  0.00     0.049 A 
ATOM     57  H   UNL A   1      41.581  28.675  31.396  1.00  0.00     0.167 HD
ATOM     58  C   UNL A   1      42.593  29.108  34.024  1.00  0.00     0.074 A 
ATOM     59  C   UNL A   1      42.719  29.583  35.387  1.00  0.00     0.031 C 
ATOM     60  C   UNL A   1      43.445  28.224  33.443  1.00  0.00     0.034 A 
BRANCH  47  61
ATOM     61  C   UNL A   1      41.973  26.732  27.600  1.00  0.00     0.023 A 
ATOM     62  C   UNL A   1      41.606  25.376  27.524  1.00  0.00     0.031 A 
ATOM     63  C   UNL A   1      42.672  27.285  26.514  1.00  0.00     0.131 A 
ATOM     64  C   UNL A   1      42.023  24.596  26.435  1.00  0.00     0.055 A 
ATOM     65  C   UNL A   1      43.006  26.525  25.390  1.00  0.00     0.041 A 
ATOM     66  F   UNL A   1      43.067  28.567  26.536  1.00  0.00    -0.206 F 
ATOM     67  C   UNL A   1      42.699  25.167  25.355  1.00  0.00     0.022 A 
BRANCH  64  68
ATOM     68  S   UNL A   1      41.816  22.797  26.533  1.00  0.00     0.124 S 
ATOM     69  O   UNL A   1      42.620  22.472  27.709  1.00  0.00    -0.237 OA
ATOM     70  O   UNL A   1      40.373  22.655  26.686  1.00  0.00    -0.237 OA
ATOM     71  O   UNL A   1      42.360  22.320  25.263  1.00  0.00    -0.744 OA
ENDBRANCH  64  68
ENDBRANCH  47  61
BRANCH  48  72
ATOM     72  C   UNL A   1      39.368  32.139  35.645  1.00  0.00     0.023 A 
ATOM     73  C   UNL A   1      38.594  31.529  36.646  1.00  0.00     0.031 A 
ATOM     74  C   UNL A   1      39.719  33.489  35.815  1.00  0.00     0.131 A 
ATOM     75  C   UNL A   1      38.169  32.277  37.755  1.00  0.00     0.055 A 
ATOM     76  C   UNL A   1      39.330  34.217  36.942  1.00  0.00     0.041 A 
ATOM     77  F   UNL A   1      40.463  34.118  34.891  1.00  0.00    -0.206 F 
ATOM     78  C   UNL A   1      38.542  33.614  37.915  1.00  0.00     0.022 A 
BRANCH  75  79
ATOM     79  S   UNL A   1      37.064  31.491  38.961  1.00  0.00     0.124 S 
ATOM     80  O   UNL A   1      36.861  30.175  38.366  1.00  0.00    -0.237 OA
ATOM     81  O   UNL A   1      37.870  31.529  40.178  1.00  0.00    -0.237 OA
ATOM     82  O   UNL A   1      35.892  32.363  38.967  1.00  0.00    -0.744 OA
ENDBRANCH  75  79
ENDBRANCH  48  72
BRANCH  60  83
ATOM     83  C   UNL A   1      44.589  27.728  34.289  1.00  0.00     0.023 A 
ATOM     84  C   UNL A   1      44.465  26.575  35.084  1.00  0.00     0.031 A 
ATOM     85  C   UNL A   1      45.814  28.416  34.302  1.00  0.00     0.131 A 
ATOM     86  C   UNL A   1      45.534  26.170  35.895  1.00  0.00     0.055 A 
ATOM     87  C   UNL A   1      46.894  27.977  35.069  1.00  0.00     0.041 A 
ATOM     88  F   UNL A   1      45.983  29.524  33.563  1.00  0.00    -0.206 F 
ATOM     89  C   UNL A   1      46.754  26.853  35.879  1.00  0.00     0.022 A 
BRANCH  86  90
ATOM     90  S   UNL A   1      45.290  24.774  37.025  1.00  0.00     0.124 S 
ATOM     91  O   UNL A   1      45.422  23.631  36.128  1.00  0.00    -0.237 OA
ATOM     92  O   UNL A   1      46.370  24.956  37.989  1.00  0.00    -0.237 OA
ATOM     93  O   UNL A   1      43.945  24.993  37.556  1.00  0.00    -0.744 OA
ENDBRANCH  86  90
ENDBRANCH  60  83
ENDBRANCH  34  35
ENDBRANCH  26  29
ENDBRANCH  24  25
ENDBRANCH  23  24
ENDBRANCH   1  23
TORSDOF 17
ENDMDL
MODEL 2
REMARK VINA RESULT:     -11.8      5.400     10.507
REMARK SMILES C[C@H](c1ccc(Br)s1)[NH+]1CCC(CC(=O)NCCCCNC(=O)c2ccc(-c3c4nc(c(-c5cc(S(=O)(=O)[O-])ccc5F)c5ccc([nH]5)c(-c5cc(S(=O)(=O)[O-])ccc5F)c5nc(c(-c6cc(S(=O)(=O)[O-])ccc6F)c6ccc3[nH]6)C=C5)C=C4)cc2)CC1
REMARK SMILES IDX 18 1 17 2 16 3 14 4 15 5 13 7 12 8 9 9 10 10 88 11 11 13
REMARK SMILES IDX 87 14 2 15 1 16 3 17 4 18 8 19 5 20 6 21 7 22 19 23 20 24
REMARK SMILES IDX 21 25 22 26 23 28 24 29 25 30 86 31 26 32 85 33 27 34 28 35
REMARK SMILES IDX 29 36 79 37 30 38 84 39 78 40 80 41 31 42 83 43 77 44 76 45
REMARK SMILES IDX 32 47 64 48 44 49 63 50 45 51 48 52 62 53 81 54 46 55 47 56
REMARK SMILES IDX 61 58 82 59 49 60 33 61 34 62 42 63 35 64 41 65 43 66 40 67
REMARK SMILES IDX 36 68 37 69 38 70 39 71 65 72 66 73 74 74 67 75 73 76 75 77
REMARK SMILES IDX 72 78 68 79 69 80 70 81 71 82 50 83 51 84 59 85 52 86 58 87
REMARK SMILES IDX 60 88 57 89 53 90 54 91 55 92 56 93
REMARK H PARENT 16 6 9 12 21 27 80 46 48 57
REMARK Flexibility Score: inf
ROOT
ATOM      1  C   UNL A   1      34.889  20.184  24.869  1.00  0.00     0.023 C 
ENDROOT
BRANCH   1   2
ATOM      2  C   UNL A   1      33.466  20.099  25.436  1.00  0.00     0.116 C 
BRANCH   2   3
ATOM      3  N   UNL A   1      33.361  20.698  26.759  1.00  0.00    -0.356 N 
ATOM      4  C   UNL A   1      32.870  21.911  27.151  1.00  0.00     0.220 C 
ATOM      5  O   UNL A   1      32.907  22.201  28.349  1.00  0.00    -0.275 OA
ATOM      6  H   UNL A   1      33.700  20.136  27.492  1.00  0.00     0.163 HD
BRANCH   4   7
ATOM      7  C   UNL A   1      32.311  22.899  26.137  1.00  0.00     0.104 C 
BRANCH   7   8
ATOM      8  C   UNL A   1      32.685  24.366  26.430  1.00  0.00     0.009 C 
ATOM      9  N   UNL A   1      32.881  27.087  25.266  1.00  0.00    -0.328 N 
ATOM     10  C   UNL A   1      34.094  26.323  25.512  1.00  0.00     0.263 C 
ATOM     11  C   UNL A   1      31.854  26.769  26.271  1.00  0.00     0.263 C 
ATOM     12  H   UNL A   1      32.504  26.773  24.372  1.00  0.00     0.348 HD
ATOM     13  C   UNL A   1      33.793  24.837  25.503  1.00  0.00     0.066 C 
ATOM     14  C   UNL A   1      31.470  25.284  26.273  1.00  0.00     0.066 C 
BRANCH   9  15
ATOM     15  C   UNL A   1      33.087  28.531  24.967  1.00  0.00     0.222 C 
ATOM     16  C   UNL A   1      33.706  29.383  26.095  1.00  0.00     0.082 C 
BRANCH  15  17
ATOM     17  C   UNL A   1      31.854  29.233  24.433  1.00  0.00     0.063 A 
ATOM     18  C   UNL A   1      31.118  30.262  24.995  1.00  0.00     0.023 A 
ATOM     19  S   UNL A   1      31.160  28.718  22.942  1.00  0.00    -0.127 S 
ATOM     20  C   UNL A   1      29.923  30.534  24.265  1.00  0.00     0.028 A 
ATOM     21  C   UNL A   1      29.829  29.740  23.153  1.00  0.00     0.070 A 
ATOM     22  Br  UNL A   1      28.368  29.760  21.980  1.00  0.00    -0.039 Br
ENDBRANCH  15  17
ENDBRANCH   9  15
ENDBRANCH   7   8
ENDBRANCH   4   7
ENDBRANCH   2   3
ENDBRANCH   1   2
BRANCH   1  23
ATOM     23  C   UNL A   1      35.419  21.583  24.620  1.00  0.00     0.023 C 
BRANCH  23  24
ATOM     24  C   UNL A   1      36.663  21.927  25.415  1.00  0.00     0.116 C 
BRANCH  24  25
ATOM     25  N   UNL A   1      37.670  20.871  25.409  1.00  0.00    -0.352 N 
ATOM     26  C   UNL A   1      38.958  20.905  25.903  1.00  0.00     0.251 C 
ATOM     27  H   UNL A   1      37.393  20.020  24.997  1.00  0.00     0.163 HD
ATOM     28  O   UNL A   1      39.715  19.963  25.733  1.00  0.00    -0.269 OA
BRANCH  26  29
ATOM     29  C   UNL A   1      39.407  22.134  26.590  1.00  0.00     0.039 A 
ATOM     30  C   UNL A   1      40.429  22.046  27.537  1.00  0.00     0.014 A 
ATOM     31  C   UNL A   1      38.912  23.374  26.186  1.00  0.00     0.014 A 
ATOM     32  C   UNL A   1      41.037  23.216  27.993  1.00  0.00     0.010 A 
ATOM     33  C   UNL A   1      39.591  24.527  26.554  1.00  0.00     0.010 A 
ATOM     34  C   UNL A   1      40.667  24.459  27.452  1.00  0.00    -0.014 A 
BRANCH  34  35
ATOM     35  C   UNL A   1      41.393  25.708  27.794  1.00  0.00     0.031 A 
ATOM     36  C   UNL A   1      40.674  26.805  28.528  1.00  0.00     0.074 A 
ATOM     37  C   UNL A   1      42.654  25.893  27.355  1.00  0.00     0.049 A 
ATOM     38  N   UNL A   1      41.074  28.019  28.804  1.00  0.00    -0.248 NA
ATOM     39  C   UNL A   1      39.301  26.509  28.967  1.00  0.00     0.031 C 
ATOM     40  C   UNL A   1      43.435  24.921  26.583  1.00  0.00     0.029 A 
ATOM     41  N   UNL A   1      43.499  26.966  27.481  1.00  0.00    -0.354 N 
ATOM     42  C   UNL A   1      39.996  28.636  29.430  1.00  0.00     0.074 A 
ATOM     43  C   UNL A   1      38.904  27.687  29.420  1.00  0.00     0.031 C 
ATOM     44  C   UNL A   1      44.651  25.432  26.332  1.00  0.00     0.029 A 
ATOM     45  C   UNL A   1      44.723  26.783  26.877  1.00  0.00     0.049 A 
ATOM     46  H   UNL A   1      43.254  27.790  27.960  1.00  0.00     0.167 HD
ATOM     47  C   UNL A   1      39.934  29.869  29.990  1.00  0.00     0.034 A 
ATOM     48  C   UNL A   1      45.774  27.618  26.761  1.00  0.00     0.034 A 
ATOM     49  C   UNL A   1      41.044  30.788  30.011  1.00  0.00     0.049 A 
ATOM     50  C   UNL A   1      45.673  28.996  27.363  1.00  0.00     0.074 A 
ATOM     51  C   UNL A   1      41.127  32.026  30.623  1.00  0.00     0.029 A 
ATOM     52  N   UNL A   1      42.262  30.574  29.379  1.00  0.00    -0.354 N 
ATOM     53  N   UNL A   1      44.670  29.542  28.010  1.00  0.00    -0.248 NA
ATOM     54  C   UNL A   1      46.845  29.869  27.215  1.00  0.00     0.031 C 
ATOM     55  C   UNL A   1      42.370  32.586  30.308  1.00  0.00     0.029 A 
ATOM     56  C   UNL A   1      43.089  31.673  29.552  1.00  0.00     0.049 A 
ATOM     57  H   UNL A   1      42.504  29.760  28.882  1.00  0.00     0.167 HD
ATOM     58  C   UNL A   1      45.096  30.820  28.358  1.00  0.00     0.074 A 
ATOM     59  C   UNL A   1      46.452  30.953  27.868  1.00  0.00     0.031 C 
ATOM     60  C   UNL A   1      44.428  31.796  29.026  1.00  0.00     0.034 A 
BRANCH  47  61
ATOM     61  C   UNL A   1      38.618  30.282  30.603  1.00  0.00     0.023 A 
ATOM     62  C   UNL A   1      37.646  30.980  29.861  1.00  0.00     0.031 A 
ATOM     63  C   UNL A   1      38.350  30.028  31.959  1.00  0.00     0.131 A 
ATOM     64  C   UNL A   1      36.502  31.481  30.498  1.00  0.00     0.055 A 
ATOM     65  C   UNL A   1      37.166  30.453  32.567  1.00  0.00     0.041 A 
ATOM     66  F   UNL A   1      39.245  29.386  32.724  1.00  0.00    -0.206 F 
ATOM     67  C   UNL A   1      36.243  31.201  31.842  1.00  0.00     0.022 A 
BRANCH  64  68
ATOM     68  S   UNL A   1      35.449  32.645  29.590  1.00  0.00     0.124 S 
ATOM     69  O   UNL A   1      35.195  31.908  28.354  1.00  0.00    -0.237 OA
ATOM     70  O   UNL A   1      34.310  32.802  30.486  1.00  0.00    -0.237 OA
ATOM     71  O   UNL A   1      36.295  33.827  29.439  1.00  0.00    -0.744 OA
ENDBRANCH  64  68
ENDBRANCH  47  61
BRANCH  48  72
ATOM     72  C   UNL A   1      47.003  27.188  26.037  1.00  0.00     0.023 A 
ATOM     73  C   UNL A   1      48.050  26.542  26.715  1.00  0.00     0.031 A 
ATOM     74  C   UNL A   1      47.164  27.439  24.663  1.00  0.00     0.131 A 
ATOM     75  C   UNL A   1      49.224  26.199  26.026  1.00  0.00     0.055 A 
ATOM     76  C   UNL A   1      48.315  27.056  23.972  1.00  0.00     0.041 A 
ATOM     77  F   UNL A   1      46.190  28.047  23.967  1.00  0.00    -0.206 F 
ATOM     78  C   UNL A   1      49.358  26.441  24.656  1.00  0.00     0.022 A 
BRANCH  75  79
ATOM     79  S   UNL A   1      50.604  25.485  26.962  1.00  0.00     0.124 S 
ATOM     80  O   UNL A   1      51.551  25.166  25.899  1.00  0.00    -0.237 OA
ATOM     81  O   UNL A   1      50.975  26.588  27.843  1.00  0.00    -0.237 OA
ATOM     82  O   UNL A   1      50.003  24.333  27.630  1.00  0.00    -0.744 OA
ENDBRANCH  75  79
ENDBRANCH  48  72
BRANCH  60  83
ATOM     83  C   UNL A   1      45.170  33.084  29.266  1.00  0.00     0.023 A 
ATOM     84  C   UNL A   1      45.071  34.164  28.372  1.00  0.00     0.031 A 
ATOM     85  C   UNL A   1      45.988  33.234  30.400  1.00  0.00     0.131 A 
ATOM     86  C   UNL A   1      45.813  35.331  28.602  1.00  0.00     0.055 A 
ATOM     87  C   UNL A   1      46.682  34.417  30.653  1.00  0.00     0.041 A 
ATOM     88  F   UNL A   1      46.119  32.231  31.283  1.00  0.00    -0.206 F 
ATOM     89  C   UNL A   1      46.604  35.471  29.746  1.00  0.00     0.022 A 
BRANCH  86  90
ATOM     90  S   UNL A   1      45.785  36.642  27.350  1.00  0.00     0.124 S 
ATOM     91  O   UNL A   1      46.642  36.084  26.309  1.00  0.00    -0.237 OA
ATOM     92  O   UNL A   1      44.366  36.736  27.025  1.00  0.00    -0.237 OA
ATOM     93  O   UNL A   1      46.336  37.799  28.052  1.00  0.00    -0.744 OA
ENDBRANCH  86  90
ENDBRANCH  60  83
ENDBRANCH  34  35
ENDBRANCH  26  29
ENDBRANCH  24  25
ENDBRANCH  23  24
ENDBRANCH   1  23
TORSDOF 17
ENDMDL
MODEL 3
REMARK VINA RESULT:     -11.7      2.073      2.661
REMARK SMILES C[C@H](c1ccc(Br)s1)[NH+]1CCC(CC(=O)NCCCCNC(=O)c2ccc(-c3c4nc(c(-c5cc(S(=O)(=O)[O-])ccc5F)c5ccc([nH]5)c(-c5cc(S(=O)(=O)[O-])ccc5F)c5nc(c(-c6cc(S(=O)(=O)[O-])ccc6F)c6ccc3[nH]6)C=C5)C=C4)cc2)CC1
REMARK SMILES IDX 18 1 17 2 16 3 14 4 15 5 13 7 12 8 9 9 10 10 88 11 11 13
REMARK SMILES IDX 87 14 2 15 1 16 3 17 4 18 8 19 5 20 6 21 7 22 19 23 20 24
REMARK SMILES IDX 21 25 22 26 23 28 24 29 25 30 86 31 26 32 85 33 27 34 28 35
REMARK SMILES IDX 29 36 79 37 30 38 84 39 78 40 80 41 31 42 83 43 77 44 76 45
REMARK SMILES IDX 32 47 64 48 44 49 63 50 45 51 48 52 62 53 81 54 46 55 47 56
REMARK SMILES IDX 61 58 82 59 49 60 33 61 34 62 42 63 35 64 41 65 43 66 40 67
REMARK SMILES IDX 36 68 37 69 38 70 39 71 65 72 66 73 74 74 67 75 73 76 75 77
REMARK SMILES IDX 72 78 68 79 69 80 70 81 71 82 50 83 51 84 59 85 52 86 58 87
REMARK SMILES IDX 60 88 57 89 53 90 54 91 55 92 56 93
REMARK H PARENT 16 6 9 12 21 27 80 46 48 57
REMARK Flexibility Score: inf
ROOT
ATOM      1  C   UNL A   1      32.551  30.103  25.798  1.00  0.00     0.023 C 
ENDROOT
BRANCH   1   2
ATOM      2  C   UNL A   1      31.131  30.030  25.221  1.00  0.00     0.116 C 
BRANCH   2   3
ATOM      3  N   UNL A   1      31.122  29.611  23.826  1.00  0.00    -0.356 N 
ATOM      4  C   UNL A   1      30.747  28.428  23.255  1.00  0.00     0.220 C 
ATOM      5  O   UNL A   1      30.849  28.308  22.031  1.00  0.00    -0.275 OA
ATOM      6  H   UNL A   1      31.437  30.292  23.190  1.00  0.00     0.163 HD
BRANCH   4   7
ATOM      7  C   UNL A   1      30.238  27.270  24.102  1.00  0.00     0.104 C 
BRANCH   7   8
ATOM      8  C   UNL A   1      31.315  26.654  25.018  1.00  0.00     0.009 C 
ATOM      9  N   UNL A   1      32.864  24.193  25.606  1.00  0.00    -0.328 N 
ATOM     10  C   UNL A   1      31.783  24.591  26.495  1.00  0.00     0.263 C 
ATOM     11  C   UNL A   1      33.519  25.376  25.024  1.00  0.00     0.263 C 
ATOM     12  H   UNL A   1      32.441  23.695  24.824  1.00  0.00     0.348 HD
ATOM     13  C   UNL A   1      30.771  25.439  25.750  1.00  0.00     0.066 C 
ATOM     14  C   UNL A   1      32.551  26.247  24.213  1.00  0.00     0.066 C 
BRANCH   9  15
ATOM     15  C   UNL A   1      33.765  23.132  26.133  1.00  0.00     0.222 C 
ATOM     16  C   UNL A   1      35.278  23.437  26.096  1.00  0.00     0.082 C 
BRANCH  15  17
ATOM     17  C   UNL A   1      33.520  21.760  25.534  1.00  0.00     0.063 A 
ATOM     18  C   UNL A   1      32.323  21.095  25.329  1.00  0.00     0.023 A 
ATOM     19  S   UNL A   1      34.860  20.790  25.054  1.00  0.00    -0.127 S 
ATOM     20  C   UNL A   1      32.521  19.749  24.899  1.00  0.00     0.028 A 
ATOM     21  C   UNL A   1      33.853  19.467  24.745  1.00  0.00     0.070 A 
ATOM     22  Br  UNL A   1      34.510  17.783  24.255  1.00  0.00    -0.039 Br
ENDBRANCH  15  17
ENDBRANCH   9  15
ENDBRANCH   7   8
ENDBRANCH   4   7
ENDBRANCH   2   3
ENDBRANCH   1   2
BRANCH   1  23
ATOM     23  C   UNL A   1      32.658  30.578  27.234  1.00  0.00     0.023 C 
BRANCH  23  24
ATOM     24  C   UNL A   1      33.636  31.718  27.440  1.00  0.00     0.116 C 
BRANCH  24  25
ATOM     25  N   UNL A   1      32.994  33.024  27.552  1.00  0.00    -0.352 N 
ATOM     26  C   UNL A   1      33.256  34.038  28.450  1.00  0.00     0.251 C 
ATOM     27  H   UNL A   1      32.279  33.205  26.899  1.00  0.00     0.163 HD
ATOM     28  O   UNL A   1      32.561  35.040  28.477  1.00  0.00    -0.269 OA
BRANCH  26  29
ATOM     29  C   UNL A   1      34.362  33.848  29.411  1.00  0.00     0.039 A 
ATOM     30  C   UNL A   1      34.142  33.079  30.555  1.00  0.00     0.014 A 
ATOM     31  C   UNL A   1      35.640  34.314  29.099  1.00  0.00     0.014 A 
ATOM     32  C   UNL A   1      35.234  32.678  31.326  1.00  0.00     0.010 A 
ATOM     33  C   UNL A   1      36.731  33.820  29.800  1.00  0.00     0.010 A 
ATOM     34  C   UNL A   1      36.540  32.989  30.913  1.00  0.00    -0.014 A 
BRANCH  34  35
ATOM     35  C   UNL A   1      37.732  32.451  31.616  1.00  0.00     0.031 A 
ATOM     36  C   UNL A   1      38.509  31.322  31.000  1.00  0.00     0.074 A 
ATOM     37  C   UNL A   1      38.047  32.905  32.846  1.00  0.00     0.049 A 
ATOM     38  N   UNL A   1      39.490  30.619  31.502  1.00  0.00    -0.248 NA
ATOM     39  C   UNL A   1      38.090  30.896  29.655  1.00  0.00     0.031 C 
ATOM     40  C   UNL A   1      37.331  33.959  33.571  1.00  0.00     0.029 A 
ATOM     41  N   UNL A   1      39.042  32.529  33.713  1.00  0.00    -0.354 N 
ATOM     42  C   UNL A   1      39.791  29.657  30.543  1.00  0.00     0.074 A 
ATOM     43  C   UNL A   1      38.836  29.820  29.470  1.00  0.00     0.031 C 
ATOM     44  C   UNL A   1      37.928  34.165  34.756  1.00  0.00     0.029 A 
ATOM     45  C   UNL A   1      39.035  33.225  34.901  1.00  0.00     0.049 A 
ATOM     46  H   UNL A   1      39.700  31.829  33.504  1.00  0.00     0.167 HD
ATOM     47  C   UNL A   1      40.793  28.743  30.546  1.00  0.00     0.034 A 
ATOM     48  C   UNL A   1      39.821  33.106  35.989  1.00  0.00     0.034 A 
ATOM     49  C   UNL A   1      41.749  28.616  31.617  1.00  0.00     0.049 A 
ATOM     50  C   UNL A   1      40.909  32.063  35.984  1.00  0.00     0.074 A 
ATOM     51  C   UNL A   1      42.856  27.790  31.692  1.00  0.00     0.029 A 
ATOM     52  N   UNL A   1      41.704  29.329  32.809  1.00  0.00    -0.354 N 
ATOM     53  N   UNL A   1      41.224  31.204  35.043  1.00  0.00    -0.248 NA
ATOM     54  C   UNL A   1      41.742  31.972  37.190  1.00  0.00     0.031 C 
ATOM     55  C   UNL A   1      43.441  27.956  32.952  1.00  0.00     0.029 A 
ATOM     56  C   UNL A   1      42.739  28.932  33.641  1.00  0.00     0.049 A 
ATOM     57  H   UNL A   1      41.034  30.016  33.030  1.00  0.00     0.167 HD
ATOM     58  C   UNL A   1      42.302  30.478  35.539  1.00  0.00     0.074 A 
ATOM     59  C   UNL A   1      42.595  31.016  36.852  1.00  0.00     0.031 C 
ATOM     60  C   UNL A   1      42.992  29.461  34.961  1.00  0.00     0.034 A 
BRANCH  47  61
ATOM     61  C   UNL A   1      40.880  27.812  29.361  1.00  0.00     0.023 A 
ATOM     62  C   UNL A   1      41.814  28.019  28.329  1.00  0.00     0.031 A 
ATOM     63  C   UNL A   1      39.983  26.738  29.229  1.00  0.00     0.131 A 
ATOM     64  C   UNL A   1      41.768  27.229  27.172  1.00  0.00     0.055 A 
ATOM     65  C   UNL A   1      40.001  25.898  28.113  1.00  0.00     0.041 A 
ATOM     66  F   UNL A   1      39.056  26.502  30.169  1.00  0.00    -0.206 F 
ATOM     67  C   UNL A   1      40.883  26.153  27.067  1.00  0.00     0.022 A 
BRANCH  64  68
ATOM     68  S   UNL A   1      42.762  27.735  25.741  1.00  0.00     0.124 S 
ATOM     69  O   UNL A   1      42.231  26.866  24.693  1.00  0.00    -0.237 OA
ATOM     70  O   UNL A   1      42.441  29.152  25.621  1.00  0.00    -0.237 OA
ATOM     71  O   UNL A   1      44.132  27.436  26.154  1.00  0.00    -0.744 OA
ENDBRANCH  64  68
ENDBRANCH  47  61
BRANCH  48  72
ATOM     72  C   UNL A   1      39.605  33.980  37.176  1.00  0.00     0.023 A 
ATOM     73  C   UNL A   1      38.959  33.490  38.324  1.00  0.00     0.031 A 
ATOM     74  C   UNL A   1      40.015  35.324  37.174  1.00  0.00     0.131 A 
ATOM     75  C   UNL A   1      38.713  34.347  39.408  1.00  0.00     0.055 A 
ATOM     76  C   UNL A   1      39.808  36.162  38.272  1.00  0.00     0.041 A 
ATOM     77  F   UNL A   1      40.643  35.840  36.105  1.00  0.00    -0.206 F 
ATOM     78  C   UNL A   1      39.143  35.677  39.394  1.00  0.00     0.022 A 
BRANCH  75  79
ATOM     79  S   UNL A   1      37.763  33.715  40.817  1.00  0.00     0.124 S 
ATOM     80  O   UNL A   1      36.667  33.021  40.151  1.00  0.00    -0.237 OA
ATOM     81  O   UNL A   1      38.745  32.869  41.489  1.00  0.00    -0.237 OA
ATOM     82  O   UNL A   1      37.386  34.925  41.545  1.00  0.00    -0.744 OA
ENDBRANCH  75  79
ENDBRANCH  48  72
BRANCH  60  83
ATOM     83  C   UNL A   1      44.134  28.879  35.753  1.00  0.00     0.023 A 
ATOM     84  C   UNL A   1      43.950  27.766  36.592  1.00  0.00     0.031 A 
ATOM     85  C   UNL A   1      45.418  29.444  35.669  1.00  0.00     0.131 A 
ATOM     86  C   UNL A   1      45.024  27.281  37.350  1.00  0.00     0.055 A 
ATOM     87  C   UNL A   1      46.496  28.923  36.384  1.00  0.00     0.041 A 
ATOM     88  F   UNL A   1      45.645  30.510  34.884  1.00  0.00    -0.206 F 
ATOM     89  C   UNL A   1      46.301  27.841  37.238  1.00  0.00     0.022 A 
BRANCH  86  90
ATOM     90  S   UNL A   1      44.718  25.947  38.539  1.00  0.00     0.124 S 
ATOM     91  O   UNL A   1      43.757  25.117  37.822  1.00  0.00    -0.237 OA
ATOM     92  O   UNL A   1      46.048  25.373  38.718  1.00  0.00    -0.237 OA
ATOM     93  O   UNL A   1      44.184  26.645  39.707  1.00  0.00    -0.744 OA
ENDBRANCH  86  90
ENDBRANCH  60  83
ENDBRANCH  34  35
ENDBRANCH  26  29
ENDBRANCH  24  25
ENDBRANCH  23  24
ENDBRANCH   1  23
TORSDOF 17
ENDMDL
