MODEL 1
REMARK VINA RESULT:     -13.0      0.000      0.000
REMARK SMILES O=C(NCCCCNC(=O)c1c(C2CC2)nn(-c2ccc(Cl)c(F)c2)c1Cl)c1ccc(-c2c3nc(c(-c4cc(S(=O)(=O)[O-])ccc4F)c4ccc([nH]4)c(-c4cc(S(=O)(=O)[O-])ccc4F)c4nc(c(-c5cc(S(=O)(=O)[O-])ccc5F)c5ccc2[nH]5)C=C4)C=C3)cc1
REMARK SMILES IDX 4 1 3 2 1 3 2 4 28 6 29 7 90 8 30 9 89 10 31 11 32 12 33 13
REMARK SMILES IDX 83 14 34 15 88 16 82 17 84 18 35 19 87 20 81 21 80 22 36 24
REMARK SMILES IDX 68 25 48 26 67 27 49 28 52 29 66 30 85 31 50 32 51 33 65 35
REMARK SMILES IDX 86 36 53 37 37 38 38 39 46 40 39 41 45 42 47 43 44 44 40 45
REMARK SMILES IDX 41 46 42 47 43 48 69 49 70 50 78 51 71 52 77 53 79 54 76 55
REMARK SMILES IDX 72 56 73 57 74 58 75 59 54 60 55 61 63 62 56 63 62 64 64 65
REMARK SMILES IDX 61 66 57 67 58 68 59 69 60 70 5 71 6 72 7 73 8 74 9 75 10 77
REMARK SMILES IDX 11 78 12 79 26 80 16 81 17 82 27 83 13 84 14 85 15 86 18 87
REMARK SMILES IDX 19 88 25 89 20 90 23 91 21 92 24 93 22 94
REMARK H PARENT 3 5 84 23 52 34 8 76
REMARK Flexibility Score: inf
ROOT
ATOM      1  C   UNL A   1      34.618  28.862  27.049  1.00  0.00     0.116 C 
ENDROOT
BRANCH   1   2
ATOM      2  N   UNL A   1      34.862  29.647  28.243  1.00  0.00    -0.352 N 
ATOM      3  O   UNL A   1      35.805  30.822  29.858  1.00  0.00    -0.269 OA
ATOM      4  C   UNL A   1      35.981  30.011  28.943  1.00  0.00     0.251 C 
ATOM      5  H   UNL A   1      34.033  29.999  28.642  1.00  0.00     0.163 HD
BRANCH   4   6
ATOM      6  C   UNL A   1      37.354  29.477  28.714  1.00  0.00     0.039 A 
ATOM      7  C   UNL A   1      38.149  29.734  27.597  1.00  0.00     0.014 A 
ATOM      8  C   UNL A   1      37.884  28.665  29.737  1.00  0.00     0.014 A 
ATOM      9  C   UNL A   1      39.412  29.151  27.476  1.00  0.00     0.010 A 
ATOM     10  C   UNL A   1      39.153  28.095  29.629  1.00  0.00     0.010 A 
ATOM     11  C   UNL A   1      39.916  28.327  28.487  1.00  0.00    -0.014 A 
BRANCH  11  12
ATOM     12  C   UNL A   1      41.312  27.884  28.385  1.00  0.00     0.031 A 
ATOM     13  C   UNL A   1      41.518  26.572  27.701  1.00  0.00     0.074 A 
ATOM     14  C   UNL A   1      42.386  28.636  28.701  1.00  0.00     0.049 A 
ATOM     15  N   UNL A   1      42.113  25.512  28.145  1.00  0.00    -0.248 NA
ATOM     16  C   UNL A   1      40.923  26.400  26.366  1.00  0.00     0.031 C 
ATOM     17  C   UNL A   1      42.406  30.046  29.084  1.00  0.00     0.029 A 
ATOM     18  N   UNL A   1      43.714  28.309  28.634  1.00  0.00    -0.354 N 
ATOM     19  C   UNL A   1      42.137  24.602  27.089  1.00  0.00     0.074 A 
ATOM     20  C   UNL A   1      41.281  25.151  26.071  1.00  0.00     0.031 C 
ATOM     21  C   UNL A   1      43.674  30.509  29.007  1.00  0.00     0.029 A 
ATOM     22  C   UNL A   1      44.567  29.405  28.688  1.00  0.00     0.049 A 
ATOM     23  H   UNL A   1      44.034  27.382  28.554  1.00  0.00     0.167 HD
ATOM     24  C   UNL A   1      42.991  23.540  27.061  1.00  0.00     0.034 A 
ATOM     25  C   UNL A   1      45.901  29.429  28.426  1.00  0.00     0.034 A 
ATOM     26  C   UNL A   1      43.483  23.223  28.379  1.00  0.00     0.049 A 
ATOM     27  C   UNL A   1      46.418  28.049  28.578  1.00  0.00     0.074 A 
ATOM     28  C   UNL A   1      42.886  22.882  29.578  1.00  0.00     0.029 A 
ATOM     29  N   UNL A   1      44.781  23.545  28.700  1.00  0.00    -0.354 N 
ATOM     30  N   UNL A   1      46.472  27.414  29.715  1.00  0.00    -0.248 NA
ATOM     31  C   UNL A   1      46.507  27.206  27.396  1.00  0.00     0.031 C 
ATOM     32  C   UNL A   1      43.683  23.511  30.578  1.00  0.00     0.029 A 
ATOM     33  C   UNL A   1      44.743  24.149  29.931  1.00  0.00     0.049 A 
ATOM     34  H   UNL A   1      45.581  23.375  28.152  1.00  0.00     0.167 HD
ATOM     35  C   UNL A   1      46.177  26.097  29.407  1.00  0.00     0.074 A 
ATOM     36  C   UNL A   1      46.322  26.009  27.957  1.00  0.00     0.031 C 
ATOM     37  C   UNL A   1      45.577  25.272  30.315  1.00  0.00     0.034 A 
BRANCH  24  38
ATOM     38  C   UNL A   1      43.608  22.952  25.808  1.00  0.00     0.023 A 
ATOM     39  C   UNL A   1      43.682  21.547  25.707  1.00  0.00     0.031 A 
ATOM     40  C   UNL A   1      44.367  23.673  24.859  1.00  0.00     0.131 A 
ATOM     41  C   UNL A   1      44.535  20.929  24.774  1.00  0.00     0.055 A 
ATOM     42  C   UNL A   1      45.155  23.052  23.883  1.00  0.00     0.041 A 
ATOM     43  F   UNL A   1      44.466  25.006  24.878  1.00  0.00    -0.206 F 
ATOM     44  C   UNL A   1      45.269  21.673  23.856  1.00  0.00     0.022 A 
BRANCH  41  45
ATOM     45  S   UNL A   1      44.816  19.142  24.911  1.00  0.00     0.124 S 
ATOM     46  O   UNL A   1      44.866  18.743  23.508  1.00  0.00    -0.237 OA
ATOM     47  O   UNL A   1      46.078  19.093  25.641  1.00  0.00    -0.237 OA
ATOM     48  O   UNL A   1      43.648  18.672  25.651  1.00  0.00    -0.744 OA
ENDBRANCH  41  45
ENDBRANCH  24  38
BRANCH  25  49
ATOM     49  C   UNL A   1      46.678  30.527  27.791  1.00  0.00     0.023 A 
ATOM     50  C   UNL A   1      46.069  31.571  27.063  1.00  0.00     0.031 A 
ATOM     51  C   UNL A   1      48.049  30.684  28.097  1.00  0.00     0.131 A 
ATOM     52  C   UNL A   1      46.827  32.699  26.669  1.00  0.00     0.055 A 
ATOM     53  C   UNL A   1      48.796  31.792  27.693  1.00  0.00     0.041 A 
ATOM     54  F   UNL A   1      48.693  29.803  28.879  1.00  0.00    -0.206 F 
ATOM     55  C   UNL A   1      48.185  32.809  26.981  1.00  0.00     0.022 A 
BRANCH  52  56
ATOM     56  S   UNL A   1      46.024  34.102  25.829  1.00  0.00     0.124 S 
ATOM     57  O   UNL A   1      47.128  34.686  25.076  1.00  0.00    -0.237 OA
ATOM     58  O   UNL A   1      44.981  33.446  25.049  1.00  0.00    -0.237 OA
ATOM     59  O   UNL A   1      45.532  34.925  26.935  1.00  0.00    -0.744 OA
ENDBRANCH  52  56
ENDBRANCH  25  49
BRANCH  37  60
ATOM     60  C   UNL A   1      45.547  25.683  31.772  1.00  0.00     0.023 A 
ATOM     61  C   UNL A   1      44.380  26.048  32.481  1.00  0.00     0.031 A 
ATOM     62  C   UNL A   1      46.745  25.576  32.502  1.00  0.00     0.131 A 
ATOM     63  C   UNL A   1      44.445  26.302  33.865  1.00  0.00     0.055 A 
ATOM     64  C   UNL A   1      46.802  25.808  33.876  1.00  0.00     0.041 A 
ATOM     65  F   UNL A   1      47.883  25.203  31.894  1.00  0.00    -0.206 F 
ATOM     66  C   UNL A   1      45.651  26.178  34.562  1.00  0.00     0.022 A 
BRANCH  63  67
ATOM     67  S   UNL A   1      42.956  26.805  34.785  1.00  0.00     0.124 S 
ATOM     68  O   UNL A   1      43.490  27.538  35.926  1.00  0.00    -0.237 OA
ATOM     69  O   UNL A   1      42.229  27.599  33.796  1.00  0.00    -0.237 OA
ATOM     70  O   UNL A   1      42.319  25.531  35.123  1.00  0.00    -0.744 OA
ENDBRANCH  63  67
ENDBRANCH  37  60
ENDBRANCH  11  12
ENDBRANCH   4   6
ENDBRANCH   1   2
BRANCH   1  71
ATOM     71  C   UNL A   1      33.382  29.267  26.245  1.00  0.00     0.023 C 
BRANCH  71  72
ATOM     72  C   UNL A   1      32.258  28.227  26.183  1.00  0.00     0.023 C 
BRANCH  72  73
ATOM     73  C   UNL A   1      32.582  26.852  26.762  1.00  0.00     0.116 C 
BRANCH  73  74
ATOM     74  N   UNL A   1      31.472  25.912  26.695  1.00  0.00    -0.352 N 
ATOM     75  C   UNL A   1      31.414  24.670  26.096  1.00  0.00     0.256 C 
ATOM     76  H   UNL A   1      30.643  26.204  27.140  1.00  0.00     0.163 HD
ATOM     77  O   UNL A   1      30.393  24.000  26.204  1.00  0.00    -0.269 OA
BRANCH  75  78
ATOM     78  C   UNL A   1      32.582  24.203  25.385  1.00  0.00     0.100 A 
ATOM     79  C   UNL A   1      33.005  24.375  24.042  1.00  0.00     0.080 A 
ATOM     80  C   UNL A   1      33.566  23.398  25.920  1.00  0.00     0.145 A 
ATOM     81  N   UNL A   1      34.263  23.952  23.854  1.00  0.00    -0.170 NA
ATOM     82  N   UNL A   1      34.606  23.356  25.020  1.00  0.00    -0.221 N 
ATOM     83  Cl  UNL A   1      33.673  22.707  27.481  1.00  0.00    -0.061 Cl
BRANCH  79  84
ATOM     84  C   UNL A   1      32.278  24.978  22.842  1.00  0.00     0.041 C 
ATOM     85  C   UNL A   1      32.007  26.465  22.766  1.00  0.00     0.011 C 
ATOM     86  C   UNL A   1      32.991  25.844  21.834  1.00  0.00     0.011 C 
ENDBRANCH  79  84
BRANCH  82  87
ATOM     87  C   UNL A   1      35.934  22.903  25.206  1.00  0.00     0.069 A 
ATOM     88  C   UNL A   1      36.860  23.768  25.812  1.00  0.00     0.030 A 
ATOM     89  C   UNL A   1      36.314  21.607  24.847  1.00  0.00     0.069 A 
ATOM     90  C   UNL A   1      38.141  23.306  26.129  1.00  0.00     0.026 A 
ATOM     91  C   UNL A   1      37.604  21.172  25.136  1.00  0.00     0.143 A 
ATOM     92  C   UNL A   1      38.511  22.003  25.793  1.00  0.00     0.076 A 
ATOM     93  F   UNL A   1      37.955  19.929  24.771  1.00  0.00    -0.205 F 
ATOM     94  Cl  UNL A   1      40.084  21.436  26.198  1.00  0.00    -0.081 Cl
ENDBRANCH  82  87
ENDBRANCH  75  78
ENDBRANCH  73  74
ENDBRANCH  72  73
ENDBRANCH  71  72
ENDBRANCH   1  71
TORSDOF 16
ENDMDL
MODEL 2
REMARK VINA RESULT:     -12.7      2.281      6.908
REMARK SMILES O=C(NCCCCNC(=O)c1c(C2CC2)nn(-c2ccc(Cl)c(F)c2)c1Cl)c1ccc(-c2c3nc(c(-c4cc(S(=O)(=O)[O-])ccc4F)c4ccc([nH]4)c(-c4cc(S(=O)(=O)[O-])ccc4F)c4nc(c(-c5cc(S(=O)(=O)[O-])ccc5F)c5ccc2[nH]5)C=C4)C=C3)cc1
REMARK SMILES IDX 4 1 3 2 1 3 2 4 28 6 29 7 90 8 30 9 89 10 31 11 32 12 33 13
REMARK SMILES IDX 83 14 34 15 88 16 82 17 84 18 35 19 87 20 81 21 80 22 36 24
REMARK SMILES IDX 68 25 48 26 67 27 49 28 52 29 66 30 85 31 50 32 51 33 65 35
REMARK SMILES IDX 86 36 53 37 37 38 38 39 46 40 39 41 45 42 47 43 44 44 40 45
REMARK SMILES IDX 41 46 42 47 43 48 69 49 70 50 78 51 71 52 77 53 79 54 76 55
REMARK SMILES IDX 72 56 73 57 74 58 75 59 54 60 55 61 63 62 56 63 62 64 64 65
REMARK SMILES IDX 61 66 57 67 58 68 59 69 60 70 5 71 6 72 7 73 8 74 9 75 10 77
REMARK SMILES IDX 11 78 12 79 26 80 16 81 17 82 27 83 13 84 14 85 15 86 18 87
REMARK SMILES IDX 19 88 25 89 20 90 23 91 21 92 24 93 22 94
REMARK H PARENT 3 5 84 23 52 34 8 76
REMARK Flexibility Score: inf
ROOT
ATOM      1  C   UNL A   1      33.932  30.327  27.201  1.00  0.00     0.116 C 
ENDROOT
BRANCH   1   2
ATOM      2  N   UNL A   1      34.089  31.349  28.218  1.00  0.00    -0.352 N 
ATOM      3  O   UNL A   1      34.915  32.792  29.671  1.00  0.00    -0.269 OA
ATOM      4  C   UNL A   1      35.128  31.778  29.000  1.00  0.00     0.251 C 
ATOM      5  H   UNL A   1      33.257  31.849  28.385  1.00  0.00     0.163 HD
BRANCH   4   6
ATOM      6  C   UNL A   1      36.449  31.099  29.129  1.00  0.00     0.039 A 
ATOM      7  C   UNL A   1      37.682  31.739  29.251  1.00  0.00     0.014 A 
ATOM      8  C   UNL A   1      36.424  29.690  29.150  1.00  0.00     0.014 A 
ATOM      9  C   UNL A   1      38.862  30.997  29.332  1.00  0.00     0.010 A 
ATOM     10  C   UNL A   1      37.599  28.944  29.250  1.00  0.00     0.010 A 
ATOM     11  C   UNL A   1      38.825  29.598  29.328  1.00  0.00    -0.014 A 
BRANCH  11  12
ATOM     12  C   UNL A   1      40.075  28.875  29.590  1.00  0.00     0.031 A 
ATOM     13  C   UNL A   1      40.446  28.736  31.031  1.00  0.00     0.074 A 
ATOM     14  C   UNL A   1      40.789  28.205  28.662  1.00  0.00     0.049 A 
ATOM     15  N   UNL A   1      41.536  29.101  31.624  1.00  0.00    -0.248 NA
ATOM     16  C   UNL A   1      39.435  28.175  31.941  1.00  0.00     0.031 C 
ATOM     17  C   UNL A   1      40.428  27.957  27.266  1.00  0.00     0.029 A 
ATOM     18  N   UNL A   1      41.955  27.505  28.814  1.00  0.00    -0.354 N 
ATOM     19  C   UNL A   1      41.436  28.651  32.941  1.00  0.00     0.074 A 
ATOM     20  C   UNL A   1      40.077  28.208  33.108  1.00  0.00     0.031 C 
ATOM     21  C   UNL A   1      41.234  26.995  26.764  1.00  0.00     0.029 A 
ATOM     22  C   UNL A   1      42.240  26.648  27.757  1.00  0.00     0.049 A 
ATOM     23  H   UNL A   1      42.538  27.599  29.601  1.00  0.00     0.167 HD
ATOM     24  C   UNL A   1      42.525  28.523  33.751  1.00  0.00     0.034 A 
ATOM     25  C   UNL A   1      43.187  25.673  27.714  1.00  0.00     0.034 A 
ATOM     26  C   UNL A   1      43.634  29.311  33.275  1.00  0.00     0.049 A 
ATOM     27  C   UNL A   1      44.208  25.988  28.740  1.00  0.00     0.074 A 
ATOM     28  C   UNL A   1      43.823  30.655  33.011  1.00  0.00     0.029 A 
ATOM     29  N   UNL A   1      44.698  28.672  32.681  1.00  0.00    -0.354 N 
ATOM     30  N   UNL A   1      45.008  27.015  28.679  1.00  0.00    -0.248 NA
ATOM     31  C   UNL A   1      44.079  25.384  30.057  1.00  0.00     0.031 C 
ATOM     32  C   UNL A   1      44.668  30.689  31.863  1.00  0.00     0.029 A 
ATOM     33  C   UNL A   1      44.983  29.369  31.534  1.00  0.00     0.049 A 
ATOM     34  H   UNL A   1      45.162  27.871  33.014  1.00  0.00     0.167 HD
ATOM     35  C   UNL A   1      45.145  27.443  29.988  1.00  0.00     0.074 A 
ATOM     36  C   UNL A   1      44.647  26.337  30.800  1.00  0.00     0.031 C 
ATOM     37  C   UNL A   1      45.389  28.754  30.286  1.00  0.00     0.034 A 
BRANCH  24  38
ATOM     38  C   UNL A   1      42.689  27.468  34.827  1.00  0.00     0.023 A 
ATOM     39  C   UNL A   1      43.439  26.316  34.511  1.00  0.00     0.031 A 
ATOM     40  C   UNL A   1      41.935  27.398  36.020  1.00  0.00     0.131 A 
ATOM     41  C   UNL A   1      43.351  25.153  35.299  1.00  0.00     0.055 A 
ATOM     42  C   UNL A   1      41.910  26.264  36.840  1.00  0.00     0.041 A 
ATOM     43  F   UNL A   1      41.110  28.376  36.410  1.00  0.00    -0.206 F 
ATOM     44  C   UNL A   1      42.595  25.121  36.466  1.00  0.00     0.022 A 
BRANCH  41  45
ATOM     45  S   UNL A   1      44.087  23.622  34.664  1.00  0.00     0.124 S 
ATOM     46  O   UNL A   1      45.124  24.138  33.778  1.00  0.00    -0.237 OA
ATOM     47  O   UNL A   1      44.547  22.980  35.891  1.00  0.00    -0.237 OA
ATOM     48  O   UNL A   1      42.969  22.960  33.996  1.00  0.00    -0.744 OA
ENDBRANCH  41  45
ENDBRANCH  24  38
BRANCH  25  49
ATOM     49  C   UNL A   1      43.101  24.359  27.023  1.00  0.00     0.023 A 
ATOM     50  C   UNL A   1      44.045  23.937  26.064  1.00  0.00     0.031 A 
ATOM     51  C   UNL A   1      42.186  23.383  27.483  1.00  0.00     0.131 A 
ATOM     52  C   UNL A   1      44.040  22.600  25.601  1.00  0.00     0.055 A 
ATOM     53  C   UNL A   1      42.176  22.069  27.013  1.00  0.00     0.041 A 
ATOM     54  F   UNL A   1      41.322  23.653  28.475  1.00  0.00    -0.206 F 
ATOM     55  C   UNL A   1      43.110  21.669  26.073  1.00  0.00     0.022 A 
BRANCH  52  56
ATOM     56  S   UNL A   1      45.325  22.018  24.448  1.00  0.00     0.124 S 
ATOM     57  O   UNL A   1      44.584  21.095  23.597  1.00  0.00    -0.237 OA
ATOM     58  O   UNL A   1      45.773  23.258  23.825  1.00  0.00    -0.237 OA
ATOM     59  O   UNL A   1      46.310  21.386  25.328  1.00  0.00    -0.744 OA
ENDBRANCH  52  56
ENDBRANCH  25  49
BRANCH  37  60
ATOM     60  C   UNL A   1      45.858  29.681  29.184  1.00  0.00     0.023 A 
ATOM     61  C   UNL A   1      45.007  30.491  28.398  1.00  0.00     0.031 A 
ATOM     62  C   UNL A   1      47.245  29.837  29.012  1.00  0.00     0.131 A 
ATOM     63  C   UNL A   1      45.555  31.404  27.477  1.00  0.00     0.055 A 
ATOM     64  C   UNL A   1      47.786  30.757  28.113  1.00  0.00     0.041 A 
ATOM     65  F   UNL A   1      48.109  29.119  29.750  1.00  0.00    -0.206 F 
ATOM     66  C   UNL A   1      46.940  31.541  27.337  1.00  0.00     0.022 A 
BRANCH  63  67
ATOM     67  S   UNL A   1      44.471  32.431  26.435  1.00  0.00     0.124 S 
ATOM     68  O   UNL A   1      43.539  31.470  25.858  1.00  0.00    -0.237 OA
ATOM     69  O   UNL A   1      43.905  33.372  27.400  1.00  0.00    -0.237 OA
ATOM     70  O   UNL A   1      45.395  33.035  25.474  1.00  0.00    -0.744 OA
ENDBRANCH  63  67
ENDBRANCH  37  60
ENDBRANCH  11  12
ENDBRANCH   4   6
ENDBRANCH   1   2
BRANCH   1  71
ATOM     71  C   UNL A   1      32.491  30.048  26.775  1.00  0.00     0.023 C 
BRANCH  71  72
ATOM     72  C   UNL A   1      31.867  28.767  27.337  1.00  0.00     0.023 C 
BRANCH  72  73
ATOM     73  C   UNL A   1      31.877  27.552  26.412  1.00  0.00     0.116 C 
BRANCH  73  74
ATOM     74  N   UNL A   1      30.792  26.614  26.665  1.00  0.00    -0.352 N 
ATOM     75  C   UNL A   1      30.671  25.295  26.279  1.00  0.00     0.256 C 
ATOM     76  H   UNL A   1      30.037  26.972  27.185  1.00  0.00     0.163 HD
ATOM     77  O   UNL A   1      29.695  24.651  26.648  1.00  0.00    -0.269 OA
BRANCH  75  78
ATOM     78  C   UNL A   1      31.724  24.723  25.472  1.00  0.00     0.100 A 
ATOM     79  C   UNL A   1      32.058  24.877  24.102  1.00  0.00     0.080 A 
ATOM     80  C   UNL A   1      32.654  23.807  25.918  1.00  0.00     0.145 A 
ATOM     81  N   UNL A   1      33.246  24.329  23.810  1.00  0.00    -0.170 NA
ATOM     82  N   UNL A   1      33.612  23.675  24.938  1.00  0.00    -0.221 N 
ATOM     83  Cl  UNL A   1      32.807  23.075  27.456  1.00  0.00    -0.061 Cl
BRANCH  79  84
ATOM     84  C   UNL A   1      31.310  25.579  22.971  1.00  0.00     0.041 C 
ATOM     85  C   UNL A   1      31.627  27.013  22.603  1.00  0.00     0.011 C 
ATOM     86  C   UNL A   1      31.980  25.911  21.661  1.00  0.00     0.011 C 
ENDBRANCH  79  84
BRANCH  82  87
ATOM     87  C   UNL A   1      34.895  23.080  25.013  1.00  0.00     0.069 A 
ATOM     88  C   UNL A   1      36.005  23.907  25.248  1.00  0.00     0.030 A 
ATOM     89  C   UNL A   1      35.058  21.697  24.910  1.00  0.00     0.069 A 
ATOM     90  C   UNL A   1      37.265  23.339  25.459  1.00  0.00     0.026 A 
ATOM     91  C   UNL A   1      36.325  21.146  25.085  1.00  0.00     0.143 A 
ATOM     92  C   UNL A   1      37.422  21.954  25.381  1.00  0.00     0.076 A 
ATOM     93  F   UNL A   1      36.465  19.817  24.969  1.00  0.00    -0.205 F 
ATOM     94  Cl  UNL A   1      38.973  21.259  25.654  1.00  0.00    -0.081 Cl
ENDBRANCH  82  87
ENDBRANCH  75  78
ENDBRANCH  73  74
ENDBRANCH  72  73
ENDBRANCH  71  72
ENDBRANCH   1  71
TORSDOF 16
ENDMDL
MODEL 3
REMARK VINA RESULT:     -12.6      1.842      2.362
REMARK SMILES O=C(NCCCCNC(=O)c1c(C2CC2)nn(-c2ccc(Cl)c(F)c2)c1Cl)c1ccc(-c2c3nc(c(-c4cc(S(=O)(=O)[O-])ccc4F)c4ccc([nH]4)c(-c4cc(S(=O)(=O)[O-])ccc4F)c4nc(c(-c5cc(S(=O)(=O)[O-])ccc5F)c5ccc2[nH]5)C=C4)C=C3)cc1
REMARK SMILES IDX 4 1 3 2 1 3 2 4 28 6 29 7 90 8 30 9 89 10 31 11 32 12 33 13
REMARK SMILES IDX 83 14 34 15 88 16 82 17 84 18 35 19 87 20 81 21 80 22 36 24
REMARK SMILES IDX 68 25 48 26 67 27 49 28 52 29 66 30 85 31 50 32 51 33 65 35
REMARK SMILES IDX 86 36 53 37 37 38 38 39 46 40 39 41 45 42 47 43 44 44 40 45
REMARK SMILES IDX 41 46 42 47 43 48 69 49 70 50 78 51 71 52 77 53 79 54 76 55
REMARK SMILES IDX 72 56 73 57 74 58 75 59 54 60 55 61 63 62 56 63 62 64 64 65
REMARK SMILES IDX 61 66 57 67 58 68 59 69 60 70 5 71 6 72 7 73 8 74 9 75 10 77
REMARK SMILES IDX 11 78 12 79 26 80 16 81 17 82 27 83 13 84 14 85 15 86 18 87
REMARK SMILES IDX 19 88 25 89 20 90 23 91 21 92 24 93 22 94
REMARK H PARENT 3 5 84 23 52 34 8 76
REMARK Flexibility Score: inf
ROOT
ATOM      1  C   UNL A   1      34.755  28.868  27.062  1.00  0.00     0.116 C 
ENDROOT
BRANCH   1   2
ATOM      2  N   UNL A   1      34.982  29.606  28.289  1.00  0.00    -0.352 N 
ATOM      3  O   UNL A   1      35.900  30.720  29.960  1.00  0.00    -0.269 OA
ATOM      4  C   UNL A   1      36.092  29.947  29.016  1.00  0.00     0.251 C 
ATOM      5  H   UNL A   1      34.147  29.937  28.692  1.00  0.00     0.163 HD
BRANCH   4   6
ATOM      6  C   UNL A   1      37.470  29.429  28.782  1.00  0.00     0.039 A 
ATOM      7  C   UNL A   1      38.263  29.708  27.669  1.00  0.00     0.014 A 
ATOM      8  C   UNL A   1      38.007  28.610  29.795  1.00  0.00     0.014 A 
ATOM      9  C   UNL A   1      39.532  29.138  27.541  1.00  0.00     0.010 A 
ATOM     10  C   UNL A   1      39.282  28.054  29.681  1.00  0.00     0.010 A 
ATOM     11  C   UNL A   1      40.043  28.307  28.543  1.00  0.00    -0.014 A 
BRANCH  11  12
ATOM     12  C   UNL A   1      41.443  27.879  28.436  1.00  0.00     0.031 A 
ATOM     13  C   UNL A   1      41.662  26.574  27.743  1.00  0.00     0.074 A 
ATOM     14  C   UNL A   1      42.510  28.640  28.756  1.00  0.00     0.049 A 
ATOM     15  N   UNL A   1      42.268  25.518  28.180  1.00  0.00    -0.248 NA
ATOM     16  C   UNL A   1      41.067  26.406  26.408  1.00  0.00     0.031 C 
ATOM     17  C   UNL A   1      42.516  30.048  29.149  1.00  0.00     0.029 A 
ATOM     18  N   UNL A   1      43.841  28.327  28.686  1.00  0.00    -0.354 N 
ATOM     19  C   UNL A   1      42.301  24.615  27.117  1.00  0.00     0.074 A 
ATOM     20  C   UNL A   1      41.438  25.162  26.103  1.00  0.00     0.031 C 
ATOM     21  C   UNL A   1      43.779  30.524  29.074  1.00  0.00     0.029 A 
ATOM     22  C   UNL A   1      44.683  29.432  28.747  1.00  0.00     0.049 A 
ATOM     23  H   UNL A   1      44.171  27.404  28.600  1.00  0.00     0.167 HD
ATOM     24  C   UNL A   1      43.166  23.562  27.081  1.00  0.00     0.034 A 
ATOM     25  C   UNL A   1      46.016  29.471  28.484  1.00  0.00     0.034 A 
ATOM     26  C   UNL A   1      43.662  23.241  28.396  1.00  0.00     0.049 A 
ATOM     27  C   UNL A   1      46.547  28.095  28.626  1.00  0.00     0.074 A 
ATOM     28  C   UNL A   1      43.069  22.886  29.594  1.00  0.00     0.029 A 
ATOM     29  N   UNL A   1      44.957  23.574  28.718  1.00  0.00    -0.354 N 
ATOM     30  N   UNL A   1      46.609  27.454  29.759  1.00  0.00    -0.248 NA
ATOM     31  C   UNL A   1      46.644  27.261  27.438  1.00  0.00     0.031 C 
ATOM     32  C   UNL A   1      43.862  23.517  30.598  1.00  0.00     0.029 A 
ATOM     33  C   UNL A   1      44.914  24.169  29.954  1.00  0.00     0.049 A 
ATOM     34  H   UNL A   1      45.758  23.416  28.169  1.00  0.00     0.167 HD
ATOM     35  C   UNL A   1      46.328  26.136  29.442  1.00  0.00     0.074 A 
ATOM     36  C   UNL A   1      46.472  26.059  27.991  1.00  0.00     0.031 C 
ATOM     37  C   UNL A   1      45.736  25.298  30.344  1.00  0.00     0.034 A 
BRANCH  24  38
ATOM     38  C   UNL A   1      43.787  22.988  25.824  1.00  0.00     0.023 A 
ATOM     39  C   UNL A   1      43.823  21.585  25.687  1.00  0.00     0.031 A 
ATOM     40  C   UNL A   1      44.583  23.711  24.907  1.00  0.00     0.131 A 
ATOM     41  C   UNL A   1      44.674  20.967  24.752  1.00  0.00     0.055 A 
ATOM     42  C   UNL A   1      45.370  23.094  23.928  1.00  0.00     0.041 A 
ATOM     43  F   UNL A   1      44.719  25.041  24.962  1.00  0.00    -0.206 F 
ATOM     44  C   UNL A   1      45.445  21.713  23.867  1.00  0.00     0.022 A 
BRANCH  41  45
ATOM     45  S   UNL A   1      44.902  19.170  24.847  1.00  0.00     0.124 S 
ATOM     46  O   UNL A   1      44.905  18.799  23.436  1.00  0.00    -0.237 OA
ATOM     47  O   UNL A   1      46.178  19.066  25.545  1.00  0.00    -0.237 OA
ATOM     48  O   UNL A   1      43.737  18.721  25.606  1.00  0.00    -0.744 OA
ENDBRANCH  41  45
ENDBRANCH  24  38
BRANCH  25  49
ATOM     49  C   UNL A   1      46.782  30.581  27.855  1.00  0.00     0.023 A 
ATOM     50  C   UNL A   1      46.165  31.603  27.103  1.00  0.00     0.031 A 
ATOM     51  C   UNL A   1      48.141  30.774  28.191  1.00  0.00     0.131 A 
ATOM     52  C   UNL A   1      46.905  32.745  26.715  1.00  0.00     0.055 A 
ATOM     53  C   UNL A   1      48.870  31.895  27.793  1.00  0.00     0.041 A 
ATOM     54  F   UNL A   1      48.787  29.916  28.996  1.00  0.00    -0.206 F 
ATOM     55  C   UNL A   1      48.252  32.891  27.057  1.00  0.00     0.022 A 
BRANCH  52  56
ATOM     56  S   UNL A   1      46.088  34.120  25.842  1.00  0.00     0.124 S 
ATOM     57  O   UNL A   1      45.609  34.946  26.945  1.00  0.00    -0.237 OA
ATOM     58  O   UNL A   1      47.174  34.673  25.041  1.00  0.00    -0.237 OA
ATOM     59  O   UNL A   1      45.036  33.456  25.070  1.00  0.00    -0.744 OA
ENDBRANCH  52  56
ENDBRANCH  25  49
BRANCH  37  60
ATOM     60  C   UNL A   1      45.704  25.699  31.805  1.00  0.00     0.023 A 
ATOM     61  C   UNL A   1      44.541  26.092  32.504  1.00  0.00     0.031 A 
ATOM     62  C   UNL A   1      46.891  25.552  32.545  1.00  0.00     0.131 A 
ATOM     63  C   UNL A   1      44.599  26.334  33.891  1.00  0.00     0.055 A 
ATOM     64  C   UNL A   1      46.941  25.772  33.922  1.00  0.00     0.041 A 
ATOM     65  F   UNL A   1      48.024  25.150  31.946  1.00  0.00    -0.206 F 
ATOM     66  C   UNL A   1      45.795  26.170  34.599  1.00  0.00     0.022 A 
BRANCH  63  67
ATOM     67  S   UNL A   1      43.117  26.873  34.800  1.00  0.00     0.124 S 
ATOM     68  O   UNL A   1      42.454  27.777  33.868  1.00  0.00    -0.237 OA
ATOM     69  O   UNL A   1      42.432  25.609  35.064  1.00  0.00    -0.237 OA
ATOM     70  O   UNL A   1      43.666  27.523  35.991  1.00  0.00    -0.744 OA
ENDBRANCH  63  67
ENDBRANCH  37  60
ENDBRANCH  11  12
ENDBRANCH   4   6
ENDBRANCH   1   2
BRANCH   1  71
ATOM     71  C   UNL A   1      33.316  28.406  26.836  1.00  0.00     0.023 C 
BRANCH  71  72
ATOM     72  C   UNL A   1      32.963  28.004  25.400  1.00  0.00     0.023 C 
BRANCH  72  73
ATOM     73  C   UNL A   1      33.678  26.770  24.854  1.00  0.00     0.116 C 
BRANCH  73  74
ATOM     74  N   UNL A   1      33.783  26.749  23.401  1.00  0.00    -0.352 N 
ATOM     75  C   UNL A   1      33.362  25.785  22.509  1.00  0.00     0.256 C 
ATOM     76  H   UNL A   1      34.217  27.536  22.998  1.00  0.00     0.163 HD
ATOM     77  O   UNL A   1      33.491  25.985  21.306  1.00  0.00    -0.269 OA
BRANCH  75  78
ATOM     78  C   UNL A   1      32.760  24.583  23.040  1.00  0.00     0.100 A 
ATOM     79  C   UNL A   1      31.419  24.263  23.371  1.00  0.00     0.080 A 
ATOM     80  C   UNL A   1      33.450  23.442  23.393  1.00  0.00     0.145 A 
ATOM     81  N   UNL A   1      31.265  22.957  23.634  1.00  0.00    -0.170 NA
ATOM     82  N   UNL A   1      32.523  22.455  23.639  1.00  0.00    -0.221 N 
ATOM     83  Cl  UNL A   1      35.132  23.134  23.358  1.00  0.00    -0.061 Cl
BRANCH  79  84
ATOM     84  C   UNL A   1      30.174  25.144  23.432  1.00  0.00     0.041 C 
ATOM     85  C   UNL A   1      29.897  26.015  24.639  1.00  0.00     0.011 C 
ATOM     86  C   UNL A   1      30.258  26.647  23.337  1.00  0.00     0.011 C 
ENDBRANCH  79  84
BRANCH  82  87
ATOM     87  C   UNL A   1      32.714  21.058  23.766  1.00  0.00     0.069 A 
ATOM     88  C   UNL A   1      33.324  20.566  24.931  1.00  0.00     0.030 A 
ATOM     89  C   UNL A   1      32.261  20.174  22.782  1.00  0.00     0.069 A 
ATOM     90  C   UNL A   1      33.407  19.187  25.144  1.00  0.00     0.026 A 
ATOM     91  C   UNL A   1      32.383  18.803  22.992  1.00  0.00     0.143 A 
ATOM     92  C   UNL A   1      32.932  18.305  24.173  1.00  0.00     0.076 A 
ATOM     93  F   UNL A   1      31.956  17.970  22.031  1.00  0.00    -0.205 F 
ATOM     94  Cl  UNL A   1      33.025  16.608  24.448  1.00  0.00    -0.081 Cl
ENDBRANCH  82  87
ENDBRANCH  75  78
ENDBRANCH  73  74
ENDBRANCH  72  73
ENDBRANCH  71  72
ENDBRANCH   1  71
TORSDOF 16
ENDMDL
