MODEL 1
REMARK VINA RESULT:     -11.4      0.000      0.000
REMARK SMILES CC[C@H](C)[C@@H](NC(=O)c1csc(NC(C)=O)n1)C(=O)NCCCCNC(=O)c1ccc(-c2c3nc(c(-c4cc(S(=O)(=O)[O-])ccc4F)c4ccc([nH]4)c(-c4cc(S(=O)(=O)[O-])ccc4F)c4nc(c(-c5cc(S(=O)(=O)[O-])ccc5F)c5ccc2[nH]5)C=C4)C=C3)cc1
REMARK SMILES IDX 22 1 21 2 20 3 18 4 19 5 5 7 3 8 4 9 2 10 1 11 6 12 7 13
REMARK SMILES IDX 8 15 9 16 10 17 17 18 11 19 12 20 13 21 14 22 15 24 16 25
REMARK SMILES IDX 23 26 24 27 25 28 26 29 27 31 28 32 29 33 90 34 30 35 89 36
REMARK SMILES IDX 31 37 32 38 33 39 83 40 34 41 88 42 82 43 84 44 35 45 87 46
REMARK SMILES IDX 81 47 80 48 36 50 68 51 48 52 67 53 49 54 52 55 66 56 85 57
REMARK SMILES IDX 50 58 51 59 65 61 86 62 53 63 37 64 38 65 46 66 39 67 45 68
REMARK SMILES IDX 47 69 44 70 40 71 41 72 42 73 43 74 69 75 70 76 78 77 71 78
REMARK SMILES IDX 77 79 79 80 76 81 72 82 73 83 74 84 75 85 54 86 55 87 63 88
REMARK SMILES IDX 56 89 62 90 64 91 61 92 57 93 58 94 59 95 60 96
REMARK H PARENT 20 6 6 14 13 23 25 30 84 49 52 60
REMARK Flexibility Score: inf
ROOT
ATOM      1  C   UNL A   1      35.208  23.264  23.725  1.00  0.00     0.023 C 
ENDROOT
BRANCH   1   2
ATOM      2  C   UNL A   1      34.480  24.500  24.239  1.00  0.00     0.116 C 
BRANCH   2   3
ATOM      3  N   UNL A   1      33.249  24.715  23.506  1.00  0.00    -0.354 N 
ATOM      4  C   UNL A   1      32.045  25.183  23.936  1.00  0.00     0.242 C 
ATOM      5  O   UNL A   1      31.103  25.154  23.133  1.00  0.00    -0.273 OA
ATOM      6  H   UNL A   1      33.290  24.488  22.549  1.00  0.00     0.163 HD
BRANCH   4   7
ATOM      7  C   UNL A   1      31.811  25.570  25.418  1.00  0.00     0.174 C 
BRANCH   7   8
ATOM      8  C   UNL A   1      31.383  27.083  25.441  1.00  0.00     0.018 C 
ATOM      9  C   UNL A   1      31.406  27.715  26.840  1.00  0.00     0.010 C 
BRANCH   8  10
ATOM     10  C   UNL A   1      32.170  27.978  24.451  1.00  0.00     0.002 C 
ATOM     11  C   UNL A   1      33.105  28.988  25.098  1.00  0.00     0.004 C 
ENDBRANCH   8  10
ENDBRANCH   7   8
BRANCH   7  12
ATOM     12  N   UNL A   1      30.827  24.739  26.148  1.00  0.00    -0.339 N 
ATOM     13  C   UNL A   1      30.926  23.487  26.713  1.00  0.00     0.271 C 
ATOM     14  H   UNL A   1      29.941  25.156  26.248  1.00  0.00     0.164 HD
ATOM     15  O   UNL A   1      30.038  23.147  27.496  1.00  0.00    -0.267 OA
BRANCH  13  16
ATOM     16  C   UNL A   1      31.949  22.552  26.256  1.00  0.00     0.141 A 
ATOM     17  C   UNL A   1      33.025  22.187  27.050  1.00  0.00     0.102 A 
ATOM     18  N   UNL A   1      31.907  21.903  25.030  1.00  0.00    -0.215 NA
ATOM     19  S   UNL A   1      33.851  20.867  26.340  1.00  0.00    -0.104 S 
ATOM     20  C   UNL A   1      32.761  20.905  25.034  1.00  0.00     0.190 A 
BRANCH  20  21
ATOM     21  N   UNL A   1      32.752  19.964  24.039  1.00  0.00    -0.302 N 
ATOM     22  C   UNL A   1      32.444  18.632  24.188  1.00  0.00     0.223 C 
ATOM     23  H   UNL A   1      32.985  20.269  23.132  1.00  0.00     0.172 HD
ATOM     24  C   UNL A   1      32.584  17.847  22.907  1.00  0.00     0.114 C 
ATOM     25  O   UNL A   1      32.054  18.081  25.211  1.00  0.00    -0.275 OA
ENDBRANCH  20  21
ENDBRANCH  13  16
ENDBRANCH   7  12
ENDBRANCH   4   7
ENDBRANCH   2   3
ENDBRANCH   1   2
BRANCH   1  26
ATOM     26  C   UNL A   1      36.678  23.182  24.141  1.00  0.00     0.023 C 
BRANCH  26  27
ATOM     27  C   UNL A   1      36.918  23.178  25.649  1.00  0.00     0.116 C 
BRANCH  27  28
ATOM     28  N   UNL A   1      38.038  22.328  26.027  1.00  0.00    -0.352 N 
ATOM     29  C   UNL A   1      39.249  22.704  26.559  1.00  0.00     0.251 C 
ATOM     30  H   UNL A   1      37.913  21.362  25.884  1.00  0.00     0.163 HD
ATOM     31  O   UNL A   1      40.156  21.886  26.674  1.00  0.00    -0.269 OA
BRANCH  29  32
ATOM     32  C   UNL A   1      39.443  24.112  26.954  1.00  0.00     0.039 A 
ATOM     33  C   UNL A   1      39.140  24.498  28.261  1.00  0.00     0.014 A 
ATOM     34  C   UNL A   1      39.995  25.021  26.048  1.00  0.00     0.014 A 
ATOM     35  C   UNL A   1      39.464  25.788  28.685  1.00  0.00     0.010 A 
ATOM     36  C   UNL A   1      40.368  26.286  26.489  1.00  0.00     0.010 A 
ATOM     37  C   UNL A   1      40.116  26.677  27.814  1.00  0.00    -0.014 A 
BRANCH  37  38
ATOM     38  C   UNL A   1      40.565  28.017  28.268  1.00  0.00     0.031 A 
ATOM     39  C   UNL A   1      42.031  28.293  28.437  1.00  0.00     0.074 A 
ATOM     40  C   UNL A   1      39.649  28.941  28.618  1.00  0.00     0.049 A 
ATOM     41  N   UNL A   1      42.622  29.348  28.934  1.00  0.00    -0.248 NA
ATOM     42  C   UNL A   1      42.953  27.225  28.019  1.00  0.00     0.031 C 
ATOM     43  C   UNL A   1      38.197  28.766  28.537  1.00  0.00     0.029 A 
ATOM     44  N   UNL A   1      39.802  30.203  29.136  1.00  0.00    -0.354 N 
ATOM     45  C   UNL A   1      43.983  29.064  28.912  1.00  0.00     0.074 A 
ATOM     46  C   UNL A   1      44.125  27.722  28.389  1.00  0.00     0.031 C 
ATOM     47  C   UNL A   1      37.594  29.878  28.991  1.00  0.00     0.029 A 
ATOM     48  C   UNL A   1      38.612  30.826  29.434  1.00  0.00     0.049 A 
ATOM     49  H   UNL A   1      40.679  30.623  29.281  1.00  0.00     0.167 HD
ATOM     50  C   UNL A   1      45.018  29.859  29.282  1.00  0.00     0.034 A 
ATOM     51  C   UNL A   1      38.368  32.014  30.022  1.00  0.00     0.034 A 
ATOM     52  C   UNL A   1      44.857  31.201  29.781  1.00  0.00     0.049 A 
ATOM     53  C   UNL A   1      39.535  32.872  30.439  1.00  0.00     0.074 A 
ATOM     54  C   UNL A   1      45.837  32.128  30.090  1.00  0.00     0.029 A 
ATOM     55  N   UNL A   1      43.637  31.805  30.060  1.00  0.00    -0.354 N 
ATOM     56  N   UNL A   1      40.820  32.621  30.340  1.00  0.00    -0.248 NA
ATOM     57  C   UNL A   1      39.221  34.173  31.044  1.00  0.00     0.031 C 
ATOM     58  C   UNL A   1      45.214  33.267  30.613  1.00  0.00     0.029 A 
ATOM     59  C   UNL A   1      43.842  33.075  30.572  1.00  0.00     0.049 A 
ATOM     60  H   UNL A   1      42.756  31.389  29.914  1.00  0.00     0.167 HD
ATOM     61  C   UNL A   1      41.466  33.743  30.848  1.00  0.00     0.074 A 
ATOM     62  C   UNL A   1      40.430  34.677  31.241  1.00  0.00     0.031 C 
ATOM     63  C   UNL A   1      42.795  33.985  30.973  1.00  0.00     0.034 A 
BRANCH  50  64
ATOM     64  C   UNL A   1      46.407  29.280  29.186  1.00  0.00     0.023 A 
ATOM     65  C   UNL A   1      47.123  29.270  27.977  1.00  0.00     0.031 A 
ATOM     66  C   UNL A   1      47.016  28.713  30.319  1.00  0.00     0.131 A 
ATOM     67  C   UNL A   1      48.378  28.646  27.911  1.00  0.00     0.055 A 
ATOM     68  C   UNL A   1      48.296  28.156  30.264  1.00  0.00     0.041 A 
ATOM     69  F   UNL A   1      46.373  28.677  31.496  1.00  0.00    -0.206 F 
ATOM     70  C   UNL A   1      48.980  28.109  29.053  1.00  0.00     0.022 A 
BRANCH  67  71
ATOM     71  S   UNL A   1      49.159  28.438  26.289  1.00  0.00     0.124 S 
ATOM     72  O   UNL A   1      50.076  29.576  26.254  1.00  0.00    -0.237 OA
ATOM     73  O   UNL A   1      49.779  27.123  26.402  1.00  0.00    -0.237 OA
ATOM     74  O   UNL A   1      48.038  28.522  25.355  1.00  0.00    -0.744 OA
ENDBRANCH  67  71
ENDBRANCH  50  64
BRANCH  51  75
ATOM     75  C   UNL A   1      36.969  32.455  30.287  1.00  0.00     0.023 A 
ATOM     76  C   UNL A   1      36.228  33.138  29.311  1.00  0.00     0.031 A 
ATOM     77  C   UNL A   1      36.369  32.236  31.541  1.00  0.00     0.131 A 
ATOM     78  C   UNL A   1      34.945  33.619  29.617  1.00  0.00     0.055 A 
ATOM     79  C   UNL A   1      35.074  32.676  31.824  1.00  0.00     0.041 A 
ATOM     80  F   UNL A   1      37.032  31.582  32.506  1.00  0.00    -0.206 F 
ATOM     81  C   UNL A   1      34.359  33.383  30.863  1.00  0.00     0.022 A 
BRANCH  78  82
ATOM     82  S   UNL A   1      34.081  34.633  28.386  1.00  0.00     0.124 S 
ATOM     83  O   UNL A   1      32.803  33.941  28.274  1.00  0.00    -0.237 OA
ATOM     84  O   UNL A   1      34.049  35.938  29.040  1.00  0.00    -0.237 OA
ATOM     85  O   UNL A   1      34.943  34.549  27.210  1.00  0.00    -0.744 OA
ENDBRANCH  78  82
ENDBRANCH  51  75
BRANCH  63  86
ATOM     86  C   UNL A   1      43.195  35.327  31.527  1.00  0.00     0.023 A 
ATOM     87  C   UNL A   1      43.571  36.389  30.687  1.00  0.00     0.031 A 
ATOM     88  C   UNL A   1      43.199  35.544  32.918  1.00  0.00     0.131 A 
ATOM     89  C   UNL A   1      43.976  37.610  31.247  1.00  0.00     0.055 A 
ATOM     90  C   UNL A   1      43.555  36.776  33.466  1.00  0.00     0.041 A 
ATOM     91  F   UNL A   1      42.849  34.561  33.762  1.00  0.00    -0.206 F 
ATOM     92  C   UNL A   1      43.956  37.815  32.629  1.00  0.00     0.022 A 
BRANCH  89  93
ATOM     93  S   UNL A   1      44.590  38.914  30.147  1.00  0.00     0.124 S 
ATOM     94  O   UNL A   1      43.452  39.826  30.092  1.00  0.00    -0.237 OA
ATOM     95  O   UNL A   1      45.764  39.403  30.862  1.00  0.00    -0.237 OA
ATOM     96  O   UNL A   1      44.878  38.205  28.900  1.00  0.00    -0.744 OA
ENDBRANCH  89  93
ENDBRANCH  63  86
ENDBRANCH  37  38
ENDBRANCH  29  32
ENDBRANCH  27  28
ENDBRANCH  26  27
ENDBRANCH   1  26
TORSDOF 19
ENDMDL
MODEL 2
REMARK VINA RESULT:     -11.4      5.336      8.131
REMARK SMILES CC[C@H](C)[C@@H](NC(=O)c1csc(NC(C)=O)n1)C(=O)NCCCCNC(=O)c1ccc(-c2c3nc(c(-c4cc(S(=O)(=O)[O-])ccc4F)c4ccc([nH]4)c(-c4cc(S(=O)(=O)[O-])ccc4F)c4nc(c(-c5cc(S(=O)(=O)[O-])ccc5F)c5ccc2[nH]5)C=C4)C=C3)cc1
REMARK SMILES IDX 22 1 21 2 20 3 18 4 19 5 5 7 3 8 4 9 2 10 1 11 6 12 7 13
REMARK SMILES IDX 8 15 9 16 10 17 17 18 11 19 12 20 13 21 14 22 15 24 16 25
REMARK SMILES IDX 23 26 24 27 25 28 26 29 27 31 28 32 29 33 90 34 30 35 89 36
REMARK SMILES IDX 31 37 32 38 33 39 83 40 34 41 88 42 82 43 84 44 35 45 87 46
REMARK SMILES IDX 81 47 80 48 36 50 68 51 48 52 67 53 49 54 52 55 66 56 85 57
REMARK SMILES IDX 50 58 51 59 65 61 86 62 53 63 37 64 38 65 46 66 39 67 45 68
REMARK SMILES IDX 47 69 44 70 40 71 41 72 42 73 43 74 69 75 70 76 78 77 71 78
REMARK SMILES IDX 77 79 79 80 76 81 72 82 73 83 74 84 75 85 54 86 55 87 63 88
REMARK SMILES IDX 56 89 62 90 64 91 61 92 57 93 58 94 59 95 60 96
REMARK H PARENT 20 6 6 14 13 23 25 30 84 49 52 60
REMARK Flexibility Score: inf
ROOT
ATOM      1  C   UNL A   1      32.204  29.343  27.111  1.00  0.00     0.023 C 
ENDROOT
BRANCH   1   2
ATOM      2  C   UNL A   1      32.491  28.355  25.987  1.00  0.00     0.116 C 
BRANCH   2   3
ATOM      3  N   UNL A   1      33.048  29.033  24.834  1.00  0.00    -0.354 N 
ATOM      4  C   UNL A   1      32.916  28.756  23.507  1.00  0.00     0.242 C 
ATOM      5  O   UNL A   1      33.603  29.417  22.717  1.00  0.00    -0.273 OA
ATOM      6  H   UNL A   1      33.610  29.814  25.043  1.00  0.00     0.163 HD
BRANCH   4   7
ATOM      7  C   UNL A   1      32.078  27.550  23.013  1.00  0.00     0.174 C 
BRANCH   7   8
ATOM      8  C   UNL A   1      30.581  28.024  22.941  1.00  0.00     0.018 C 
ATOM      9  C   UNL A   1      29.601  27.100  23.678  1.00  0.00     0.010 C 
BRANCH   8  10
ATOM     10  C   UNL A   1      30.357  29.488  23.393  1.00  0.00     0.002 C 
ATOM     11  C   UNL A   1      29.078  30.133  22.882  1.00  0.00     0.004 C 
ENDBRANCH   8  10
ENDBRANCH   7   8
BRANCH   7  12
ATOM     12  N   UNL A   1      32.503  26.963  21.722  1.00  0.00    -0.339 N 
ATOM     13  C   UNL A   1      32.846  25.677  21.369  1.00  0.00     0.271 C 
ATOM     14  H   UNL A   1      32.550  27.610  20.981  1.00  0.00     0.164 HD
ATOM     15  O   UNL A   1      32.895  25.413  20.167  1.00  0.00    -0.267 OA
BRANCH  13  16
ATOM     16  C   UNL A   1      33.300  24.731  22.384  1.00  0.00     0.141 A 
ATOM     17  C   UNL A   1      32.589  23.583  22.695  1.00  0.00     0.102 A 
ATOM     18  N   UNL A   1      34.496  24.859  23.074  1.00  0.00    -0.215 NA
ATOM     19  S   UNL A   1      33.537  22.563  23.689  1.00  0.00    -0.104 S 
ATOM     20  C   UNL A   1      34.784  23.721  23.664  1.00  0.00     0.190 A 
BRANCH  20  21
ATOM     21  N   UNL A   1      36.019  23.503  24.215  1.00  0.00    -0.302 N 
ATOM     22  C   UNL A   1      36.300  23.406  25.558  1.00  0.00     0.223 C 
ATOM     23  H   UNL A   1      36.775  23.406  23.593  1.00  0.00     0.172 HD
ATOM     24  C   UNL A   1      37.771  23.222  25.841  1.00  0.00     0.114 C 
ATOM     25  O   UNL A   1      35.490  23.419  26.479  1.00  0.00    -0.275 OA
ENDBRANCH  20  21
ENDBRANCH  13  16
ENDBRANCH   7  12
ENDBRANCH   4   7
ENDBRANCH   2   3
ENDBRANCH   1   2
BRANCH   1  26
ATOM     26  C   UNL A   1      32.194  30.809  26.672  1.00  0.00     0.023 C 
BRANCH  26  27
ATOM     27  C   UNL A   1      33.270  31.679  27.318  1.00  0.00     0.116 C 
BRANCH  27  28
ATOM     28  N   UNL A   1      32.827  33.052  27.510  1.00  0.00    -0.352 N 
ATOM     29  C   UNL A   1      33.276  33.970  28.430  1.00  0.00     0.251 C 
ATOM     30  H   UNL A   1      32.116  33.364  26.904  1.00  0.00     0.163 HD
ATOM     31  O   UNL A   1      32.691  35.039  28.576  1.00  0.00    -0.269 OA
BRANCH  29  32
ATOM     32  C   UNL A   1      34.449  33.628  29.256  1.00  0.00     0.039 A 
ATOM     33  C   UNL A   1      34.276  32.820  30.381  1.00  0.00     0.014 A 
ATOM     34  C   UNL A   1      35.724  34.048  28.865  1.00  0.00     0.014 A 
ATOM     35  C   UNL A   1      35.397  32.367  31.077  1.00  0.00     0.010 A 
ATOM     36  C   UNL A   1      36.841  33.549  29.526  1.00  0.00     0.010 A 
ATOM     37  C   UNL A   1      36.688  32.696  30.631  1.00  0.00    -0.014 A 
BRANCH  37  38
ATOM     38  C   UNL A   1      37.899  32.145  31.288  1.00  0.00     0.031 A 
ATOM     39  C   UNL A   1      38.654  31.021  30.638  1.00  0.00     0.074 A 
ATOM     40  C   UNL A   1      38.254  32.591  32.509  1.00  0.00     0.049 A 
ATOM     41  N   UNL A   1      39.657  30.322  31.100  1.00  0.00    -0.248 NA
ATOM     42  C   UNL A   1      38.197  30.610  29.301  1.00  0.00     0.031 C 
ATOM     43  C   UNL A   1      37.567  33.647  33.256  1.00  0.00     0.029 A 
ATOM     44  N   UNL A   1      39.264  32.195  33.350  1.00  0.00    -0.354 N 
ATOM     45  C   UNL A   1      39.938  29.372  30.123  1.00  0.00     0.074 A 
ATOM     46  C   UNL A   1      38.972  29.562  29.062  1.00  0.00     0.031 C 
ATOM     47  C   UNL A   1      38.175  33.814  34.442  1.00  0.00     0.029 A 
ATOM     48  C   UNL A   1      39.265  32.850  34.560  1.00  0.00     0.049 A 
ATOM     49  H   UNL A   1      39.926  31.508  33.110  1.00  0.00     0.167 HD
ATOM     50  C   UNL A   1      40.921  28.439  30.111  1.00  0.00     0.034 A 
ATOM     51  C   UNL A   1      40.037  32.675  35.650  1.00  0.00     0.034 A 
ATOM     52  C   UNL A   1      41.887  28.280  31.168  1.00  0.00     0.049 A 
ATOM     53  C   UNL A   1      41.113  31.619  35.618  1.00  0.00     0.074 A 
ATOM     54  C   UNL A   1      42.984  27.437  31.213  1.00  0.00     0.029 A 
ATOM     55  N   UNL A   1      41.865  28.968  32.375  1.00  0.00    -0.354 N 
ATOM     56  N   UNL A   1      41.416  30.780  34.654  1.00  0.00    -0.248 NA
ATOM     57  C   UNL A   1      41.953  31.489  36.816  1.00  0.00     0.031 C 
ATOM     58  C   UNL A   1      43.586  27.569  32.469  1.00  0.00     0.029 A 
ATOM     59  C   UNL A   1      42.904  28.541  33.185  1.00  0.00     0.049 A 
ATOM     60  H   UNL A   1      41.207  29.659  32.618  1.00  0.00     0.167 HD
ATOM     61  C   UNL A   1      42.496  30.040  35.122  1.00  0.00     0.074 A 
ATOM     62  C   UNL A   1      42.799  30.539  36.448  1.00  0.00     0.031 C 
ATOM     63  C   UNL A   1      43.181  29.040  34.511  1.00  0.00     0.034 A 
BRANCH  50  64
ATOM     64  C   UNL A   1      40.976  27.504  28.928  1.00  0.00     0.023 A 
ATOM     65  C   UNL A   1      41.934  27.652  27.911  1.00  0.00     0.031 A 
ATOM     66  C   UNL A   1      40.042  26.459  28.810  1.00  0.00     0.131 A 
ATOM     67  C   UNL A   1      41.897  26.813  26.787  1.00  0.00     0.055 A 
ATOM     68  C   UNL A   1      40.055  25.583  27.724  1.00  0.00     0.041 A 
ATOM     69  F   UNL A   1      39.093  26.282  29.741  1.00  0.00    -0.206 F 
ATOM     70  C   UNL A   1      40.978  25.764  26.697  1.00  0.00     0.022 A 
BRANCH  67  71
ATOM     71  S   UNL A   1      42.988  27.188  25.390  1.00  0.00     0.124 S 
ATOM     72  O   UNL A   1      42.237  28.234  24.699  1.00  0.00    -0.237 OA
ATOM     73  O   UNL A   1      44.215  27.615  26.052  1.00  0.00    -0.237 OA
ATOM     74  O   UNL A   1      43.076  25.917  24.672  1.00  0.00    -0.744 OA
ENDBRANCH  67  71
ENDBRANCH  50  64
BRANCH  51  75
ATOM     75  C   UNL A   1      39.808  33.487  36.879  1.00  0.00     0.023 A 
ATOM     76  C   UNL A   1      39.086  32.969  37.965  1.00  0.00     0.031 A 
ATOM     77  C   UNL A   1      40.272  34.812  36.966  1.00  0.00     0.131 A 
ATOM     78  C   UNL A   1      38.810  33.784  39.074  1.00  0.00     0.055 A 
ATOM     79  C   UNL A   1      40.035  35.604  38.091  1.00  0.00     0.041 A 
ATOM     80  F   UNL A   1      40.973  35.353  35.958  1.00  0.00    -0.206 F 
ATOM     81  C   UNL A   1      39.289  35.094  39.149  1.00  0.00     0.022 A 
BRANCH  78  82
ATOM     82  S   UNL A   1      37.741  33.132  40.387  1.00  0.00     0.124 S 
ATOM     83  O   UNL A   1      37.625  34.283  41.276  1.00  0.00    -0.237 OA
ATOM     84  O   UNL A   1      36.538  32.770  39.644  1.00  0.00    -0.237 OA
ATOM     85  O   UNL A   1      38.505  32.006  40.919  1.00  0.00    -0.744 OA
ENDBRANCH  78  82
ENDBRANCH  51  75
BRANCH  63  86
ATOM     86  C   UNL A   1      44.345  28.452  35.263  1.00  0.00     0.023 A 
ATOM     87  C   UNL A   1      44.162  27.486  36.267  1.00  0.00     0.031 A 
ATOM     88  C   UNL A   1      45.657  28.866  34.969  1.00  0.00     0.131 A 
ATOM     89  C   UNL A   1      45.271  26.994  36.971  1.00  0.00     0.055 A 
ATOM     90  C   UNL A   1      46.760  28.338  35.639  1.00  0.00     0.041 A 
ATOM     91  F   UNL A   1      45.885  29.788  34.020  1.00  0.00    -0.206 F 
ATOM     92  C   UNL A   1      46.570  27.402  36.653  1.00  0.00     0.022 A 
BRANCH  89  93
ATOM     93  S   UNL A   1      44.992  25.856  38.354  1.00  0.00     0.124 S 
ATOM     94  O   UNL A   1      46.261  25.932  39.071  1.00  0.00    -0.237 OA
ATOM     95  O   UNL A   1      43.844  26.454  39.028  1.00  0.00    -0.237 OA
ATOM     96  O   UNL A   1      44.725  24.576  37.698  1.00  0.00    -0.744 OA
ENDBRANCH  89  93
ENDBRANCH  63  86
ENDBRANCH  37  38
ENDBRANCH  29  32
ENDBRANCH  27  28
ENDBRANCH  26  27
ENDBRANCH   1  26
TORSDOF 19
ENDMDL
MODEL 3
REMARK VINA RESULT:     -11.4      5.119      8.043
REMARK SMILES CC[C@H](C)[C@@H](NC(=O)c1csc(NC(C)=O)n1)C(=O)NCCCCNC(=O)c1ccc(-c2c3nc(c(-c4cc(S(=O)(=O)[O-])ccc4F)c4ccc([nH]4)c(-c4cc(S(=O)(=O)[O-])ccc4F)c4nc(c(-c5cc(S(=O)(=O)[O-])ccc5F)c5ccc2[nH]5)C=C4)C=C3)cc1
REMARK SMILES IDX 22 1 21 2 20 3 18 4 19 5 5 7 3 8 4 9 2 10 1 11 6 12 7 13
REMARK SMILES IDX 8 15 9 16 10 17 17 18 11 19 12 20 13 21 14 22 15 24 16 25
REMARK SMILES IDX 23 26 24 27 25 28 26 29 27 31 28 32 29 33 90 34 30 35 89 36
REMARK SMILES IDX 31 37 32 38 33 39 83 40 34 41 88 42 82 43 84 44 35 45 87 46
REMARK SMILES IDX 81 47 80 48 36 50 68 51 48 52 67 53 49 54 52 55 66 56 85 57
REMARK SMILES IDX 50 58 51 59 65 61 86 62 53 63 37 64 38 65 46 66 39 67 45 68
REMARK SMILES IDX 47 69 44 70 40 71 41 72 42 73 43 74 69 75 70 76 78 77 71 78
REMARK SMILES IDX 77 79 79 80 76 81 72 82 73 83 74 84 75 85 54 86 55 87 63 88
REMARK SMILES IDX 56 89 62 90 64 91 61 92 57 93 58 94 59 95 60 96
REMARK H PARENT 20 6 6 14 13 23 25 30 84 49 52 60
REMARK Flexibility Score: inf
ROOT
ATOM      1  C   UNL A   1      32.238  29.240  27.219  1.00  0.00     0.023 C 
ENDROOT
BRANCH   1   2
ATOM      2  C   UNL A   1      33.132  28.315  26.402  1.00  0.00     0.116 C 
BRANCH   2   3
ATOM      3  N   UNL A   1      33.626  28.989  25.218  1.00  0.00    -0.354 N 
ATOM      4  C   UNL A   1      33.411  28.715  23.902  1.00  0.00     0.242 C 
ATOM      5  O   UNL A   1      34.057  29.369  23.072  1.00  0.00    -0.273 OA
ATOM      6  H   UNL A   1      34.208  29.763  25.393  1.00  0.00     0.163 HD
BRANCH   4   7
ATOM      7  C   UNL A   1      32.532  27.519  23.458  1.00  0.00     0.174 C 
BRANCH   7   8
ATOM      8  C   UNL A   1      31.048  28.033  23.392  1.00  0.00     0.018 C 
ATOM      9  C   UNL A   1      30.829  29.174  22.388  1.00  0.00     0.010 C 
BRANCH   8  10
ATOM     10  C   UNL A   1      30.001  26.917  23.150  1.00  0.00     0.002 C 
ATOM     11  C   UNL A   1      29.225  26.480  24.382  1.00  0.00     0.004 C 
ENDBRANCH   8  10
ENDBRANCH   7   8
BRANCH   7  12
ATOM     12  N   UNL A   1      32.920  26.880  22.179  1.00  0.00    -0.339 N 
ATOM     13  C   UNL A   1      32.838  25.576  21.746  1.00  0.00     0.271 C 
ATOM     14  H   UNL A   1      33.307  27.500  21.520  1.00  0.00     0.164 HD
ATOM     15  O   UNL A   1      32.980  25.370  20.539  1.00  0.00    -0.267 OA
BRANCH  13  16
ATOM     16  C   UNL A   1      32.763  24.482  22.710  1.00  0.00     0.141 A 
ATOM     17  C   UNL A   1      33.894  23.837  23.185  1.00  0.00     0.102 A 
ATOM     18  N   UNL A   1      31.578  24.040  23.280  1.00  0.00    -0.215 NA
ATOM     19  S   UNL A   1      33.478  22.831  24.505  1.00  0.00    -0.104 S 
ATOM     20  C   UNL A   1      31.849  23.291  24.325  1.00  0.00     0.190 A 
BRANCH  20  21
ATOM     21  N   UNL A   1      30.865  22.921  25.202  1.00  0.00    -0.302 N 
ATOM     22  C   UNL A   1      30.618  23.491  26.429  1.00  0.00     0.223 C 
ATOM     23  H   UNL A   1      30.278  22.178  24.929  1.00  0.00     0.172 HD
ATOM     24  C   UNL A   1      29.497  22.814  27.180  1.00  0.00     0.114 C 
ATOM     25  O   UNL A   1      31.180  24.469  26.908  1.00  0.00    -0.275 OA
ENDBRANCH  20  21
ENDBRANCH  13  16
ENDBRANCH   7  12
ENDBRANCH   4   7
ENDBRANCH   2   3
ENDBRANCH   1   2
BRANCH   1  26
ATOM     26  C   UNL A   1      32.231  30.693  26.738  1.00  0.00     0.023 C 
BRANCH  26  27
ATOM     27  C   UNL A   1      33.304  31.580  27.365  1.00  0.00     0.116 C 
BRANCH  27  28
ATOM     28  N   UNL A   1      32.872  32.965  27.490  1.00  0.00    -0.352 N 
ATOM     29  C   UNL A   1      33.310  33.915  28.381  1.00  0.00     0.251 C 
ATOM     30  H   UNL A   1      32.177  33.257  26.856  1.00  0.00     0.163 HD
ATOM     31  O   UNL A   1      32.733  34.995  28.471  1.00  0.00    -0.269 OA
BRANCH  29  32
ATOM     32  C   UNL A   1      34.462  33.597  29.246  1.00  0.00     0.039 A 
ATOM     33  C   UNL A   1      34.270  32.772  30.356  1.00  0.00     0.014 A 
ATOM     34  C   UNL A   1      35.738  34.056  28.907  1.00  0.00     0.014 A 
ATOM     35  C   UNL A   1      35.378  32.343  31.088  1.00  0.00     0.010 A 
ATOM     36  C   UNL A   1      36.843  33.581  29.603  1.00  0.00     0.010 A 
ATOM     37  C   UNL A   1      36.674  32.712  30.693  1.00  0.00    -0.014 A 
BRANCH  37  38
ATOM     38  C   UNL A   1      37.876  32.187  31.389  1.00  0.00     0.031 A 
ATOM     39  C   UNL A   1      38.702  31.112  30.742  1.00  0.00     0.074 A 
ATOM     40  C   UNL A   1      38.159  32.610  32.637  1.00  0.00     0.049 A 
ATOM     41  N   UNL A   1      39.710  30.438  31.229  1.00  0.00    -0.248 NA
ATOM     42  C   UNL A   1      38.320  30.725  29.374  1.00  0.00     0.031 C 
ATOM     43  C   UNL A   1      37.399  33.617  33.381  1.00  0.00     0.029 A 
ATOM     44  N   UNL A   1      39.145  32.227  33.511  1.00  0.00    -0.354 N 
ATOM     45  C   UNL A   1      40.071  29.530  30.240  1.00  0.00     0.074 A 
ATOM     46  C   UNL A   1      39.145  29.715  29.141  1.00  0.00     0.031 C 
ATOM     47  C   UNL A   1      37.946  33.771  34.598  1.00  0.00     0.029 A 
ATOM     48  C   UNL A   1      39.067  32.845  34.737  1.00  0.00     0.049 A 
ATOM     49  H   UNL A   1      39.843  31.573  33.282  1.00  0.00     0.167 HD
ATOM     50  C   UNL A   1      41.089  28.635  30.245  1.00  0.00     0.034 A 
ATOM     51  C   UNL A   1      39.796  32.667  35.856  1.00  0.00     0.034 A 
ATOM     52  C   UNL A   1      42.012  28.480  31.340  1.00  0.00     0.049 A 
ATOM     53  C   UNL A   1      40.913  31.654  35.843  1.00  0.00     0.074 A 
ATOM     54  C   UNL A   1      43.138  27.678  31.412  1.00  0.00     0.029 A 
ATOM     55  N   UNL A   1      41.910  29.131  32.564  1.00  0.00    -0.354 N 
ATOM     56  N   UNL A   1      41.291  30.856  34.871  1.00  0.00    -0.248 NA
ATOM     57  C   UNL A   1      41.703  31.519  37.074  1.00  0.00     0.031 C 
ATOM     58  C   UNL A   1      43.679  27.796  32.697  1.00  0.00     0.029 A 
ATOM     59  C   UNL A   1      42.929  28.719  33.408  1.00  0.00     0.049 A 
ATOM     60  H   UNL A   1      41.215  29.789  32.796  1.00  0.00     0.167 HD
ATOM     61  C   UNL A   1      42.377  30.143  35.366  1.00  0.00     0.074 A 
ATOM     62  C   UNL A   1      42.602  30.613  36.718  1.00  0.00     0.031 C 
ATOM     63  C   UNL A   1      43.127  29.189  34.759  1.00  0.00     0.034 A 
BRANCH  50  64
ATOM     64  C   UNL A   1      41.232  27.738  29.041  1.00  0.00     0.023 A 
ATOM     65  C   UNL A   1      42.217  27.963  28.064  1.00  0.00     0.031 A 
ATOM     66  C   UNL A   1      40.357  26.653  28.860  1.00  0.00     0.131 A 
ATOM     67  C   UNL A   1      42.261  27.156  26.917  1.00  0.00     0.055 A 
ATOM     68  C   UNL A   1      40.452  25.810  27.751  1.00  0.00     0.041 A 
ATOM     69  F   UNL A   1      39.386  26.401  29.751  1.00  0.00    -0.206 F 
ATOM     70  C   UNL A   1      41.400  26.066  26.764  1.00  0.00     0.022 A 
BRANCH  67  71
ATOM     71  S   UNL A   1      43.381  27.625  25.571  1.00  0.00     0.124 S 
ATOM     72  O   UNL A   1      42.439  28.015  24.524  1.00  0.00    -0.237 OA
ATOM     73  O   UNL A   1      44.156  28.706  26.166  1.00  0.00    -0.237 OA
ATOM     74  O   UNL A   1      44.127  26.397  25.301  1.00  0.00    -0.744 OA
ENDBRANCH  67  71
ENDBRANCH  50  64
BRANCH  51  75
ATOM     75  C   UNL A   1      39.482  33.432  37.096  1.00  0.00     0.023 A 
ATOM     76  C   UNL A   1      40.096  34.666  37.361  1.00  0.00     0.031 A 
ATOM     77  C   UNL A   1      38.593  32.917  38.057  1.00  0.00     0.131 A 
ATOM     78  C   UNL A   1      39.848  35.323  38.576  1.00  0.00     0.055 A 
ATOM     79  C   UNL A   1      38.314  33.598  39.243  1.00  0.00     0.041 A 
ATOM     80  F   UNL A   1      37.974  31.744  37.849  1.00  0.00    -0.206 F 
ATOM     81  C   UNL A   1      38.953  34.803  39.514  1.00  0.00     0.022 A 
BRANCH  78  82
ATOM     82  S   UNL A   1      40.779  36.835  38.951  1.00  0.00     0.124 S 
ATOM     83  O   UNL A   1      41.442  36.474  40.199  1.00  0.00    -0.237 OA
ATOM     84  O   UNL A   1      41.640  36.958  37.779  1.00  0.00    -0.237 OA
ATOM     85  O   UNL A   1      39.739  37.854  39.068  1.00  0.00    -0.744 OA
ENDBRANCH  78  82
ENDBRANCH  51  75
BRANCH  63  86
ATOM     86  C   UNL A   1      44.279  28.622  35.546  1.00  0.00     0.023 A 
ATOM     87  C   UNL A   1      44.102  27.563  36.453  1.00  0.00     0.031 A 
ATOM     88  C   UNL A   1      45.572  29.152  35.385  1.00  0.00     0.131 A 
ATOM     89  C   UNL A   1      45.194  27.093  37.196  1.00  0.00     0.055 A 
ATOM     90  C   UNL A   1      46.664  28.647  36.091  1.00  0.00     0.041 A 
ATOM     91  F   UNL A   1      45.792  30.165  34.532  1.00  0.00    -0.206 F 
ATOM     92  C   UNL A   1      46.477  27.618  37.010  1.00  0.00     0.022 A 
BRANCH  89  93
ATOM     93  S   UNL A   1      44.909  25.824  38.459  1.00  0.00     0.124 S 
ATOM     94  O   UNL A   1      44.192  24.801  37.706  1.00  0.00    -0.237 OA
ATOM     95  O   UNL A   1      46.266  25.479  38.870  1.00  0.00    -0.237 OA
ATOM     96  O   UNL A   1      44.116  26.519  39.473  1.00  0.00    -0.744 OA
ENDBRANCH  89  93
ENDBRANCH  63  86
ENDBRANCH  37  38
ENDBRANCH  29  32
ENDBRANCH  27  28
ENDBRANCH  26  27
ENDBRANCH   1  26
TORSDOF 19
ENDMDL
