MODEL 1
REMARK VINA RESULT:     -11.0      0.000      0.000
REMARK SMILES O=C(NCCCCNC(=O)[C@@]12CCC[C@@H](C[NH2+]1)C2)c1ccc(-c2c3nc(c(-c4cc(S(=O)(=O)[O-])ccc4F)c4ccc([nH]4)c(-c4cc(S(=O)(=O)[O-])ccc4F)c4nc(c(-c5cc(S(=O)(=O)[O-])ccc5F)c5ccc2[nH]5)C=C4)C=C3)cc1
REMARK SMILES IDX 4 1 3 2 1 3 2 4 19 6 20 7 81 8 21 9 80 10 22 11 23 12 24 13
REMARK SMILES IDX 74 14 25 15 79 16 73 17 75 18 26 19 78 20 72 21 71 22 27 24
REMARK SMILES IDX 59 25 39 26 58 27 40 28 43 29 57 30 76 31 41 32 42 33 56 35
REMARK SMILES IDX 77 36 44 37 28 38 29 39 37 40 30 41 36 42 38 43 35 44 31 45
REMARK SMILES IDX 32 46 33 47 34 48 60 49 61 50 69 51 62 52 68 53 70 54 67 55
REMARK SMILES IDX 63 56 64 57 65 58 66 59 45 60 46 61 54 62 47 63 53 64 55 65
REMARK SMILES IDX 52 66 48 67 49 68 50 69 51 70 5 71 6 72 7 73 8 74 9 75 10 77
REMARK SMILES IDX 11 78 12 79 17 80 18 81 13 82 16 83 15 86 14 87
REMARK H PARENT 3 5 75 23 43 34 8 76 17 84 17 85
REMARK Flexibility Score: inf
ROOT
ATOM      1  C   UNL A   1      41.632  20.866  26.898  1.00  0.00     0.116 C 
ENDROOT
BRANCH   1   2
ATOM      2  N   UNL A   1      40.273  20.987  26.393  1.00  0.00    -0.352 N 
ATOM      3  O   UNL A   1      38.291  21.998  26.028  1.00  0.00    -0.269 OA
ATOM      4  C   UNL A   1      39.453  22.096  26.388  1.00  0.00     0.251 C 
ATOM      5  H   UNL A   1      39.887  20.168  26.005  1.00  0.00     0.163 HD
BRANCH   4   6
ATOM      6  C   UNL A   1      39.993  23.397  26.848  1.00  0.00     0.039 A 
ATOM      7  C   UNL A   1      40.632  23.499  28.084  1.00  0.00     0.014 A 
ATOM      8  C   UNL A   1      39.837  24.529  26.041  1.00  0.00     0.014 A 
ATOM      9  C   UNL A   1      40.976  24.751  28.579  1.00  0.00     0.010 A 
ATOM     10  C   UNL A   1      40.270  25.777  26.504  1.00  0.00     0.010 A 
ATOM     11  C   UNL A   1      40.814  25.904  27.791  1.00  0.00    -0.014 A 
BRANCH  11  12
ATOM     12  C   UNL A   1      41.280  27.208  28.335  1.00  0.00     0.031 A 
ATOM     13  C   UNL A   1      42.734  27.592  28.320  1.00  0.00     0.074 A 
ATOM     14  C   UNL A   1      40.352  28.078  28.782  1.00  0.00     0.049 A 
ATOM     15  N   UNL A   1      43.291  28.719  28.687  1.00  0.00    -0.248 NA
ATOM     16  C   UNL A   1      43.688  26.581  27.842  1.00  0.00     0.031 C 
ATOM     17  C   UNL A   1      38.914  27.801  28.861  1.00  0.00     0.029 A 
ATOM     18  N   UNL A   1      40.462  29.373  29.218  1.00  0.00    -0.354 N 
ATOM     19  C   UNL A   1      44.658  28.556  28.488  1.00  0.00     0.074 A 
ATOM     20  C   UNL A   1      44.848  27.202  28.007  1.00  0.00     0.031 C 
ATOM     21  C   UNL A   1      38.273  28.909  29.255  1.00  0.00     0.029 A 
ATOM     22  C   UNL A   1      39.253  29.953  29.525  1.00  0.00     0.049 A 
ATOM     23  H   UNL A   1      41.323  29.841  29.304  1.00  0.00     0.167 HD
ATOM     24  C   UNL A   1      45.657  29.455  28.680  1.00  0.00     0.034 A 
ATOM     25  C   UNL A   1      38.963  31.185  29.986  1.00  0.00     0.034 A 
ATOM     26  C   UNL A   1      45.447  30.800  29.167  1.00  0.00     0.049 A 
ATOM     27  C   UNL A   1      40.090  32.158  30.196  1.00  0.00     0.074 A 
ATOM     28  C   UNL A   1      46.387  31.791  29.400  1.00  0.00     0.029 A 
ATOM     29  N   UNL A   1      44.213  31.345  29.498  1.00  0.00    -0.354 N 
ATOM     30  N   UNL A   1      41.377  31.984  29.997  1.00  0.00    -0.248 NA
ATOM     31  C   UNL A   1      39.728  33.492  30.683  1.00  0.00     0.031 C 
ATOM     32  C   UNL A   1      45.729  32.910  29.924  1.00  0.00     0.029 A 
ATOM     33  C   UNL A   1      44.369  32.647  29.952  1.00  0.00     0.049 A 
ATOM     34  H   UNL A   1      43.351  30.875  29.422  1.00  0.00     0.167 HD
ATOM     35  C   UNL A   1      41.976  33.193  30.334  1.00  0.00     0.074 A 
ATOM     36  C   UNL A   1      40.906  34.096  30.704  1.00  0.00     0.031 C 
ATOM     37  C   UNL A   1      43.293  33.524  30.347  1.00  0.00     0.034 A 
BRANCH  24  38
ATOM     38  C   UNL A   1      47.070  28.999  28.396  1.00  0.00     0.023 A 
ATOM     39  C   UNL A   1      47.524  28.768  27.084  1.00  0.00     0.031 A 
ATOM     40  C   UNL A   1      47.977  28.788  29.450  1.00  0.00     0.131 A 
ATOM     41  C   UNL A   1      48.825  28.288  26.866  1.00  0.00     0.055 A 
ATOM     42  C   UNL A   1      49.292  28.379  29.221  1.00  0.00     0.041 A 
ATOM     43  F   UNL A   1      47.597  28.971  30.725  1.00  0.00    -0.206 F 
ATOM     44  C   UNL A   1      49.720  28.115  27.924  1.00  0.00     0.022 A 
BRANCH  41  45
ATOM     45  S   UNL A   1      49.294  27.780  25.189  1.00  0.00     0.124 S 
ATOM     46  O   UNL A   1      50.474  28.607  24.949  1.00  0.00    -0.237 OA
ATOM     47  O   UNL A   1      49.536  26.352  25.347  1.00  0.00    -0.237 OA
ATOM     48  O   UNL A   1      48.124  28.130  24.385  1.00  0.00    -0.744 OA
ENDBRANCH  41  45
ENDBRANCH  24  38
BRANCH  25  49
ATOM     49  C   UNL A   1      37.555  31.551  30.311  1.00  0.00     0.023 A 
ATOM     50  C   UNL A   1      36.662  31.980  29.319  1.00  0.00     0.031 A 
ATOM     51  C   UNL A   1      37.093  31.504  31.641  1.00  0.00     0.131 A 
ATOM     52  C   UNL A   1      35.365  32.385  29.675  1.00  0.00     0.055 A 
ATOM     53  C   UNL A   1      35.786  31.851  31.980  1.00  0.00     0.041 A 
ATOM     54  F   UNL A   1      37.906  31.096  32.628  1.00  0.00    -0.206 F 
ATOM     55  C   UNL A   1      34.917  32.309  30.996  1.00  0.00     0.022 A 
BRANCH  52  56
ATOM     56  S   UNL A   1      34.298  33.104  28.397  1.00  0.00     0.124 S 
ATOM     57  O   UNL A   1      35.267  33.782  27.544  1.00  0.00    -0.237 OA
ATOM     58  O   UNL A   1      33.665  31.918  27.831  1.00  0.00    -0.237 OA
ATOM     59  O   UNL A   1      33.409  33.983  29.152  1.00  0.00    -0.744 OA
ENDBRANCH  52  56
ENDBRANCH  25  49
BRANCH  37  60
ATOM     60  C   UNL A   1      43.623  34.935  30.767  1.00  0.00     0.023 A 
ATOM     61  C   UNL A   1      43.678  35.301  32.124  1.00  0.00     0.031 A 
ATOM     62  C   UNL A   1      43.829  35.936  29.803  1.00  0.00     0.131 A 
ATOM     63  C   UNL A   1      43.859  36.646  32.478  1.00  0.00     0.055 A 
ATOM     64  C   UNL A   1      44.072  37.263  30.163  1.00  0.00     0.041 A 
ATOM     65  F   UNL A   1      43.785  35.644  28.493  1.00  0.00    -0.206 F 
ATOM     66  C   UNL A   1      44.070  37.627  31.507  1.00  0.00     0.022 A 
BRANCH  63  67
ATOM     67  S   UNL A   1      43.695  37.114  34.224  1.00  0.00     0.124 S 
ATOM     68  O   UNL A   1      43.271  35.859  34.835  1.00  0.00    -0.237 OA
ATOM     69  O   UNL A   1      45.044  37.560  34.554  1.00  0.00    -0.237 OA
ATOM     70  O   UNL A   1      42.682  38.167  34.202  1.00  0.00    -0.744 OA
ENDBRANCH  63  67
ENDBRANCH  37  60
ENDBRANCH  11  12
ENDBRANCH   4   6
ENDBRANCH   1   2
BRANCH   1  71
ATOM     71  C   UNL A   1      41.933  19.496  27.494  1.00  0.00     0.023 C 
BRANCH  71  72
ATOM     72  C   UNL A   1      42.905  18.625  26.689  1.00  0.00     0.023 C 
BRANCH  72  73
ATOM     73  C   UNL A   1      43.360  19.236  25.361  1.00  0.00     0.116 C 
BRANCH  73  74
ATOM     74  N   UNL A   1      44.802  19.360  25.312  1.00  0.00    -0.351 N 
ATOM     75  C   UNL A   1      45.652  20.386  25.072  1.00  0.00     0.281 C 
ATOM     76  H   UNL A   1      45.266  18.512  25.493  1.00  0.00     0.163 HD
ATOM     77  O   UNL A   1      46.829  20.051  24.880  1.00  0.00    -0.268 OA
BRANCH  75  78
ATOM     78  C   UNL A   1      45.271  21.891  25.088  1.00  0.00     0.176 C 
ATOM     79  C   UNL A   1      46.470  22.691  24.523  1.00  0.00     0.079 C 
ATOM     80  N   UNL A   1      44.137  22.105  24.121  1.00  0.00    -0.333 N 
ATOM     81  C   UNL A   1      44.771  22.573  26.356  1.00  0.00     0.088 C 
ATOM     82  C   UNL A   1      46.435  24.184  24.870  1.00  0.00     0.008 C 
ATOM     83  C   UNL A   1      43.197  23.048  24.723  1.00  0.00     0.265 C 
ATOM     84  H   UNL A   1      43.667  21.218  23.938  1.00  0.00     0.347 HD
ATOM     85  H   UNL A   1      44.490  22.474  23.238  1.00  0.00     0.347 HD
ATOM     86  C   UNL A   1      44.046  23.773  25.759  1.00  0.00     0.051 C 
ATOM     87  C   UNL A   1      45.028  24.755  25.079  1.00  0.00     0.010 C 
ENDBRANCH  75  78
ENDBRANCH  73  74
ENDBRANCH  72  73
ENDBRANCH  71  72
ENDBRANCH   1  71
TORSDOF 14
ENDMDL
MODEL 2
REMARK VINA RESULT:     -11.0      4.863     12.150
REMARK SMILES O=C(NCCCCNC(=O)[C@@]12CCC[C@@H](C[NH2+]1)C2)c1ccc(-c2c3nc(c(-c4cc(S(=O)(=O)[O-])ccc4F)c4ccc([nH]4)c(-c4cc(S(=O)(=O)[O-])ccc4F)c4nc(c(-c5cc(S(=O)(=O)[O-])ccc5F)c5ccc2[nH]5)C=C4)C=C3)cc1
REMARK SMILES IDX 4 1 3 2 1 3 2 4 19 6 20 7 81 8 21 9 80 10 22 11 23 12 24 13
REMARK SMILES IDX 74 14 25 15 79 16 73 17 75 18 26 19 78 20 72 21 71 22 27 24
REMARK SMILES IDX 59 25 39 26 58 27 40 28 43 29 57 30 76 31 41 32 42 33 56 35
REMARK SMILES IDX 77 36 44 37 28 38 29 39 37 40 30 41 36 42 38 43 35 44 31 45
REMARK SMILES IDX 32 46 33 47 34 48 60 49 61 50 69 51 62 52 68 53 70 54 67 55
REMARK SMILES IDX 63 56 64 57 65 58 66 59 45 60 46 61 54 62 47 63 53 64 55 65
REMARK SMILES IDX 52 66 48 67 49 68 50 69 51 70 5 71 6 72 7 73 8 74 9 75 10 77
REMARK SMILES IDX 11 78 12 79 17 80 18 81 13 82 16 83 15 86 14 87
REMARK H PARENT 3 5 75 23 43 34 8 76 17 84 17 85
REMARK Flexibility Score: inf
ROOT
ATOM      1  C   UNL A   1      34.430  33.985  28.850  1.00  0.00     0.116 C 
ENDROOT
BRANCH   1   2
ATOM      2  N   UNL A   1      33.792  32.941  28.065  1.00  0.00    -0.352 N 
ATOM      3  O   UNL A   1      33.643  30.956  27.005  1.00  0.00    -0.269 OA
ATOM      4  C   UNL A   1      34.255  31.674  27.779  1.00  0.00     0.251 C 
ATOM      5  H   UNL A   1      32.912  33.170  27.685  1.00  0.00     0.163 HD
BRANCH   4   6
ATOM      6  C   UNL A   1      35.516  31.208  28.404  1.00  0.00     0.039 A 
ATOM      7  C   UNL A   1      36.702  31.918  28.216  1.00  0.00     0.014 A 
ATOM      8  C   UNL A   1      35.512  30.035  29.165  1.00  0.00     0.014 A 
ATOM      9  C   UNL A   1      37.903  31.378  28.657  1.00  0.00     0.010 A 
ATOM     10  C   UNL A   1      36.712  29.542  29.689  1.00  0.00     0.010 A 
ATOM     11  C   UNL A   1      37.924  30.192  29.412  1.00  0.00    -0.014 A 
BRANCH  11  12
ATOM     12  C   UNL A   1      39.229  29.706  29.935  1.00  0.00     0.031 A 
ATOM     13  C   UNL A   1      39.835  30.275  31.189  1.00  0.00     0.074 A 
ATOM     14  C   UNL A   1      39.829  28.682  29.295  1.00  0.00     0.049 A 
ATOM     15  N   UNL A   1      40.926  29.909  31.815  1.00  0.00    -0.248 NA
ATOM     16  C   UNL A   1      39.136  31.406  31.816  1.00  0.00     0.031 C 
ATOM     17  C   UNL A   1      39.338  28.067  28.057  1.00  0.00     0.029 A 
ATOM     18  N   UNL A   1      40.949  27.955  29.602  1.00  0.00    -0.354 N 
ATOM     19  C   UNL A   1      41.048  30.762  32.906  1.00  0.00     0.074 A 
ATOM     20  C   UNL A   1      39.941  31.693  32.831  1.00  0.00     0.031 C 
ATOM     21  C   UNL A   1      40.113  27.019  27.748  1.00  0.00     0.029 A 
ATOM     22  C   UNL A   1      41.196  26.929  28.720  1.00  0.00     0.049 A 
ATOM     23  H   UNL A   1      41.522  28.149  30.378  1.00  0.00     0.167 HD
ATOM     24  C   UNL A   1      41.991  30.760  33.883  1.00  0.00     0.034 A 
ATOM     25  C   UNL A   1      42.190  26.021  28.687  1.00  0.00     0.034 A 
ATOM     26  C   UNL A   1      43.094  29.826  33.937  1.00  0.00     0.049 A 
ATOM     27  C   UNL A   1      43.225  26.047  29.777  1.00  0.00     0.074 A 
ATOM     28  C   UNL A   1      44.106  29.737  34.878  1.00  0.00     0.029 A 
ATOM     29  N   UNL A   1      43.331  28.819  33.010  1.00  0.00    -0.354 N 
ATOM     30  N   UNL A   1      43.319  26.861  30.804  1.00  0.00    -0.248 NA
ATOM     31  C   UNL A   1      44.280  25.031  29.711  1.00  0.00     0.031 C 
ATOM     32  C   UNL A   1      44.983  28.717  34.491  1.00  0.00     0.029 A 
ATOM     33  C   UNL A   1      44.482  28.120  33.345  1.00  0.00     0.049 A 
ATOM     34  H   UNL A   1      42.765  28.629  32.227  1.00  0.00     0.167 HD
ATOM     35  C   UNL A   1      44.446  26.449  31.507  1.00  0.00     0.074 A 
ATOM     36  C   UNL A   1      44.968  25.290  30.812  1.00  0.00     0.031 C 
ATOM     37  C   UNL A   1      45.006  26.985  32.622  1.00  0.00     0.034 A 
BRANCH  24  38
ATOM     38  C   UNL A   1      41.891  31.824  34.952  1.00  0.00     0.023 A 
ATOM     39  C   UNL A   1      40.903  31.775  35.953  1.00  0.00     0.031 A 
ATOM     40  C   UNL A   1      42.790  32.905  34.971  1.00  0.00     0.131 A 
ATOM     41  C   UNL A   1      40.805  32.813  36.893  1.00  0.00     0.055 A 
ATOM     42  C   UNL A   1      42.731  33.897  35.951  1.00  0.00     0.041 A 
ATOM     43  F   UNL A   1      43.742  33.017  34.030  1.00  0.00    -0.206 F 
ATOM     44  C   UNL A   1      41.727  33.862  36.913  1.00  0.00     0.022 A 
BRANCH  41  45
ATOM     45  S   UNL A   1      39.381  32.837  38.017  1.00  0.00     0.124 S 
ATOM     46  O   UNL A   1      40.022  32.616  39.311  1.00  0.00    -0.237 OA
ATOM     47  O   UNL A   1      38.826  34.166  37.797  1.00  0.00    -0.237 OA
ATOM     48  O   UNL A   1      38.553  31.729  37.545  1.00  0.00    -0.744 OA
ENDBRANCH  41  45
ENDBRANCH  24  38
BRANCH  25  49
ATOM     49  C   UNL A   1      42.272  25.040  27.567  1.00  0.00     0.023 A 
ATOM     50  C   UNL A   1      41.560  23.832  27.598  1.00  0.00     0.031 A 
ATOM     51  C   UNL A   1      43.098  25.292  26.454  1.00  0.00     0.131 A 
ATOM     52  C   UNL A   1      41.719  22.901  26.558  1.00  0.00     0.055 A 
ATOM     53  C   UNL A   1      43.206  24.390  25.396  1.00  0.00     0.041 A 
ATOM     54  F   UNL A   1      43.797  26.435  26.373  1.00  0.00    -0.206 F 
ATOM     55  C   UNL A   1      42.525  23.180  25.451  1.00  0.00     0.022 A 
BRANCH  52  56
ATOM     56  S   UNL A   1      40.928  21.277  26.717  1.00  0.00     0.124 S 
ATOM     57  O   UNL A   1      39.704  21.464  25.945  1.00  0.00    -0.237 OA
ATOM     58  O   UNL A   1      41.930  20.395  26.129  1.00  0.00    -0.237 OA
ATOM     59  O   UNL A   1      40.740  21.130  28.158  1.00  0.00    -0.744 OA
ENDBRANCH  52  56
ENDBRANCH  25  49
BRANCH  37  60
ATOM     60  C   UNL A   1      46.242  26.297  33.147  1.00  0.00     0.023 A 
ATOM     61  C   UNL A   1      46.154  25.223  34.050  1.00  0.00     0.031 A 
ATOM     62  C   UNL A   1      47.521  26.756  32.786  1.00  0.00     0.131 A 
ATOM     63  C   UNL A   1      47.321  24.691  34.619  1.00  0.00     0.055 A 
ATOM     64  C   UNL A   1      48.680  26.181  33.308  1.00  0.00     0.041 A 
ATOM     65  F   UNL A   1      47.664  27.781  31.930  1.00  0.00    -0.206 F 
ATOM     66  C   UNL A   1      48.583  25.154  34.244  1.00  0.00     0.022 A 
BRANCH  63  67
ATOM     67  S   UNL A   1      47.158  23.467  35.948  1.00  0.00     0.124 S 
ATOM     68  O   UNL A   1      45.710  23.378  36.103  1.00  0.00    -0.237 OA
ATOM     69  O   UNL A   1      47.811  22.295  35.373  1.00  0.00    -0.237 OA
ATOM     70  O   UNL A   1      47.864  24.082  37.069  1.00  0.00    -0.744 OA
ENDBRANCH  63  67
ENDBRANCH  37  60
ENDBRANCH  11  12
ENDBRANCH   4   6
ENDBRANCH   1   2
BRANCH   1  71
ATOM     71  C   UNL A   1      34.297  35.372  28.230  1.00  0.00     0.023 C 
BRANCH  71  72
ATOM     72  C   UNL A   1      33.509  36.392  29.061  1.00  0.00     0.023 C 
BRANCH  72  73
ATOM     73  C   UNL A   1      32.961  35.852  30.384  1.00  0.00     0.116 C 
BRANCH  73  74
ATOM     74  N   UNL A   1      33.507  36.581  31.510  1.00  0.00    -0.351 N 
ATOM     75  C   UNL A   1      34.173  36.221  32.632  1.00  0.00     0.281 C 
ATOM     76  H   UNL A   1      33.361  37.552  31.446  1.00  0.00     0.163 HD
ATOM     77  O   UNL A   1      34.270  37.112  33.487  1.00  0.00    -0.268 OA
BRANCH  75  78
ATOM     78  C   UNL A   1      34.849  34.844  32.873  1.00  0.00     0.176 C 
ATOM     79  C   UNL A   1      35.281  34.780  34.358  1.00  0.00     0.079 C 
ATOM     80  N   UNL A   1      33.811  33.768  32.697  1.00  0.00    -0.333 N 
ATOM     81  C   UNL A   1      35.998  34.356  31.998  1.00  0.00     0.088 C 
ATOM     82  C   UNL A   1      36.330  33.700  34.650  1.00  0.00     0.008 C 
ATOM     83  C   UNL A   1      34.430  32.650  31.989  1.00  0.00     0.265 C 
ATOM     84  H   UNL A   1      33.027  34.129  32.154  1.00  0.00     0.347 HD
ATOM     85  H   UNL A   1      33.463  33.461  33.606  1.00  0.00     0.347 HD
ATOM     86  C   UNL A   1      35.917  32.854  32.246  1.00  0.00     0.051 C 
ATOM     87  C   UNL A   1      36.281  32.495  33.705  1.00  0.00     0.010 C 
ENDBRANCH  75  78
ENDBRANCH  73  74
ENDBRANCH  72  73
ENDBRANCH  71  72
ENDBRANCH   1  71
TORSDOF 14
ENDMDL
MODEL 3
REMARK VINA RESULT:     -10.8      4.210      6.370
REMARK SMILES O=C(NCCCCNC(=O)[C@@]12CCC[C@@H](C[NH2+]1)C2)c1ccc(-c2c3nc(c(-c4cc(S(=O)(=O)[O-])ccc4F)c4ccc([nH]4)c(-c4cc(S(=O)(=O)[O-])ccc4F)c4nc(c(-c5cc(S(=O)(=O)[O-])ccc5F)c5ccc2[nH]5)C=C4)C=C3)cc1
REMARK SMILES IDX 4 1 3 2 1 3 2 4 19 6 20 7 81 8 21 9 80 10 22 11 23 12 24 13
REMARK SMILES IDX 74 14 25 15 79 16 73 17 75 18 26 19 78 20 72 21 71 22 27 24
REMARK SMILES IDX 59 25 39 26 58 27 40 28 43 29 57 30 76 31 41 32 42 33 56 35
REMARK SMILES IDX 77 36 44 37 28 38 29 39 37 40 30 41 36 42 38 43 35 44 31 45
REMARK SMILES IDX 32 46 33 47 34 48 60 49 61 50 69 51 62 52 68 53 70 54 67 55
REMARK SMILES IDX 63 56 64 57 65 58 66 59 45 60 46 61 54 62 47 63 53 64 55 65
REMARK SMILES IDX 52 66 48 67 49 68 50 69 51 70 5 71 6 72 7 73 8 74 9 75 10 77
REMARK SMILES IDX 11 78 12 79 17 80 18 81 13 82 16 83 15 86 14 87
REMARK H PARENT 3 5 75 23 43 34 8 76 17 84 17 85
REMARK Flexibility Score: inf
ROOT
ATOM      1  C   UNL A   1      36.111  22.327  25.739  1.00  0.00     0.116 C 
ENDROOT
BRANCH   1   2
ATOM      2  N   UNL A   1      37.039  21.218  25.584  1.00  0.00    -0.352 N 
ATOM      3  O   UNL A   1      39.056  20.215  25.481  1.00  0.00    -0.269 OA
ATOM      4  C   UNL A   1      38.406  21.208  25.765  1.00  0.00     0.251 C 
ATOM      5  H   UNL A   1      36.637  20.360  25.314  1.00  0.00     0.163 HD
BRANCH   4   6
ATOM      6  C   UNL A   1      39.076  22.425  26.281  1.00  0.00     0.039 A 
ATOM      7  C   UNL A   1      38.700  23.688  25.821  1.00  0.00     0.014 A 
ATOM      8  C   UNL A   1      40.106  22.297  27.218  1.00  0.00     0.014 A 
ATOM      9  C   UNL A   1      39.450  24.801  26.179  1.00  0.00     0.010 A 
ATOM     10  C   UNL A   1      40.800  23.433  27.649  1.00  0.00     0.010 A 
ATOM     11  C   UNL A   1      40.499  24.692  27.108  1.00  0.00    -0.014 A 
BRANCH  11  12
ATOM     12  C   UNL A   1      41.212  25.930  27.523  1.00  0.00     0.031 A 
ATOM     13  C   UNL A   1      42.598  26.243  27.029  1.00  0.00     0.074 A 
ATOM     14  C   UNL A   1      40.554  26.812  28.302  1.00  0.00     0.049 A 
ATOM     15  N   UNL A   1      43.323  27.313  27.237  1.00  0.00    -0.248 NA
ATOM     16  C   UNL A   1      43.260  25.222  26.204  1.00  0.00     0.031 C 
ATOM     17  C   UNL A   1      39.212  26.600  28.856  1.00  0.00     0.029 A 
ATOM     18  N   UNL A   1      40.895  28.066  28.736  1.00  0.00    -0.354 N 
ATOM     19  C   UNL A   1      44.527  27.098  26.574  1.00  0.00     0.074 A 
ATOM     20  C   UNL A   1      44.448  25.773  25.992  1.00  0.00     0.031 C 
ATOM     21  C   UNL A   1      38.821  27.708  29.499  1.00  0.00     0.029 A 
ATOM     22  C   UNL A   1      39.905  28.682  29.467  1.00  0.00     0.049 A 
ATOM     23  H   UNL A   1      41.764  28.485  28.545  1.00  0.00     0.167 HD
ATOM     24  C   UNL A   1      45.591  27.932  26.456  1.00  0.00     0.034 A 
ATOM     25  C   UNL A   1      39.874  29.891  30.058  1.00  0.00     0.034 A 
ATOM     26  C   UNL A   1      45.654  29.248  27.050  1.00  0.00     0.049 A 
ATOM     27  C   UNL A   1      41.071  30.791  29.917  1.00  0.00     0.074 A 
ATOM     28  C   UNL A   1      46.683  30.174  26.995  1.00  0.00     0.029 A 
ATOM     29  N   UNL A   1      44.646  29.828  27.810  1.00  0.00    -0.354 N 
ATOM     30  N   UNL A   1      42.199  30.569  29.281  1.00  0.00    -0.248 NA
ATOM     31  C   UNL A   1      40.989  32.105  30.563  1.00  0.00     0.031 C 
ATOM     32  C   UNL A   1      46.321  31.285  27.766  1.00  0.00     0.029 A 
ATOM     33  C   UNL A   1      45.036  31.087  28.246  1.00  0.00     0.049 A 
ATOM     34  H   UNL A   1      43.778  29.407  28.011  1.00  0.00     0.167 HD
ATOM     35  C   UNL A   1      42.959  31.721  29.451  1.00  0.00     0.074 A 
ATOM     36  C   UNL A   1      42.143  32.647  30.208  1.00  0.00     0.031 C 
ATOM     37  C   UNL A   1      44.222  31.986  29.028  1.00  0.00     0.034 A 
BRANCH  24  38
ATOM     38  C   UNL A   1      46.789  27.429  25.683  1.00  0.00     0.023 A 
ATOM     39  C   UNL A   1      47.044  27.841  24.362  1.00  0.00     0.031 A 
ATOM     40  C   UNL A   1      47.689  26.521  26.272  1.00  0.00     0.131 A 
ATOM     41  C   UNL A   1      48.134  27.305  23.658  1.00  0.00     0.055 A 
ATOM     42  C   UNL A   1      48.810  26.046  25.590  1.00  0.00     0.041 A 
ATOM     43  F   UNL A   1      47.488  26.075  27.522  1.00  0.00    -0.206 F 
ATOM     44  C   UNL A   1      49.033  26.428  24.271  1.00  0.00     0.022 A 
BRANCH  41  45
ATOM     45  S   UNL A   1      48.294  27.677  21.890  1.00  0.00     0.124 S 
ATOM     46  O   UNL A   1      48.518  26.348  21.327  1.00  0.00    -0.237 OA
ATOM     47  O   UNL A   1      47.010  28.294  21.578  1.00  0.00    -0.237 OA
ATOM     48  O   UNL A   1      49.447  28.573  21.830  1.00  0.00    -0.744 OA
ENDBRANCH  41  45
ENDBRANCH  24  38
BRANCH  25  49
ATOM     49  C   UNL A   1      38.689  30.302  30.864  1.00  0.00     0.023 A 
ATOM     50  C   UNL A   1      37.623  31.010  30.290  1.00  0.00     0.031 A 
ATOM     51  C   UNL A   1      38.625  30.013  32.241  1.00  0.00     0.131 A 
ATOM     52  C   UNL A   1      36.558  31.443  31.096  1.00  0.00     0.055 A 
ATOM     53  C   UNL A   1      37.537  30.393  33.025  1.00  0.00     0.041 A 
ATOM     54  F   UNL A   1      39.616  29.333  32.839  1.00  0.00    -0.206 F 
ATOM     55  C   UNL A   1      36.501  31.126  32.456  1.00  0.00     0.022 A 
BRANCH  52  56
ATOM     56  S   UNL A   1      35.289  32.510  30.361  1.00  0.00     0.124 S 
ATOM     57  O   UNL A   1      34.808  31.685  29.258  1.00  0.00    -0.237 OA
ATOM     58  O   UNL A   1      34.366  32.692  31.476  1.00  0.00    -0.237 OA
ATOM     59  O   UNL A   1      36.034  33.703  29.969  1.00  0.00    -0.744 OA
ENDBRANCH  52  56
ENDBRANCH  25  49
BRANCH  37  60
ATOM     60  C   UNL A   1      44.772  33.347  29.378  1.00  0.00     0.023 A 
ATOM     61  C   UNL A   1      44.678  34.426  28.482  1.00  0.00     0.031 A 
ATOM     62  C   UNL A   1      45.447  33.551  30.593  1.00  0.00     0.131 A 
ATOM     63  C   UNL A   1      45.314  35.640  28.782  1.00  0.00     0.055 A 
ATOM     64  C   UNL A   1      46.024  34.781  30.914  1.00  0.00     0.041 A 
ATOM     65  F   UNL A   1      45.569  32.554  31.485  1.00  0.00    -0.206 F 
ATOM     66  C   UNL A   1      45.974  35.829  29.998  1.00  0.00     0.022 A 
BRANCH  63  67
ATOM     67  S   UNL A   1      45.368  36.930  27.507  1.00  0.00     0.124 S 
ATOM     68  O   UNL A   1      43.962  37.298  27.387  1.00  0.00    -0.237 OA
ATOM     69  O   UNL A   1      46.239  37.932  28.115  1.00  0.00    -0.237 OA
ATOM     70  O   UNL A   1      45.930  36.242  26.347  1.00  0.00    -0.744 OA
ENDBRANCH  63  67
ENDBRANCH  37  60
ENDBRANCH  11  12
ENDBRANCH   4   6
ENDBRANCH   1   2
BRANCH   1  71
ATOM     71  C   UNL A   1      34.687  21.986  25.315  1.00  0.00     0.023 C 
BRANCH  71  72
ATOM     72  C   UNL A   1      33.786  21.424  26.421  1.00  0.00     0.023 C 
BRANCH  72  73
ATOM     73  C   UNL A   1      33.322  22.456  27.452  1.00  0.00     0.116 C 
BRANCH  73  74
ATOM     74  N   UNL A   1      31.878  22.482  27.551  1.00  0.00    -0.351 N 
ATOM     75  C   UNL A   1      30.906  23.222  26.968  1.00  0.00     0.281 C 
ATOM     76  H   UNL A   1      31.524  21.813  28.180  1.00  0.00     0.163 HD
ATOM     77  O   UNL A   1      29.787  23.112  27.488  1.00  0.00    -0.268 OA
BRANCH  75  78
ATOM     78  C   UNL A   1      31.087  24.108  25.706  1.00  0.00     0.176 C 
ATOM     79  C   UNL A   1      31.159  23.173  24.475  1.00  0.00     0.079 C 
ATOM     80  N   UNL A   1      29.843  24.937  25.524  1.00  0.00    -0.333 N 
ATOM     81  C   UNL A   1      32.202  25.143  25.612  1.00  0.00     0.088 C 
ATOM     82  C   UNL A   1      31.764  23.836  23.230  1.00  0.00     0.008 C 
ATOM     83  C   UNL A   1      30.246  26.278  25.109  1.00  0.00     0.265 C 
ATOM     84  H   UNL A   1      29.330  24.988  26.405  1.00  0.00     0.347 HD
ATOM     85  H   UNL A   1      29.237  24.516  24.820  1.00  0.00     0.347 HD
ATOM     86  C   UNL A   1      31.640  26.061  24.533  1.00  0.00     0.051 C 
ATOM     87  C   UNL A   1      31.567  25.354  23.160  1.00  0.00     0.010 C 
ENDBRANCH  75  78
ENDBRANCH  73  74
ENDBRANCH  72  73
ENDBRANCH  71  72
ENDBRANCH   1  71
TORSDOF 14
ENDMDL
