MODEL 1
REMARK VINA RESULT:     -11.3      0.000      0.000
REMARK SMILES CC(=O)N[C@@H](C)C(=O)N1CCC[C@H]1C(=O)NCCCCNC(=O)c1ccc(-c2c3nc(c(-c4cc(S(=O)(=O)[O-])ccc4F)c4ccc([nH]4)c(-c4cc(S(=O)(=O)[O-])ccc4F)c4nc(c(-c5cc(S(=O)(=O)[O-])ccc5F)c5ccc2[nH]5)C=C4)C=C3)cc1
REMARK SMILES IDX 18 1 17 2 16 3 14 4 15 5 13 7 9 8 10 9 11 10 12 11 7 12 8 13
REMARK SMILES IDX 5 14 6 15 4 16 1 17 2 18 3 19 19 21 20 22 21 23 22 24 23 26
REMARK SMILES IDX 24 27 25 28 86 29 26 30 85 31 27 32 28 33 29 34 79 35 30 36
REMARK SMILES IDX 84 37 78 38 80 39 31 40 83 41 77 42 76 43 32 45 64 46 44 47
REMARK SMILES IDX 63 48 45 49 48 50 62 51 81 52 46 53 47 54 61 56 82 57 49 58
REMARK SMILES IDX 33 59 34 60 42 61 35 62 41 63 43 64 40 65 36 66 37 67 38 68
REMARK SMILES IDX 39 69 65 70 66 71 74 72 67 73 73 74 75 75 72 76 68 77 69 78
REMARK SMILES IDX 70 79 71 80 50 81 51 82 59 83 52 84 58 85 60 86 57 87 53 88
REMARK SMILES IDX 54 89 55 90 56 91
REMARK H PARENT 16 6 4 20 21 25 80 44 48 55
REMARK Flexibility Score: inf
ROOT
ATOM      1  C   UNL A   1      31.418  30.870  26.153  1.00  0.00     0.023 C 
ENDROOT
BRANCH   1   2
ATOM      2  C   UNL A   1      32.393  29.887  26.798  1.00  0.00     0.116 C 
BRANCH   2   3
ATOM      3  N   UNL A   1      31.748  28.625  27.082  1.00  0.00    -0.354 N 
ATOM      4  C   UNL A   1      31.477  27.553  26.300  1.00  0.00     0.242 C 
ATOM      5  O   UNL A   1      30.741  26.692  26.804  1.00  0.00    -0.273 OA
ATOM      6  H   UNL A   1      31.450  28.528  28.016  1.00  0.00     0.163 HD
BRANCH   4   7
ATOM      7  C   UNL A   1      32.016  27.331  24.858  1.00  0.00     0.174 C 
ATOM      8  N   UNL A   1      31.866  28.312  23.770  1.00  0.00    -0.329 N 
ATOM      9  C   UNL A   1      33.131  28.966  23.511  1.00  0.00     0.120 C 
ATOM     10  C   UNL A   1      34.161  27.906  23.835  1.00  0.00     0.024 C 
ATOM     11  C   UNL A   1      33.545  27.138  24.992  1.00  0.00     0.037 C 
BRANCH   8  12
ATOM     12  C   UNL A   1      30.722  28.319  22.999  1.00  0.00     0.245 C 
ATOM     13  O   UNL A   1      30.661  27.604  21.991  1.00  0.00    -0.272 OA
BRANCH  12  14
ATOM     14  C   UNL A   1      29.566  29.329  23.235  1.00  0.00     0.168 C 
ATOM     15  C   UNL A   1      28.250  28.635  22.883  1.00  0.00     0.041 C 
BRANCH  14  16
ATOM     16  N   UNL A   1      29.619  30.645  22.598  1.00  0.00    -0.345 N 
ATOM     17  C   UNL A   1      27.559  31.564  23.609  1.00  0.00     0.114 C 
ATOM     18  C   UNL A   1      28.714  31.661  22.655  1.00  0.00     0.217 C 
ATOM     19  O   UNL A   1      28.874  32.630  21.916  1.00  0.00    -0.275 OA
ATOM     20  H   UNL A   1      30.419  30.821  22.052  1.00  0.00     0.164 HD
ENDBRANCH  14  16
ENDBRANCH  12  14
ENDBRANCH   8  12
ENDBRANCH   4   7
ENDBRANCH   2   3
ENDBRANCH   1   2
BRANCH   1  21
ATOM     21  C   UNL A   1      31.379  32.257  26.803  1.00  0.00     0.023 C 
BRANCH  21  22
ATOM     22  C   UNL A   1      32.729  32.804  27.258  1.00  0.00     0.116 C 
BRANCH  22  23
ATOM     23  N   UNL A   1      32.661  34.158  27.782  1.00  0.00    -0.352 N 
ATOM     24  C   UNL A   1      33.461  34.744  28.736  1.00  0.00     0.251 C 
ATOM     25  H   UNL A   1      31.952  34.729  27.407  1.00  0.00     0.163 HD
ATOM     26  O   UNL A   1      33.210  35.872  29.139  1.00  0.00    -0.269 OA
BRANCH  24  27
ATOM     27  C   UNL A   1      34.590  33.970  29.299  1.00  0.00     0.039 A 
ATOM     28  C   UNL A   1      35.890  34.304  28.913  1.00  0.00     0.014 A 
ATOM     29  C   UNL A   1      34.367  32.965  30.243  1.00  0.00     0.014 A 
ATOM     30  C   UNL A   1      36.973  33.679  29.534  1.00  0.00     0.010 A 
ATOM     31  C   UNL A   1      35.449  32.391  30.906  1.00  0.00     0.010 A 
ATOM     32  C   UNL A   1      36.761  32.748  30.565  1.00  0.00    -0.014 A 
BRANCH  32  33
ATOM     33  C   UNL A   1      37.900  32.141  31.302  1.00  0.00     0.031 A 
ATOM     34  C   UNL A   1      38.690  31.025  30.675  1.00  0.00     0.074 A 
ATOM     35  C   UNL A   1      38.176  32.547  32.557  1.00  0.00     0.049 A 
ATOM     36  N   UNL A   1      39.648  30.299  31.189  1.00  0.00    -0.248 NA
ATOM     37  C   UNL A   1      38.328  30.659  29.297  1.00  0.00     0.031 C 
ATOM     38  C   UNL A   1      37.448  33.589  33.288  1.00  0.00     0.029 A 
ATOM     39  N   UNL A   1      39.131  32.126  33.448  1.00  0.00    -0.354 N 
ATOM     40  C   UNL A   1      40.003  29.386  30.201  1.00  0.00     0.074 A 
ATOM     41  C   UNL A   1      39.108  29.609  29.085  1.00  0.00     0.031 C 
ATOM     42  C   UNL A   1      37.991  33.731  34.508  1.00  0.00     0.029 A 
ATOM     43  C   UNL A   1      39.077  32.768  34.665  1.00  0.00     0.049 A 
ATOM     44  H   UNL A   1      39.792  31.428  33.238  1.00  0.00     0.167 HD
ATOM     45  C   UNL A   1      40.997  28.464  30.214  1.00  0.00     0.034 A 
ATOM     46  C   UNL A   1      39.811  32.591  35.781  1.00  0.00     0.034 A 
ATOM     47  C   UNL A   1      41.886  28.259  31.331  1.00  0.00     0.049 A 
ATOM     48  C   UNL A   1      40.909  31.557  35.773  1.00  0.00     0.074 A 
ATOM     49  C   UNL A   1      42.942  27.371  31.443  1.00  0.00     0.029 A 
ATOM     50  N   UNL A   1      41.825  28.954  32.532  1.00  0.00    -0.354 N 
ATOM     51  N   UNL A   1      41.252  30.725  34.816  1.00  0.00    -0.248 NA
ATOM     52  C   UNL A   1      41.728  31.450  36.987  1.00  0.00     0.031 C 
ATOM     53  C   UNL A   1      43.488  27.496  32.726  1.00  0.00     0.029 A 
ATOM     54  C   UNL A   1      42.814  28.506  33.393  1.00  0.00     0.049 A 
ATOM     55  H   UNL A   1      41.173  29.662  32.741  1.00  0.00     0.167 HD
ATOM     56  C   UNL A   1      42.347  30.018  35.304  1.00  0.00     0.074 A 
ATOM     57  C   UNL A   1      42.616  30.533  36.631  1.00  0.00     0.031 C 
ATOM     58  C   UNL A   1      43.066  29.032  34.713  1.00  0.00     0.034 A 
BRANCH  45  59
ATOM     59  C   UNL A   1      41.159  27.608  28.982  1.00  0.00     0.023 A 
ATOM     60  C   UNL A   1      42.149  27.887  28.024  1.00  0.00     0.031 A 
ATOM     61  C   UNL A   1      40.303  26.519  28.748  1.00  0.00     0.131 A 
ATOM     62  C   UNL A   1      42.212  27.134  26.842  1.00  0.00     0.055 A 
ATOM     63  C   UNL A   1      40.422  25.723  27.606  1.00  0.00     0.041 A 
ATOM     64  F   UNL A   1      39.327  26.216  29.618  1.00  0.00    -0.206 F 
ATOM     65  C   UNL A   1      41.372  26.037  26.637  1.00  0.00     0.022 A 
BRANCH  62  66
ATOM     66  S   UNL A   1      43.321  27.690  25.519  1.00  0.00     0.124 S 
ATOM     67  O   UNL A   1      43.947  28.859  26.134  1.00  0.00    -0.237 OA
ATOM     68  O   UNL A   1      44.184  26.532  25.322  1.00  0.00    -0.237 OA
ATOM     69  O   UNL A   1      42.413  27.987  24.414  1.00  0.00    -0.744 OA
ENDBRANCH  62  66
ENDBRANCH  45  59
BRANCH  46  70
ATOM     70  C   UNL A   1      39.531  33.392  37.008  1.00  0.00     0.023 A 
ATOM     71  C   UNL A   1      40.362  34.462  37.380  1.00  0.00     0.031 A 
ATOM     72  C   UNL A   1      38.462  33.061  37.860  1.00  0.00     0.131 A 
ATOM     73  C   UNL A   1      40.147  35.123  38.599  1.00  0.00     0.055 A 
ATOM     74  C   UNL A   1      38.220  33.758  39.045  1.00  0.00     0.041 A 
ATOM     75  F   UNL A   1      37.634  32.051  37.548  1.00  0.00    -0.206 F 
ATOM     76  C   UNL A   1      39.074  34.786  39.429  1.00  0.00     0.022 A 
BRANCH  73  77
ATOM     77  S   UNL A   1      41.355  36.366  39.136  1.00  0.00     0.124 S 
ATOM     78  O   UNL A   1      41.366  37.281  38.001  1.00  0.00    -0.237 OA
ATOM     79  O   UNL A   1      40.743  36.870  40.361  1.00  0.00    -0.237 OA
ATOM     80  O   UNL A   1      42.579  35.590  39.325  1.00  0.00    -0.744 OA
ENDBRANCH  73  77
ENDBRANCH  46  70
BRANCH  58  81
ATOM     81  C   UNL A   1      44.242  28.488  35.484  1.00  0.00     0.023 A 
ATOM     82  C   UNL A   1      44.092  27.474  36.444  1.00  0.00     0.031 A 
ATOM     83  C   UNL A   1      45.531  29.006  35.261  1.00  0.00     0.131 A 
ATOM     84  C   UNL A   1      45.202  27.047  37.188  1.00  0.00     0.055 A 
ATOM     85  C   UNL A   1      46.641  28.539  35.964  1.00  0.00     0.041 A 
ATOM     86  F   UNL A   1      45.730  29.976  34.354  1.00  0.00    -0.206 F 
ATOM     87  C   UNL A   1      46.478  27.562  36.943  1.00  0.00     0.022 A 
BRANCH  84  88
ATOM     88  S   UNL A   1      44.943  25.864  38.538  1.00  0.00     0.124 S 
ATOM     89  O   UNL A   1      46.275  25.781  39.130  1.00  0.00    -0.237 OA
ATOM     90  O   UNL A   1      43.926  26.530  39.345  1.00  0.00    -0.237 OA
ATOM     91  O   UNL A   1      44.494  24.653  37.852  1.00  0.00    -0.744 OA
ENDBRANCH  84  88
ENDBRANCH  58  81
ENDBRANCH  32  33
ENDBRANCH  24  27
ENDBRANCH  22  23
ENDBRANCH  21  22
ENDBRANCH   1  21
TORSDOF 17
ENDMDL
MODEL 2
REMARK VINA RESULT:     -11.2      4.682      9.828
REMARK SMILES CC(=O)N[C@@H](C)C(=O)N1CCC[C@H]1C(=O)NCCCCNC(=O)c1ccc(-c2c3nc(c(-c4cc(S(=O)(=O)[O-])ccc4F)c4ccc([nH]4)c(-c4cc(S(=O)(=O)[O-])ccc4F)c4nc(c(-c5cc(S(=O)(=O)[O-])ccc5F)c5ccc2[nH]5)C=C4)C=C3)cc1
REMARK SMILES IDX 18 1 17 2 16 3 14 4 15 5 13 7 9 8 10 9 11 10 12 11 7 12 8 13
REMARK SMILES IDX 5 14 6 15 4 16 1 17 2 18 3 19 19 21 20 22 21 23 22 24 23 26
REMARK SMILES IDX 24 27 25 28 86 29 26 30 85 31 27 32 28 33 29 34 79 35 30 36
REMARK SMILES IDX 84 37 78 38 80 39 31 40 83 41 77 42 76 43 32 45 64 46 44 47
REMARK SMILES IDX 63 48 45 49 48 50 62 51 81 52 46 53 47 54 61 56 82 57 49 58
REMARK SMILES IDX 33 59 34 60 42 61 35 62 41 63 43 64 40 65 36 66 37 67 38 68
REMARK SMILES IDX 39 69 65 70 66 71 74 72 67 73 73 74 75 75 72 76 68 77 69 78
REMARK SMILES IDX 70 79 71 80 50 81 51 82 59 83 52 84 58 85 60 86 57 87 53 88
REMARK SMILES IDX 54 89 55 90 56 91
REMARK H PARENT 16 6 4 20 21 25 80 44 48 55
REMARK Flexibility Score: inf
ROOT
ATOM      1  C   UNL A   1      34.030  27.202  24.495  1.00  0.00     0.023 C 
ENDROOT
BRANCH   1   2
ATOM      2  C   UNL A   1      33.288  25.876  24.652  1.00  0.00     0.116 C 
BRANCH   2   3
ATOM      3  N   UNL A   1      33.694  24.929  23.640  1.00  0.00    -0.354 N 
ATOM      4  C   UNL A   1      34.506  23.846  23.689  1.00  0.00     0.242 C 
ATOM      5  O   UNL A   1      34.801  23.344  22.594  1.00  0.00    -0.273 OA
ATOM      6  H   UNL A   1      33.311  25.103  22.749  1.00  0.00     0.163 HD
BRANCH   4   7
ATOM      7  C   UNL A   1      35.074  23.204  24.987  1.00  0.00     0.174 C 
ATOM      8  N   UNL A   1      35.350  21.764  25.132  1.00  0.00    -0.329 N 
ATOM      9  C   UNL A   1      36.777  21.524  25.090  1.00  0.00     0.120 C 
ATOM     10  C   UNL A   1      37.374  22.775  25.698  1.00  0.00     0.024 C 
ATOM     11  C   UNL A   1      36.439  23.883  25.246  1.00  0.00     0.037 C 
BRANCH   8  12
ATOM     12  C   UNL A   1      34.346  20.904  25.526  1.00  0.00     0.245 C 
ATOM     13  O   UNL A   1      33.842  21.027  26.650  1.00  0.00    -0.272 OA
BRANCH  12  14
ATOM     14  C   UNL A   1      33.939  19.660  24.689  1.00  0.00     0.168 C 
ATOM     15  C   UNL A   1      32.603  19.961  24.010  1.00  0.00     0.041 C 
BRANCH  14  16
ATOM     16  N   UNL A   1      33.885  18.348  25.331  1.00  0.00    -0.345 N 
ATOM     17  C   UNL A   1      34.057  16.987  23.275  1.00  0.00     0.114 C 
ATOM     18  C   UNL A   1      33.850  17.114  24.756  1.00  0.00     0.217 C 
ATOM     19  O   UNL A   1      33.647  16.138  25.476  1.00  0.00    -0.275 OA
ATOM     20  H   UNL A   1      33.874  18.357  26.316  1.00  0.00     0.164 HD
ENDBRANCH  14  16
ENDBRANCH  12  14
ENDBRANCH   8  12
ENDBRANCH   4   7
ENDBRANCH   2   3
ENDBRANCH   1   2
BRANCH   1  21
ATOM     21  C   UNL A   1      33.410  28.381  25.252  1.00  0.00     0.023 C 
BRANCH  21  22
ATOM     22  C   UNL A   1      34.297  29.012  26.320  1.00  0.00     0.116 C 
BRANCH  22  23
ATOM     23  N   UNL A   1      33.856  30.333  26.735  1.00  0.00    -0.352 N 
ATOM     24  C   UNL A   1      34.426  31.167  27.670  1.00  0.00     0.251 C 
ATOM     25  H   UNL A   1      33.047  30.675  26.292  1.00  0.00     0.163 HD
ATOM     26  O   UNL A   1      33.873  32.215  27.976  1.00  0.00    -0.269 OA
BRANCH  24  27
ATOM     27  C   UNL A   1      35.682  30.750  28.332  1.00  0.00     0.039 A 
ATOM     28  C   UNL A   1      35.619  29.794  29.349  1.00  0.00     0.014 A 
ATOM     29  C   UNL A   1      36.914  31.255  27.911  1.00  0.00     0.014 A 
ATOM     30  C   UNL A   1      36.802  29.287  29.890  1.00  0.00     0.010 A 
ATOM     31  C   UNL A   1      38.092  30.701  28.406  1.00  0.00     0.010 A 
ATOM     32  C   UNL A   1      38.047  29.706  29.394  1.00  0.00    -0.014 A 
BRANCH  32  33
ATOM     33  C   UNL A   1      39.315  29.112  29.892  1.00  0.00     0.031 A 
ATOM     34  C   UNL A   1      40.043  29.752  31.042  1.00  0.00     0.074 A 
ATOM     35  C   UNL A   1      39.842  28.042  29.265  1.00  0.00     0.049 A 
ATOM     36  N   UNL A   1      41.207  29.450  31.557  1.00  0.00    -0.248 NA
ATOM     37  C   UNL A   1      39.385  30.906  31.673  1.00  0.00     0.031 C 
ATOM     38  C   UNL A   1      39.251  27.362  28.108  1.00  0.00     0.029 A 
ATOM     39  N   UNL A   1      41.000  27.343  29.500  1.00  0.00    -0.354 N 
ATOM     40  C   UNL A   1      41.425  30.378  32.569  1.00  0.00     0.074 A 
ATOM     41  C   UNL A   1      40.303  31.292  32.548  1.00  0.00     0.031 C 
ATOM     42  C   UNL A   1      40.044  26.342  27.744  1.00  0.00     0.029 A 
ATOM     43  C   UNL A   1      41.218  26.314  28.612  1.00  0.00     0.049 A 
ATOM     44  H   UNL A   1      41.619  27.559  30.235  1.00  0.00     0.167 HD
ATOM     45  C   UNL A   1      42.453  30.446  33.451  1.00  0.00     0.034 A 
ATOM     46  C   UNL A   1      42.251  25.455  28.503  1.00  0.00     0.034 A 
ATOM     47  C   UNL A   1      43.560  29.522  33.465  1.00  0.00     0.049 A 
ATOM     48  C   UNL A   1      43.385  25.553  29.493  1.00  0.00     0.074 A 
ATOM     49  C   UNL A   1      44.643  29.484  34.327  1.00  0.00     0.029 A 
ATOM     50  N   UNL A   1      43.728  28.470  32.574  1.00  0.00    -0.354 N 
ATOM     51  N   UNL A   1      43.557  26.417  30.467  1.00  0.00    -0.248 NA
ATOM     52  C   UNL A   1      44.452  24.552  29.379  1.00  0.00     0.031 C 
ATOM     53  C   UNL A   1      45.485  28.440  33.929  1.00  0.00     0.029 A 
ATOM     54  C   UNL A   1      44.899  27.786  32.858  1.00  0.00     0.049 A 
ATOM     55  H   UNL A   1      43.104  28.244  31.846  1.00  0.00     0.167 HD
ATOM     56  C   UNL A   1      44.739  26.042  31.100  1.00  0.00     0.074 A 
ATOM     57  C   UNL A   1      45.225  24.865  30.409  1.00  0.00     0.031 C 
ATOM     58  C   UNL A   1      45.368  26.616  32.156  1.00  0.00     0.034 A 
BRANCH  45  59
ATOM     59  C   UNL A   1      42.422  31.567  34.461  1.00  0.00     0.023 A 
ATOM     60  C   UNL A   1      41.511  31.560  35.531  1.00  0.00     0.031 A 
ATOM     61  C   UNL A   1      43.290  32.665  34.341  1.00  0.00     0.131 A 
ATOM     62  C   UNL A   1      41.439  32.662  36.397  1.00  0.00     0.055 A 
ATOM     63  C   UNL A   1      43.267  33.723  35.253  1.00  0.00     0.041 A 
ATOM     64  F   UNL A   1      44.167  32.736  33.328  1.00  0.00    -0.206 F 
ATOM     65  C   UNL A   1      42.327  33.732  36.281  1.00  0.00     0.022 A 
BRANCH  62  66
ATOM     66  S   UNL A   1      40.079  32.733  37.595  1.00  0.00     0.124 S 
ATOM     67  O   UNL A   1      40.788  32.524  38.855  1.00  0.00    -0.237 OA
ATOM     68  O   UNL A   1      39.537  34.070  37.380  1.00  0.00    -0.237 OA
ATOM     69  O   UNL A   1      39.207  31.633  37.188  1.00  0.00    -0.744 OA
ENDBRANCH  62  66
ENDBRANCH  45  59
BRANCH  46  70
ATOM     70  C   UNL A   1      42.279  24.436  27.414  1.00  0.00     0.023 A 
ATOM     71  C   UNL A   1      41.681  23.177  27.582  1.00  0.00     0.031 A 
ATOM     72  C   UNL A   1      42.959  24.686  26.208  1.00  0.00     0.131 A 
ATOM     73  C   UNL A   1      41.824  22.196  26.590  1.00  0.00     0.055 A 
ATOM     74  C   UNL A   1      43.052  23.725  25.201  1.00  0.00     0.041 A 
ATOM     75  F   UNL A   1      43.544  25.876  25.993  1.00  0.00    -0.206 F 
ATOM     76  C   UNL A   1      42.496  22.465  25.395  1.00  0.00     0.022 A 
BRANCH  73  77
ATOM     77  S   UNL A   1      41.206  20.524  26.928  1.00  0.00     0.124 S 
ATOM     78  O   UNL A   1      40.061  20.442  26.031  1.00  0.00    -0.237 OA
ATOM     79  O   UNL A   1      42.359  19.701  26.575  1.00  0.00    -0.237 OA
ATOM     80  O   UNL A   1      40.883  20.563  28.353  1.00  0.00    -0.744 OA
ENDBRANCH  73  77
ENDBRANCH  46  70
BRANCH  58  81
ATOM     81  C   UNL A   1      46.622  25.941  32.653  1.00  0.00     0.023 A 
ATOM     82  C   UNL A   1      47.878  26.201  32.079  1.00  0.00     0.031 A 
ATOM     83  C   UNL A   1      46.551  25.014  33.708  1.00  0.00     0.131 A 
ATOM     84  C   UNL A   1      49.007  25.500  32.527  1.00  0.00     0.055 A 
ATOM     85  C   UNL A   1      47.688  24.360  34.186  1.00  0.00     0.041 A 
ATOM     86  F   UNL A   1      45.376  24.731  34.292  1.00  0.00    -0.206 F 
ATOM     87  C   UNL A   1      48.922  24.592  33.586  1.00  0.00     0.022 A 
BRANCH  84  88
ATOM     88  S   UNL A   1      50.578  25.729  31.650  1.00  0.00     0.124 S 
ATOM     89  O   UNL A   1      50.405  24.868  30.484  1.00  0.00    -0.237 OA
ATOM     90  O   UNL A   1      50.583  27.164  31.387  1.00  0.00    -0.237 OA
ATOM     91  O   UNL A   1      51.578  25.273  32.613  1.00  0.00    -0.744 OA
ENDBRANCH  84  88
ENDBRANCH  58  81
ENDBRANCH  32  33
ENDBRANCH  24  27
ENDBRANCH  22  23
ENDBRANCH  21  22
ENDBRANCH   1  21
TORSDOF 17
ENDMDL
MODEL 3
REMARK VINA RESULT:     -11.2      1.911      2.635
REMARK SMILES CC(=O)N[C@@H](C)C(=O)N1CCC[C@H]1C(=O)NCCCCNC(=O)c1ccc(-c2c3nc(c(-c4cc(S(=O)(=O)[O-])ccc4F)c4ccc([nH]4)c(-c4cc(S(=O)(=O)[O-])ccc4F)c4nc(c(-c5cc(S(=O)(=O)[O-])ccc5F)c5ccc2[nH]5)C=C4)C=C3)cc1
REMARK SMILES IDX 18 1 17 2 16 3 14 4 15 5 13 7 9 8 10 9 11 10 12 11 7 12 8 13
REMARK SMILES IDX 5 14 6 15 4 16 1 17 2 18 3 19 19 21 20 22 21 23 22 24 23 26
REMARK SMILES IDX 24 27 25 28 86 29 26 30 85 31 27 32 28 33 29 34 79 35 30 36
REMARK SMILES IDX 84 37 78 38 80 39 31 40 83 41 77 42 76 43 32 45 64 46 44 47
REMARK SMILES IDX 63 48 45 49 48 50 62 51 81 52 46 53 47 54 61 56 82 57 49 58
REMARK SMILES IDX 33 59 34 60 42 61 35 62 41 63 43 64 40 65 36 66 37 67 38 68
REMARK SMILES IDX 39 69 65 70 66 71 74 72 67 73 73 74 75 75 72 76 68 77 69 78
REMARK SMILES IDX 70 79 71 80 50 81 51 82 59 83 52 84 58 85 60 86 57 87 53 88
REMARK SMILES IDX 54 89 55 90 56 91
REMARK H PARENT 16 6 4 20 21 25 80 44 48 55
REMARK Flexibility Score: inf
ROOT
ATOM      1  C   UNL A   1      32.595  29.821  26.138  1.00  0.00     0.023 C 
ENDROOT
BRANCH   1   2
ATOM      2  C   UNL A   1      32.293  28.513  26.869  1.00  0.00     0.116 C 
BRANCH   2   3
ATOM      3  N   UNL A   1      33.163  27.452  26.417  1.00  0.00    -0.354 N 
ATOM      4  C   UNL A   1      32.917  26.164  26.078  1.00  0.00     0.242 C 
ATOM      5  O   UNL A   1      33.918  25.453  25.906  1.00  0.00    -0.273 OA
ATOM      6  H   UNL A   1      34.110  27.714  26.342  1.00  0.00     0.163 HD
BRANCH   4   7
ATOM      7  C   UNL A   1      31.507  25.535  25.890  1.00  0.00     0.174 C 
ATOM      8  N   UNL A   1      30.968  25.115  24.586  1.00  0.00    -0.329 N 
ATOM      9  C   UNL A   1      30.981  23.670  24.484  1.00  0.00     0.120 C 
ATOM     10  C   UNL A   1      30.770  23.204  25.908  1.00  0.00     0.024 C 
ATOM     11  C   UNL A   1      31.490  24.246  26.745  1.00  0.00     0.037 C 
BRANCH   8  12
ATOM     12  C   UNL A   1      30.319  26.026  23.779  1.00  0.00     0.245 C 
ATOM     13  O   UNL A   1      29.086  25.984  23.681  1.00  0.00    -0.272 OA
BRANCH  12  14
ATOM     14  C   UNL A   1      31.083  26.996  22.836  1.00  0.00     0.168 C 
ATOM     15  C   UNL A   1      30.221  28.243  22.638  1.00  0.00     0.041 C 
BRANCH  14  16
ATOM     16  N   UNL A   1      31.561  26.512  21.541  1.00  0.00    -0.345 N 
ATOM     17  C   UNL A   1      33.608  25.397  22.361  1.00  0.00     0.114 C 
ATOM     18  C   UNL A   1      32.720  25.864  21.245  1.00  0.00     0.217 C 
ATOM     19  O   UNL A   1      33.004  25.683  20.062  1.00  0.00    -0.275 OA
ATOM     20  H   UNL A   1      30.961  26.677  20.778  1.00  0.00     0.164 HD
ENDBRANCH  14  16
ENDBRANCH  12  14
ENDBRANCH   8  12
ENDBRANCH   4   7
ENDBRANCH   2   3
ENDBRANCH   1   2
BRANCH   1  21
ATOM     21  C   UNL A   1      32.172  31.089  26.887  1.00  0.00     0.023 C 
BRANCH  21  22
ATOM     22  C   UNL A   1      33.308  32.034  27.264  1.00  0.00     0.116 C 
BRANCH  22  23
ATOM     23  N   UNL A   1      32.863  33.385  27.566  1.00  0.00    -0.352 N 
ATOM     24  C   UNL A   1      33.350  34.249  28.521  1.00  0.00     0.251 C 
ATOM     25  H   UNL A   1      32.120  33.725  27.019  1.00  0.00     0.163 HD
ATOM     26  O   UNL A   1      32.798  35.324  28.714  1.00  0.00    -0.269 OA
BRANCH  24  27
ATOM     27  C   UNL A   1      34.511  33.833  29.339  1.00  0.00     0.039 A 
ATOM     28  C   UNL A   1      34.290  33.007  30.444  1.00  0.00     0.014 A 
ATOM     29  C   UNL A   1      35.808  34.208  28.983  1.00  0.00     0.014 A 
ATOM     30  C   UNL A   1      35.382  32.493  31.147  1.00  0.00     0.010 A 
ATOM     31  C   UNL A   1      36.895  33.642  29.644  1.00  0.00     0.010 A 
ATOM     32  C   UNL A   1      36.692  32.773  30.727  1.00  0.00    -0.014 A 
BRANCH  32  33
ATOM     33  C   UNL A   1      37.867  32.161  31.403  1.00  0.00     0.031 A 
ATOM     34  C   UNL A   1      38.614  31.038  30.738  1.00  0.00     0.074 A 
ATOM     35  C   UNL A   1      38.214  32.571  32.638  1.00  0.00     0.049 A 
ATOM     36  N   UNL A   1      39.595  30.308  31.202  1.00  0.00    -0.248 NA
ATOM     37  C   UNL A   1      38.174  30.668  29.385  1.00  0.00     0.031 C 
ATOM     38  C   UNL A   1      37.534  33.621  33.404  1.00  0.00     0.029 A 
ATOM     39  N   UNL A   1      39.214  32.148  33.477  1.00  0.00    -0.354 N 
ATOM     40  C   UNL A   1      39.889  29.389  30.200  1.00  0.00     0.074 A 
ATOM     41  C   UNL A   1      38.935  29.613  29.134  1.00  0.00     0.031 C 
ATOM     42  C   UNL A   1      38.144  33.765  34.592  1.00  0.00     0.029 A 
ATOM     43  C   UNL A   1      39.232  32.796  34.692  1.00  0.00     0.049 A 
ATOM     44  H   UNL A   1      39.859  31.445  33.234  1.00  0.00     0.167 HD
ATOM     45  C   UNL A   1      40.877  28.460  30.162  1.00  0.00     0.034 A 
ATOM     46  C   UNL A   1      40.025  32.619  35.767  1.00  0.00     0.034 A 
ATOM     47  C   UNL A   1      41.825  28.255  31.229  1.00  0.00     0.049 A 
ATOM     48  C   UNL A   1      41.115  31.579  35.703  1.00  0.00     0.074 A 
ATOM     49  C   UNL A   1      42.880  27.361  31.287  1.00  0.00     0.029 A 
ATOM     50  N   UNL A   1      41.834  28.956  32.429  1.00  0.00    -0.354 N 
ATOM     51  N   UNL A   1      41.400  30.740  34.732  1.00  0.00    -0.248 NA
ATOM     52  C   UNL A   1      41.999  31.471  36.870  1.00  0.00     0.031 C 
ATOM     53  C   UNL A   1      43.497  27.488  32.537  1.00  0.00     0.029 A 
ATOM     54  C   UNL A   1      42.868  28.506  33.235  1.00  0.00     0.049 A 
ATOM     55  H   UNL A   1      41.199  29.668  32.670  1.00  0.00     0.167 HD
ATOM     56  C   UNL A   1      42.515  30.029  35.163  1.00  0.00     0.074 A 
ATOM     57  C   UNL A   1      42.861  30.548  36.470  1.00  0.00     0.031 C 
ATOM     58  C   UNL A   1      43.195  29.035  34.537  1.00  0.00     0.034 A 
BRANCH  45  59
ATOM     59  C   UNL A   1      40.965  27.598  28.927  1.00  0.00     0.023 A 
ATOM     60  C   UNL A   1      41.964  27.807  27.961  1.00  0.00     0.031 A 
ATOM     61  C   UNL A   1      40.030  26.575  28.699  1.00  0.00     0.131 A 
ATOM     62  C   UNL A   1      41.962  27.054  26.777  1.00  0.00     0.055 A 
ATOM     63  C   UNL A   1      40.080  25.775  27.554  1.00  0.00     0.041 A 
ATOM     64  F   UNL A   1      39.042  26.342  29.577  1.00  0.00    -0.206 F 
ATOM     65  C   UNL A   1      41.042  26.023  26.578  1.00  0.00     0.022 A 
BRANCH  62  66
ATOM     66  S   UNL A   1      43.097  27.532  25.445  1.00  0.00     0.124 S 
ATOM     67  O   UNL A   1      44.101  28.299  26.178  1.00  0.00    -0.237 OA
ATOM     68  O   UNL A   1      43.533  26.242  24.923  1.00  0.00    -0.237 OA
ATOM     69  O   UNL A   1      42.256  28.318  24.545  1.00  0.00    -0.744 OA
ENDBRANCH  62  66
ENDBRANCH  45  59
BRANCH  46  70
ATOM     70  C   UNL A   1      39.819  33.427  37.004  1.00  0.00     0.023 A 
ATOM     71  C   UNL A   1      39.091  32.917  38.090  1.00  0.00     0.031 A 
ATOM     72  C   UNL A   1      40.296  34.748  37.093  1.00  0.00     0.131 A 
ATOM     73  C   UNL A   1      38.810  33.738  39.193  1.00  0.00     0.055 A 
ATOM     74  C   UNL A   1      40.061  35.543  38.216  1.00  0.00     0.041 A 
ATOM     75  F   UNL A   1      41.004  35.283  36.086  1.00  0.00    -0.206 F 
ATOM     76  C   UNL A   1      39.300  35.045  39.268  1.00  0.00     0.022 A 
BRANCH  73  77
ATOM     77  S   UNL A   1      37.703  33.107  40.485  1.00  0.00     0.124 S 
ATOM     78  O   UNL A   1      38.446  31.953  40.976  1.00  0.00    -0.237 OA
ATOM     79  O   UNL A   1      37.618  34.249  41.391  1.00  0.00    -0.237 OA
ATOM     80  O   UNL A   1      36.474  32.797  39.757  1.00  0.00    -0.744 OA
ENDBRANCH  73  77
ENDBRANCH  46  70
BRANCH  58  81
ATOM     81  C   UNL A   1      44.409  28.488  35.245  1.00  0.00     0.023 A 
ATOM     82  C   UNL A   1      44.323  27.396  36.124  1.00  0.00     0.031 A 
ATOM     83  C   UNL A   1      45.669  29.081  35.042  1.00  0.00     0.131 A 
ATOM     84  C   UNL A   1      45.465  26.964  36.814  1.00  0.00     0.055 A 
ATOM     85  C   UNL A   1      46.812  28.611  35.689  1.00  0.00     0.041 A 
ATOM     86  F   UNL A   1      45.807  30.126  34.211  1.00  0.00    -0.206 F 
ATOM     87  C   UNL A   1      46.712  27.555  36.590  1.00  0.00     0.022 A 
BRANCH  84  88
ATOM     88  S   UNL A   1      45.285  25.669  38.071  1.00  0.00     0.124 S 
ATOM     89  O   UNL A   1      45.165  26.450  39.298  1.00  0.00    -0.237 OA
ATOM     90  O   UNL A   1      44.077  24.977  37.636  1.00  0.00    -0.237 OA
ATOM     91  O   UNL A   1      46.520  24.897  37.947  1.00  0.00    -0.744 OA
ENDBRANCH  84  88
ENDBRANCH  58  81
ENDBRANCH  32  33
ENDBRANCH  24  27
ENDBRANCH  22  23
ENDBRANCH  21  22
ENDBRANCH   1  21
TORSDOF 17
ENDMDL
