MODEL 1
REMARK VINA RESULT:      -8.1      0.000      0.000
REMARK SMILES C[C@@H](CCO)SCc1cccc(/C=C/C(=O)NCCCCNC(=O)c2ccc(-c3c4nc(c(-c5cc(S(=O)(=O)[O-])ccc5F)c5ccc([nH]5)c(-c5cc(S(=O)(=O)[O-])ccc5F)c5nc(c(-c6cc(S(=O)(=O)[O-])ccc6F)c6ccc3[nH]6)C=C5)C=C4)cc2)c1
REMARK SMILES IDX 15 1 16 2 17 3 14 5 13 6 12 7 8 8 9 9 88 10 10 11 11 12 7 13
REMARK SMILES IDX 6 14 2 15 1 16 3 17 4 18 5 19 18 21 19 22 20 23 21 24 22 25
REMARK SMILES IDX 23 26 24 28 25 29 26 30 87 31 27 32 86 33 28 34 29 35 30 36
REMARK SMILES IDX 80 37 31 38 85 39 79 40 81 41 32 42 84 43 78 44 77 45 33 47
REMARK SMILES IDX 65 48 45 49 64 50 46 51 49 52 63 53 82 54 47 55 48 56 62 58
REMARK SMILES IDX 83 59 50 60 34 61 35 62 43 63 36 64 42 65 44 66 41 67 37 68
REMARK SMILES IDX 38 69 39 70 40 71 66 72 67 73 75 74 68 75 74 76 76 77 73 78
REMARK SMILES IDX 69 79 70 80 71 81 72 82 51 83 52 84 60 85 53 86 59 87 61 88
REMARK SMILES IDX 58 89 54 90 55 91 56 92 57 93
REMARK H PARENT 17 4 5 20 22 27 81 46 49 57
REMARK Flexibility Score: inf
ROOT
ATOM      1  C   UNL A   1      36.903  33.333  35.485  1.00  0.00     0.243 C 
ATOM      2  O   UNL A   1      36.967  33.501  36.700  1.00  0.00    -0.270 OA
ATOM      3  N   UNL A   1      36.003  34.029  34.739  1.00  0.00    -0.353 N 
ATOM      4  H   UNL A   1      35.501  34.718  35.232  1.00  0.00     0.163 HD
ENDROOT
BRANCH   1   5
ATOM      5  C   UNL A   1      37.767  32.314  34.851  1.00  0.00     0.072 C 
ATOM      6  C   UNL A   1      37.271  31.261  34.187  1.00  0.00     0.014 C 
BRANCH   6   7
ATOM      7  C   UNL A   1      38.117  30.273  33.516  1.00  0.00    -0.025 A 
ATOM      8  C   UNL A   1      40.310  29.207  33.306  1.00  0.00    -0.037 A 
ATOM      9  C   UNL A   1      39.754  28.314  32.378  1.00  0.00     0.004 A 
ATOM     10  C   UNL A   1      39.486  30.227  33.814  1.00  0.00     0.012 A 
ATOM     11  C   UNL A   1      38.394  28.362  32.064  1.00  0.00     0.001 A 
ATOM     12  C   UNL A   1      37.574  29.325  32.647  1.00  0.00     0.008 A 
BRANCH   8  13
ATOM     13  C   UNL A   1      41.757  29.141  33.741  1.00  0.00     0.105 C 
BRANCH  13  14
ATOM     14  S   UNL A   1      42.551  27.497  33.664  1.00  0.00    -0.154 SA
BRANCH  14  15
ATOM     15  C   UNL A   1      42.319  26.806  35.368  1.00  0.00     0.046 C 
ATOM     16  C   UNL A   1      41.648  25.439  35.348  1.00  0.00     0.019 C 
BRANCH  15  17
ATOM     17  C   UNL A   1      43.518  27.010  36.314  1.00  0.00     0.042 C 
BRANCH  17  18
ATOM     18  C   UNL A   1      43.806  26.019  37.441  1.00  0.00     0.157 C 
BRANCH  18  19
ATOM     19  O   UNL A   1      43.079  26.246  38.628  1.00  0.00    -0.396 OA
ATOM     20  H   UNL A   1      42.326  25.638  38.667  1.00  0.00     0.210 HD
ENDBRANCH  18  19
ENDBRANCH  17  18
ENDBRANCH  15  17
ENDBRANCH  14  15
ENDBRANCH  13  14
ENDBRANCH   8  13
ENDBRANCH   6   7
ENDBRANCH   1   5
BRANCH   3  21
ATOM     21  C   UNL A   1      35.666  33.920  33.330  1.00  0.00     0.116 C 
BRANCH  21  22
ATOM     22  C   UNL A   1      34.208  33.527  33.101  1.00  0.00     0.023 C 
BRANCH  22  23
ATOM     23  C   UNL A   1      33.309  34.652  32.584  1.00  0.00     0.023 C 
BRANCH  23  24
ATOM     24  C   UNL A   1      33.797  35.371  31.329  1.00  0.00     0.116 C 
BRANCH  24  25
ATOM     25  N   UNL A   1      33.102  34.976  30.112  1.00  0.00    -0.352 N 
ATOM     26  C   UNL A   1      33.531  34.122  29.121  1.00  0.00     0.251 C 
ATOM     27  H   UNL A   1      32.210  35.371  29.981  1.00  0.00     0.163 HD
ATOM     28  O   UNL A   1      32.845  33.951  28.117  1.00  0.00    -0.269 OA
BRANCH  26  29
ATOM     29  C   UNL A   1      34.846  33.460  29.258  1.00  0.00     0.039 A 
ATOM     30  C   UNL A   1      35.965  34.058  28.672  1.00  0.00     0.014 A 
ATOM     31  C   UNL A   1      34.982  32.294  30.014  1.00  0.00     0.014 A 
ATOM     32  C   UNL A   1      37.236  33.535  28.920  1.00  0.00     0.010 A 
ATOM     33  C   UNL A   1      36.253  31.814  30.315  1.00  0.00     0.010 A 
ATOM     34  C   UNL A   1      37.394  32.438  29.783  1.00  0.00    -0.014 A 
BRANCH  34  35
ATOM     35  C   UNL A   1      38.742  31.939  30.161  1.00  0.00     0.031 A 
ATOM     36  C   UNL A   1      39.552  32.667  31.198  1.00  0.00     0.074 A 
ATOM     37  C   UNL A   1      39.268  30.882  29.510  1.00  0.00     0.049 A 
ATOM     38  N   UNL A   1      40.780  32.450  31.593  1.00  0.00    -0.248 NA
ATOM     39  C   UNL A   1      38.901  33.812  31.853  1.00  0.00     0.031 C 
ATOM     40  C   UNL A   1      38.599  30.124  28.450  1.00  0.00     0.029 A 
ATOM     41  N   UNL A   1      40.490  30.269  29.631  1.00  0.00    -0.354 N 
ATOM     42  C   UNL A   1      41.057  33.440  32.529  1.00  0.00     0.074 A 
ATOM     43  C   UNL A   1      39.887  34.291  32.596  1.00  0.00     0.031 C 
ATOM     44  C   UNL A   1      39.411  29.140  28.033  1.00  0.00     0.029 A 
ATOM     45  C   UNL A   1      40.673  29.218  28.761  1.00  0.00     0.049 A 
ATOM     46  H   UNL A   1      41.173  30.555  30.281  1.00  0.00     0.167 HD
ATOM     47  C   UNL A   1      42.175  33.610  33.279  1.00  0.00     0.034 A 
ATOM     48  C   UNL A   1      41.739  28.419  28.565  1.00  0.00     0.034 A 
ATOM     49  C   UNL A   1      43.325  32.743  33.212  1.00  0.00     0.049 A 
ATOM     50  C   UNL A   1      42.973  28.629  29.404  1.00  0.00     0.074 A 
ATOM     51  C   UNL A   1      44.484  32.786  33.967  1.00  0.00     0.029 A 
ATOM     52  N   UNL A   1      43.466  31.676  32.332  1.00  0.00    -0.354 N 
ATOM     53  N   UNL A   1      43.199  29.539  30.324  1.00  0.00    -0.248 NA
ATOM     54  C   UNL A   1      44.090  27.701  29.188  1.00  0.00     0.031 C 
ATOM     55  C   UNL A   1      45.347  31.786  33.506  1.00  0.00     0.029 A 
ATOM     56  C   UNL A   1      44.700  31.071  32.510  1.00  0.00     0.049 A 
ATOM     57  H   UNL A   1      42.786  31.390  31.679  1.00  0.00     0.167 HD
ATOM     58  C   UNL A   1      44.473  29.269  30.818  1.00  0.00     0.074 A 
ATOM     59  C   UNL A   1      44.960  28.108  30.101  1.00  0.00     0.031 C 
ATOM     60  C   UNL A   1      45.173  29.918  31.783  1.00  0.00     0.034 A 
BRANCH  47  61
ATOM     61  C   UNL A   1      42.207  34.794  34.216  1.00  0.00     0.023 A 
ATOM     62  C   UNL A   1      41.690  34.714  35.522  1.00  0.00     0.031 A 
ATOM     63  C   UNL A   1      42.728  36.028  33.791  1.00  0.00     0.131 A 
ATOM     64  C   UNL A   1      41.630  35.863  36.324  1.00  0.00     0.055 A 
ATOM     65  C   UNL A   1      42.743  37.149  34.625  1.00  0.00     0.041 A 
ATOM     66  F   UNL A   1      43.218  36.173  32.549  1.00  0.00    -0.206 F 
ATOM     67  C   UNL A   1      42.177  37.074  35.894  1.00  0.00     0.022 A 
BRANCH  64  68
ATOM     68  S   UNL A   1      40.696  35.785  37.876  1.00  0.00     0.124 S 
ATOM     69  O   UNL A   1      40.112  34.448  37.802  1.00  0.00    -0.237 OA
ATOM     70  O   UNL A   1      41.735  35.974  38.881  1.00  0.00    -0.237 OA
ATOM     71  O   UNL A   1      39.738  36.882  37.755  1.00  0.00    -0.744 OA
ENDBRANCH  64  68
ENDBRANCH  47  61
BRANCH  48  72
ATOM     72  C   UNL A   1      41.699  27.346  27.529  1.00  0.00     0.023 A 
ATOM     73  C   UNL A   1      41.374  26.024  27.871  1.00  0.00     0.031 A 
ATOM     74  C   UNL A   1      42.022  27.621  26.189  1.00  0.00     0.131 A 
ATOM     75  C   UNL A   1      41.422  25.018  26.895  1.00  0.00     0.055 A 
ATOM     76  C   UNL A   1      42.023  26.624  25.212  1.00  0.00     0.041 A 
ATOM     77  F   UNL A   1      42.334  28.870  25.808  1.00  0.00    -0.206 F 
ATOM     78  C   UNL A   1      41.734  25.310  25.566  1.00  0.00     0.022 A 
BRANCH  75  79
ATOM     79  S   UNL A   1      41.149  23.298  27.408  1.00  0.00     0.124 S 
ATOM     80  O   UNL A   1      41.856  23.253  28.684  1.00  0.00    -0.237 OA
ATOM     81  O   UNL A   1      39.694  23.231  27.476  1.00  0.00    -0.237 OA
ATOM     82  O   UNL A   1      41.757  22.522  26.330  1.00  0.00    -0.744 OA
ENDBRANCH  75  79
ENDBRANCH  48  72
BRANCH  60  83
ATOM     83  C   UNL A   1      46.520  29.348  32.151  1.00  0.00     0.023 A 
ATOM     84  C   UNL A   1      46.665  28.375  33.155  1.00  0.00     0.031 A 
ATOM     85  C   UNL A   1      47.676  29.789  31.482  1.00  0.00     0.131 A 
ATOM     86  C   UNL A   1      47.944  27.910  33.495  1.00  0.00     0.055 A 
ATOM     87  C   UNL A   1      48.940  29.284  31.788  1.00  0.00     0.041 A 
ATOM     88  F   UNL A   1      47.594  30.718  30.516  1.00  0.00    -0.206 F 
ATOM     89  C   UNL A   1      49.080  28.346  32.808  1.00  0.00     0.022 A 
BRANCH  86  90
ATOM     90  S   UNL A   1      48.114  26.777  34.902  1.00  0.00     0.124 S 
ATOM     91  O   UNL A   1      47.761  25.495  34.303  1.00  0.00    -0.237 OA
ATOM     92  O   UNL A   1      49.517  26.944  35.270  1.00  0.00    -0.237 OA
ATOM     93  O   UNL A   1      47.154  27.292  35.876  1.00  0.00    -0.744 OA
ENDBRANCH  86  90
ENDBRANCH  60  83
ENDBRANCH  34  35
ENDBRANCH  26  29
ENDBRANCH  24  25
ENDBRANCH  23  24
ENDBRANCH  22  23
ENDBRANCH  21  22
ENDBRANCH   3  21
TORSDOF 21
ENDMDL
MODEL 2
REMARK VINA RESULT:      -7.9      6.706     11.346
REMARK SMILES C[C@@H](CCO)SCc1cccc(/C=C/C(=O)NCCCCNC(=O)c2ccc(-c3c4nc(c(-c5cc(S(=O)(=O)[O-])ccc5F)c5ccc([nH]5)c(-c5cc(S(=O)(=O)[O-])ccc5F)c5nc(c(-c6cc(S(=O)(=O)[O-])ccc6F)c6ccc3[nH]6)C=C5)C=C4)cc2)c1
REMARK SMILES IDX 15 1 16 2 17 3 14 5 13 6 12 7 8 8 9 9 88 10 10 11 11 12 7 13
REMARK SMILES IDX 6 14 2 15 1 16 3 17 4 18 5 19 18 21 19 22 20 23 21 24 22 25
REMARK SMILES IDX 23 26 24 28 25 29 26 30 87 31 27 32 86 33 28 34 29 35 30 36
REMARK SMILES IDX 80 37 31 38 85 39 79 40 81 41 32 42 84 43 78 44 77 45 33 47
REMARK SMILES IDX 65 48 45 49 64 50 46 51 49 52 63 53 82 54 47 55 48 56 62 58
REMARK SMILES IDX 83 59 50 60 34 61 35 62 43 63 36 64 42 65 44 66 41 67 37 68
REMARK SMILES IDX 38 69 39 70 40 71 66 72 67 73 75 74 68 75 74 76 76 77 73 78
REMARK SMILES IDX 69 79 70 80 71 81 72 82 51 83 52 84 60 85 53 86 59 87 61 88
REMARK SMILES IDX 58 89 54 90 55 91 56 92 57 93
REMARK H PARENT 17 4 5 20 22 27 81 46 49 57
REMARK Flexibility Score: inf
ROOT
ATOM      1  C   UNL A   1      33.077  19.989  24.723  1.00  0.00     0.243 C 
ATOM      2  O   UNL A   1      32.154  19.203  24.922  1.00  0.00    -0.270 OA
ATOM      3  N   UNL A   1      34.268  19.831  25.362  1.00  0.00    -0.353 N 
ATOM      4  H   UNL A   1      34.344  19.009  25.898  1.00  0.00     0.163 HD
ENDROOT
BRANCH   1   5
ATOM      5  C   UNL A   1      32.856  21.150  23.834  1.00  0.00     0.072 C 
ATOM      6  C   UNL A   1      32.338  22.305  24.273  1.00  0.00     0.014 C 
BRANCH   6   7
ATOM      7  C   UNL A   1      32.160  23.475  23.412  1.00  0.00    -0.025 A 
ATOM      8  C   UNL A   1      31.017  25.598  22.993  1.00  0.00    -0.037 A 
ATOM      9  C   UNL A   1      31.864  25.804  21.894  1.00  0.00     0.004 A 
ATOM     10  C   UNL A   1      31.137  24.390  23.702  1.00  0.00     0.012 A 
ATOM     11  C   UNL A   1      32.876  24.890  21.589  1.00  0.00     0.001 A 
ATOM     12  C   UNL A   1      33.037  23.740  22.359  1.00  0.00     0.008 A 
BRANCH   8  13
ATOM     13  C   UNL A   1      29.963  26.599  23.412  1.00  0.00     0.105 C 
BRANCH  13  14
ATOM     14  S   UNL A   1      30.501  28.341  23.529  1.00  0.00    -0.154 SA
BRANCH  14  15
ATOM     15  C   UNL A   1      31.668  28.355  24.968  1.00  0.00     0.046 C 
ATOM     16  C   UNL A   1      32.397  29.686  25.105  1.00  0.00     0.019 C 
BRANCH  15  17
ATOM     17  C   UNL A   1      31.121  27.695  26.248  1.00  0.00     0.042 C 
BRANCH  17  18
ATOM     18  C   UNL A   1      31.513  28.218  27.630  1.00  0.00     0.157 C 
BRANCH  18  19
ATOM     19  O   UNL A   1      32.900  28.212  27.892  1.00  0.00    -0.396 OA
ATOM     20  H   UNL A   1      33.054  27.936  28.808  1.00  0.00     0.210 HD
ENDBRANCH  18  19
ENDBRANCH  17  18
ENDBRANCH  15  17
ENDBRANCH  14  15
ENDBRANCH  13  14
ENDBRANCH   8  13
ENDBRANCH   6   7
ENDBRANCH   1   5
BRANCH   3  21
ATOM     21  C   UNL A   1      35.445  20.682  25.378  1.00  0.00     0.116 C 
BRANCH  21  22
ATOM     22  C   UNL A   1      36.718  19.934  24.989  1.00  0.00     0.023 C 
BRANCH  22  23
ATOM     23  C   UNL A   1      37.966  20.810  24.855  1.00  0.00     0.023 C 
BRANCH  23  24
ATOM     24  C   UNL A   1      38.948  20.754  26.023  1.00  0.00     0.116 C 
BRANCH  24  25
ATOM     25  N   UNL A   1      39.873  19.632  25.964  1.00  0.00    -0.352 N 
ATOM     26  C   UNL A   1      41.241  19.642  26.122  1.00  0.00     0.251 C 
ATOM     27  H   UNL A   1      39.469  18.751  25.790  1.00  0.00     0.163 HD
ATOM     28  O   UNL A   1      41.885  18.608  25.970  1.00  0.00    -0.269 OA
BRANCH  26  29
ATOM     29  C   UNL A   1      41.923  20.919  26.421  1.00  0.00     0.039 A 
ATOM     30  C   UNL A   1      42.221  21.786  25.366  1.00  0.00     0.014 A 
ATOM     31  C   UNL A   1      42.206  21.285  27.739  1.00  0.00     0.014 A 
ATOM     32  C   UNL A   1      42.722  23.061  25.642  1.00  0.00     0.010 A 
ATOM     33  C   UNL A   1      42.641  22.577  28.015  1.00  0.00     0.010 A 
ATOM     34  C   UNL A   1      42.889  23.484  26.971  1.00  0.00    -0.014 A 
BRANCH  34  35
ATOM     35  C   UNL A   1      43.302  24.874  27.294  1.00  0.00     0.031 A 
ATOM     36  C   UNL A   1      42.333  25.815  27.954  1.00  0.00     0.074 A 
ATOM     37  C   UNL A   1      44.521  25.312  26.917  1.00  0.00     0.049 A 
ATOM     38  N   UNL A   1      42.468  27.087  28.226  1.00  0.00    -0.248 NA
ATOM     39  C   UNL A   1      41.026  25.254  28.326  1.00  0.00     0.031 C 
ATOM     40  C   UNL A   1      45.531  24.508  26.224  1.00  0.00     0.029 A 
ATOM     41  N   UNL A   1      45.114  26.543  27.046  1.00  0.00    -0.354 N 
ATOM     42  C   UNL A   1      41.258  27.484  28.786  1.00  0.00     0.074 A 
ATOM     43  C   UNL A   1      40.385  26.330  28.758  1.00  0.00     0.031 C 
ATOM     44  C   UNL A   1      46.621  25.260  26.008  1.00  0.00     0.029 A 
ATOM     45  C   UNL A   1      46.377  26.611  26.506  1.00  0.00     0.049 A 
ATOM     46  H   UNL A   1      44.675  27.307  27.486  1.00  0.00     0.167 HD
ATOM     47  C   UNL A   1      40.916  28.695  29.296  1.00  0.00     0.034 A 
ATOM     48  C   UNL A   1      47.236  27.645  26.410  1.00  0.00     0.034 A 
ATOM     49  C   UNL A   1      41.804  29.830  29.332  1.00  0.00     0.049 A 
ATOM     50  C   UNL A   1      46.832  28.981  26.978  1.00  0.00     0.074 A 
ATOM     51  C   UNL A   1      41.583  31.082  29.879  1.00  0.00     0.029 A 
ATOM     52  N   UNL A   1      43.085  29.855  28.793  1.00  0.00    -0.354 N 
ATOM     53  N   UNL A   1      45.704  29.327  27.552  1.00  0.00    -0.248 NA
ATOM     54  C   UNL A   1      47.822  30.064  26.895  1.00  0.00     0.031 C 
ATOM     55  C   UNL A   1      42.703  31.879  29.619  1.00  0.00     0.029 A 
ATOM     56  C   UNL A   1      43.654  31.106  28.972  1.00  0.00     0.049 A 
ATOM     57  H   UNL A   1      43.525  29.093  28.349  1.00  0.00     0.167 HD
ATOM     58  C   UNL A   1      45.861  30.658  27.928  1.00  0.00     0.074 A 
ATOM     59  C   UNL A   1      47.196  31.049  27.523  1.00  0.00     0.031 C 
ATOM     60  C   UNL A   1      44.985  31.481  28.557  1.00  0.00     0.034 A 
BRANCH  47  61
ATOM     61  C   UNL A   1      39.512  28.848  29.833  1.00  0.00     0.023 A 
ATOM     62  C   UNL A   1      38.491  29.434  29.066  1.00  0.00     0.031 A 
ATOM     63  C   UNL A   1      39.198  28.433  31.139  1.00  0.00     0.131 A 
ATOM     64  C   UNL A   1      37.230  29.665  29.636  1.00  0.00     0.055 A 
ATOM     65  C   UNL A   1      37.918  28.589  31.673  1.00  0.00     0.041 A 
ATOM     66  F   UNL A   1      40.137  27.884  31.927  1.00  0.00    -0.206 F 
ATOM     67  C   UNL A   1      36.929  29.224  30.926  1.00  0.00     0.022 A 
BRANCH  64  68
ATOM     68  S   UNL A   1      36.040  30.683  28.722  1.00  0.00     0.124 S 
ATOM     69  O   UNL A   1      35.166  29.665  28.143  1.00  0.00    -0.237 OA
ATOM     70  O   UNL A   1      35.454  31.506  29.773  1.00  0.00    -0.237 OA
ATOM     71  O   UNL A   1      36.872  31.400  27.758  1.00  0.00    -0.744 OA
ENDBRANCH  64  68
ENDBRANCH  47  61
BRANCH  48  72
ATOM     72  C   UNL A   1      48.561  27.469  25.749  1.00  0.00     0.023 A 
ATOM     73  C   UNL A   1      48.704  27.637  24.363  1.00  0.00     0.031 A 
ATOM     74  C   UNL A   1      49.695  27.091  26.489  1.00  0.00     0.131 A 
ATOM     75  C   UNL A   1      49.942  27.385  23.753  1.00  0.00     0.055 A 
ATOM     76  C   UNL A   1      50.936  26.888  25.884  1.00  0.00     0.041 A 
ATOM     77  F   UNL A   1      49.613  26.924  27.819  1.00  0.00    -0.206 F 
ATOM     78  C   UNL A   1      51.062  27.023  24.505  1.00  0.00     0.022 A 
BRANCH  75  79
ATOM     79  S   UNL A   1      50.049  27.461  21.943  1.00  0.00     0.124 S 
ATOM     80  O   UNL A   1      48.806  26.809  21.545  1.00  0.00    -0.237 OA
ATOM     81  O   UNL A   1      50.127  28.898  21.705  1.00  0.00    -0.237 OA
ATOM     82  O   UNL A   1      51.269  26.714  21.643  1.00  0.00    -0.744 OA
ENDBRANCH  75  79
ENDBRANCH  48  72
BRANCH  60  83
ATOM     83  C   UNL A   1      45.469  32.870  28.892  1.00  0.00     0.023 A 
ATOM     84  C   UNL A   1      45.240  33.961  28.036  1.00  0.00     0.031 A 
ATOM     85  C   UNL A   1      46.171  33.100  30.088  1.00  0.00     0.131 A 
ATOM     86  C   UNL A   1      45.752  35.225  28.367  1.00  0.00     0.055 A 
ATOM     87  C   UNL A   1      46.631  34.370  30.438  1.00  0.00     0.041 A 
ATOM     88  F   UNL A   1      46.417  32.092  30.941  1.00  0.00    -0.206 F 
ATOM     89  C   UNL A   1      46.431  35.440  29.569  1.00  0.00     0.022 A 
BRANCH  86  90
ATOM     90  S   UNL A   1      45.580  36.576  27.168  1.00  0.00     0.124 S 
ATOM     91  O   UNL A   1      46.428  36.119  26.073  1.00  0.00    -0.237 OA
ATOM     92  O   UNL A   1      44.145  36.581  26.905  1.00  0.00    -0.237 OA
ATOM     93  O   UNL A   1      46.079  37.743  27.893  1.00  0.00    -0.744 OA
ENDBRANCH  86  90
ENDBRANCH  60  83
ENDBRANCH  34  35
ENDBRANCH  26  29
ENDBRANCH  24  25
ENDBRANCH  23  24
ENDBRANCH  22  23
ENDBRANCH  21  22
ENDBRANCH   3  21
TORSDOF 21
ENDMDL
MODEL 3
REMARK VINA RESULT:      -7.8      6.560     11.055
REMARK SMILES C[C@@H](CCO)SCc1cccc(/C=C/C(=O)NCCCCNC(=O)c2ccc(-c3c4nc(c(-c5cc(S(=O)(=O)[O-])ccc5F)c5ccc([nH]5)c(-c5cc(S(=O)(=O)[O-])ccc5F)c5nc(c(-c6cc(S(=O)(=O)[O-])ccc6F)c6ccc3[nH]6)C=C5)C=C4)cc2)c1
REMARK SMILES IDX 15 1 16 2 17 3 14 5 13 6 12 7 8 8 9 9 88 10 10 11 11 12 7 13
REMARK SMILES IDX 6 14 2 15 1 16 3 17 4 18 5 19 18 21 19 22 20 23 21 24 22 25
REMARK SMILES IDX 23 26 24 28 25 29 26 30 87 31 27 32 86 33 28 34 29 35 30 36
REMARK SMILES IDX 80 37 31 38 85 39 79 40 81 41 32 42 84 43 78 44 77 45 33 47
REMARK SMILES IDX 65 48 45 49 64 50 46 51 49 52 63 53 82 54 47 55 48 56 62 58
REMARK SMILES IDX 83 59 50 60 34 61 35 62 43 63 36 64 42 65 44 66 41 67 37 68
REMARK SMILES IDX 38 69 39 70 40 71 66 72 67 73 75 74 68 75 74 76 76 77 73 78
REMARK SMILES IDX 69 79 70 80 71 81 72 82 51 83 52 84 60 85 53 86 59 87 61 88
REMARK SMILES IDX 58 89 54 90 55 91 56 92 57 93
REMARK H PARENT 17 4 5 20 22 27 81 46 49 57
REMARK Flexibility Score: inf
ROOT
ATOM      1  C   UNL A   1      33.835  22.727  25.201  1.00  0.00     0.243 C 
ATOM      2  O   UNL A   1      33.025  22.180  25.946  1.00  0.00    -0.270 OA
ATOM      3  N   UNL A   1      34.848  22.011  24.642  1.00  0.00    -0.353 N 
ATOM      4  H   UNL A   1      34.812  21.042  24.808  1.00  0.00     0.163 HD
ENDROOT
BRANCH   1   5
ATOM      5  C   UNL A   1      33.736  24.184  24.974  1.00  0.00     0.072 C 
ATOM      6  C   UNL A   1      33.552  25.057  25.973  1.00  0.00     0.014 C 
BRANCH   6   7
ATOM      7  C   UNL A   1      33.502  26.506  25.764  1.00  0.00    -0.025 A 
ATOM      8  C   UNL A   1      33.265  28.379  24.207  1.00  0.00    -0.037 A 
ATOM      9  C   UNL A   1      33.255  29.252  25.305  1.00  0.00     0.004 A 
ATOM     10  C   UNL A   1      33.459  27.008  24.456  1.00  0.00     0.012 A 
ATOM     11  C   UNL A   1      33.312  28.761  26.611  1.00  0.00     0.001 A 
ATOM     12  C   UNL A   1      33.413  27.390  26.840  1.00  0.00     0.008 A 
BRANCH   8  13
ATOM     13  C   UNL A   1      33.121  28.858  22.779  1.00  0.00     0.105 C 
BRANCH  13  14
ATOM     14  S   UNL A   1      31.430  29.282  22.234  1.00  0.00    -0.154 SA
BRANCH  14  15
ATOM     15  C   UNL A   1      30.498  27.688  22.378  1.00  0.00     0.046 C 
ATOM     16  C   UNL A   1      31.301  26.501  21.859  1.00  0.00     0.019 C 
BRANCH  15  17
ATOM     17  C   UNL A   1      29.720  27.513  23.696  1.00  0.00     0.042 C 
BRANCH  17  18
ATOM     18  C   UNL A   1      29.023  26.194  24.028  1.00  0.00     0.157 C 
BRANCH  18  19
ATOM     19  O   UNL A   1      27.617  26.220  23.899  1.00  0.00    -0.396 OA
ATOM     20  H   UNL A   1      27.371  26.804  23.166  1.00  0.00     0.210 HD
ENDBRANCH  18  19
ENDBRANCH  17  18
ENDBRANCH  15  17
ENDBRANCH  14  15
ENDBRANCH  13  14
ENDBRANCH   8  13
ENDBRANCH   6   7
ENDBRANCH   1   5
BRANCH   3  21
ATOM     21  C   UNL A   1      35.975  22.450  23.837  1.00  0.00     0.116 C 
BRANCH  21  22
ATOM     22  C   UNL A   1      37.283  22.488  24.624  1.00  0.00     0.023 C 
BRANCH  22  23
ATOM     23  C   UNL A   1      37.828  21.119  25.037  1.00  0.00     0.023 C 
BRANCH  23  24
ATOM     24  C   UNL A   1      38.990  21.136  26.027  1.00  0.00     0.116 C 
BRANCH  24  25
ATOM     25  N   UNL A   1      39.832  19.949  25.971  1.00  0.00    -0.352 N 
ATOM     26  C   UNL A   1      41.198  19.862  26.115  1.00  0.00     0.251 C 
ATOM     27  H   UNL A   1      39.363  19.098  25.811  1.00  0.00     0.163 HD
ATOM     28  O   UNL A   1      41.765  18.783  25.968  1.00  0.00    -0.269 OA
BRANCH  26  29
ATOM     29  C   UNL A   1      41.974  21.089  26.393  1.00  0.00     0.039 A 
ATOM     30  C   UNL A   1      42.299  21.936  25.329  1.00  0.00     0.014 A 
ATOM     31  C   UNL A   1      42.320  21.434  27.702  1.00  0.00     0.014 A 
ATOM     32  C   UNL A   1      42.893  23.173  25.590  1.00  0.00     0.010 A 
ATOM     33  C   UNL A   1      42.850  22.693  27.964  1.00  0.00     0.010 A 
ATOM     34  C   UNL A   1      43.128  23.582  26.913  1.00  0.00    -0.014 A 
BRANCH  34  35
ATOM     35  C   UNL A   1      43.644  24.941  27.223  1.00  0.00     0.031 A 
ATOM     36  C   UNL A   1      42.726  25.983  27.800  1.00  0.00     0.074 A 
ATOM     37  C   UNL A   1      44.915  25.259  26.906  1.00  0.00     0.049 A 
ATOM     38  N   UNL A   1      42.957  27.246  28.046  1.00  0.00    -0.248 NA
ATOM     39  C   UNL A   1      41.355  25.549  28.109  1.00  0.00     0.031 C 
ATOM     40  C   UNL A   1      45.887  24.349  26.295  1.00  0.00     0.029 A 
ATOM     41  N   UNL A   1      45.606  26.438  27.038  1.00  0.00    -0.354 N 
ATOM     42  C   UNL A   1      41.758  27.764  28.523  1.00  0.00     0.074 A 
ATOM     43  C   UNL A   1      40.789  26.690  28.474  1.00  0.00     0.031 C 
ATOM     44  C   UNL A   1      47.050  24.997  26.125  1.00  0.00     0.029 A 
ATOM     45  C   UNL A   1      46.900  26.378  26.571  1.00  0.00     0.049 A 
ATOM     46  H   UNL A   1      45.213  27.251  27.431  1.00  0.00     0.167 HD
ATOM     47  C   UNL A   1      41.496  29.015  28.979  1.00  0.00     0.034 A 
ATOM     48  C   UNL A   1      47.850  27.330  26.499  1.00  0.00     0.034 A 
ATOM     49  C   UNL A   1      42.478  30.070  29.037  1.00  0.00     0.049 A 
ATOM     50  C   UNL A   1      47.535  28.714  27.006  1.00  0.00     0.074 A 
ATOM     51  C   UNL A   1      42.338  31.353  29.537  1.00  0.00     0.029 A 
ATOM     52  N   UNL A   1      43.784  29.966  28.574  1.00  0.00    -0.354 N 
ATOM     53  N   UNL A   1      46.411  29.174  27.504  1.00  0.00    -0.248 NA
ATOM     54  C   UNL A   1      48.620  29.703  26.953  1.00  0.00     0.031 C 
ATOM     55  C   UNL A   1      43.537  32.041  29.323  1.00  0.00     0.029 A 
ATOM     56  C   UNL A   1      44.450  31.168  28.754  1.00  0.00     0.049 A 
ATOM     57  H   UNL A   1      44.179  29.156  28.177  1.00  0.00     0.167 HD
ATOM     58  C   UNL A   1      46.664  30.498  27.853  1.00  0.00     0.074 A 
ATOM     59  C   UNL A   1      48.050  30.758  27.517  1.00  0.00     0.031 C 
ATOM     60  C   UNL A   1      45.830  31.413  28.408  1.00  0.00     0.034 A 
BRANCH  47  61
ATOM     61  C   UNL A   1      40.083  29.306  29.429  1.00  0.00     0.023 A 
ATOM     62  C   UNL A   1      39.753  29.419  30.791  1.00  0.00     0.031 A 
ATOM     63  C   UNL A   1      39.048  29.440  28.488  1.00  0.00     0.131 A 
ATOM     64  C   UNL A   1      38.413  29.575  31.177  1.00  0.00     0.055 A 
ATOM     65  C   UNL A   1      37.727  29.680  28.875  1.00  0.00     0.041 A 
ATOM     66  F   UNL A   1      39.298  29.323  27.174  1.00  0.00    -0.206 F 
ATOM     67  C   UNL A   1      37.401  29.731  30.227  1.00  0.00     0.022 A 
BRANCH  64  68
ATOM     68  S   UNL A   1      37.996  29.420  32.934  1.00  0.00     0.124 S 
ATOM     69  O   UNL A   1      37.024  30.499  33.102  1.00  0.00    -0.237 OA
ATOM     70  O   UNL A   1      37.466  28.064  33.015  1.00  0.00    -0.237 OA
ATOM     71  O   UNL A   1      39.274  29.632  33.610  1.00  0.00    -0.744 OA
ENDBRANCH  64  68
ENDBRANCH  47  61
BRANCH  48  72
ATOM     72  C   UNL A   1      49.189  27.019  25.921  1.00  0.00     0.023 A 
ATOM     73  C   UNL A   1      49.554  27.488  24.650  1.00  0.00     0.031 A 
ATOM     74  C   UNL A   1      50.109  26.215  26.618  1.00  0.00     0.131 A 
ATOM     75  C   UNL A   1      50.787  27.113  24.094  1.00  0.00     0.055 A 
ATOM     76  C   UNL A   1      51.354  25.884  26.080  1.00  0.00     0.041 A 
ATOM     77  F   UNL A   1      49.812  25.747  27.840  1.00  0.00    -0.206 F 
ATOM     78  C   UNL A   1      51.694  26.324  24.805  1.00  0.00     0.022 A 
BRANCH  75  79
ATOM     79  S   UNL A   1      51.155  27.609  22.388  1.00  0.00     0.124 S 
ATOM     80  O   UNL A   1      50.539  28.930  22.323  1.00  0.00    -0.237 OA
ATOM     81  O   UNL A   1      52.614  27.578  22.373  1.00  0.00    -0.237 OA
ATOM     82  O   UNL A   1      50.504  26.576  21.586  1.00  0.00    -0.744 OA
ENDBRANCH  75  79
ENDBRANCH  48  72
BRANCH  60  83
ATOM     83  C   UNL A   1      46.416  32.764  28.733  1.00  0.00     0.023 A 
ATOM     84  C   UNL A   1      46.385  33.827  27.814  1.00  0.00     0.031 A 
ATOM     85  C   UNL A   1      47.014  32.987  29.986  1.00  0.00     0.131 A 
ATOM     86  C   UNL A   1      46.986  35.052  28.144  1.00  0.00     0.055 A 
ATOM     87  C   UNL A   1      47.562  34.223  30.329  1.00  0.00     0.041 A 
ATOM     88  F   UNL A   1      47.071  32.006  30.901  1.00  0.00    -0.206 F 
ATOM     89  C   UNL A   1      47.560  35.262  29.401  1.00  0.00     0.022 A 
BRANCH  86  90
ATOM     90  S   UNL A   1      47.072  36.350  26.879  1.00  0.00     0.124 S 
ATOM     91  O   UNL A   1      48.376  36.946  27.146  1.00  0.00    -0.237 OA
ATOM     92  O   UNL A   1      46.960  35.586  25.640  1.00  0.00    -0.237 OA
ATOM     93  O   UNL A   1      45.925  37.203  27.185  1.00  0.00    -0.744 OA
ENDBRANCH  86  90
ENDBRANCH  60  83
ENDBRANCH  34  35
ENDBRANCH  26  29
ENDBRANCH  24  25
ENDBRANCH  23  24
ENDBRANCH  22  23
ENDBRANCH  21  22
ENDBRANCH   3  21
TORSDOF 21
ENDMDL
