MODEL 1
REMARK VINA RESULT:     -12.9      0.000      0.000
REMARK SMILES Cc1cc(C(=O)N[C@H](C(=O)NCCCCNC(=O)c2ccc(-c3c4nc(c(-c5cc(S(=O)(=O)[O-])ccc5F)c5ccc([nH]5)c(-c5cc(S(=O)(=O)[O-])ccc5F)c5nc(c(-c6cc(S(=O)(=O)[O-])ccc6F)c6ccc3[nH]6)C=C5)C=C4)cc2)c2c(C)n[nH]c2C)c2ccc(C)c(C)c2n1
REMARK SMILES IDX 14 1 13 2 12 3 11 4 9 5 10 6 8 8 7 9 5 10 6 11 4 13 1 14
REMARK SMILES IDX 2 15 3 16 97 17 96 18 89 19 94 20 90 21 92 22 95 23 91 24
REMARK SMILES IDX 93 25 82 26 83 27 87 28 84 29 85 30 86 31 88 32 15 34 16 35
REMARK SMILES IDX 17 36 18 38 19 39 20 40 81 41 21 42 80 43 22 44 23 45 24 46
REMARK SMILES IDX 74 47 25 48 79 49 73 50 75 51 26 52 78 53 72 54 71 55 27 57
REMARK SMILES IDX 59 58 39 59 58 60 40 61 43 62 57 63 76 64 41 65 42 66 56 68
REMARK SMILES IDX 77 69 44 70 28 71 29 72 37 73 30 74 36 75 38 76 35 77 31 78
REMARK SMILES IDX 32 79 33 80 34 81 60 82 61 83 69 84 62 85 68 86 70 87 67 88
REMARK SMILES IDX 63 89 64 90 65 91 66 92 45 93 46 94 54 95 47 96 53 97 55 98
REMARK SMILES IDX 52 99 48 100 49 101 50 102 51 103
REMARK H PARENT 11 7 7 12 86 33 16 37 75 56 43 67
REMARK Flexibility Score: inf
ROOT
ATOM      1  C   UNL A   1      31.432  29.482  24.963  1.00  0.00     0.023 C 
ENDROOT
BRANCH   1   2
ATOM      2  C   UNL A   1      31.751  29.341  23.481  1.00  0.00     0.023 C 
BRANCH   2   3
ATOM      3  C   UNL A   1      33.198  28.954  23.216  1.00  0.00     0.116 C 
BRANCH   3   4
ATOM      4  N   UNL A   1      33.360  28.109  22.047  1.00  0.00    -0.354 N 
ATOM      5  C   UNL A   1      33.392  26.751  21.947  1.00  0.00     0.247 C 
ATOM      6  O   UNL A   1      33.258  26.260  20.820  1.00  0.00    -0.272 OA
ATOM      7  H   UNL A   1      33.463  28.592  21.195  1.00  0.00     0.163 HD
BRANCH   5   8
ATOM      8  C   UNL A   1      33.430  25.839  23.190  1.00  0.00     0.206 C 
BRANCH   8   9
ATOM      9  N   UNL A   1      33.653  26.547  24.464  1.00  0.00    -0.336 N 
ATOM     10  C   UNL A   1      33.361  26.167  25.774  1.00  0.00     0.252 C 
ATOM     11  O   UNL A   1      33.396  27.037  26.643  1.00  0.00    -0.269 OA
ATOM     12  H   UNL A   1      34.077  27.431  24.375  1.00  0.00     0.165 HD
BRANCH  10  13
ATOM     13  C   UNL A   1      33.135  24.729  26.154  1.00  0.00     0.051 A 
ATOM     14  C   UNL A   1      30.116  22.578  26.756  1.00  0.00     0.067 C 
ATOM     15  C   UNL A   1      31.531  23.024  26.559  1.00  0.00     0.039 A 
ATOM     16  C   UNL A   1      31.865  24.360  26.580  1.00  0.00     0.038 A 
ATOM     17  N   UNL A   1      32.414  22.074  26.212  1.00  0.00    -0.253 NA
ATOM     18  C   UNL A   1      33.694  22.383  25.965  1.00  0.00     0.074 A 
ATOM     19  C   UNL A   1      34.142  23.723  25.969  1.00  0.00     0.013 A 
ATOM     20  C   UNL A   1      34.573  21.329  25.644  1.00  0.00    -0.022 A 
ATOM     21  C   UNL A   1      35.531  23.940  25.756  1.00  0.00     0.011 A 
ATOM     22  C   UNL A   1      35.939  21.573  25.391  1.00  0.00    -0.046 A 
ATOM     23  C   UNL A   1      33.985  19.938  25.487  1.00  0.00     0.047 C 
ATOM     24  C   UNL A   1      36.413  22.882  25.492  1.00  0.00     0.004 A 
ATOM     25  C   UNL A   1      36.879  20.465  25.001  1.00  0.00     0.044 C 
ENDBRANCH  10  13
ENDBRANCH   8   9
BRANCH   8  26
ATOM     26  C   UNL A   1      32.216  24.912  23.232  1.00  0.00     0.027 A 
ATOM     27  C   UNL A   1      32.183  23.516  22.905  1.00  0.00     0.065 A 
ATOM     28  C   UNL A   1      30.865  25.218  23.423  1.00  0.00     0.038 A 
ATOM     29  C   UNL A   1      33.298  22.615  22.515  1.00  0.00     0.069 C 
ATOM     30  N   UNL A   1      30.945  23.012  22.938  1.00  0.00    -0.180 NA
ATOM     31  N   UNL A   1      30.173  24.059  23.223  1.00  0.00    -0.282 N 
ATOM     32  C   UNL A   1      30.111  26.472  23.706  1.00  0.00     0.066 C 
ATOM     33  H   UNL A   1      29.191  24.003  23.284  1.00  0.00     0.190 HD
ENDBRANCH   8  26
ENDBRANCH   5   8
ENDBRANCH   3   4
ENDBRANCH   2   3
ENDBRANCH   1   2
BRANCH   1  34
ATOM     34  C   UNL A   1      32.584  30.048  25.758  1.00  0.00     0.116 C 
BRANCH  34  35
ATOM     35  N   UNL A   1      32.321  31.444  26.100  1.00  0.00    -0.352 N 
ATOM     36  C   UNL A   1      32.823  32.192  27.136  1.00  0.00     0.251 C 
ATOM     37  H   UNL A   1      31.694  31.913  25.504  1.00  0.00     0.163 HD
ATOM     38  O   UNL A   1      32.255  33.233  27.470  1.00  0.00    -0.269 OA
BRANCH  36  39
ATOM     39  C   UNL A   1      34.038  31.745  27.850  1.00  0.00     0.039 A 
ATOM     40  C   UNL A   1      34.220  30.389  28.142  1.00  0.00     0.014 A 
ATOM     41  C   UNL A   1      35.000  32.677  28.243  1.00  0.00     0.014 A 
ATOM     42  C   UNL A   1      35.394  29.970  28.772  1.00  0.00     0.010 A 
ATOM     43  C   UNL A   1      36.216  32.250  28.743  1.00  0.00     0.010 A 
ATOM     44  C   UNL A   1      36.403  30.900  29.058  1.00  0.00    -0.014 A 
BRANCH  44  45
ATOM     45  C   UNL A   1      37.617  30.537  29.819  1.00  0.00     0.031 A 
ATOM     46  C   UNL A   1      38.580  29.561  29.199  1.00  0.00     0.074 A 
ATOM     47  C   UNL A   1      37.803  30.997  31.069  1.00  0.00     0.049 A 
ATOM     48  N   UNL A   1      39.649  29.020  29.713  1.00  0.00    -0.248 NA
ATOM     49  C   UNL A   1      38.275  29.100  27.831  1.00  0.00     0.031 C 
ATOM     50  C   UNL A   1      36.897  31.898  31.780  1.00  0.00     0.029 A 
ATOM     51  N   UNL A   1      38.809  30.753  31.968  1.00  0.00    -0.354 N 
ATOM     52  C   UNL A   1      40.128  28.148  28.744  1.00  0.00     0.074 A 
ATOM     53  C   UNL A   1      39.195  28.168  27.645  1.00  0.00     0.031 C 
ATOM     54  C   UNL A   1      37.398  32.146  33.002  1.00  0.00     0.029 A 
ATOM     55  C   UNL A   1      38.643  31.397  33.171  1.00  0.00     0.049 A 
ATOM     56  H   UNL A   1      39.578  30.170  31.772  1.00  0.00     0.167 HD
ATOM     57  C   UNL A   1      41.271  27.428  28.753  1.00  0.00     0.034 A 
ATOM     58  C   UNL A   1      39.411  31.382  34.280  1.00  0.00     0.034 A 
ATOM     59  C   UNL A   1      42.211  27.457  29.837  1.00  0.00     0.049 A 
ATOM     60  C   UNL A   1      40.691  30.587  34.262  1.00  0.00     0.074 A 
ATOM     61  C   UNL A   1      43.437  26.824  29.919  1.00  0.00     0.029 A 
ATOM     62  N   UNL A   1      42.036  28.162  31.018  1.00  0.00    -0.354 N 
ATOM     63  N   UNL A   1      41.185  29.843  33.299  1.00  0.00    -0.248 NA
ATOM     64  C   UNL A   1      41.529  30.635  35.468  1.00  0.00     0.031 C 
ATOM     65  C   UNL A   1      43.979  27.103  31.173  1.00  0.00     0.029 A 
ATOM     66  C   UNL A   1      43.124  27.963  31.847  1.00  0.00     0.049 A 
ATOM     67  H   UNL A   1      41.254  28.720  31.234  1.00  0.00     0.167 HD
ATOM     68  C   UNL A   1      42.404  29.362  33.770  1.00  0.00     0.074 A 
ATOM     69  C   UNL A   1      42.578  29.909  35.099  1.00  0.00     0.031 C 
ATOM     70  C   UNL A   1      43.294  28.543  33.157  1.00  0.00     0.034 A 
BRANCH  57  71
ATOM     71  C   UNL A   1      41.598  26.585  27.551  1.00  0.00     0.023 A 
ATOM     72  C   UNL A   1      41.319  25.208  27.564  1.00  0.00     0.031 A 
ATOM     73  C   UNL A   1      42.284  27.119  26.445  1.00  0.00     0.131 A 
ATOM     74  C   UNL A   1      41.758  24.402  26.507  1.00  0.00     0.055 A 
ATOM     75  C   UNL A   1      42.682  26.319  25.374  1.00  0.00     0.041 A 
ATOM     76  F   UNL A   1      42.564  28.432  26.385  1.00  0.00    -0.206 F 
ATOM     77  C   UNL A   1      42.430  24.952  25.409  1.00  0.00     0.022 A 
BRANCH  74  78
ATOM     78  S   UNL A   1      41.508  22.609  26.537  1.00  0.00     0.124 S 
ATOM     79  O   UNL A   1      42.278  22.175  25.373  1.00  0.00    -0.237 OA
ATOM     80  O   UNL A   1      42.075  22.246  27.832  1.00  0.00    -0.237 OA
ATOM     81  O   UNL A   1      40.063  22.454  26.411  1.00  0.00    -0.744 OA
ENDBRANCH  74  78
ENDBRANCH  57  71
BRANCH  58  82
ATOM     82  C   UNL A   1      39.014  32.215  35.450  1.00  0.00     0.023 A 
ATOM     83  C   UNL A   1      39.486  33.531  35.600  1.00  0.00     0.031 A 
ATOM     84  C   UNL A   1      38.242  31.666  36.487  1.00  0.00     0.131 A 
ATOM     85  C   UNL A   1      39.226  34.232  36.785  1.00  0.00     0.055 A 
ATOM     86  C   UNL A   1      37.937  32.388  37.642  1.00  0.00     0.041 A 
ATOM     87  F   UNL A   1      37.781  30.409  36.393  1.00  0.00    -0.206 F 
ATOM     88  C   UNL A   1      38.442  33.674  37.800  1.00  0.00     0.022 A 
BRANCH  85  89
ATOM     89  S   UNL A   1      39.977  35.855  37.090  1.00  0.00     0.124 S 
ATOM     90  O   UNL A   1      39.656  36.577  35.863  1.00  0.00    -0.237 OA
ATOM     91  O   UNL A   1      39.260  36.290  38.285  1.00  0.00    -0.237 OA
ATOM     92  O   UNL A   1      41.391  35.548  37.285  1.00  0.00    -0.744 OA
ENDBRANCH  85  89
ENDBRANCH  58  82
BRANCH  70  93
ATOM     93  C   UNL A   1      44.566  28.182  33.879  1.00  0.00     0.023 A 
ATOM     94  C   UNL A   1      44.570  27.097  34.776  1.00  0.00     0.031 A 
ATOM     95  C   UNL A   1      45.693  29.019  33.833  1.00  0.00     0.131 A 
ATOM     96  C   UNL A   1      45.661  26.909  35.632  1.00  0.00     0.055 A 
ATOM     97  C   UNL A   1      46.797  28.798  34.655  1.00  0.00     0.041 A 
ATOM     98  F   UNL A   1      45.724  30.074  33.002  1.00  0.00    -0.206 F 
ATOM     99  C   UNL A   1      46.777  27.749  35.571  1.00  0.00     0.022 A 
BRANCH  96 100
ATOM    100  S   UNL A   1      45.629  25.627  36.914  1.00  0.00     0.124 S 
ATOM    101  O   UNL A   1      45.218  26.386  38.092  1.00  0.00    -0.237 OA
ATOM    102  O   UNL A   1      44.632  24.697  36.392  1.00  0.00    -0.237 OA
ATOM    103  O   UNL A   1      47.000  25.127  36.947  1.00  0.00    -0.744 OA
ENDBRANCH  96 100
ENDBRANCH  70  93
ENDBRANCH  44  45
ENDBRANCH  36  39
ENDBRANCH  34  35
ENDBRANCH   1  34
TORSDOF 17
ENDMDL
MODEL 2
REMARK VINA RESULT:     -12.9      0.445      7.458
REMARK SMILES Cc1cc(C(=O)N[C@H](C(=O)NCCCCNC(=O)c2ccc(-c3c4nc(c(-c5cc(S(=O)(=O)[O-])ccc5F)c5ccc([nH]5)c(-c5cc(S(=O)(=O)[O-])ccc5F)c5nc(c(-c6cc(S(=O)(=O)[O-])ccc6F)c6ccc3[nH]6)C=C5)C=C4)cc2)c2c(C)n[nH]c2C)c2ccc(C)c(C)c2n1
REMARK SMILES IDX 14 1 13 2 12 3 11 4 9 5 10 6 8 8 7 9 5 10 6 11 4 13 1 14
REMARK SMILES IDX 2 15 3 16 97 17 96 18 89 19 94 20 90 21 92 22 95 23 91 24
REMARK SMILES IDX 93 25 82 26 83 27 87 28 84 29 85 30 86 31 88 32 15 34 16 35
REMARK SMILES IDX 17 36 18 38 19 39 20 40 81 41 21 42 80 43 22 44 23 45 24 46
REMARK SMILES IDX 74 47 25 48 79 49 73 50 75 51 26 52 78 53 72 54 71 55 27 57
REMARK SMILES IDX 59 58 39 59 58 60 40 61 43 62 57 63 76 64 41 65 42 66 56 68
REMARK SMILES IDX 77 69 44 70 28 71 29 72 37 73 30 74 36 75 38 76 35 77 31 78
REMARK SMILES IDX 32 79 33 80 34 81 60 82 61 83 69 84 62 85 68 86 70 87 67 88
REMARK SMILES IDX 63 89 64 90 65 91 66 92 45 93 46 94 54 95 47 96 53 97 55 98
REMARK SMILES IDX 52 99 48 100 49 101 50 102 51 103
REMARK H PARENT 11 7 7 12 86 33 16 37 75 56 43 67
REMARK Flexibility Score: inf
ROOT
ATOM      1  C   UNL A   1      31.487  29.558  25.188  1.00  0.00     0.023 C 
ENDROOT
BRANCH   1   2
ATOM      2  C   UNL A   1      31.730  29.288  23.710  1.00  0.00     0.023 C 
BRANCH   2   3
ATOM      3  C   UNL A   1      33.195  29.039  23.381  1.00  0.00     0.116 C 
BRANCH   3   4
ATOM      4  N   UNL A   1      33.386  28.232  22.190  1.00  0.00    -0.354 N 
ATOM      5  C   UNL A   1      33.444  26.879  22.050  1.00  0.00     0.247 C 
ATOM      6  O   UNL A   1      33.333  26.418  20.908  1.00  0.00    -0.272 OA
ATOM      7  H   UNL A   1      33.489  28.742  21.353  1.00  0.00     0.163 HD
BRANCH   5   8
ATOM      8  C   UNL A   1      33.487  25.931  23.267  1.00  0.00     0.206 C 
BRANCH   8   9
ATOM      9  N   UNL A   1      33.670  26.606  24.565  1.00  0.00    -0.336 N 
ATOM     10  C   UNL A   1      33.362  26.183  25.858  1.00  0.00     0.252 C 
ATOM     11  O   UNL A   1      33.363  27.027  26.752  1.00  0.00    -0.269 OA
ATOM     12  H   UNL A   1      34.076  27.502  24.510  1.00  0.00     0.165 HD
BRANCH  10  13
ATOM     13  C   UNL A   1      33.162  24.730  26.192  1.00  0.00     0.051 A 
ATOM     14  C   UNL A   1      30.181  22.508  26.728  1.00  0.00     0.067 C 
ATOM     15  C   UNL A   1      31.588  22.985  26.544  1.00  0.00     0.039 A 
ATOM     16  C   UNL A   1      31.899  24.326  26.607  1.00  0.00     0.038 A 
ATOM     17  N   UNL A   1      32.487  22.062  26.166  1.00  0.00    -0.253 NA
ATOM     18  C   UNL A   1      33.762  22.401  25.928  1.00  0.00     0.074 A 
ATOM     19  C   UNL A   1      34.186  23.748  25.975  1.00  0.00     0.013 A 
ATOM     20  C   UNL A   1      34.658  21.373  25.573  1.00  0.00    -0.022 A 
ATOM     21  C   UNL A   1      35.570  23.996  25.768  1.00  0.00     0.011 A 
ATOM     22  C   UNL A   1      36.019  21.649  25.327  1.00  0.00    -0.046 A 
ATOM     23  C   UNL A   1      34.094  19.978  25.373  1.00  0.00     0.047 C 
ATOM     24  C   UNL A   1      36.471  22.962  25.470  1.00  0.00     0.004 A 
ATOM     25  C   UNL A   1      36.977  20.570  24.901  1.00  0.00     0.044 C 
ENDBRANCH  10  13
ENDBRANCH   8   9
BRANCH   8  26
ATOM     26  C   UNL A   1      32.297  24.972  23.261  1.00  0.00     0.027 A 
ATOM     27  C   UNL A   1      32.299  23.594  22.864  1.00  0.00     0.065 A 
ATOM     28  C   UNL A   1      30.938  25.234  23.467  1.00  0.00     0.038 A 
ATOM     29  C   UNL A   1      33.437  22.743  22.430  1.00  0.00     0.069 C 
ATOM     30  N   UNL A   1      31.075  23.058  22.871  1.00  0.00    -0.180 NA
ATOM     31  N   UNL A   1      30.277  24.069  23.208  1.00  0.00    -0.282 N 
ATOM     32  C   UNL A   1      30.153  26.451  23.813  1.00  0.00     0.066 C 
ATOM     33  H   UNL A   1      29.297  23.984  23.266  1.00  0.00     0.190 HD
ENDBRANCH   8  26
ENDBRANCH   5   8
ENDBRANCH   3   4
ENDBRANCH   2   3
ENDBRANCH   1   2
BRANCH   1  34
ATOM     34  C   UNL A   1      32.688  30.161  25.877  1.00  0.00     0.116 C 
BRANCH  34  35
ATOM     35  N   UNL A   1      32.432  31.564  26.196  1.00  0.00    -0.352 N 
ATOM     36  C   UNL A   1      32.973  32.339  27.192  1.00  0.00     0.251 C 
ATOM     37  H   UNL A   1      31.778  32.017  25.615  1.00  0.00     0.163 HD
ATOM     38  O   UNL A   1      32.414  33.386  27.524  1.00  0.00    -0.269 OA
BRANCH  36  39
ATOM     39  C   UNL A   1      34.218  31.914  27.866  1.00  0.00     0.039 A 
ATOM     40  C   UNL A   1      35.277  32.815  28.014  1.00  0.00     0.014 A 
ATOM     41  C   UNL A   1      34.340  30.609  28.348  1.00  0.00     0.014 A 
ATOM     42  C   UNL A   1      36.430  32.419  28.697  1.00  0.00     0.010 A 
ATOM     43  C   UNL A   1      35.421  30.259  29.137  1.00  0.00     0.010 A 
ATOM     44  C   UNL A   1      36.496  31.144  29.276  1.00  0.00    -0.014 A 
BRANCH  44  45
ATOM     45  C   UNL A   1      37.726  30.631  29.915  1.00  0.00     0.031 A 
ATOM     46  C   UNL A   1      38.057  31.105  31.303  1.00  0.00     0.074 A 
ATOM     47  C   UNL A   1      38.568  29.835  29.233  1.00  0.00     0.049 A 
ATOM     48  N   UNL A   1      39.123  30.876  32.020  1.00  0.00    -0.248 NA
ATOM     49  C   UNL A   1      37.076  31.993  31.958  1.00  0.00     0.031 C 
ATOM     50  C   UNL A   1      38.367  29.369  27.862  1.00  0.00     0.029 A 
ATOM     51  N   UNL A   1      39.774  29.294  29.598  1.00  0.00    -0.354 N 
ATOM     52  C   UNL A   1      38.947  31.600  33.192  1.00  0.00     0.074 A 
ATOM     53  C   UNL A   1      37.716  32.340  33.062  1.00  0.00     0.031 C 
ATOM     54  C   UNL A   1      39.406  28.596  27.505  1.00  0.00     0.029 A 
ATOM     55  C   UNL A   1      40.361  28.538  28.611  1.00  0.00     0.049 A 
ATOM     56  H   UNL A   1      40.182  29.433  30.483  1.00  0.00     0.167 HD
ATOM     57  C   UNL A   1      39.723  31.611  34.297  1.00  0.00     0.034 A 
ATOM     58  C   UNL A   1      41.535  27.874  28.605  1.00  0.00     0.034 A 
ATOM     59  C   UNL A   1      40.920  30.831  34.425  1.00  0.00     0.049 A 
ATOM     60  C   UNL A   1      42.378  27.883  29.856  1.00  0.00     0.074 A 
ATOM     61  C   UNL A   1      41.744  30.708  35.528  1.00  0.00     0.029 A 
ATOM     62  N   UNL A   1      41.458  30.034  33.424  1.00  0.00    -0.354 N 
ATOM     63  N   UNL A   1      42.151  28.493  30.996  1.00  0.00    -0.248 NA
ATOM     64  C   UNL A   1      43.625  27.107  29.831  1.00  0.00     0.031 C 
ATOM     65  C   UNL A   1      42.809  29.880  35.177  1.00  0.00     0.029 A 
ATOM     66  C   UNL A   1      42.616  29.432  33.878  1.00  0.00     0.049 A 
ATOM     67  H   UNL A   1      41.072  29.916  32.526  1.00  0.00     0.167 HD
ATOM     68  C   UNL A   1      43.208  28.150  31.834  1.00  0.00     0.074 A 
ATOM     69  C   UNL A   1      44.069  27.268  31.073  1.00  0.00     0.031 C 
ATOM     70  C   UNL A   1      43.444  28.531  33.114  1.00  0.00     0.034 A 
BRANCH  57  71
ATOM     71  C   UNL A   1      39.292  32.449  35.469  1.00  0.00     0.023 A 
ATOM     72  C   UNL A   1      39.751  33.771  35.592  1.00  0.00     0.031 A 
ATOM     73  C   UNL A   1      38.524  31.907  36.516  1.00  0.00     0.131 A 
ATOM     74  C   UNL A   1      39.469  34.497  36.754  1.00  0.00     0.055 A 
ATOM     75  C   UNL A   1      38.210  32.649  37.654  1.00  0.00     0.041 A 
ATOM     76  F   UNL A   1      38.056  30.650  36.438  1.00  0.00    -0.206 F 
ATOM     77  C   UNL A   1      38.694  33.946  37.781  1.00  0.00     0.022 A 
BRANCH  74  78
ATOM     78  S   UNL A   1      40.130  36.167  36.993  1.00  0.00     0.124 S 
ATOM     79  O   UNL A   1      41.547  35.900  37.235  1.00  0.00    -0.237 OA
ATOM     80  O   UNL A   1      39.824  36.799  35.715  1.00  0.00    -0.237 OA
ATOM     81  O   UNL A   1      39.393  36.674  38.146  1.00  0.00    -0.744 OA
ENDBRANCH  74  78
ENDBRANCH  57  71
BRANCH  58  82
ATOM     82  C   UNL A   1      41.920  27.088  27.399  1.00  0.00     0.023 A 
ATOM     83  C   UNL A   1      41.722  25.697  27.344  1.00  0.00     0.031 A 
ATOM     84  C   UNL A   1      42.590  27.705  26.330  1.00  0.00     0.131 A 
ATOM     85  C   UNL A   1      42.237  24.964  26.266  1.00  0.00     0.055 A 
ATOM     86  C   UNL A   1      43.051  26.979  25.230  1.00  0.00     0.041 A 
ATOM     87  F   UNL A   1      42.812  29.028  26.346  1.00  0.00    -0.206 F 
ATOM     88  C   UNL A   1      42.886  25.598  25.203  1.00  0.00     0.022 A 
BRANCH  85  89
ATOM     89  S   UNL A   1      42.166  23.151  26.256  1.00  0.00     0.124 S 
ATOM     90  O   UNL A   1      43.025  22.804  27.385  1.00  0.00    -0.237 OA
ATOM     91  O   UNL A   1      40.739  22.913  26.452  1.00  0.00    -0.237 OA
ATOM     92  O   UNL A   1      42.685  22.795  24.939  1.00  0.00    -0.744 OA
ENDBRANCH  85  89
ENDBRANCH  58  82
BRANCH  70  93
ATOM     93  C   UNL A   1      44.663  27.996  33.819  1.00  0.00     0.023 A 
ATOM     94  C   UNL A   1      44.575  26.787  34.535  1.00  0.00     0.031 A 
ATOM     95  C   UNL A   1      45.830  28.767  33.944  1.00  0.00     0.131 A 
ATOM     96  C   UNL A   1      45.615  26.411  35.392  1.00  0.00     0.055 A 
ATOM     97  C   UNL A   1      46.884  28.362  34.762  1.00  0.00     0.041 A 
ATOM     98  F   UNL A   1      45.950  29.932  33.288  1.00  0.00    -0.206 F 
ATOM     99  C   UNL A   1      46.772  27.188  35.504  1.00  0.00     0.022 A 
BRANCH  96 100
ATOM    100  S   UNL A   1      45.464  24.952  36.458  1.00  0.00     0.124 S 
ATOM    101  O   UNL A   1      44.038  24.958  36.779  1.00  0.00    -0.237 OA
ATOM    102  O   UNL A   1      45.898  23.878  35.570  1.00  0.00    -0.237 OA
ATOM    103  O   UNL A   1      46.352  25.241  37.580  1.00  0.00    -0.744 OA
ENDBRANCH  96 100
ENDBRANCH  70  93
ENDBRANCH  44  45
ENDBRANCH  36  39
ENDBRANCH  34  35
ENDBRANCH   1  34
TORSDOF 17
ENDMDL
MODEL 3
REMARK VINA RESULT:     -12.8      4.714      7.615
REMARK SMILES Cc1cc(C(=O)N[C@H](C(=O)NCCCCNC(=O)c2ccc(-c3c4nc(c(-c5cc(S(=O)(=O)[O-])ccc5F)c5ccc([nH]5)c(-c5cc(S(=O)(=O)[O-])ccc5F)c5nc(c(-c6cc(S(=O)(=O)[O-])ccc6F)c6ccc3[nH]6)C=C5)C=C4)cc2)c2c(C)n[nH]c2C)c2ccc(C)c(C)c2n1
REMARK SMILES IDX 14 1 13 2 12 3 11 4 9 5 10 6 8 8 7 9 5 10 6 11 4 13 1 14
REMARK SMILES IDX 2 15 3 16 97 17 96 18 89 19 94 20 90 21 92 22 95 23 91 24
REMARK SMILES IDX 93 25 82 26 83 27 87 28 84 29 85 30 86 31 88 32 15 34 16 35
REMARK SMILES IDX 17 36 18 38 19 39 20 40 81 41 21 42 80 43 22 44 23 45 24 46
REMARK SMILES IDX 74 47 25 48 79 49 73 50 75 51 26 52 78 53 72 54 71 55 27 57
REMARK SMILES IDX 59 58 39 59 58 60 40 61 43 62 57 63 76 64 41 65 42 66 56 68
REMARK SMILES IDX 77 69 44 70 28 71 29 72 37 73 30 74 36 75 38 76 35 77 31 78
REMARK SMILES IDX 32 79 33 80 34 81 60 82 61 83 69 84 62 85 68 86 70 87 67 88
REMARK SMILES IDX 63 89 64 90 65 91 66 92 45 93 46 94 54 95 47 96 53 97 55 98
REMARK SMILES IDX 52 99 48 100 49 101 50 102 51 103
REMARK H PARENT 11 7 7 12 86 33 16 37 75 56 43 67
REMARK Flexibility Score: inf
ROOT
ATOM      1  C   UNL A   1      36.720  23.300  24.090  1.00  0.00     0.023 C 
ENDROOT
BRANCH   1   2
ATOM      2  C   UNL A   1      35.446  22.992  23.316  1.00  0.00     0.023 C 
BRANCH   2   3
ATOM      3  C   UNL A   1      34.469  24.158  23.287  1.00  0.00     0.116 C 
BRANCH   3   4
ATOM      4  N   UNL A   1      33.141  23.782  22.838  1.00  0.00    -0.354 N 
ATOM      5  C   UNL A   1      32.021  23.501  23.559  1.00  0.00     0.247 C 
ATOM      6  O   UNL A   1      30.943  23.481  22.953  1.00  0.00    -0.272 OA
ATOM      7  H   UNL A   1      33.034  23.721  21.861  1.00  0.00     0.163 HD
BRANCH   5   8
ATOM      8  C   UNL A   1      32.048  23.367  25.096  1.00  0.00     0.206 C 
BRANCH   8   9
ATOM      9  N   UNL A   1      30.745  23.571  25.753  1.00  0.00    -0.336 N 
ATOM     10  C   UNL A   1      30.054  24.746  26.050  1.00  0.00     0.252 C 
ATOM     11  O   UNL A   1      29.112  24.672  26.838  1.00  0.00    -0.269 OA
ATOM     12  H   UNL A   1      30.287  22.743  26.026  1.00  0.00     0.165 HD
BRANCH  10  13
ATOM     13  C   UNL A   1      30.349  26.042  25.346  1.00  0.00     0.051 A 
ATOM     14  C   UNL A   1      28.542  28.181  22.842  1.00  0.00     0.067 C 
ATOM     15  C   UNL A   1      29.547  27.695  23.839  1.00  0.00     0.039 A 
ATOM     16  C   UNL A   1      29.563  26.381  24.251  1.00  0.00     0.038 A 
ATOM     17  N   UNL A   1      30.318  28.632  24.415  1.00  0.00    -0.253 NA
ATOM     18  C   UNL A   1      31.213  28.301  25.356  1.00  0.00     0.074 A 
ATOM     19  C   UNL A   1      31.316  26.979  25.842  1.00  0.00     0.013 A 
ATOM     20  C   UNL A   1      32.015  29.331  25.888  1.00  0.00    -0.022 A 
ATOM     21  C   UNL A   1      32.338  26.719  26.795  1.00  0.00     0.011 A 
ATOM     22  C   UNL A   1      32.992  29.058  26.867  1.00  0.00    -0.046 A 
ATOM     23  C   UNL A   1      31.729  30.754  25.445  1.00  0.00     0.047 C 
ATOM     24  C   UNL A   1      33.172  27.737  27.281  1.00  0.00     0.004 A 
ATOM     25  C   UNL A   1      33.823  30.154  27.479  1.00  0.00     0.044 C 
ENDBRANCH  10  13
ENDBRANCH   8   9
BRANCH   8  26
ATOM     26  C   UNL A   1      32.731  22.069  25.524  1.00  0.00     0.027 A 
ATOM     27  C   UNL A   1      32.746  20.824  24.812  1.00  0.00     0.065 A 
ATOM     28  C   UNL A   1      33.336  21.738  26.741  1.00  0.00     0.038 A 
ATOM     29  C   UNL A   1      32.176  20.497  23.479  1.00  0.00     0.069 C 
ATOM     30  N   UNL A   1      33.340  19.846  25.504  1.00  0.00    -0.180 NA
ATOM     31  N   UNL A   1      33.658  20.414  26.665  1.00  0.00    -0.282 N 
ATOM     32  C   UNL A   1      33.602  22.476  28.007  1.00  0.00     0.066 C 
ATOM     33  H   UNL A   1      34.087  19.922  27.404  1.00  0.00     0.190 HD
ENDBRANCH   8  26
ENDBRANCH   5   8
ENDBRANCH   3   4
ENDBRANCH   2   3
ENDBRANCH   1   2
BRANCH   1  34
ATOM     34  C   UNL A   1      36.555  23.128  25.581  1.00  0.00     0.116 C 
BRANCH  34  35
ATOM     35  N   UNL A   1      37.563  22.203  26.094  1.00  0.00    -0.352 N 
ATOM     36  C   UNL A   1      38.847  22.461  26.507  1.00  0.00     0.251 C 
ATOM     37  H   UNL A   1      37.281  21.261  26.152  1.00  0.00     0.163 HD
ATOM     38  O   UNL A   1      39.658  21.538  26.596  1.00  0.00    -0.269 OA
BRANCH  36  39
ATOM     39  C   UNL A   1      39.254  23.844  26.836  1.00  0.00     0.039 A 
ATOM     40  C   UNL A   1      39.811  24.663  25.850  1.00  0.00     0.014 A 
ATOM     41  C   UNL A   1      39.091  24.328  28.135  1.00  0.00     0.014 A 
ATOM     42  C   UNL A   1      40.146  25.984  26.158  1.00  0.00     0.010 A 
ATOM     43  C   UNL A   1      39.296  25.669  28.406  1.00  0.00     0.010 A 
ATOM     44  C   UNL A   1      39.872  26.495  27.434  1.00  0.00    -0.014 A 
BRANCH  44  45
ATOM     45  C   UNL A   1      40.300  27.847  27.852  1.00  0.00     0.031 A 
ATOM     46  C   UNL A   1      41.761  28.192  27.750  1.00  0.00     0.074 A 
ATOM     47  C   UNL A   1      39.419  28.706  28.393  1.00  0.00     0.049 A 
ATOM     48  N   UNL A   1      42.382  29.268  28.148  1.00  0.00    -0.248 NA
ATOM     49  C   UNL A   1      42.649  27.173  27.160  1.00  0.00     0.031 C 
ATOM     50  C   UNL A   1      37.994  28.441  28.591  1.00  0.00     0.029 A 
ATOM     51  N   UNL A   1      39.599  29.969  28.894  1.00  0.00    -0.354 N 
ATOM     52  C   UNL A   1      43.725  29.046  27.873  1.00  0.00     0.074 A 
ATOM     53  C   UNL A   1      43.844  27.707  27.351  1.00  0.00     0.031 C 
ATOM     54  C   UNL A   1      37.424  29.518  29.156  1.00  0.00     0.029 A 
ATOM     55  C   UNL A   1      38.448  30.536  29.389  1.00  0.00     0.049 A 
ATOM     56  H   UNL A   1      40.470  30.428  28.899  1.00  0.00     0.167 HD
ATOM     57  C   UNL A   1      44.762  29.902  28.003  1.00  0.00     0.034 A 
ATOM     58  C   UNL A   1      38.248  31.741  29.961  1.00  0.00     0.034 A 
ATOM     59  C   UNL A   1      44.616  31.247  28.481  1.00  0.00     0.049 A 
ATOM     60  C   UNL A   1      39.414  32.688  30.080  1.00  0.00     0.074 A 
ATOM     61  C   UNL A   1      45.587  32.225  28.583  1.00  0.00     0.029 A 
ATOM     62  N   UNL A   1      43.426  31.806  28.923  1.00  0.00    -0.354 N 
ATOM     63  N   UNL A   1      40.665  32.503  29.724  1.00  0.00    -0.248 NA
ATOM     64  C   UNL A   1      39.149  34.011  30.662  1.00  0.00     0.031 C 
ATOM     65  C   UNL A   1      44.996  33.359  29.138  1.00  0.00     0.029 A 
ATOM     66  C   UNL A   1      43.643  33.112  29.321  1.00  0.00     0.049 A 
ATOM     67  H   UNL A   1      42.558  31.342  28.950  1.00  0.00     0.167 HD
ATOM     68  C   UNL A   1      41.327  33.694  30.008  1.00  0.00     0.074 A 
ATOM     69  C   UNL A   1      40.336  34.597  30.555  1.00  0.00     0.031 C 
ATOM     70  C   UNL A   1      42.635  34.007  29.833  1.00  0.00     0.034 A 
BRANCH  57  71
ATOM     71  C   UNL A   1      46.131  29.438  27.589  1.00  0.00     0.023 A 
ATOM     72  C   UNL A   1      46.354  28.997  26.274  1.00  0.00     0.031 A 
ATOM     73  C   UNL A   1      47.181  29.327  28.520  1.00  0.00     0.131 A 
ATOM     74  C   UNL A   1      47.587  28.429  25.933  1.00  0.00     0.055 A 
ATOM     75  C   UNL A   1      48.422  28.800  28.164  1.00  0.00     0.041 A 
ATOM     76  F   UNL A   1      47.017  29.745  29.786  1.00  0.00    -0.206 F 
ATOM     77  C   UNL A   1      48.624  28.336  26.868  1.00  0.00     0.022 A 
BRANCH  74  78
ATOM     78  S   UNL A   1      47.876  27.755  24.277  1.00  0.00     0.124 S 
ATOM     79  O   UNL A   1      47.439  26.369  24.433  1.00  0.00    -0.237 OA
ATOM     80  O   UNL A   1      47.011  28.594  23.454  1.00  0.00    -0.237 OA
ATOM     81  O   UNL A   1      49.310  27.930  24.073  1.00  0.00    -0.744 OA
ENDBRANCH  74  78
ENDBRANCH  57  71
BRANCH  58  82
ATOM     82  C   UNL A   1      36.870  32.126  30.379  1.00  0.00     0.023 A 
ATOM     83  C   UNL A   1      36.014  32.823  29.509  1.00  0.00     0.031 A 
ATOM     84  C   UNL A   1      36.434  31.896  31.695  1.00  0.00     0.131 A 
ATOM     85  C   UNL A   1      34.789  33.311  29.982  1.00  0.00     0.055 A 
ATOM     86  C   UNL A   1      35.187  32.334  32.146  1.00  0.00     0.041 A 
ATOM     87  F   UNL A   1      37.223  31.247  32.564  1.00  0.00    -0.206 F 
ATOM     88  C   UNL A   1      34.364  33.058  31.290  1.00  0.00     0.022 A 
BRANCH  85  89
ATOM     89  S   UNL A   1      33.748  34.374  28.944  1.00  0.00     0.124 S 
ATOM     90  O   UNL A   1      32.809  34.928  29.916  1.00  0.00    -0.237 OA
ATOM     91  O   UNL A   1      34.729  35.313  28.408  1.00  0.00    -0.237 OA
ATOM     92  O   UNL A   1      33.172  33.448  27.973  1.00  0.00    -0.744 OA
ENDBRANCH  85  89
ENDBRANCH  58  82
BRANCH  70  93
ATOM     93  C   UNL A   1      43.106  35.390  30.204  1.00  0.00     0.023 A 
ATOM     94  C   UNL A   1      43.148  36.395  29.219  1.00  0.00     0.031 A 
ATOM     95  C   UNL A   1      43.689  35.651  31.454  1.00  0.00     0.131 A 
ATOM     96  C   UNL A   1      43.811  37.598  29.483  1.00  0.00     0.055 A 
ATOM     97  C   UNL A   1      44.307  36.871  31.728  1.00  0.00     0.041 A 
ATOM     98  F   UNL A   1      43.683  34.715  32.417  1.00  0.00    -0.206 F 
ATOM     99  C   UNL A   1      44.385  37.844  30.734  1.00  0.00     0.022 A 
BRANCH  96 100
ATOM    100  S   UNL A   1      44.033  38.845  28.185  1.00  0.00     0.124 S 
ATOM    101  O   UNL A   1      45.426  39.240  28.379  1.00  0.00    -0.237 OA
ATOM    102  O   UNL A   1      43.764  38.077  26.973  1.00  0.00    -0.237 OA
ATOM    103  O   UNL A   1      43.048  39.872  28.512  1.00  0.00    -0.744 OA
ENDBRANCH  96 100
ENDBRANCH  70  93
ENDBRANCH  44  45
ENDBRANCH  36  39
ENDBRANCH  34  35
ENDBRANCH   1  34
TORSDOF 17
ENDMDL
