MODEL 1
REMARK VINA RESULT:     -13.6      0.000      0.000
REMARK SMILES COc1ccc(-c2c(C(=O)NCCCCNC(=O)c3ccc(-c4c5nc(c(-c6cc(S(=O)(=O)[O-])ccc6F)c6ccc([nH]6)c(-c6cc(S(=O)(=O)[O-])ccc6F)c6nc(c(-c7cc(S(=O)(=O)[O-])ccc7F)c7ccc4[nH]7)C=C6)C=C5)cc3)sc3c2N=C(O)C[C@H]3c2ccc(OC)c(OC)c2)cc1
REMARK SMILES IDX 14 1 13 2 12 3 11 4 9 5 10 6 8 8 7 9 84 10 82 11 83 12 85 13
REMARK SMILES IDX 89 14 86 15 88 16 6 17 3 18 4 19 101 20 5 21 100 22 2 23
REMARK SMILES IDX 1 24 90 25 91 26 99 27 92 28 96 29 93 30 97 31 98 32 94 33
REMARK SMILES IDX 95 34 87 35 15 37 16 38 17 39 18 41 19 42 20 43 81 44 21 45
REMARK SMILES IDX 80 46 22 47 23 48 24 49 74 50 25 51 79 52 73 53 75 54 26 55
REMARK SMILES IDX 78 56 72 57 71 58 27 60 59 61 39 62 58 63 40 64 43 65 57 66
REMARK SMILES IDX 76 67 41 68 42 69 56 71 77 72 44 73 28 74 29 75 37 76 30 77
REMARK SMILES IDX 36 78 38 79 35 80 31 81 32 82 33 83 34 84 60 85 61 86 69 87
REMARK SMILES IDX 62 88 68 89 70 90 67 91 63 92 64 93 65 94 66 95 45 96 46 97
REMARK SMILES IDX 54 98 47 99 53 100 55 101 52 102 48 103 49 104 50 105 51 106
REMARK H PARENT 11 7 87 36 16 40 75 59 43 70
REMARK Flexibility Score: inf
ROOT
ATOM      1  C   UNL A   1      36.862  22.869  26.232  1.00  0.00     0.023 C 
ENDROOT
BRANCH   1   2
ATOM      2  C   UNL A   1      35.377  23.154  26.460  1.00  0.00     0.023 C 
BRANCH   2   3
ATOM      3  C   UNL A   1      34.506  22.048  27.051  1.00  0.00     0.116 C 
BRANCH   3   4
ATOM      4  N   UNL A   1      33.205  22.407  27.548  1.00  0.00    -0.351 N 
ATOM      5  C   UNL A   1      32.190  23.120  26.930  1.00  0.00     0.262 C 
ATOM      6  O   UNL A   1      31.173  23.232  27.628  1.00  0.00    -0.268 OA
ATOM      7  H   UNL A   1      33.006  22.101  28.462  1.00  0.00     0.163 HD
BRANCH   5   8
ATOM      8  C   UNL A   1      32.306  23.775  25.612  1.00  0.00     0.102 A 
ATOM      9  C   UNL A   1      32.299  23.382  24.268  1.00  0.00     0.031 A 
ATOM     10  C   UNL A   1      32.511  24.494  23.388  1.00  0.00     0.090 A 
ATOM     11  S   UNL A   1      32.481  25.520  25.701  1.00  0.00    -0.131 S 
ATOM     12  C   UNL A   1      32.623  25.695  24.021  1.00  0.00     0.040 A 
ATOM     13  N   UNL A   1      32.617  24.341  21.999  1.00  0.00    -0.216 NA
ATOM     14  C   UNL A   1      32.874  26.993  23.333  1.00  0.00     0.071 C 
ATOM     15  C   UNL A   1      32.975  25.391  21.347  1.00  0.00     0.186 C 
ATOM     16  C   UNL A   1      33.327  26.755  21.882  1.00  0.00     0.111 C 
BRANCH   9  17
ATOM     17  C   UNL A   1      32.220  22.017  23.773  1.00  0.00    -0.014 A 
ATOM     18  C   UNL A   1      32.196  19.465  22.621  1.00  0.00     0.118 A 
ATOM     19  C   UNL A   1      32.533  19.638  23.971  1.00  0.00     0.047 A 
ATOM     20  C   UNL A   1      31.781  20.562  21.873  1.00  0.00     0.047 A 
ATOM     21  C   UNL A   1      32.564  20.912  24.550  1.00  0.00     0.012 A 
ATOM     22  C   UNL A   1      31.768  21.825  22.455  1.00  0.00     0.012 A 
BRANCH  18  23
ATOM     23  O   UNL A   1      32.309  18.191  22.141  1.00  0.00    -0.497 OA
ATOM     24  C   UNL A   1      33.197  17.328  22.845  1.00  0.00     0.278 C 
ENDBRANCH  18  23
ENDBRANCH   9  17
BRANCH  14  25
ATOM     25  C   UNL A   1      31.698  27.957  23.385  1.00  0.00    -0.035 A 
ATOM     26  C   UNL A   1      30.638  27.884  22.478  1.00  0.00     0.008 A 
ATOM     27  C   UNL A   1      31.690  28.980  24.351  1.00  0.00     0.054 A 
ATOM     28  C   UNL A   1      29.603  28.816  22.542  1.00  0.00     0.051 A 
ATOM     29  C   UNL A   1      30.656  29.927  24.423  1.00  0.00     0.161 A 
ATOM     30  C   UNL A   1      29.596  29.837  23.505  1.00  0.00     0.160 A 
BRANCH  29  31
ATOM     31  O   UNL A   1      30.654  30.958  25.326  1.00  0.00    -0.493 OA
ATOM     32  C   UNL A   1      31.721  31.032  26.263  1.00  0.00     0.278 C 
ENDBRANCH  29  31
BRANCH  30  33
ATOM     33  O   UNL A   1      28.509  30.662  23.380  1.00  0.00    -0.493 OA
ATOM     34  C   UNL A   1      28.562  31.709  22.424  1.00  0.00     0.278 C 
ENDBRANCH  30  33
ENDBRANCH  14  25
BRANCH  15  35
ATOM     35  O   UNL A   1      33.142  25.274  20.012  1.00  0.00    -0.496 OA
ATOM     36  H   UNL A   1      33.887  24.819  19.671  1.00  0.00     0.294 HD
ENDBRANCH  15  35
ENDBRANCH   5   8
ENDBRANCH   3   4
ENDBRANCH   2   3
ENDBRANCH   1   2
BRANCH   1  37
ATOM     37  C   UNL A   1      37.759  24.087  26.040  1.00  0.00     0.116 C 
BRANCH  37  38
ATOM     38  N   UNL A   1      39.191  23.807  26.117  1.00  0.00    -0.352 N 
ATOM     39  C   UNL A   1      40.190  24.676  26.550  1.00  0.00     0.251 C 
ATOM     40  H   UNL A   1      39.480  22.910  25.832  1.00  0.00     0.163 HD
ATOM     41  O   UNL A   1      41.352  24.492  26.240  1.00  0.00    -0.269 OA
BRANCH  39  42
ATOM     42  C   UNL A   1      39.786  25.840  27.371  1.00  0.00     0.039 A 
ATOM     43  C   UNL A   1      39.268  25.685  28.658  1.00  0.00     0.014 A 
ATOM     44  C   UNL A   1      40.045  27.107  26.862  1.00  0.00     0.014 A 
ATOM     45  C   UNL A   1      39.152  26.812  29.477  1.00  0.00     0.010 A 
ATOM     46  C   UNL A   1      40.047  28.194  27.704  1.00  0.00     0.010 A 
ATOM     47  C   UNL A   1      39.591  28.062  29.013  1.00  0.00    -0.014 A 
BRANCH  47  48
ATOM     48  C   UNL A   1      39.758  29.192  29.937  1.00  0.00     0.031 A 
ATOM     49  C   UNL A   1      38.544  30.034  30.143  1.00  0.00     0.074 A 
ATOM     50  C   UNL A   1      40.802  29.320  30.784  1.00  0.00     0.049 A 
ATOM     51  N   UNL A   1      38.366  31.275  29.832  1.00  0.00    -0.248 NA
ATOM     52  C   UNL A   1      37.333  29.380  30.664  1.00  0.00     0.031 C 
ATOM     53  C   UNL A   1      41.930  28.398  30.966  1.00  0.00     0.029 A 
ATOM     54  N   UNL A   1      41.009  30.247  31.764  1.00  0.00    -0.354 N 
ATOM     55  C   UNL A   1      37.106  31.625  30.319  1.00  0.00     0.074 A 
ATOM     56  C   UNL A   1      36.453  30.384  30.636  1.00  0.00     0.031 C 
ATOM     57  C   UNL A   1      42.555  28.670  32.131  1.00  0.00     0.029 A 
ATOM     58  C   UNL A   1      42.008  29.901  32.668  1.00  0.00     0.049 A 
ATOM     59  H   UNL A   1      40.496  31.085  31.827  1.00  0.00     0.167 HD
ATOM     60  C   UNL A   1      36.799  32.917  30.634  1.00  0.00     0.034 A 
ATOM     61  C   UNL A   1      42.388  30.574  33.780  1.00  0.00     0.034 A 
ATOM     62  C   UNL A   1      37.794  33.821  30.103  1.00  0.00     0.049 A 
ATOM     63  C   UNL A   1      41.981  31.983  33.594  1.00  0.00     0.074 A 
ATOM     64  C   UNL A   1      38.222  34.196  28.848  1.00  0.00     0.029 A 
ATOM     65  N   UNL A   1      38.776  34.218  30.981  1.00  0.00    -0.354 N 
ATOM     66  N   UNL A   1      42.453  32.741  32.643  1.00  0.00    -0.248 NA
ATOM     67  C   UNL A   1      40.761  32.470  34.219  1.00  0.00     0.031 C 
ATOM     68  C   UNL A   1      39.625  34.431  28.983  1.00  0.00     0.029 A 
ATOM     69  C   UNL A   1      39.979  34.238  30.320  1.00  0.00     0.049 A 
ATOM     70  H   UNL A   1      38.639  34.449  31.927  1.00  0.00     0.167 HD
ATOM     71  C   UNL A   1      41.384  33.528  32.255  1.00  0.00     0.074 A 
ATOM     72  C   UNL A   1      40.442  33.447  33.364  1.00  0.00     0.031 C 
ATOM     73  C   UNL A   1      41.247  33.926  30.955  1.00  0.00     0.034 A 
BRANCH  60  74
ATOM     74  C   UNL A   1      35.842  33.370  31.728  1.00  0.00     0.023 A 
ATOM     75  C   UNL A   1      34.780  34.222  31.351  1.00  0.00     0.031 A 
ATOM     76  C   UNL A   1      36.061  33.258  33.118  1.00  0.00     0.131 A 
ATOM     77  C   UNL A   1      34.070  34.975  32.305  1.00  0.00     0.055 A 
ATOM     78  C   UNL A   1      35.310  33.960  34.068  1.00  0.00     0.041 A 
ATOM     79  F   UNL A   1      37.062  32.544  33.640  1.00  0.00    -0.206 F 
ATOM     80  C   UNL A   1      34.329  34.849  33.665  1.00  0.00     0.022 A 
BRANCH  77  81
ATOM     81  S   UNL A   1      32.923  36.257  31.729  1.00  0.00     0.124 S 
ATOM     82  O   UNL A   1      32.684  35.847  30.350  1.00  0.00    -0.237 OA
ATOM     83  O   UNL A   1      31.806  36.098  32.654  1.00  0.00    -0.237 OA
ATOM     84  O   UNL A   1      33.689  37.492  31.885  1.00  0.00    -0.744 OA
ENDBRANCH  77  81
ENDBRANCH  60  74
BRANCH  61  85
ATOM     85  C   UNL A   1      42.861  30.000  35.061  1.00  0.00     0.023 A 
ATOM     86  C   UNL A   1      42.406  28.765  35.557  1.00  0.00     0.031 A 
ATOM     87  C   UNL A   1      43.975  30.582  35.706  1.00  0.00     0.131 A 
ATOM     88  C   UNL A   1      43.067  28.155  36.648  1.00  0.00     0.055 A 
ATOM     89  C   UNL A   1      44.621  29.978  36.786  1.00  0.00     0.041 A 
ATOM     90  F   UNL A   1      44.522  31.720  35.248  1.00  0.00    -0.206 F 
ATOM     91  C   UNL A   1      44.175  28.753  37.256  1.00  0.00     0.022 A 
BRANCH  88  92
ATOM     92  S   UNL A   1      42.543  26.510  37.225  1.00  0.00     0.124 S 
ATOM     93  O   UNL A   1      41.104  26.680  37.384  1.00  0.00    -0.237 OA
ATOM     94  O   UNL A   1      42.978  25.644  36.135  1.00  0.00    -0.237 OA
ATOM     95  O   UNL A   1      43.284  26.335  38.476  1.00  0.00    -0.744 OA
ENDBRANCH  88  92
ENDBRANCH  61  85
BRANCH  73  96
ATOM     96  C   UNL A   1      42.472  33.847  30.067  1.00  0.00     0.023 A 
ATOM     97  C   UNL A   1      42.825  32.733  29.270  1.00  0.00     0.031 A 
ATOM     98  C   UNL A   1      43.274  34.995  29.972  1.00  0.00     0.131 A 
ATOM     99  C   UNL A   1      43.954  32.796  28.429  1.00  0.00     0.055 A 
ATOM    100  C   UNL A   1      44.380  35.062  29.125  1.00  0.00     0.041 A 
ATOM    101  F   UNL A   1      42.975  36.094  30.686  1.00  0.00    -0.206 F 
ATOM    102  C   UNL A   1      44.728  33.959  28.355  1.00  0.00     0.022 A 
BRANCH  99 103
ATOM    103  S   UNL A   1      44.446  31.356  27.425  1.00  0.00     0.124 S 
ATOM    104  O   UNL A   1      43.574  30.291  27.903  1.00  0.00    -0.237 OA
ATOM    105  O   UNL A   1      44.201  31.822  26.062  1.00  0.00    -0.237 OA
ATOM    106  O   UNL A   1      45.861  31.179  27.757  1.00  0.00    -0.744 OA
ENDBRANCH  99 103
ENDBRANCH  73  96
ENDBRANCH  47  48
ENDBRANCH  39  42
ENDBRANCH  37  38
ENDBRANCH   1  37
TORSDOF 20
ENDMDL
MODEL 2
REMARK VINA RESULT:     -12.9      2.135      6.418
REMARK SMILES COc1ccc(-c2c(C(=O)NCCCCNC(=O)c3ccc(-c4c5nc(c(-c6cc(S(=O)(=O)[O-])ccc6F)c6ccc([nH]6)c(-c6cc(S(=O)(=O)[O-])ccc6F)c6nc(c(-c7cc(S(=O)(=O)[O-])ccc7F)c7ccc4[nH]7)C=C6)C=C5)cc3)sc3c2N=C(O)C[C@H]3c2ccc(OC)c(OC)c2)cc1
REMARK SMILES IDX 14 1 13 2 12 3 11 4 9 5 10 6 8 8 7 9 84 10 82 11 83 12 85 13
REMARK SMILES IDX 89 14 86 15 88 16 6 17 3 18 4 19 101 20 5 21 100 22 2 23
REMARK SMILES IDX 1 24 90 25 91 26 99 27 92 28 96 29 93 30 97 31 98 32 94 33
REMARK SMILES IDX 95 34 87 35 15 37 16 38 17 39 18 41 19 42 20 43 81 44 21 45
REMARK SMILES IDX 80 46 22 47 23 48 24 49 74 50 25 51 79 52 73 53 75 54 26 55
REMARK SMILES IDX 78 56 72 57 71 58 27 60 59 61 39 62 58 63 40 64 43 65 57 66
REMARK SMILES IDX 76 67 41 68 42 69 56 71 77 72 44 73 28 74 29 75 37 76 30 77
REMARK SMILES IDX 36 78 38 79 35 80 31 81 32 82 33 83 34 84 60 85 61 86 69 87
REMARK SMILES IDX 62 88 68 89 70 90 67 91 63 92 64 93 65 94 66 95 45 96 46 97
REMARK SMILES IDX 54 98 47 99 53 100 55 101 52 102 48 103 49 104 50 105 51 106
REMARK H PARENT 11 7 87 36 16 40 75 59 43 70
REMARK Flexibility Score: inf
ROOT
ATOM      1  C   UNL A   1      38.008  23.174  25.629  1.00  0.00     0.023 C 
ENDROOT
BRANCH   1   2
ATOM      2  C   UNL A   1      36.562  23.413  26.069  1.00  0.00     0.023 C 
BRANCH   2   3
ATOM      3  C   UNL A   1      35.767  22.236  26.626  1.00  0.00     0.116 C 
BRANCH   3   4
ATOM      4  N   UNL A   1      34.542  22.519  27.324  1.00  0.00    -0.351 N 
ATOM      5  C   UNL A   1      33.379  23.114  26.861  1.00  0.00     0.262 C 
ATOM      6  O   UNL A   1      32.489  23.186  27.718  1.00  0.00    -0.268 OA
ATOM      7  H   UNL A   1      34.526  22.250  28.272  1.00  0.00     0.163 HD
BRANCH   5   8
ATOM      8  C   UNL A   1      33.215  23.701  25.517  1.00  0.00     0.102 A 
ATOM      9  C   UNL A   1      32.939  23.240  24.224  1.00  0.00     0.031 A 
ATOM     10  C   UNL A   1      32.951  24.306  23.265  1.00  0.00     0.090 A 
ATOM     11  S   UNL A   1      33.381  25.449  25.481  1.00  0.00    -0.131 S 
ATOM     12  C   UNL A   1      33.174  25.538  23.802  1.00  0.00     0.040 A 
ATOM     13  N   UNL A   1      32.773  24.082  21.894  1.00  0.00    -0.216 NA
ATOM     14  C   UNL A   1      33.262  26.800  23.014  1.00  0.00     0.071 C 
ATOM     15  C   UNL A   1      32.976  25.099  21.130  1.00  0.00     0.186 C 
ATOM     16  C   UNL A   1      33.411  26.489  21.514  1.00  0.00     0.111 C 
BRANCH   9  17
ATOM     17  C   UNL A   1      32.778  21.851  23.823  1.00  0.00    -0.014 A 
ATOM     18  C   UNL A   1      32.547  19.244  22.827  1.00  0.00     0.118 A 
ATOM     19  C   UNL A   1      33.177  19.488  24.055  1.00  0.00     0.047 A 
ATOM     20  C   UNL A   1      31.950  20.298  22.143  1.00  0.00     0.047 A 
ATOM     21  C   UNL A   1      33.312  20.790  24.552  1.00  0.00     0.012 A 
ATOM     22  C   UNL A   1      32.043  21.589  22.653  1.00  0.00     0.012 A 
BRANCH  18  23
ATOM     23  O   UNL A   1      32.575  17.949  22.394  1.00  0.00    -0.497 OA
ATOM     24  C   UNL A   1      33.221  17.011  23.250  1.00  0.00     0.278 C 
ENDBRANCH  18  23
ENDBRANCH   9  17
BRANCH  14  25
ATOM     25  C   UNL A   1      32.109  27.762  23.257  1.00  0.00    -0.035 A 
ATOM     26  C   UNL A   1      30.977  27.786  22.439  1.00  0.00     0.008 A 
ATOM     27  C   UNL A   1      32.195  28.684  24.317  1.00  0.00     0.054 A 
ATOM     28  C   UNL A   1      29.965  28.715  22.680  1.00  0.00     0.051 A 
ATOM     29  C   UNL A   1      31.185  29.627  24.566  1.00  0.00     0.161 A 
ATOM     30  C   UNL A   1      30.052  29.635  23.735  1.00  0.00     0.160 A 
BRANCH  29  31
ATOM     31  O   UNL A   1      31.273  30.562  25.564  1.00  0.00    -0.493 OA
ATOM     32  C   UNL A   1      32.402  30.522  26.426  1.00  0.00     0.278 C 
ENDBRANCH  29  31
BRANCH  30  33
ATOM     33  O   UNL A   1      28.971  30.476  23.783  1.00  0.00    -0.493 OA
ATOM     34  C   UNL A   1      28.493  31.030  22.568  1.00  0.00     0.278 C 
ENDBRANCH  30  33
ENDBRANCH  14  25
BRANCH  15  35
ATOM     35  O   UNL A   1      32.868  24.914  19.797  1.00  0.00    -0.496 OA
ATOM     36  H   UNL A   1      32.068  24.589  19.432  1.00  0.00     0.294 HD
ENDBRANCH  15  35
ENDBRANCH   5   8
ENDBRANCH   3   4
ENDBRANCH   2   3
ENDBRANCH   1   2
BRANCH   1  37
ATOM     37  C   UNL A   1      38.966  22.683  26.708  1.00  0.00     0.116 C 
BRANCH  37  38
ATOM     38  N   UNL A   1      40.352  22.533  26.268  1.00  0.00    -0.352 N 
ATOM     39  C   UNL A   1      41.364  23.487  26.353  1.00  0.00     0.251 C 
ATOM     40  H   UNL A   1      40.596  21.667  25.870  1.00  0.00     0.163 HD
ATOM     41  O   UNL A   1      42.353  23.410  25.650  1.00  0.00    -0.269 OA
BRANCH  39  42
ATOM     42  C   UNL A   1      41.178  24.608  27.303  1.00  0.00     0.039 A 
ATOM     43  C   UNL A   1      42.133  24.911  28.276  1.00  0.00     0.014 A 
ATOM     44  C   UNL A   1      40.069  25.427  27.123  1.00  0.00     0.014 A 
ATOM     45  C   UNL A   1      42.032  26.124  28.963  1.00  0.00     0.010 A 
ATOM     46  C   UNL A   1      40.036  26.671  27.708  1.00  0.00     0.010 A 
ATOM     47  C   UNL A   1      41.008  27.028  28.640  1.00  0.00    -0.014 A 
BRANCH  47  48
ATOM     48  C   UNL A   1      41.047  28.414  29.124  1.00  0.00     0.031 A 
ATOM     49  C   UNL A   1      42.105  29.273  28.517  1.00  0.00     0.074 A 
ATOM     50  C   UNL A   1      40.047  28.994  29.823  1.00  0.00     0.049 A 
ATOM     51  N   UNL A   1      43.120  29.826  29.096  1.00  0.00    -0.248 NA
ATOM     52  C   UNL A   1      42.093  29.452  27.056  1.00  0.00     0.031 C 
ATOM     53  C   UNL A   1      38.765  28.398  30.218  1.00  0.00     0.029 A 
ATOM     54  N   UNL A   1      39.911  30.292  30.219  1.00  0.00    -0.354 N 
ATOM     55  C   UNL A   1      43.749  30.605  28.124  1.00  0.00     0.074 A 
ATOM     56  C   UNL A   1      43.196  30.180  26.866  1.00  0.00     0.031 C 
ATOM     57  C   UNL A   1      37.900  29.373  30.569  1.00  0.00     0.029 A 
ATOM     58  C   UNL A   1      38.623  30.628  30.622  1.00  0.00     0.049 A 
ATOM     59  H   UNL A   1      40.658  30.934  30.219  1.00  0.00     0.167 HD
ATOM     60  C   UNL A   1      44.502  31.692  28.462  1.00  0.00     0.034 A 
ATOM     61  C   UNL A   1      38.164  31.847  30.994  1.00  0.00     0.034 A 
ATOM     62  C   UNL A   1      44.788  31.692  29.878  1.00  0.00     0.049 A 
ATOM     63  C   UNL A   1      39.333  32.634  31.440  1.00  0.00     0.074 A 
ATOM     64  C   UNL A   1      45.499  30.890  30.746  1.00  0.00     0.029 A 
ATOM     65  N   UNL A   1      43.965  32.470  30.659  1.00  0.00    -0.354 N 
ATOM     66  N   UNL A   1      40.069  32.297  32.463  1.00  0.00    -0.248 NA
ATOM     67  C   UNL A   1      39.941  33.598  30.537  1.00  0.00     0.031 C 
ATOM     68  C   UNL A   1      44.776  30.932  31.976  1.00  0.00     0.029 A 
ATOM     69  C   UNL A   1      43.688  31.793  31.820  1.00  0.00     0.049 A 
ATOM     70  H   UNL A   1      43.629  33.364  30.423  1.00  0.00     0.167 HD
ATOM     71  C   UNL A   1      41.358  32.641  32.099  1.00  0.00     0.074 A 
ATOM     72  C   UNL A   1      41.193  33.588  31.004  1.00  0.00     0.031 C 
ATOM     73  C   UNL A   1      42.424  31.903  32.529  1.00  0.00     0.034 A 
BRANCH  60  74
ATOM     74  C   UNL A   1      44.671  32.958  27.634  1.00  0.00     0.023 A 
ATOM     75  C   UNL A   1      43.959  34.106  28.047  1.00  0.00     0.031 A 
ATOM     76  C   UNL A   1      45.239  33.033  26.343  1.00  0.00     0.131 A 
ATOM     77  C   UNL A   1      43.757  35.196  27.179  1.00  0.00     0.055 A 
ATOM     78  C   UNL A   1      45.089  34.146  25.506  1.00  0.00     0.041 A 
ATOM     79  F   UNL A   1      45.890  32.013  25.775  1.00  0.00    -0.206 F 
ATOM     80  C   UNL A   1      44.319  35.222  25.908  1.00  0.00     0.022 A 
BRANCH  77  81
ATOM     81  S   UNL A   1      42.597  36.501  27.672  1.00  0.00     0.124 S 
ATOM     82  O   UNL A   1      43.326  37.159  28.749  1.00  0.00    -0.237 OA
ATOM     83  O   UNL A   1      42.452  37.256  26.432  1.00  0.00    -0.237 OA
ATOM     84  O   UNL A   1      41.409  35.758  28.089  1.00  0.00    -0.744 OA
ENDBRANCH  77  81
ENDBRANCH  60  74
BRANCH  61  85
ATOM     85  C   UNL A   1      36.816  32.412  30.752  1.00  0.00     0.023 A 
ATOM     86  C   UNL A   1      35.968  32.835  31.792  1.00  0.00     0.031 A 
ATOM     87  C   UNL A   1      36.441  32.762  29.435  1.00  0.00     0.131 A 
ATOM     88  C   UNL A   1      34.807  33.585  31.498  1.00  0.00     0.055 A 
ATOM     89  C   UNL A   1      35.292  33.499  29.149  1.00  0.00     0.041 A 
ATOM     90  F   UNL A   1      37.233  32.466  28.391  1.00  0.00    -0.206 F 
ATOM     91  C   UNL A   1      34.474  33.925  30.183  1.00  0.00     0.022 A 
BRANCH  88  92
ATOM     92  S   UNL A   1      33.766  34.220  32.849  1.00  0.00     0.124 S 
ATOM     93  O   UNL A   1      32.885  35.149  32.152  1.00  0.00    -0.237 OA
ATOM     94  O   UNL A   1      33.150  33.004  33.366  1.00  0.00    -0.237 OA
ATOM     95  O   UNL A   1      34.729  34.849  33.755  1.00  0.00    -0.744 OA
ENDBRANCH  88  92
ENDBRANCH  61  85
BRANCH  73  96
ATOM     96  C   UNL A   1      42.208  30.986  33.716  1.00  0.00     0.023 A 
ATOM     97  C   UNL A   1      41.954  29.597  33.632  1.00  0.00     0.031 A 
ATOM     98  C   UNL A   1      42.344  31.547  34.996  1.00  0.00     0.131 A 
ATOM     99  C   UNL A   1      41.835  28.830  34.807  1.00  0.00     0.055 A 
ATOM    100  C   UNL A   1      42.244  30.782  36.157  1.00  0.00     0.041 A 
ATOM    101  F   UNL A   1      42.610  32.857  35.140  1.00  0.00    -0.206 F 
ATOM    102  C   UNL A   1      41.982  29.420  36.067  1.00  0.00     0.022 A 
BRANCH  99 103
ATOM    103  S   UNL A   1      41.469  27.046  34.718  1.00  0.00     0.124 S 
ATOM    104  O   UNL A   1      40.282  26.981  33.874  1.00  0.00    -0.237 OA
ATOM    105  O   UNL A   1      42.695  26.500  34.142  1.00  0.00    -0.237 OA
ATOM    106  O   UNL A   1      41.242  26.676  36.116  1.00  0.00    -0.744 OA
ENDBRANCH  99 103
ENDBRANCH  73  96
ENDBRANCH  47  48
ENDBRANCH  39  42
ENDBRANCH  37  38
ENDBRANCH   1  37
TORSDOF 20
ENDMDL
MODEL 3
REMARK VINA RESULT:     -12.8      3.784      5.292
REMARK SMILES COc1ccc(-c2c(C(=O)NCCCCNC(=O)c3ccc(-c4c5nc(c(-c6cc(S(=O)(=O)[O-])ccc6F)c6ccc([nH]6)c(-c6cc(S(=O)(=O)[O-])ccc6F)c6nc(c(-c7cc(S(=O)(=O)[O-])ccc7F)c7ccc4[nH]7)C=C6)C=C5)cc3)sc3c2N=C(O)C[C@H]3c2ccc(OC)c(OC)c2)cc1
REMARK SMILES IDX 14 1 13 2 12 3 11 4 9 5 10 6 8 8 7 9 84 10 82 11 83 12 85 13
REMARK SMILES IDX 89 14 86 15 88 16 6 17 3 18 4 19 101 20 5 21 100 22 2 23
REMARK SMILES IDX 1 24 90 25 91 26 99 27 92 28 96 29 93 30 97 31 98 32 94 33
REMARK SMILES IDX 95 34 87 35 15 37 16 38 17 39 18 41 19 42 20 43 81 44 21 45
REMARK SMILES IDX 80 46 22 47 23 48 24 49 74 50 25 51 79 52 73 53 75 54 26 55
REMARK SMILES IDX 78 56 72 57 71 58 27 60 59 61 39 62 58 63 40 64 43 65 57 66
REMARK SMILES IDX 76 67 41 68 42 69 56 71 77 72 44 73 28 74 29 75 37 76 30 77
REMARK SMILES IDX 36 78 38 79 35 80 31 81 32 82 33 83 34 84 60 85 61 86 69 87
REMARK SMILES IDX 62 88 68 89 70 90 67 91 63 92 64 93 65 94 66 95 45 96 46 97
REMARK SMILES IDX 54 98 47 99 53 100 55 101 52 102 48 103 49 104 50 105 51 106
REMARK H PARENT 11 7 87 36 16 40 75 59 43 70
REMARK Flexibility Score: inf
ROOT
ATOM      1  C   UNL A   1      37.300  20.961  25.046  1.00  0.00     0.023 C 
ENDROOT
BRANCH   1   2
ATOM      2  C   UNL A   1      36.383  22.164  25.273  1.00  0.00     0.023 C 
BRANCH   2   3
ATOM      3  C   UNL A   1      36.469  23.339  24.302  1.00  0.00     0.116 C 
BRANCH   3   4
ATOM      4  N   UNL A   1      35.870  23.187  23.004  1.00  0.00    -0.351 N 
ATOM      5  C   UNL A   1      34.573  23.453  22.593  1.00  0.00     0.262 C 
ATOM      6  O   UNL A   1      34.385  23.239  21.388  1.00  0.00    -0.268 OA
ATOM      7  H   UNL A   1      36.469  22.843  22.302  1.00  0.00     0.163 HD
BRANCH   5   8
ATOM      8  C   UNL A   1      33.476  23.862  23.492  1.00  0.00     0.102 A 
ATOM      9  C   UNL A   1      32.674  23.261  24.470  1.00  0.00     0.031 A 
ATOM     10  C   UNL A   1      31.702  24.174  24.995  1.00  0.00     0.090 A 
ATOM     11  S   UNL A   1      33.037  25.556  23.349  1.00  0.00    -0.131 S 
ATOM     12  C   UNL A   1      31.785  25.434  24.484  1.00  0.00     0.040 A 
ATOM     13  N   UNL A   1      30.738  23.784  25.934  1.00  0.00    -0.216 NA
ATOM     14  C   UNL A   1      30.871  26.555  24.846  1.00  0.00     0.071 C 
ATOM     15  C   UNL A   1      29.824  24.654  26.192  1.00  0.00     0.186 C 
ATOM     16  C   UNL A   1      29.636  26.023  25.593  1.00  0.00     0.111 C 
BRANCH   9  17
ATOM     17  C   UNL A   1      32.694  21.858  24.854  1.00  0.00    -0.014 A 
ATOM     18  C   UNL A   1      32.856  19.114  25.384  1.00  0.00     0.118 A 
ATOM     19  C   UNL A   1      33.176  20.054  26.373  1.00  0.00     0.047 A 
ATOM     20  C   UNL A   1      32.365  19.551  24.158  1.00  0.00     0.047 A 
ATOM     21  C   UNL A   1      33.114  21.428  26.111  1.00  0.00     0.012 A 
ATOM     22  C   UNL A   1      32.260  20.914  23.907  1.00  0.00     0.012 A 
BRANCH  18  23
ATOM     23  O   UNL A   1      33.061  17.806  25.721  1.00  0.00    -0.497 OA
ATOM     24  C   UNL A   1      33.885  17.049  24.840  1.00  0.00     0.278 C 
ENDBRANCH  18  23
ENDBRANCH   9  17
BRANCH  14  25
ATOM     25  C   UNL A   1      31.544  27.670  25.633  1.00  0.00    -0.035 A 
ATOM     26  C   UNL A   1      32.456  27.409  26.659  1.00  0.00     0.008 A 
ATOM     27  C   UNL A   1      31.213  29.008  25.348  1.00  0.00     0.054 A 
ATOM     28  C   UNL A   1      33.014  28.466  27.377  1.00  0.00     0.051 A 
ATOM     29  C   UNL A   1      31.766  30.080  26.068  1.00  0.00     0.161 A 
ATOM     30  C   UNL A   1      32.683  29.800  27.094  1.00  0.00     0.160 A 
BRANCH  29  31
ATOM     31  O   UNL A   1      31.421  31.386  25.835  1.00  0.00    -0.493 OA
ATOM     32  C   UNL A   1      30.281  31.647  25.027  1.00  0.00     0.278 C 
ENDBRANCH  29  31
BRANCH  30  33
ATOM     33  O   UNL A   1      33.317  30.682  27.930  1.00  0.00    -0.493 OA
ATOM     34  C   UNL A   1      34.234  31.606  27.365  1.00  0.00     0.278 C 
ENDBRANCH  30  33
ENDBRANCH  14  25
BRANCH  15  35
ATOM     35  O   UNL A   1      28.845  24.299  27.051  1.00  0.00    -0.496 OA
ATOM     36  H   UNL A   1      28.379  24.957  27.529  1.00  0.00     0.294 HD
ENDBRANCH  15  35
ENDBRANCH   5   8
ENDBRANCH   3   4
ENDBRANCH   2   3
ENDBRANCH   1   2
BRANCH   1  37
ATOM     37  C   UNL A   1      38.750  21.129  25.487  1.00  0.00     0.116 C 
BRANCH  37  38
ATOM     38  N   UNL A   1      39.487  19.877  25.646  1.00  0.00    -0.352 N 
ATOM     39  C   UNL A   1      40.838  19.736  25.955  1.00  0.00     0.251 C 
ATOM     40  H   UNL A   1      38.974  19.046  25.522  1.00  0.00     0.163 HD
ATOM     41  O   UNL A   1      41.427  18.700  25.710  1.00  0.00    -0.269 OA
BRANCH  39  42
ATOM     42  C   UNL A   1      41.533  20.894  26.561  1.00  0.00     0.039 A 
ATOM     43  C   UNL A   1      42.038  21.936  25.782  1.00  0.00     0.014 A 
ATOM     44  C   UNL A   1      41.566  20.970  27.949  1.00  0.00     0.014 A 
ATOM     45  C   UNL A   1      42.444  23.114  26.414  1.00  0.00     0.010 A 
ATOM     46  C   UNL A   1      41.848  22.168  28.561  1.00  0.00     0.010 A 
ATOM     47  C   UNL A   1      42.300  23.247  27.805  1.00  0.00    -0.014 A 
BRANCH  47  48
ATOM     48  C   UNL A   1      42.435  24.558  28.454  1.00  0.00     0.031 A 
ATOM     49  C   UNL A   1      41.268  25.473  28.294  1.00  0.00     0.074 A 
ATOM     50  C   UNL A   1      43.376  24.843  29.380  1.00  0.00     0.049 A 
ATOM     51  N   UNL A   1      41.218  26.610  27.682  1.00  0.00    -0.248 NA
ATOM     52  C   UNL A   1      39.959  25.014  28.786  1.00  0.00     0.031 C 
ATOM     53  C   UNL A   1      44.405  23.947  29.921  1.00  0.00     0.029 A 
ATOM     54  N   UNL A   1      43.528  25.969  30.136  1.00  0.00    -0.354 N 
ATOM     55  C   UNL A   1      39.937  27.118  27.902  1.00  0.00     0.074 A 
ATOM     56  C   UNL A   1      39.163  26.016  28.409  1.00  0.00     0.031 C 
ATOM     57  C   UNL A   1      44.903  24.464  31.064  1.00  0.00     0.029 A 
ATOM     58  C   UNL A   1      44.384  25.809  31.221  1.00  0.00     0.049 A 
ATOM     59  H   UNL A   1      43.073  26.818  29.933  1.00  0.00     0.167 HD
ATOM     60  C   UNL A   1      39.687  28.459  27.864  1.00  0.00     0.034 A 
ATOM     61  C   UNL A   1      44.675  26.713  32.187  1.00  0.00     0.034 A 
ATOM     62  C   UNL A   1      40.800  29.167  27.275  1.00  0.00     0.049 A 
ATOM     63  C   UNL A   1      44.394  28.052  31.626  1.00  0.00     0.074 A 
ATOM     64  C   UNL A   1      41.402  29.213  26.036  1.00  0.00     0.029 A 
ATOM     65  N   UNL A   1      41.695  29.723  28.160  1.00  0.00    -0.354 N 
ATOM     66  N   UNL A   1      45.030  28.539  30.597  1.00  0.00    -0.248 NA
ATOM     67  C   UNL A   1      43.146  28.724  31.951  1.00  0.00     0.031 C 
ATOM     68  C   UNL A   1      42.791  29.416  26.299  1.00  0.00     0.029 A 
ATOM     69  C   UNL A   1      42.967  29.535  27.679  1.00  0.00     0.049 A 
ATOM     70  H   UNL A   1      41.462  30.180  28.999  1.00  0.00     0.167 HD
ATOM     71  C   UNL A   1      44.075  29.253  29.896  1.00  0.00     0.074 A 
ATOM     72  C   UNL A   1      43.003  29.480  30.858  1.00  0.00     0.031 C 
ATOM     73  C   UNL A   1      44.124  29.333  28.533  1.00  0.00     0.034 A 
BRANCH  60  74
ATOM     74  C   UNL A   1      38.639  29.199  28.684  1.00  0.00     0.023 A 
ATOM     75  C   UNL A   1      38.862  29.311  30.075  1.00  0.00     0.031 A 
ATOM     76  C   UNL A   1      37.339  29.540  28.252  1.00  0.00     0.131 A 
ATOM     77  C   UNL A   1      37.819  29.644  30.960  1.00  0.00     0.055 A 
ATOM     78  C   UNL A   1      36.321  29.932  29.129  1.00  0.00     0.041 A 
ATOM     79  F   UNL A   1      36.944  29.429  26.980  1.00  0.00    -0.206 F 
ATOM     80  C   UNL A   1      36.547  29.955  30.494  1.00  0.00     0.022 A 
BRANCH  77  81
ATOM     81  S   UNL A   1      38.104  29.487  32.744  1.00  0.00     0.124 S 
ATOM     82  O   UNL A   1      37.442  28.223  33.044  1.00  0.00    -0.237 OA
ATOM     83  O   UNL A   1      39.562  29.487  32.816  1.00  0.00    -0.237 OA
ATOM     84  O   UNL A   1      37.455  30.675  33.296  1.00  0.00    -0.744 OA
ENDBRANCH  77  81
ENDBRANCH  60  74
BRANCH  61  85
ATOM     85  C   UNL A   1      44.948  26.444  33.617  1.00  0.00     0.023 A 
ATOM     86  C   UNL A   1      43.979  26.610  34.624  1.00  0.00     0.031 A 
ATOM     87  C   UNL A   1      46.141  25.778  33.977  1.00  0.00     0.131 A 
ATOM     88  C   UNL A   1      44.217  26.109  35.924  1.00  0.00     0.055 A 
ATOM     89  C   UNL A   1      46.374  25.289  35.263  1.00  0.00     0.041 A 
ATOM     90  F   UNL A   1      47.085  25.509  33.059  1.00  0.00    -0.206 F 
ATOM     91  C   UNL A   1      45.405  25.443  36.242  1.00  0.00     0.022 A 
BRANCH  88  92
ATOM     92  S   UNL A   1      42.923  26.232  37.198  1.00  0.00     0.124 S 
ATOM     93  O   UNL A   1      42.204  24.974  37.033  1.00  0.00    -0.237 OA
ATOM     94  O   UNL A   1      43.702  26.379  38.422  1.00  0.00    -0.237 OA
ATOM     95  O   UNL A   1      42.171  27.425  36.806  1.00  0.00    -0.744 OA
ENDBRANCH  88  92
ENDBRANCH  61  85
BRANCH  73  96
ATOM     96  C   UNL A   1      45.439  28.993  27.860  1.00  0.00     0.023 A 
ATOM     97  C   UNL A   1      45.755  27.740  27.286  1.00  0.00     0.031 A 
ATOM     98  C   UNL A   1      46.382  30.026  27.731  1.00  0.00     0.131 A 
ATOM     99  C   UNL A   1      46.986  27.558  26.625  1.00  0.00     0.055 A 
ATOM    100  C   UNL A   1      47.591  29.848  27.060  1.00  0.00     0.041 A 
ATOM    101  F   UNL A   1      46.127  31.246  28.234  1.00  0.00    -0.206 F 
ATOM    102  C   UNL A   1      47.901  28.610  26.510  1.00  0.00     0.022 A 
BRANCH  99 103
ATOM    103  S   UNL A   1      47.427  25.938  25.914  1.00  0.00     0.124 S 
ATOM    104  O   UNL A   1      46.636  25.873  24.692  1.00  0.00    -0.237 OA
ATOM    105  O   UNL A   1      48.872  26.053  25.736  1.00  0.00    -0.237 OA
ATOM    106  O   UNL A   1      47.020  24.990  26.953  1.00  0.00    -0.744 OA
ENDBRANCH  99 103
ENDBRANCH  73  96
ENDBRANCH  47  48
ENDBRANCH  39  42
ENDBRANCH  37  38
ENDBRANCH   1  37
TORSDOF 20
ENDMDL
