MODEL 1
REMARK VINA RESULT:     -10.0      0.000      0.000
REMARK SMILES O=C(CN1C(=O)/C(=C2/Sc3ccccc3N2CCCS(=O)(=O)[O-])SC1=S)NCCCCNC(=O)c1ccc(-c2c3nc(c(-c4cc(S(=O)(=O)[O-])ccc4F)c4ccc([nH]4)c(-c4cc(S(=O)(=O)[O-])ccc4F)c4nc(c(-c5cc(S(=O)(=O)[O-])ccc5F)c5ccc2[nH]5)C=C4)C=C3)cc1
REMARK SMILES IDX 28 1 27 2 1 3 2 4 3 6 4 7 5 8 25 9 6 10 7 11 24 12 26 13
REMARK SMILES IDX 8 14 9 15 16 16 10 17 15 18 11 19 14 20 12 21 13 22 17 23
REMARK SMILES IDX 18 24 19 25 20 26 21 27 22 28 23 29 29 30 30 31 31 32 32 33
REMARK SMILES IDX 33 34 34 36 35 37 36 38 97 39 37 40 96 41 38 42 39 43 40 44
REMARK SMILES IDX 90 45 41 46 95 47 89 48 91 49 42 50 94 51 88 52 87 53 43 55
REMARK SMILES IDX 75 56 55 57 74 58 56 59 59 60 73 61 92 62 57 63 58 64 72 66
REMARK SMILES IDX 93 67 60 68 44 69 45 70 53 71 46 72 52 73 54 74 51 75 47 76
REMARK SMILES IDX 48 77 49 78 50 79 76 80 77 81 85 82 78 83 84 84 86 85 83 86
REMARK SMILES IDX 79 87 80 88 81 89 82 90 61 91 62 92 70 93 63 94 69 95 71 96
REMARK SMILES IDX 68 97 64 98 65 99 66 100 67 101
REMARK H PARENT 27 5 32 35 91 54 59 65
REMARK Flexibility Score: inf
ROOT
ATOM      1  C   UNL A   1      37.311  33.479  36.680  1.00  0.00     0.116 C 
ENDROOT
BRANCH   1   2
ATOM      2  N   UNL A   1      37.740  33.686  35.271  1.00  0.00    -0.355 N 
ATOM      3  O   UNL A   1      35.691  33.135  34.380  1.00  0.00    -0.273 OA
ATOM      4  C   UNL A   1      36.844  33.533  34.189  1.00  0.00     0.240 C 
ATOM      5  H   UNL A   1      38.674  33.937  35.086  1.00  0.00     0.163 HD
BRANCH   4   6
ATOM      6  C   UNL A   1      37.314  33.918  32.722  1.00  0.00     0.227 C 
BRANCH   6   7
ATOM      7  N   UNL A   1      37.325  32.781  31.722  1.00  0.00    -0.283 N 
ATOM      8  C   UNL A   1      37.024  32.993  30.401  1.00  0.00     0.269 C 
ATOM      9  C   UNL A   1      38.010  31.594  31.827  1.00  0.00     0.148 C 
ATOM     10  O   UNL A   1      37.305  34.018  29.802  1.00  0.00    -0.268 OA
ATOM     11  C   UNL A   1      36.627  31.754  29.691  1.00  0.00     0.111 C 
ATOM     12  S   UNL A   1      37.682  30.564  30.401  1.00  0.00    -0.052 SA
ATOM     13  S   UNL A   1      39.089  31.125  33.008  1.00  0.00    -0.052 S 
ATOM     14  C   UNL A   1      35.604  31.551  28.813  1.00  0.00     0.100 C 
ATOM     15  S   UNL A   1      35.530  29.933  27.955  1.00  0.00    -0.068 SA
ATOM     16  N   UNL A   1      34.493  32.357  28.432  1.00  0.00    -0.334 N 
ATOM     17  C   UNL A   1      33.992  30.403  27.184  1.00  0.00     0.037 A 
ATOM     18  C   UNL A   1      33.543  31.648  27.639  1.00  0.00     0.056 A 
ATOM     19  C   UNL A   1      33.279  29.692  26.227  1.00  0.00     0.017 A 
ATOM     20  C   UNL A   1      32.271  32.095  27.263  1.00  0.00     0.027 A 
ATOM     21  C   UNL A   1      32.045  30.188  25.791  1.00  0.00     0.001 A 
ATOM     22  C   UNL A   1      31.524  31.363  26.337  1.00  0.00     0.002 A 
BRANCH  16  23
ATOM     23  C   UNL A   1      34.418  33.801  28.222  1.00  0.00     0.124 C 
BRANCH  23  24
ATOM     24  C   UNL A   1      33.389  34.447  29.126  1.00  0.00     0.037 C 
BRANCH  24  25
ATOM     25  C   UNL A   1      33.971  34.770  30.461  1.00  0.00     0.124 C 
BRANCH  25  26
ATOM     26  S   UNL A   1      32.996  35.805  31.558  1.00  0.00     0.095 S 
ATOM     27  O   UNL A   1      32.431  36.859  30.781  1.00  0.00    -0.243 OA
ATOM     28  O   UNL A   1      32.159  34.974  32.411  1.00  0.00    -0.243 OA
ATOM     29  O   UNL A   1      34.077  36.552  32.474  1.00  0.00    -0.748 OA
ENDBRANCH  25  26
ENDBRANCH  24  25
ENDBRANCH  23  24
ENDBRANCH  16  23
ENDBRANCH   6   7
ENDBRANCH   4   6
ENDBRANCH   1   2
BRANCH   1  30
ATOM     30  C   UNL A   1      38.333  33.261  37.830  1.00  0.00     0.023 C 
BRANCH  30  31
ATOM     31  C   UNL A   1      38.514  34.266  38.990  1.00  0.00     0.023 C 
BRANCH  31  32
ATOM     32  C   UNL A   1      39.861  34.368  39.719  1.00  0.00     0.116 C 
BRANCH  32  33
ATOM     33  N   UNL A   1      40.582  35.631  39.783  1.00  0.00    -0.352 N 
ATOM     34  C   UNL A   1      41.185  36.343  38.749  1.00  0.00     0.251 C 
ATOM     35  H   UNL A   1      40.652  36.036  40.678  1.00  0.00     0.163 HD
ATOM     36  O   UNL A   1      41.510  37.513  38.949  1.00  0.00    -0.269 OA
BRANCH  34  37
ATOM     37  C   UNL A   1      41.542  35.714  37.441  1.00  0.00     0.039 A 
ATOM     38  C   UNL A   1      40.677  35.646  36.349  1.00  0.00     0.014 A 
ATOM     39  C   UNL A   1      42.828  35.179  37.300  1.00  0.00     0.014 A 
ATOM     40  C   UNL A   1      40.999  34.864  35.228  1.00  0.00     0.010 A 
ATOM     41  C   UNL A   1      43.183  34.464  36.145  1.00  0.00     0.010 A 
ATOM     42  C   UNL A   1      42.246  34.229  35.126  1.00  0.00    -0.014 A 
BRANCH  42  43
ATOM     43  C   UNL A   1      42.559  33.302  33.992  1.00  0.00     0.031 A 
ATOM     44  C   UNL A   1      42.784  33.844  32.598  1.00  0.00     0.074 A 
ATOM     45  C   UNL A   1      42.646  31.971  34.191  1.00  0.00     0.049 A 
ATOM     46  N   UNL A   1      43.058  33.197  31.491  1.00  0.00    -0.248 NA
ATOM     47  C   UNL A   1      42.681  35.300  32.421  1.00  0.00     0.031 C 
ATOM     48  C   UNL A   1      42.450  31.308  35.477  1.00  0.00     0.029 A 
ATOM     49  N   UNL A   1      42.919  30.939  33.321  1.00  0.00    -0.354 N 
ATOM     50  C   UNL A   1      43.126  34.160  30.487  1.00  0.00     0.074 A 
ATOM     51  C   UNL A   1      42.835  35.432  31.111  1.00  0.00     0.031 C 
ATOM     52  C   UNL A   1      42.643  29.990  35.323  1.00  0.00     0.029 A 
ATOM     53  C   UNL A   1      42.914  29.698  33.915  1.00  0.00     0.049 A 
ATOM     54  H   UNL A   1      43.101  31.077  32.363  1.00  0.00     0.167 HD
ATOM     55  C   UNL A   1      43.418  34.003  29.172  1.00  0.00     0.034 A 
ATOM     56  C   UNL A   1      43.090  28.462  33.397  1.00  0.00     0.034 A 
ATOM     57  C   UNL A   1      43.740  32.735  28.562  1.00  0.00     0.049 A 
ATOM     58  C   UNL A   1      43.392  28.304  31.928  1.00  0.00     0.074 A 
ATOM     59  C   UNL A   1      44.129  32.496  27.254  1.00  0.00     0.029 A 
ATOM     60  N   UNL A   1      43.703  31.502  29.194  1.00  0.00    -0.354 N 
ATOM     61  N   UNL A   1      43.540  29.234  31.014  1.00  0.00    -0.248 NA
ATOM     62  C   UNL A   1      43.560  26.936  31.416  1.00  0.00     0.031 C 
ATOM     63  C   UNL A   1      44.228  31.118  27.071  1.00  0.00     0.029 A 
ATOM     64  C   UNL A   1      44.010  30.496  28.290  1.00  0.00     0.049 A 
ATOM     65  H   UNL A   1      43.490  31.360  30.145  1.00  0.00     0.167 HD
ATOM     66  C   UNL A   1      43.840  28.566  29.828  1.00  0.00     0.074 A 
ATOM     67  C   UNL A   1      43.877  27.154  30.146  1.00  0.00     0.031 C 
ATOM     68  C   UNL A   1      44.064  29.084  28.594  1.00  0.00     0.034 A 
BRANCH  55  69
ATOM     69  C   UNL A   1      43.413  35.216  28.267  1.00  0.00     0.023 A 
ATOM     70  C   UNL A   1      44.630  35.854  27.950  1.00  0.00     0.031 A 
ATOM     71  C   UNL A   1      42.218  35.830  27.849  1.00  0.00     0.131 A 
ATOM     72  C   UNL A   1      44.623  37.082  27.276  1.00  0.00     0.055 A 
ATOM     73  C   UNL A   1      42.220  37.026  27.129  1.00  0.00     0.041 A 
ATOM     74  F   UNL A   1      41.029  35.274  28.134  1.00  0.00    -0.206 F 
ATOM     75  C   UNL A   1      43.424  37.666  26.854  1.00  0.00     0.022 A 
BRANCH  72  76
ATOM     76  S   UNL A   1      46.155  38.013  27.003  1.00  0.00     0.124 S 
ATOM     77  O   UNL A   1      46.758  37.279  25.893  1.00  0.00    -0.237 OA
ATOM     78  O   UNL A   1      45.649  39.342  26.670  1.00  0.00    -0.237 OA
ATOM     79  O   UNL A   1      46.861  37.908  28.275  1.00  0.00    -0.744 OA
ENDBRANCH  72  76
ENDBRANCH  55  69
BRANCH  56  80
ATOM     80  C   UNL A   1      43.045  27.287  34.320  1.00  0.00     0.023 A 
ATOM     81  C   UNL A   1      44.230  26.712  34.815  1.00  0.00     0.031 A 
ATOM     82  C   UNL A   1      41.830  26.639  34.598  1.00  0.00     0.131 A 
ATOM     83  C   UNL A   1      44.181  25.474  35.471  1.00  0.00     0.055 A 
ATOM     84  C   UNL A   1      41.780  25.449  35.326  1.00  0.00     0.041 A 
ATOM     85  F   UNL A   1      40.674  27.146  34.142  1.00  0.00    -0.206 F 
ATOM     86  C   UNL A   1      42.962  24.848  35.745  1.00  0.00     0.022 A 
BRANCH  83  87
ATOM     87  S   UNL A   1      45.706  24.563  35.842  1.00  0.00     0.124 S 
ATOM     88  O   UNL A   1      46.737  25.494  35.396  1.00  0.00    -0.237 OA
ATOM     89  O   UNL A   1      45.596  24.388  37.290  1.00  0.00    -0.237 OA
ATOM     90  O   UNL A   1      45.577  23.340  35.058  1.00  0.00    -0.744 OA
ENDBRANCH  83  87
ENDBRANCH  56  80
BRANCH  68  91
ATOM     91  C   UNL A   1      44.385  28.151  27.446  1.00  0.00     0.023 A 
ATOM     92  C   UNL A   1      45.728  27.929  27.077  1.00  0.00     0.031 A 
ATOM     93  C   UNL A   1      43.379  27.630  26.613  1.00  0.00     0.131 A 
ATOM     94  C   UNL A   1      46.027  27.263  25.881  1.00  0.00     0.055 A 
ATOM     95  C   UNL A   1      43.682  26.915  25.453  1.00  0.00     0.041 A 
ATOM     96  F   UNL A   1      42.083  27.822  26.907  1.00  0.00    -0.206 F 
ATOM     97  C   UNL A   1      45.011  26.745  25.072  1.00  0.00     0.022 A 
BRANCH  94  98
ATOM     98  S   UNL A   1      47.734  27.144  25.277  1.00  0.00     0.124 S 
ATOM     99  O   UNL A   1      48.117  28.550  25.172  1.00  0.00    -0.237 OA
ATOM    100  O   UNL A   1      48.388  26.400  26.351  1.00  0.00    -0.237 OA
ATOM    101  O   UNL A   1      47.610  26.437  24.007  1.00  0.00    -0.744 OA
ENDBRANCH  94  98
ENDBRANCH  68  91
ENDBRANCH  42  43
ENDBRANCH  34  37
ENDBRANCH  32  33
ENDBRANCH  31  32
ENDBRANCH  30  31
ENDBRANCH   1  30
TORSDOF 19
ENDMDL
MODEL 2
REMARK VINA RESULT:      -9.9      5.158     10.995
REMARK SMILES O=C(CN1C(=O)/C(=C2/Sc3ccccc3N2CCCS(=O)(=O)[O-])SC1=S)NCCCCNC(=O)c1ccc(-c2c3nc(c(-c4cc(S(=O)(=O)[O-])ccc4F)c4ccc([nH]4)c(-c4cc(S(=O)(=O)[O-])ccc4F)c4nc(c(-c5cc(S(=O)(=O)[O-])ccc5F)c5ccc2[nH]5)C=C4)C=C3)cc1
REMARK SMILES IDX 28 1 27 2 1 3 2 4 3 6 4 7 5 8 25 9 6 10 7 11 24 12 26 13
REMARK SMILES IDX 8 14 9 15 16 16 10 17 15 18 11 19 14 20 12 21 13 22 17 23
REMARK SMILES IDX 18 24 19 25 20 26 21 27 22 28 23 29 29 30 30 31 31 32 32 33
REMARK SMILES IDX 33 34 34 36 35 37 36 38 97 39 37 40 96 41 38 42 39 43 40 44
REMARK SMILES IDX 90 45 41 46 95 47 89 48 91 49 42 50 94 51 88 52 87 53 43 55
REMARK SMILES IDX 75 56 55 57 74 58 56 59 59 60 73 61 92 62 57 63 58 64 72 66
REMARK SMILES IDX 93 67 60 68 44 69 45 70 53 71 46 72 52 73 54 74 51 75 47 76
REMARK SMILES IDX 48 77 49 78 50 79 76 80 77 81 85 82 78 83 84 84 86 85 83 86
REMARK SMILES IDX 79 87 80 88 81 89 82 90 61 91 62 92 70 93 63 94 69 95 71 96
REMARK SMILES IDX 68 97 64 98 65 99 66 100 67 101
REMARK H PARENT 27 5 32 35 91 54 59 65
REMARK Flexibility Score: inf
ROOT
ATOM      1  C   UNL A   1      38.950  21.820  26.126  1.00  0.00     0.116 C 
ENDROOT
BRANCH   1   2
ATOM      2  N   UNL A   1      38.004  22.453  25.168  1.00  0.00    -0.355 N 
ATOM      3  O   UNL A   1      37.403  20.467  24.175  1.00  0.00    -0.273 OA
ATOM      4  C   UNL A   1      37.240  21.687  24.259  1.00  0.00     0.240 C 
ATOM      5  H   UNL A   1      37.906  23.433  25.167  1.00  0.00     0.163 HD
BRANCH   4   6
ATOM      6  C   UNL A   1      36.134  22.401  23.370  1.00  0.00     0.227 C 
BRANCH   6   7
ATOM      7  N   UNL A   1      34.854  22.768  24.093  1.00  0.00    -0.283 N 
ATOM      8  C   UNL A   1      34.119  23.865  23.722  1.00  0.00     0.269 C 
ATOM      9  C   UNL A   1      34.048  21.929  24.824  1.00  0.00     0.148 C 
ATOM     10  O   UNL A   1      34.019  24.251  22.570  1.00  0.00    -0.268 OA
ATOM     11  C   UNL A   1      33.203  24.335  24.789  1.00  0.00     0.111 C 
ATOM     12  S   UNL A   1      32.665  22.840  25.503  1.00  0.00    -0.052 SA
ATOM     13  S   UNL A   1      34.186  20.280  25.026  1.00  0.00    -0.052 S 
ATOM     14  C   UNL A   1      32.948  25.605  25.211  1.00  0.00     0.100 C 
ATOM     15  S   UNL A   1      31.590  25.843  26.418  1.00  0.00    -0.068 SA
ATOM     16  N   UNL A   1      33.576  26.853  24.931  1.00  0.00    -0.334 N 
ATOM     17  C   UNL A   1      31.977  27.581  26.525  1.00  0.00     0.037 A 
ATOM     18  C   UNL A   1      33.113  27.906  25.775  1.00  0.00     0.056 A 
ATOM     19  C   UNL A   1      31.276  28.557  27.222  1.00  0.00     0.017 A 
ATOM     20  C   UNL A   1      33.654  29.192  25.877  1.00  0.00     0.027 A 
ATOM     21  C   UNL A   1      31.778  29.863  27.250  1.00  0.00     0.001 A 
ATOM     22  C   UNL A   1      32.984  30.171  26.615  1.00  0.00     0.002 A 
BRANCH  16  23
ATOM     23  C   UNL A   1      34.132  27.355  23.678  1.00  0.00     0.124 C 
BRANCH  23  24
ATOM     24  C   UNL A   1      33.087  27.410  22.583  1.00  0.00     0.037 C 
BRANCH  24  25
ATOM     25  C   UNL A   1      32.459  28.762  22.504  1.00  0.00     0.124 C 
BRANCH  25  26
ATOM     26  S   UNL A   1      30.701  28.877  22.853  1.00  0.00     0.095 S 
ATOM     27  O   UNL A   1      30.535  29.702  24.004  1.00  0.00    -0.243 OA
ATOM     28  O   UNL A   1      29.969  29.151  21.626  1.00  0.00    -0.243 OA
ATOM     29  O   UNL A   1      30.298  27.418  23.374  1.00  0.00    -0.748 OA
ENDBRANCH  25  26
ENDBRANCH  24  25
ENDBRANCH  23  24
ENDBRANCH  16  23
ENDBRANCH   6   7
ENDBRANCH   4   6
ENDBRANCH   1   2
BRANCH   1  30
ATOM     30  C   UNL A   1      40.011  22.646  26.905  1.00  0.00     0.023 C 
BRANCH  30  31
ATOM     31  C   UNL A   1      41.087  21.992  27.800  1.00  0.00     0.023 C 
BRANCH  31  32
ATOM     32  C   UNL A   1      42.436  21.569  27.201  1.00  0.00     0.116 C 
BRANCH  32  33
ATOM     33  N   UNL A   1      42.765  21.871  25.816  1.00  0.00    -0.352 N 
ATOM     34  C   UNL A   1      43.194  23.077  25.267  1.00  0.00     0.251 C 
ATOM     35  H   UNL A   1      42.672  21.123  25.183  1.00  0.00     0.163 HD
ATOM     36  O   UNL A   1      43.678  23.071  24.135  1.00  0.00    -0.269 OA
BRANCH  34  37
ATOM     37  C   UNL A   1      42.999  24.390  25.955  1.00  0.00     0.039 A 
ATOM     38  C   UNL A   1      42.344  25.478  25.380  1.00  0.00     0.014 A 
ATOM     39  C   UNL A   1      43.488  24.526  27.259  1.00  0.00     0.014 A 
ATOM     40  C   UNL A   1      42.377  26.740  25.995  1.00  0.00     0.010 A 
ATOM     41  C   UNL A   1      43.450  25.769  27.912  1.00  0.00     0.010 A 
ATOM     42  C   UNL A   1      42.966  26.912  27.258  1.00  0.00    -0.014 A 
BRANCH  42  43
ATOM     43  C   UNL A   1      43.108  28.270  27.874  1.00  0.00     0.031 A 
ATOM     44  C   UNL A   1      41.934  28.926  28.566  1.00  0.00     0.074 A 
ATOM     45  C   UNL A   1      44.282  28.931  27.824  1.00  0.00     0.049 A 
ATOM     46  N   UNL A   1      41.864  30.097  29.150  1.00  0.00    -0.248 NA
ATOM     47  C   UNL A   1      40.671  28.172  28.600  1.00  0.00     0.031 C 
ATOM     48  C   UNL A   1      45.496  28.425  27.188  1.00  0.00     0.029 A 
ATOM     49  N   UNL A   1      44.650  30.165  28.311  1.00  0.00    -0.354 N 
ATOM     50  C   UNL A   1      40.550  30.233  29.589  1.00  0.00     0.074 A 
ATOM     51  C   UNL A   1      39.848  29.038  29.177  1.00  0.00     0.031 C 
ATOM     52  C   UNL A   1      46.481  29.320  27.353  1.00  0.00     0.029 A 
ATOM     53  C   UNL A   1      45.960  30.496  28.051  1.00  0.00     0.049 A 
ATOM     54  H   UNL A   1      44.032  30.756  28.801  1.00  0.00     0.167 HD
ATOM     55  C   UNL A   1      39.983  31.251  30.284  1.00  0.00     0.034 A 
ATOM     56  C   UNL A   1      46.668  31.615  28.323  1.00  0.00     0.034 A 
ATOM     57  C   UNL A   1      40.696  32.426  30.721  1.00  0.00     0.049 A 
ATOM     58  C   UNL A   1      46.014  32.747  29.076  1.00  0.00     0.074 A 
ATOM     59  C   UNL A   1      40.220  33.468  31.500  1.00  0.00     0.029 A 
ATOM     60  N   UNL A   1      42.014  32.730  30.418  1.00  0.00    -0.354 N 
ATOM     61  N   UNL A   1      44.796  32.819  29.559  1.00  0.00    -0.248 NA
ATOM     62  C   UNL A   1      46.826  33.946  29.331  1.00  0.00     0.031 C 
ATOM     63  C   UNL A   1      41.213  34.442  31.583  1.00  0.00     0.029 A 
ATOM     64  C   UNL A   1      42.350  33.966  30.951  1.00  0.00     0.049 A 
ATOM     65  H   UNL A   1      42.624  32.154  29.901  1.00  0.00     0.167 HD
ATOM     66  C   UNL A   1      44.703  34.056  30.193  1.00  0.00     0.074 A 
ATOM     67  C   UNL A   1      45.998  34.690  30.054  1.00  0.00     0.031 C 
ATOM     68  C   UNL A   1      43.640  34.607  30.831  1.00  0.00     0.034 A 
BRANCH  55  69
ATOM     69  C   UNL A   1      38.512  31.173  30.634  1.00  0.00     0.023 A 
ATOM     70  C   UNL A   1      37.582  31.946  29.909  1.00  0.00     0.031 A 
ATOM     71  C   UNL A   1      38.049  30.470  31.761  1.00  0.00     0.131 A 
ATOM     72  C   UNL A   1      36.252  32.032  30.343  1.00  0.00     0.055 A 
ATOM     73  C   UNL A   1      36.711  30.515  32.156  1.00  0.00     0.041 A 
ATOM     74  F   UNL A   1      38.893  29.728  32.496  1.00  0.00    -0.206 F 
ATOM     75  C   UNL A   1      35.810  31.311  31.457  1.00  0.00     0.022 A 
BRANCH  72  76
ATOM     76  S   UNL A   1      35.071  33.149  29.539  1.00  0.00     0.124 S 
ATOM     77  O   UNL A   1      34.152  33.451  30.633  1.00  0.00    -0.237 OA
ATOM     78  O   UNL A   1      35.932  34.254  29.124  1.00  0.00    -0.237 OA
ATOM     79  O   UNL A   1      34.509  32.348  28.458  1.00  0.00    -0.744 OA
ENDBRANCH  72  76
ENDBRANCH  55  69
BRANCH  56  80
ATOM     80  C   UNL A   1      48.106  31.667  27.922  1.00  0.00     0.023 A 
ATOM     81  C   UNL A   1      49.090  31.002  28.675  1.00  0.00     0.031 A 
ATOM     82  C   UNL A   1      48.528  32.498  26.870  1.00  0.00     0.131 A 
ATOM     83  C   UNL A   1      50.446  31.262  28.433  1.00  0.00     0.055 A 
ATOM     84  C   UNL A   1      49.880  32.686  26.578  1.00  0.00     0.041 A 
ATOM     85  F   UNL A   1      47.627  33.158  26.126  1.00  0.00    -0.206 F 
ATOM     86  C   UNL A   1      50.847  32.086  27.377  1.00  0.00     0.022 A 
BRANCH  83  87
ATOM     87  S   UNL A   1      51.722  30.669  29.578  1.00  0.00     0.124 S 
ATOM     88  O   UNL A   1      52.251  31.915  30.122  1.00  0.00    -0.237 OA
ATOM     89  O   UNL A   1      50.930  29.861  30.505  1.00  0.00    -0.237 OA
ATOM     90  O   UNL A   1      52.633  29.917  28.721  1.00  0.00    -0.744 OA
ENDBRANCH  83  87
ENDBRANCH  56  80
BRANCH  68  91
ATOM     91  C   UNL A   1      43.782  35.977  31.459  1.00  0.00     0.023 A 
ATOM     92  C   UNL A   1      43.707  37.131  30.650  1.00  0.00     0.031 A 
ATOM     93  C   UNL A   1      44.166  36.139  32.801  1.00  0.00     0.131 A 
ATOM     94  C   UNL A   1      44.069  38.380  31.172  1.00  0.00     0.055 A 
ATOM     95  C   UNL A   1      44.468  37.394  33.334  1.00  0.00     0.041 A 
ATOM     96  F   UNL A   1      44.267  35.075  33.614  1.00  0.00    -0.206 F 
ATOM     97  C   UNL A   1      44.440  38.519  32.513  1.00  0.00     0.022 A 
BRANCH  94  98
ATOM     98  S   UNL A   1      44.183  39.844  30.106  1.00  0.00     0.124 S 
ATOM     99  O   UNL A   1      43.005  39.690  29.255  1.00  0.00    -0.237 OA
ATOM    100  O   UNL A   1      44.112  40.934  31.075  1.00  0.00    -0.237 OA
ATOM    101  O   UNL A   1      45.465  39.687  29.427  1.00  0.00    -0.744 OA
ENDBRANCH  94  98
ENDBRANCH  68  91
ENDBRANCH  42  43
ENDBRANCH  34  37
ENDBRANCH  32  33
ENDBRANCH  31  32
ENDBRANCH  30  31
ENDBRANCH   1  30
TORSDOF 19
ENDMDL
MODEL 3
REMARK VINA RESULT:      -9.8      6.042     13.556
REMARK SMILES O=C(CN1C(=O)/C(=C2/Sc3ccccc3N2CCCS(=O)(=O)[O-])SC1=S)NCCCCNC(=O)c1ccc(-c2c3nc(c(-c4cc(S(=O)(=O)[O-])ccc4F)c4ccc([nH]4)c(-c4cc(S(=O)(=O)[O-])ccc4F)c4nc(c(-c5cc(S(=O)(=O)[O-])ccc5F)c5ccc2[nH]5)C=C4)C=C3)cc1
REMARK SMILES IDX 28 1 27 2 1 3 2 4 3 6 4 7 5 8 25 9 6 10 7 11 24 12 26 13
REMARK SMILES IDX 8 14 9 15 16 16 10 17 15 18 11 19 14 20 12 21 13 22 17 23
REMARK SMILES IDX 18 24 19 25 20 26 21 27 22 28 23 29 29 30 30 31 31 32 32 33
REMARK SMILES IDX 33 34 34 36 35 37 36 38 97 39 37 40 96 41 38 42 39 43 40 44
REMARK SMILES IDX 90 45 41 46 95 47 89 48 91 49 42 50 94 51 88 52 87 53 43 55
REMARK SMILES IDX 75 56 55 57 74 58 56 59 59 60 73 61 92 62 57 63 58 64 72 66
REMARK SMILES IDX 93 67 60 68 44 69 45 70 53 71 46 72 52 73 54 74 51 75 47 76
REMARK SMILES IDX 48 77 49 78 50 79 76 80 77 81 85 82 78 83 84 84 86 85 83 86
REMARK SMILES IDX 79 87 80 88 81 89 82 90 61 91 62 92 70 93 63 94 69 95 71 96
REMARK SMILES IDX 68 97 64 98 65 99 66 100 67 101
REMARK H PARENT 27 5 32 35 91 54 59 65
REMARK Flexibility Score: inf
ROOT
ATOM      1  C   UNL A   1      47.308  39.717  25.646  1.00  0.00     0.116 C 
ENDROOT
BRANCH   1   2
ATOM      2  N   UNL A   1      46.738  40.827  24.836  1.00  0.00    -0.355 N 
ATOM      3  O   UNL A   1      45.891  41.954  26.654  1.00  0.00    -0.273 OA
ATOM      4  C   UNL A   1      46.085  41.927  25.435  1.00  0.00     0.240 C 
ATOM      5  H   UNL A   1      46.819  40.795  23.855  1.00  0.00     0.163 HD
BRANCH   4   6
ATOM      6  C   UNL A   1      45.636  43.156  24.535  1.00  0.00     0.227 C 
BRANCH   6   7
ATOM      7  N   UNL A   1      44.471  42.890  23.604  1.00  0.00    -0.283 N 
ATOM      8  C   UNL A   1      44.658  42.769  22.251  1.00  0.00     0.269 C 
ATOM      9  C   UNL A   1      43.265  42.320  23.931  1.00  0.00     0.148 C 
ATOM     10  O   UNL A   1      45.656  42.277  21.749  1.00  0.00    -0.268 OA
ATOM     11  C   UNL A   1      43.414  42.983  21.473  1.00  0.00     0.111 C 
ATOM     12  S   UNL A   1      42.208  42.242  22.488  1.00  0.00    -0.052 SA
ATOM     13  S   UNL A   1      42.791  41.669  25.390  1.00  0.00    -0.052 S 
ATOM     14  C   UNL A   1      43.223  43.699  20.329  1.00  0.00     0.100 C 
ATOM     15  S   UNL A   1      41.586  43.577  19.514  1.00  0.00    -0.068 SA
ATOM     16  N   UNL A   1      44.057  44.609  19.616  1.00  0.00    -0.334 N 
ATOM     17  C   UNL A   1      42.088  44.789  18.305  1.00  0.00     0.037 A 
ATOM     18  C   UNL A   1      43.360  45.303  18.583  1.00  0.00     0.056 A 
ATOM     19  C   UNL A   1      41.376  45.207  17.188  1.00  0.00     0.017 A 
ATOM     20  C   UNL A   1      43.840  46.381  17.832  1.00  0.00     0.027 A 
ATOM     21  C   UNL A   1      41.902  46.230  16.391  1.00  0.00     0.001 A 
ATOM     22  C   UNL A   1      43.110  46.842  16.734  1.00  0.00     0.002 A 
BRANCH  16  23
ATOM     23  C   UNL A   1      45.496  44.556  19.371  1.00  0.00     0.124 C 
BRANCH  23  24
ATOM     24  C   UNL A   1      46.250  45.534  20.248  1.00  0.00     0.037 C 
BRANCH  24  25
ATOM     25  C   UNL A   1      47.511  44.928  20.769  1.00  0.00     0.124 C 
BRANCH  25  26
ATOM     26  S   UNL A   1      49.008  45.188  19.810  1.00  0.00     0.095 S 
ATOM     27  O   UNL A   1      50.124  44.944  20.664  1.00  0.00    -0.243 OA
ATOM     28  O   UNL A   1      48.894  44.523  18.521  1.00  0.00    -0.243 OA
ATOM     29  O   UNL A   1      49.060  46.770  19.566  1.00  0.00    -0.748 OA
ENDBRANCH  25  26
ENDBRANCH  24  25
ENDBRANCH  23  24
ENDBRANCH  16  23
ENDBRANCH   6   7
ENDBRANCH   4   6
ENDBRANCH   1   2
BRANCH   1  30
ATOM     30  C   UNL A   1      46.971  38.227  25.358  1.00  0.00     0.023 C 
BRANCH  30  31
ATOM     31  C   UNL A   1      46.536  37.239  26.463  1.00  0.00     0.023 C 
BRANCH  31  32
ATOM     32  C   UNL A   1      46.489  35.732  26.176  1.00  0.00     0.116 C 
BRANCH  32  33
ATOM     33  N   UNL A   1      45.404  35.153  25.398  1.00  0.00    -0.352 N 
ATOM     34  C   UNL A   1      44.122  34.805  25.817  1.00  0.00     0.251 C 
ATOM     35  H   UNL A   1      45.603  34.986  24.448  1.00  0.00     0.163 HD
ATOM     36  O   UNL A   1      43.262  34.582  24.965  1.00  0.00    -0.269 OA
BRANCH  34  37
ATOM     37  C   UNL A   1      43.775  34.594  27.255  1.00  0.00     0.039 A 
ATOM     38  C   UNL A   1      43.810  33.352  27.889  1.00  0.00     0.014 A 
ATOM     39  C   UNL A   1      43.411  35.712  28.014  1.00  0.00     0.014 A 
ATOM     40  C   UNL A   1      43.277  33.190  29.177  1.00  0.00     0.010 A 
ATOM     41  C   UNL A   1      42.953  35.565  29.333  1.00  0.00     0.010 A 
ATOM     42  C   UNL A   1      42.803  34.293  29.906  1.00  0.00    -0.014 A 
BRANCH  42  43
ATOM     43  C   UNL A   1      42.129  34.120  31.233  1.00  0.00     0.031 A 
ATOM     44  C   UNL A   1      40.623  34.197  31.344  1.00  0.00     0.074 A 
ATOM     45  C   UNL A   1      42.851  33.895  32.349  1.00  0.00     0.049 A 
ATOM     46  N   UNL A   1      39.863  34.080  32.406  1.00  0.00    -0.248 NA
ATOM     47  C   UNL A   1      39.872  34.445  30.104  1.00  0.00     0.031 C 
ATOM     48  C   UNL A   1      44.308  33.800  32.394  1.00  0.00     0.029 A 
ATOM     49  N   UNL A   1      42.463  33.705  33.657  1.00  0.00    -0.354 N 
ATOM     50  C   UNL A   1      38.555  34.272  31.969  1.00  0.00     0.074 A 
ATOM     51  C   UNL A   1      38.627  34.543  30.550  1.00  0.00     0.031 C 
ATOM     52  C   UNL A   1      44.689  33.536  33.652  1.00  0.00     0.029 A 
ATOM     53  C   UNL A   1      43.514  33.504  34.523  1.00  0.00     0.049 A 
ATOM     54  H   UNL A   1      41.521  33.713  33.946  1.00  0.00     0.167 HD
ATOM     55  C   UNL A   1      37.400  34.213  32.678  1.00  0.00     0.034 A 
ATOM     56  C   UNL A   1      43.544  33.328  35.863  1.00  0.00     0.034 A 
ATOM     57  C   UNL A   1      37.333  33.910  34.087  1.00  0.00     0.049 A 
ATOM     58  C   UNL A   1      42.251  33.289  36.639  1.00  0.00     0.074 A 
ATOM     59  C   UNL A   1      36.200  33.749  34.867  1.00  0.00     0.029 A 
ATOM     60  N   UNL A   1      38.420  33.734  34.928  1.00  0.00    -0.354 N 
ATOM     61  N   UNL A   1      41.020  33.384  36.193  1.00  0.00    -0.248 NA
ATOM     62  C   UNL A   1      42.343  33.111  38.095  1.00  0.00     0.031 C 
ATOM     63  C   UNL A   1      36.601  33.577  36.191  1.00  0.00     0.029 A 
ATOM     64  C   UNL A   1      37.985  33.519  36.227  1.00  0.00     0.049 A 
ATOM     65  H   UNL A   1      39.364  33.758  34.646  1.00  0.00     0.167 HD
ATOM     66  C   UNL A   1      40.194  33.254  37.308  1.00  0.00     0.074 A 
ATOM     67  C   UNL A   1      41.065  33.048  38.446  1.00  0.00     0.031 C 
ATOM     68  C   UNL A   1      38.839  33.301  37.372  1.00  0.00     0.034 A 
BRANCH  55  69
ATOM     69  C   UNL A   1      36.088  34.479  31.971  1.00  0.00     0.023 A 
ATOM     70  C   UNL A   1      35.380  35.668  32.240  1.00  0.00     0.031 A 
ATOM     71  C   UNL A   1      35.467  33.510  31.163  1.00  0.00     0.131 A 
ATOM     72  C   UNL A   1      34.081  35.839  31.744  1.00  0.00     0.055 A 
ATOM     73  C   UNL A   1      34.193  33.709  30.626  1.00  0.00     0.041 A 
ATOM     74  F   UNL A   1      36.089  32.353  30.883  1.00  0.00    -0.206 F 
ATOM     75  C   UNL A   1      33.488  34.869  30.929  1.00  0.00     0.022 A 
BRANCH  72  76
ATOM     76  S   UNL A   1      33.077  37.275  32.212  1.00  0.00     0.124 S 
ATOM     77  O   UNL A   1      33.952  37.954  33.164  1.00  0.00    -0.237 OA
ATOM     78  O   UNL A   1      32.903  37.955  30.931  1.00  0.00    -0.237 OA
ATOM     79  O   UNL A   1      31.871  36.689  32.785  1.00  0.00    -0.744 OA
ENDBRANCH  72  76
ENDBRANCH  55  69
BRANCH  56  80
ATOM     80  C   UNL A   1      44.865  33.112  36.527  1.00  0.00     0.023 A 
ATOM     81  C   UNL A   1      45.373  31.814  36.716  1.00  0.00     0.031 A 
ATOM     82  C   UNL A   1      45.561  34.186  37.106  1.00  0.00     0.131 A 
ATOM     83  C   UNL A   1      46.481  31.616  37.552  1.00  0.00     0.055 A 
ATOM     84  C   UNL A   1      46.714  33.990  37.868  1.00  0.00     0.041 A 
ATOM     85  F   UNL A   1      45.112  35.442  36.958  1.00  0.00    -0.206 F 
ATOM     86  C   UNL A   1      47.165  32.698  38.114  1.00  0.00     0.022 A 
BRANCH  83  87
ATOM     87  S   UNL A   1      46.968  29.945  38.064  1.00  0.00     0.124 S 
ATOM     88  O   UNL A   1      47.462  29.373  36.816  1.00  0.00    -0.237 OA
ATOM     89  O   UNL A   1      47.985  30.234  39.074  1.00  0.00    -0.237 OA
ATOM     90  O   UNL A   1      45.730  29.367  38.577  1.00  0.00    -0.744 OA
ENDBRANCH  83  87
ENDBRANCH  56  80
BRANCH  68  91
ATOM     91  C   UNL A   1      38.155  33.123  38.711  1.00  0.00     0.023 A 
ATOM     92  C   UNL A   1      38.315  34.099  39.716  1.00  0.00     0.031 A 
ATOM     93  C   UNL A   1      37.505  31.925  39.055  1.00  0.00     0.131 A 
ATOM     94  C   UNL A   1      37.889  33.837  41.025  1.00  0.00     0.055 A 
ATOM     95  C   UNL A   1      37.028  31.691  40.347  1.00  0.00     0.041 A 
ATOM     96  F   UNL A   1      37.337  30.954  38.142  1.00  0.00    -0.206 F 
ATOM     97  C   UNL A   1      37.237  32.642  41.343  1.00  0.00     0.022 A 
BRANCH  94  98
ATOM     98  S   UNL A   1      38.265  34.983  42.380  1.00  0.00     0.124 S 
ATOM     99  O   UNL A   1      37.029  34.948  43.158  1.00  0.00    -0.237 OA
ATOM    100  O   UNL A   1      39.416  34.343  43.012  1.00  0.00    -0.237 OA
ATOM    101  O   UNL A   1      38.539  36.248  41.706  1.00  0.00    -0.744 OA
ENDBRANCH  94  98
ENDBRANCH  68  91
ENDBRANCH  42  43
ENDBRANCH  34  37
ENDBRANCH  32  33
ENDBRANCH  31  32
ENDBRANCH  30  31
ENDBRANCH   1  30
TORSDOF 19
ENDMDL
