MODEL 1
REMARK VINA RESULT:      -9.8      0.000      0.000
REMARK SMILES O=C(COCCNC(=O)C1CCCC1)NCCCCNC(=O)c1ccc(-c2c3nc(c(-c4cc(S(=O)(=O)[O-])ccc4F)c4ccc([nH]4)c(-c4cc(S(=O)(=O)[O-])ccc4F)c4nc(c(-c5cc(S(=O)(=O)[O-])ccc5F)c5ccc2[nH]5)C=C4)C=C3)cc1
REMARK SMILES IDX 16 1 15 2 1 3 2 4 3 6 4 7 5 8 6 9 7 10 8 11 9 13 10 14 11 15
REMARK SMILES IDX 14 16 12 17 13 18 17 19 18 20 19 21 20 22 21 23 22 25 23 26
REMARK SMILES IDX 24 27 85 28 25 29 84 30 26 31 27 32 28 33 78 34 29 35 83 36
REMARK SMILES IDX 77 37 79 38 30 39 82 40 76 41 75 42 31 44 63 45 43 46 62 47
REMARK SMILES IDX 44 48 47 49 61 50 80 51 45 52 46 53 60 55 81 56 48 57 32 58
REMARK SMILES IDX 33 59 41 60 34 61 40 62 42 63 39 64 35 65 36 66 37 67 38 68
REMARK SMILES IDX 64 69 65 70 73 71 66 72 72 73 74 74 71 75 67 76 68 77 69 78
REMARK SMILES IDX 70 79 49 80 50 81 58 82 51 83 57 84 59 85 56 86 52 87 53 88
REMARK SMILES IDX 54 89 55 90
REMARK H PARENT 15 5 7 12 20 24 79 43 47 54
REMARK Flexibility Score: inf
ROOT
ATOM      1  C   UNL A   1      38.225  23.643  25.800  1.00  0.00     0.116 C 
ENDROOT
BRANCH   1   2
ATOM      2  N   UNL A   1      37.285  22.931  24.961  1.00  0.00    -0.354 N 
ATOM      3  O   UNL A   1      35.394  23.628  26.067  1.00  0.00    -0.272 OA
ATOM      4  C   UNL A   1      35.925  22.980  25.173  1.00  0.00     0.245 C 
ATOM      5  H   UNL A   1      37.631  22.392  24.213  1.00  0.00     0.163 HD
BRANCH   4   6
ATOM      6  C   UNL A   1      35.122  22.118  24.191  1.00  0.00     0.260 C 
BRANCH   6   7
ATOM      7  O   UNL A   1      34.746  20.818  24.619  1.00  0.00    -0.370 OA
BRANCH   7   8
ATOM      8  C   UNL A   1      33.583  20.749  25.449  1.00  0.00     0.182 C 
BRANCH   8   9
ATOM      9  C   UNL A   1      32.698  19.512  25.228  1.00  0.00     0.144 C 
BRANCH   9  10
ATOM     10  N   UNL A   1      32.490  19.183  23.823  1.00  0.00    -0.354 N 
ATOM     11  C   UNL A   1      32.863  18.126  23.059  1.00  0.00     0.223 C 
ATOM     12  H   UNL A   1      31.978  19.865  23.330  1.00  0.00     0.163 HD
ATOM     13  O   UNL A   1      32.476  18.112  21.887  1.00  0.00    -0.275 OA
BRANCH  11  14
ATOM     14  C   UNL A   1      33.644  16.941  23.600  1.00  0.00     0.078 C 
ATOM     15  C   UNL A   1      34.959  17.245  24.302  1.00  0.00     0.013 C 
ATOM     16  C   UNL A   1      32.828  16.090  24.571  1.00  0.00     0.013 C 
ATOM     17  C   UNL A   1      35.196  16.034  25.188  1.00  0.00     0.001 C 
ATOM     18  C   UNL A   1      33.813  15.548  25.600  1.00  0.00     0.001 C 
ENDBRANCH  11  14
ENDBRANCH   9  10
ENDBRANCH   8   9
ENDBRANCH   7   8
ENDBRANCH   6   7
ENDBRANCH   4   6
ENDBRANCH   1   2
BRANCH   1  19
ATOM     19  C   UNL A   1      39.094  22.695  26.626  1.00  0.00     0.023 C 
BRANCH  19  20
ATOM     20  C   UNL A   1      39.724  21.549  25.831  1.00  0.00     0.023 C 
BRANCH  20  21
ATOM     21  C   UNL A   1      39.954  20.260  26.613  1.00  0.00     0.116 C 
BRANCH  21  22
ATOM     22  N   UNL A   1      41.039  19.458  26.070  1.00  0.00    -0.352 N 
ATOM     23  C   UNL A   1      42.324  19.834  25.751  1.00  0.00     0.251 C 
ATOM     24  H   UNL A   1      40.824  18.511  25.909  1.00  0.00     0.163 HD
ATOM     25  O   UNL A   1      43.051  19.051  25.151  1.00  0.00    -0.269 OA
BRANCH  23  26
ATOM     26  C   UNL A   1      42.810  21.189  26.100  1.00  0.00     0.039 A 
ATOM     27  C   UNL A   1      43.015  22.116  25.074  1.00  0.00     0.014 A 
ATOM     28  C   UNL A   1      43.058  21.552  27.427  1.00  0.00     0.014 A 
ATOM     29  C   UNL A   1      43.399  23.423  25.387  1.00  0.00     0.010 A 
ATOM     30  C   UNL A   1      43.364  22.875  27.740  1.00  0.00     0.010 A 
ATOM     31  C   UNL A   1      43.536  23.827  26.725  1.00  0.00    -0.014 A 
BRANCH  31  32
ATOM     32  C   UNL A   1      43.852  25.239  27.075  1.00  0.00     0.031 A 
ATOM     33  C   UNL A   1      45.271  25.739  27.009  1.00  0.00     0.074 A 
ATOM     34  C   UNL A   1      42.871  26.058  27.506  1.00  0.00     0.049 A 
ATOM     35  N   UNL A   1      45.754  26.908  27.346  1.00  0.00    -0.248 NA
ATOM     36  C   UNL A   1      46.282  24.788  26.526  1.00  0.00     0.031 C 
ATOM     37  C   UNL A   1      41.461  25.684  27.647  1.00  0.00     0.029 A 
ATOM     38  N   UNL A   1      42.904  27.370  27.913  1.00  0.00    -0.354 N 
ATOM     39  C   UNL A   1      47.125  26.833  27.122  1.00  0.00     0.074 A 
ATOM     40  C   UNL A   1      47.401  25.479  26.686  1.00  0.00     0.031 C 
ATOM     41  C   UNL A   1      40.765  26.745  28.082  1.00  0.00     0.029 A 
ATOM     42  C   UNL A   1      41.679  27.861  28.305  1.00  0.00     0.049 A 
ATOM     43  H   UNL A   1      43.728  27.908  27.922  1.00  0.00     0.167 HD
ATOM     44  C   UNL A   1      48.061  27.807  27.241  1.00  0.00     0.034 A 
ATOM     45  C   UNL A   1      41.333  29.064  28.805  1.00  0.00     0.034 A 
ATOM     46  C   UNL A   1      47.770  29.151  27.676  1.00  0.00     0.049 A 
ATOM     47  C   UNL A   1      42.400  30.118  28.975  1.00  0.00     0.074 A 
ATOM     48  C   UNL A   1      48.636  30.226  27.794  1.00  0.00     0.029 A 
ATOM     49  N   UNL A   1      46.520  29.609  28.074  1.00  0.00    -0.354 N 
ATOM     50  N   UNL A   1      43.685  30.042  28.715  1.00  0.00    -0.248 NA
ATOM     51  C   UNL A   1      41.968  31.422  29.494  1.00  0.00     0.031 C 
ATOM     52  C   UNL A   1      47.929  31.304  28.336  1.00  0.00     0.029 A 
ATOM     53  C   UNL A   1      46.601  30.936  28.470  1.00  0.00     0.049 A 
ATOM     54  H   UNL A   1      45.695  29.070  28.074  1.00  0.00     0.167 HD
ATOM     55  C   UNL A   1      44.205  31.299  29.008  1.00  0.00     0.074 A 
ATOM     56  C   UNL A   1      43.094  32.117  29.448  1.00  0.00     0.031 C 
ATOM     57  C   UNL A   1      45.487  31.741  28.917  1.00  0.00     0.034 A 
BRANCH  44  58
ATOM     58  C   UNL A   1      49.492  27.440  26.921  1.00  0.00     0.023 A 
ATOM     59  C   UNL A   1      50.053  27.691  25.655  1.00  0.00     0.031 A 
ATOM     60  C   UNL A   1      50.302  26.812  27.883  1.00  0.00     0.131 A 
ATOM     61  C   UNL A   1      51.351  27.247  25.362  1.00  0.00     0.055 A 
ATOM     62  C   UNL A   1      51.625  26.454  27.613  1.00  0.00     0.041 A 
ATOM     63  F   UNL A   1      49.819  26.525  29.103  1.00  0.00    -0.206 F 
ATOM     64  C   UNL A   1      52.153  26.656  26.341  1.00  0.00     0.022 A 
BRANCH  61  65
ATOM     65  S   UNL A   1      51.920  27.314  23.641  1.00  0.00     0.124 S 
ATOM     66  O   UNL A   1      52.395  28.692  23.542  1.00  0.00    -0.237 OA
ATOM     67  O   UNL A   1      52.947  26.280  23.608  1.00  0.00    -0.237 OA
ATOM     68  O   UNL A   1      50.713  27.023  22.871  1.00  0.00    -0.744 OA
ENDBRANCH  61  65
ENDBRANCH  44  58
BRANCH  45  69
ATOM     69  C   UNL A   1      39.921  29.339  29.204  1.00  0.00     0.023 A 
ATOM     70  C   UNL A   1      39.544  29.394  30.555  1.00  0.00     0.031 A 
ATOM     71  C   UNL A   1      38.913  29.502  28.235  1.00  0.00     0.131 A 
ATOM     72  C   UNL A   1      38.193  29.552  30.901  1.00  0.00     0.055 A 
ATOM     73  C   UNL A   1      37.580  29.722  28.583  1.00  0.00     0.041 A 
ATOM     74  F   UNL A   1      39.216  29.458  26.927  1.00  0.00    -0.206 F 
ATOM     75  C   UNL A   1      37.210  29.733  29.924  1.00  0.00     0.022 A 
BRANCH  72  76
ATOM     76  S   UNL A   1      37.720  29.417  32.647  1.00  0.00     0.124 S 
ATOM     77  O   UNL A   1      37.693  27.971  32.834  1.00  0.00    -0.237 OA
ATOM     78  O   UNL A   1      38.807  30.130  33.310  1.00  0.00    -0.237 OA
ATOM     79  O   UNL A   1      36.418  30.078  32.699  1.00  0.00    -0.744 OA
ENDBRANCH  72  76
ENDBRANCH  45  69
BRANCH  57  80
ATOM     80  C   UNL A   1      45.744  33.191  29.255  1.00  0.00     0.023 A 
ATOM     81  C   UNL A   1      45.568  34.218  28.311  1.00  0.00     0.031 A 
ATOM     82  C   UNL A   1      46.182  33.547  30.544  1.00  0.00     0.131 A 
ATOM     83  C   UNL A   1      45.884  35.542  28.652  1.00  0.00     0.055 A 
ATOM     84  C   UNL A   1      46.430  34.875  30.897  1.00  0.00     0.041 A 
ATOM     85  F   UNL A   1      46.374  32.609  31.485  1.00  0.00    -0.206 F 
ATOM     86  C   UNL A   1      46.294  35.880  29.944  1.00  0.00     0.022 A 
BRANCH  83  87
ATOM     87  S   UNL A   1      45.850  36.808  27.353  1.00  0.00     0.124 S 
ATOM     88  O   UNL A   1      44.465  36.737  26.898  1.00  0.00    -0.237 OA
ATOM     89  O   UNL A   1      46.220  38.016  28.083  1.00  0.00    -0.237 OA
ATOM     90  O   UNL A   1      46.844  36.338  26.389  1.00  0.00    -0.744 OA
ENDBRANCH  83  87
ENDBRANCH  57  80
ENDBRANCH  31  32
ENDBRANCH  23  26
ENDBRANCH  21  22
ENDBRANCH  20  21
ENDBRANCH  19  20
ENDBRANCH   1  19
TORSDOF 19
ENDMDL
MODEL 2
REMARK VINA RESULT:      -9.7      4.202      6.074
REMARK SMILES O=C(COCCNC(=O)C1CCCC1)NCCCCNC(=O)c1ccc(-c2c3nc(c(-c4cc(S(=O)(=O)[O-])ccc4F)c4ccc([nH]4)c(-c4cc(S(=O)(=O)[O-])ccc4F)c4nc(c(-c5cc(S(=O)(=O)[O-])ccc5F)c5ccc2[nH]5)C=C4)C=C3)cc1
REMARK SMILES IDX 16 1 15 2 1 3 2 4 3 6 4 7 5 8 6 9 7 10 8 11 9 13 10 14 11 15
REMARK SMILES IDX 14 16 12 17 13 18 17 19 18 20 19 21 20 22 21 23 22 25 23 26
REMARK SMILES IDX 24 27 85 28 25 29 84 30 26 31 27 32 28 33 78 34 29 35 83 36
REMARK SMILES IDX 77 37 79 38 30 39 82 40 76 41 75 42 31 44 63 45 43 46 62 47
REMARK SMILES IDX 44 48 47 49 61 50 80 51 45 52 46 53 60 55 81 56 48 57 32 58
REMARK SMILES IDX 33 59 41 60 34 61 40 62 42 63 39 64 35 65 36 66 37 67 38 68
REMARK SMILES IDX 64 69 65 70 73 71 66 72 72 73 74 74 71 75 67 76 68 77 69 78
REMARK SMILES IDX 70 79 49 80 50 81 58 82 51 83 57 84 59 85 56 86 52 87 53 88
REMARK SMILES IDX 54 89 55 90
REMARK H PARENT 15 5 7 12 20 24 79 43 47 54
REMARK Flexibility Score: inf
ROOT
ATOM      1  C   UNL A   1      34.769  22.542  23.419  1.00  0.00     0.116 C 
ENDROOT
BRANCH   1   2
ATOM      2  N   UNL A   1      33.937  23.724  23.486  1.00  0.00    -0.354 N 
ATOM      3  O   UNL A   1      32.327  22.810  24.849  1.00  0.00    -0.272 OA
ATOM      4  C   UNL A   1      32.762  23.757  24.204  1.00  0.00     0.245 C 
ATOM      5  H   UNL A   1      34.221  24.532  23.001  1.00  0.00     0.163 HD
BRANCH   4   6
ATOM      6  C   UNL A   1      32.020  25.096  24.102  1.00  0.00     0.260 C 
BRANCH   6   7
ATOM      7  O   UNL A   1      30.654  25.116  24.484  1.00  0.00    -0.370 OA
BRANCH   7   8
ATOM      8  C   UNL A   1      29.801  25.955  23.699  1.00  0.00     0.182 C 
BRANCH   8   9
ATOM      9  C   UNL A   1      30.528  27.025  22.868  1.00  0.00     0.144 C 
BRANCH   9  10
ATOM     10  N   UNL A   1      30.303  28.386  23.339  1.00  0.00    -0.354 N 
ATOM     11  C   UNL A   1      30.884  29.131  24.312  1.00  0.00     0.223 C 
ATOM     12  H   UNL A   1      29.587  28.857  22.856  1.00  0.00     0.163 HD
ATOM     13  O   UNL A   1      30.501  30.299  24.433  1.00  0.00    -0.275 OA
BRANCH  11  14
ATOM     14  C   UNL A   1      32.024  28.628  25.180  1.00  0.00     0.078 C 
ATOM     15  C   UNL A   1      33.059  29.652  25.621  1.00  0.00     0.013 C 
ATOM     16  C   UNL A   1      31.537  27.937  26.452  1.00  0.00     0.013 C 
ATOM     17  C   UNL A   1      33.685  29.038  26.861  1.00  0.00     0.001 C 
ATOM     18  C   UNL A   1      32.577  28.233  27.527  1.00  0.00     0.001 C 
ENDBRANCH  11  14
ENDBRANCH   9  10
ENDBRANCH   8   9
ENDBRANCH   7   8
ENDBRANCH   6   7
ENDBRANCH   4   6
ENDBRANCH   1   2
BRANCH   1  19
ATOM     19  C   UNL A   1      36.257  22.878  23.498  1.00  0.00     0.023 C 
BRANCH  19  20
ATOM     20  C   UNL A   1      36.650  23.771  24.678  1.00  0.00     0.023 C 
BRANCH  20  21
ATOM     21  C   UNL A   1      36.803  23.056  26.016  1.00  0.00     0.116 C 
BRANCH  21  22
ATOM     22  N   UNL A   1      38.005  22.241  26.083  1.00  0.00    -0.352 N 
ATOM     23  C   UNL A   1      39.294  22.613  26.393  1.00  0.00     0.251 C 
ATOM     24  H   UNL A   1      37.880  21.286  25.879  1.00  0.00     0.163 HD
ATOM     25  O   UNL A   1      40.208  21.811  26.241  1.00  0.00    -0.269 OA
BRANCH  23  26
ATOM     26  C   UNL A   1      39.575  23.985  26.875  1.00  0.00     0.039 A 
ATOM     27  C   UNL A   1      39.356  24.285  28.221  1.00  0.00     0.014 A 
ATOM     28  C   UNL A   1      40.058  24.972  26.010  1.00  0.00     0.014 A 
ATOM     29  C   UNL A   1      39.687  25.551  28.714  1.00  0.00     0.010 A 
ATOM     30  C   UNL A   1      40.460  26.206  26.520  1.00  0.00     0.010 A 
ATOM     31  C   UNL A   1      40.282  26.510  27.878  1.00  0.00    -0.014 A 
BRANCH  31  32
ATOM     32  C   UNL A   1      40.725  27.828  28.410  1.00  0.00     0.031 A 
ATOM     33  C   UNL A   1      42.190  28.111  28.612  1.00  0.00     0.074 A 
ATOM     34  C   UNL A   1      39.807  28.751  28.762  1.00  0.00     0.049 A 
ATOM     35  N   UNL A   1      42.765  29.165  29.133  1.00  0.00    -0.248 NA
ATOM     36  C   UNL A   1      43.128  27.057  28.201  1.00  0.00     0.031 C 
ATOM     37  C   UNL A   1      38.356  28.584  28.646  1.00  0.00     0.029 A 
ATOM     38  N   UNL A   1      39.951  30.008  29.295  1.00  0.00    -0.354 N 
ATOM     39  C   UNL A   1      44.131  28.900  29.117  1.00  0.00     0.074 A 
ATOM     40  C   UNL A   1      44.288  27.557  28.599  1.00  0.00     0.031 C 
ATOM     41  C   UNL A   1      37.749  29.703  29.070  1.00  0.00     0.029 A 
ATOM     42  C   UNL A   1      38.757  30.649  29.540  1.00  0.00     0.049 A 
ATOM     43  H   UNL A   1      40.828  30.414  29.484  1.00  0.00     0.167 HD
ATOM     44  C   UNL A   1      45.159  29.710  29.475  1.00  0.00     0.034 A 
ATOM     45  C   UNL A   1      38.500  31.849  30.095  1.00  0.00     0.034 A 
ATOM     46  C   UNL A   1      44.986  31.047  29.989  1.00  0.00     0.049 A 
ATOM     47  C   UNL A   1      39.658  32.714  30.531  1.00  0.00     0.074 A 
ATOM     48  C   UNL A   1      45.959  31.967  30.344  1.00  0.00     0.029 A 
ATOM     49  N   UNL A   1      43.762  31.657  30.232  1.00  0.00    -0.354 N 
ATOM     50  N   UNL A   1      40.946  32.464  30.467  1.00  0.00    -0.248 NA
ATOM     51  C   UNL A   1      39.328  34.026  31.103  1.00  0.00     0.031 C 
ATOM     52  C   UNL A   1      45.326  33.095  30.874  1.00  0.00     0.029 A 
ATOM     53  C   UNL A   1      43.956  32.923  30.764  1.00  0.00     0.049 A 
ATOM     54  H   UNL A   1      42.883  31.250  30.052  1.00  0.00     0.167 HD
ATOM     55  C   UNL A   1      41.578  33.604  30.959  1.00  0.00     0.074 A 
ATOM     56  C   UNL A   1      40.531  34.545  31.299  1.00  0.00     0.031 C 
ATOM     57  C   UNL A   1      42.905  33.852  31.111  1.00  0.00     0.034 A 
BRANCH  44  58
ATOM     58  C   UNL A   1      46.560  29.156  29.345  1.00  0.00     0.023 A 
ATOM     59  C   UNL A   1      47.347  29.400  28.205  1.00  0.00     0.031 A 
ATOM     60  C   UNL A   1      47.110  28.356  30.362  1.00  0.00     0.131 A 
ATOM     61  C   UNL A   1      48.602  28.788  28.075  1.00  0.00     0.055 A 
ATOM     62  C   UNL A   1      48.398  27.824  30.266  1.00  0.00     0.041 A 
ATOM     63  F   UNL A   1      46.401  28.068  31.465  1.00  0.00    -0.206 F 
ATOM     64  C   UNL A   1      49.147  28.025  29.111  1.00  0.00     0.022 A 
BRANCH  61  65
ATOM     65  S   UNL A   1      49.447  28.878  26.472  1.00  0.00     0.124 S 
ATOM     66  O   UNL A   1      48.442  28.306  25.579  1.00  0.00    -0.237 OA
ATOM     67  O   UNL A   1      49.693  30.308  26.325  1.00  0.00    -0.237 OA
ATOM     68  O   UNL A   1      50.637  28.055  26.666  1.00  0.00    -0.744 OA
ENDBRANCH  61  65
ENDBRANCH  44  58
BRANCH  45  69
ATOM     69  C   UNL A   1      37.093  32.304  30.297  1.00  0.00     0.023 A 
ATOM     70  C   UNL A   1      36.354  32.872  29.247  1.00  0.00     0.031 A 
ATOM     71  C   UNL A   1      36.481  32.224  31.562  1.00  0.00     0.131 A 
ATOM     72  C   UNL A   1      35.070  33.385  29.491  1.00  0.00     0.055 A 
ATOM     73  C   UNL A   1      35.180  32.678  31.784  1.00  0.00     0.041 A 
ATOM     74  F   UNL A   1      37.141  31.692  32.603  1.00  0.00    -0.206 F 
ATOM     75  C   UNL A   1      34.472  33.276  30.748  1.00  0.00     0.022 A 
BRANCH  72  76
ATOM     76  S   UNL A   1      34.229  34.289  28.162  1.00  0.00     0.124 S 
ATOM     77  O   UNL A   1      33.847  35.522  28.839  1.00  0.00    -0.237 OA
ATOM     78  O   UNL A   1      35.284  34.406  27.160  1.00  0.00    -0.237 OA
ATOM     79  O   UNL A   1      33.122  33.407  27.798  1.00  0.00    -0.744 OA
ENDBRANCH  72  76
ENDBRANCH  45  69
BRANCH  57  80
ATOM     80  C   UNL A   1      43.297  35.217  31.625  1.00  0.00     0.023 A 
ATOM     81  C   UNL A   1      43.377  35.501  33.000  1.00  0.00     0.031 A 
ATOM     82  C   UNL A   1      43.588  36.254  30.720  1.00  0.00     0.131 A 
ATOM     83  C   UNL A   1      43.680  36.802  33.429  1.00  0.00     0.055 A 
ATOM     84  C   UNL A   1      43.955  37.529  31.153  1.00  0.00     0.041 A 
ATOM     85  F   UNL A   1      43.522  36.044  29.395  1.00  0.00    -0.206 F 
ATOM     86  C   UNL A   1      43.990  37.813  32.515  1.00  0.00     0.022 A 
BRANCH  83  87
ATOM     87  S   UNL A   1      43.565  37.185  35.199  1.00  0.00     0.124 S 
ATOM     88  O   UNL A   1      43.724  38.636  35.205  1.00  0.00    -0.237 OA
ATOM     89  O   UNL A   1      42.237  36.686  35.541  1.00  0.00    -0.237 OA
ATOM     90  O   UNL A   1      44.677  36.437  35.784  1.00  0.00    -0.744 OA
ENDBRANCH  83  87
ENDBRANCH  57  80
ENDBRANCH  31  32
ENDBRANCH  23  26
ENDBRANCH  21  22
ENDBRANCH  20  21
ENDBRANCH  19  20
ENDBRANCH   1  19
TORSDOF 19
ENDMDL
MODEL 3
REMARK VINA RESULT:      -9.6      5.313      9.867
REMARK SMILES O=C(COCCNC(=O)C1CCCC1)NCCCCNC(=O)c1ccc(-c2c3nc(c(-c4cc(S(=O)(=O)[O-])ccc4F)c4ccc([nH]4)c(-c4cc(S(=O)(=O)[O-])ccc4F)c4nc(c(-c5cc(S(=O)(=O)[O-])ccc5F)c5ccc2[nH]5)C=C4)C=C3)cc1
REMARK SMILES IDX 16 1 15 2 1 3 2 4 3 6 4 7 5 8 6 9 7 10 8 11 9 13 10 14 11 15
REMARK SMILES IDX 14 16 12 17 13 18 17 19 18 20 19 21 20 22 21 23 22 25 23 26
REMARK SMILES IDX 24 27 85 28 25 29 84 30 26 31 27 32 28 33 78 34 29 35 83 36
REMARK SMILES IDX 77 37 79 38 30 39 82 40 76 41 75 42 31 44 63 45 43 46 62 47
REMARK SMILES IDX 44 48 47 49 61 50 80 51 45 52 46 53 60 55 81 56 48 57 32 58
REMARK SMILES IDX 33 59 41 60 34 61 40 62 42 63 39 64 35 65 36 66 37 67 38 68
REMARK SMILES IDX 64 69 65 70 73 71 66 72 72 73 74 74 71 75 67 76 68 77 69 78
REMARK SMILES IDX 70 79 49 80 50 81 58 82 51 83 57 84 59 85 56 86 52 87 53 88
REMARK SMILES IDX 54 89 55 90
REMARK H PARENT 15 5 7 12 20 24 79 43 47 54
REMARK Flexibility Score: inf
ROOT
ATOM      1  C   UNL A   1      32.292  26.806  25.942  1.00  0.00     0.116 C 
ENDROOT
BRANCH   1   2
ATOM      2  N   UNL A   1      32.996  26.427  24.735  1.00  0.00    -0.354 N 
ATOM      3  O   UNL A   1      31.191  25.454  23.696  1.00  0.00    -0.272 OA
ATOM      4  C   UNL A   1      32.376  25.765  23.698  1.00  0.00     0.245 C 
ATOM      5  H   UNL A   1      33.952  26.648  24.654  1.00  0.00     0.163 HD
BRANCH   4   6
ATOM      6  C   UNL A   1      33.320  25.424  22.539  1.00  0.00     0.260 C 
BRANCH   6   7
ATOM      7  O   UNL A   1      34.137  24.272  22.679  1.00  0.00    -0.370 OA
BRANCH   7   8
ATOM      8  C   UNL A   1      33.457  23.016  22.603  1.00  0.00     0.182 C 
BRANCH   8   9
ATOM      9  C   UNL A   1      33.082  22.397  23.959  1.00  0.00     0.144 C 
BRANCH   9  10
ATOM     10  N   UNL A   1      33.581  21.040  24.143  1.00  0.00    -0.354 N 
ATOM     11  C   UNL A   1      34.737  20.544  24.651  1.00  0.00     0.223 C 
ATOM     12  H   UNL A   1      32.954  20.345  23.837  1.00  0.00     0.163 HD
ATOM     13  O   UNL A   1      34.839  19.315  24.725  1.00  0.00    -0.275 OA
BRANCH  11  14
ATOM     14  C   UNL A   1      35.848  21.420  25.204  1.00  0.00     0.078 C 
ATOM     15  C   UNL A   1      36.704  22.166  24.192  1.00  0.00     0.013 C 
ATOM     16  C   UNL A   1      35.337  22.469  26.189  1.00  0.00     0.013 C 
ATOM     17  C   UNL A   1      37.287  23.325  24.982  1.00  0.00     0.001 C 
ATOM     18  C   UNL A   1      36.232  23.691  26.017  1.00  0.00     0.001 C 
ENDBRANCH  11  14
ENDBRANCH   9  10
ENDBRANCH   8   9
ENDBRANCH   7   8
ENDBRANCH   6   7
ENDBRANCH   4   6
ENDBRANCH   1   2
BRANCH   1  19
ATOM     19  C   UNL A   1      31.493  28.096  25.761  1.00  0.00     0.023 C 
BRANCH  19  20
ATOM     20  C   UNL A   1      32.340  29.368  25.685  1.00  0.00     0.023 C 
BRANCH  20  21
ATOM     21  C   UNL A   1      33.290  29.592  26.856  1.00  0.00     0.116 C 
BRANCH  21  22
ATOM     22  N   UNL A   1      33.363  30.986  27.263  1.00  0.00    -0.352 N 
ATOM     23  C   UNL A   1      34.315  31.622  28.029  1.00  0.00     0.251 C 
ATOM     24  H   UNL A   1      32.627  31.558  26.946  1.00  0.00     0.163 HD
ATOM     25  O   UNL A   1      34.121  32.773  28.402  1.00  0.00    -0.269 OA
BRANCH  23  26
ATOM     26  C   UNL A   1      35.549  30.904  28.426  1.00  0.00     0.039 A 
ATOM     27  C   UNL A   1      36.778  31.358  27.941  1.00  0.00     0.014 A 
ATOM     28  C   UNL A   1      35.501  29.796  29.276  1.00  0.00     0.014 A 
ATOM     29  C   UNL A   1      37.961  30.744  28.363  1.00  0.00     0.010 A 
ATOM     30  C   UNL A   1      36.684  29.237  29.756  1.00  0.00     0.010 A 
ATOM     31  C   UNL A   1      37.928  29.706  29.308  1.00  0.00    -0.014 A 
BRANCH  31  32
ATOM     32  C   UNL A   1      39.184  29.106  29.838  1.00  0.00     0.031 A 
ATOM     33  C   UNL A   1      39.865  29.708  31.039  1.00  0.00     0.074 A 
ATOM     34  C   UNL A   1      39.741  28.053  29.207  1.00  0.00     0.049 A 
ATOM     35  N   UNL A   1      41.001  29.377  31.599  1.00  0.00    -0.248 NA
ATOM     36  C   UNL A   1      39.194  30.851  31.673  1.00  0.00     0.031 C 
ATOM     37  C   UNL A   1      39.197  27.400  28.014  1.00  0.00     0.029 A 
ATOM     38  N   UNL A   1      40.891  27.349  29.470  1.00  0.00    -0.354 N 
ATOM     39  C   UNL A   1      41.183  30.272  32.648  1.00  0.00     0.074 A 
ATOM     40  C   UNL A   1      40.074  31.201  32.599  1.00  0.00     0.031 C 
ATOM     41  C   UNL A   1      39.996  26.380  27.666  1.00  0.00     0.029 A 
ATOM     42  C   UNL A   1      41.139  26.334  28.573  1.00  0.00     0.049 A 
ATOM     43  H   UNL A   1      41.482  27.551  30.232  1.00  0.00     0.167 HD
ATOM     44  C   UNL A   1      42.167  30.299  33.581  1.00  0.00     0.034 A 
ATOM     45  C   UNL A   1      42.175  25.478  28.478  1.00  0.00     0.034 A 
ATOM     46  C   UNL A   1      43.265  29.365  33.618  1.00  0.00     0.049 A 
ATOM     47  C   UNL A   1      43.284  25.558  29.499  1.00  0.00     0.074 A 
ATOM     48  C   UNL A   1      44.294  29.279  34.542  1.00  0.00     0.029 A 
ATOM     49  N   UNL A   1      43.488  28.358  32.687  1.00  0.00    -0.354 N 
ATOM     50  N   UNL A   1      43.417  26.384  30.511  1.00  0.00    -0.248 NA
ATOM     51  C   UNL A   1      44.376  24.584  29.371  1.00  0.00     0.031 C 
ATOM     52  C   UNL A   1      45.176  28.277  34.127  1.00  0.00     0.029 A 
ATOM     53  C   UNL A   1      44.654  27.672  32.995  1.00  0.00     0.049 A 
ATOM     54  H   UNL A   1      42.904  28.159  31.920  1.00  0.00     0.167 HD
ATOM     55  C   UNL A   1      44.589  26.004  31.159  1.00  0.00     0.074 A 
ATOM     56  C   UNL A   1      45.115  24.867  30.432  1.00  0.00     0.031 C 
ATOM     57  C   UNL A   1      45.177  26.544  32.258  1.00  0.00     0.034 A 
BRANCH  44  58
ATOM     58  C   UNL A   1      42.109  31.394  34.623  1.00  0.00     0.023 A 
ATOM     59  C   UNL A   1      42.720  32.644  34.414  1.00  0.00     0.031 A 
ATOM     60  C   UNL A   1      41.454  31.182  35.848  1.00  0.00     0.131 A 
ATOM     61  C   UNL A   1      42.732  33.599  35.442  1.00  0.00     0.055 A 
ATOM     62  C   UNL A   1      41.391  32.171  36.832  1.00  0.00     0.041 A 
ATOM     63  F   UNL A   1      40.870  30.003  36.117  1.00  0.00    -0.206 F 
ATOM     64  C   UNL A   1      42.046  33.384  36.639  1.00  0.00     0.022 A 
BRANCH  61  65
ATOM     65  S   UNL A   1      43.785  35.064  35.249  1.00  0.00     0.124 S 
ATOM     66  O   UNL A   1      42.957  35.911  34.394  1.00  0.00    -0.237 OA
ATOM     67  O   UNL A   1      43.954  35.514  36.625  1.00  0.00    -0.237 OA
ATOM     68  O   UNL A   1      44.989  34.537  34.611  1.00  0.00    -0.744 OA
ENDBRANCH  61  65
ENDBRANCH  44  58
BRANCH  45  69
ATOM     69  C   UNL A   1      42.235  24.483  27.367  1.00  0.00     0.023 A 
ATOM     70  C   UNL A   1      41.540  23.265  27.442  1.00  0.00     0.031 A 
ATOM     71  C   UNL A   1      43.033  24.714  26.231  1.00  0.00     0.131 A 
ATOM     72  C   UNL A   1      41.695  22.305  26.430  1.00  0.00     0.055 A 
ATOM     73  C   UNL A   1      43.134  23.782  25.197  1.00  0.00     0.041 A 
ATOM     74  F   UNL A   1      43.721  25.860  26.106  1.00  0.00    -0.206 F 
ATOM     75  C   UNL A   1      42.475  22.562  25.299  1.00  0.00     0.022 A 
BRANCH  72  76
ATOM     76  S   UNL A   1      40.944  20.670  26.659  1.00  0.00     0.124 S 
ATOM     77  O   UNL A   1      40.817  20.604  28.110  1.00  0.00    -0.237 OA
ATOM     78  O   UNL A   1      39.697  20.803  25.910  1.00  0.00    -0.237 OA
ATOM     79  O   UNL A   1      41.926  19.760  26.075  1.00  0.00    -0.744 OA
ENDBRANCH  72  76
ENDBRANCH  45  69
BRANCH  57  80
ATOM     80  C   UNL A   1      46.431  25.875  32.770  1.00  0.00     0.023 A 
ATOM     81  C   UNL A   1      46.390  24.846  33.727  1.00  0.00     0.031 A 
ATOM     82  C   UNL A   1      47.691  26.284  32.296  1.00  0.00     0.131 A 
ATOM     83  C   UNL A   1      47.585  24.303  34.222  1.00  0.00     0.055 A 
ATOM     84  C   UNL A   1      48.874  25.692  32.742  1.00  0.00     0.041 A 
ATOM     85  F   UNL A   1      47.794  27.266  31.386  1.00  0.00    -0.206 F 
ATOM     86  C   UNL A   1      48.826  24.704  33.720  1.00  0.00     0.022 A 
BRANCH  83  87
ATOM     87  S   UNL A   1      47.503  23.132  35.605  1.00  0.00     0.124 S 
ATOM     88  O   UNL A   1      48.765  22.413  35.468  1.00  0.00    -0.237 OA
ATOM     89  O   UNL A   1      47.396  24.019  36.759  1.00  0.00    -0.237 OA
ATOM     90  O   UNL A   1      46.306  22.344  35.318  1.00  0.00    -0.744 OA
ENDBRANCH  83  87
ENDBRANCH  57  80
ENDBRANCH  31  32
ENDBRANCH  23  26
ENDBRANCH  21  22
ENDBRANCH  20  21
ENDBRANCH  19  20
ENDBRANCH   1  19
TORSDOF 19
ENDMDL
