MODEL 1
REMARK VINA RESULT:     -12.3      0.000      0.000
REMARK SMILES Cc1cccc(Nc2nc(C)c(CCO)c(OCC(=O)NCCCCNC(=O)c3ccc(-c4c5nc(c(-c6cc(S(=O)(=O)[O-])ccc6F)c6ccc([nH]6)c(-c6cc(S(=O)(=O)[O-])ccc6F)c6nc(c(-c7cc(S(=O)(=O)[O-])ccc7F)c7ccc4[nH]7)C=C6)C=C5)cc3)n2)c1
REMARK SMILES IDX 22 1 21 2 19 3 20 4 18 6 17 7 16 8 8 9 9 10 92 11 10 12
REMARK SMILES IDX 11 13 12 14 7 15 6 17 1 18 2 19 3 20 93 21 4 22 5 23 13 24
REMARK SMILES IDX 14 25 15 26 23 28 24 29 25 30 26 31 27 32 28 34 29 35 30 36
REMARK SMILES IDX 91 37 31 38 90 39 32 40 33 41 34 42 84 43 35 44 89 45 83 46
REMARK SMILES IDX 85 47 36 48 88 49 82 50 81 51 37 53 69 54 49 55 68 56 50 57
REMARK SMILES IDX 53 58 67 59 86 60 51 61 52 62 66 64 87 65 54 66 38 67 39 68
REMARK SMILES IDX 47 69 40 70 46 71 48 72 45 73 41 74 42 75 43 76 44 77 70 78
REMARK SMILES IDX 71 79 79 80 72 81 78 82 80 83 77 84 73 85 74 86 75 87 76 88
REMARK SMILES IDX 55 89 56 90 64 91 57 92 63 93 65 94 62 95 58 96 59 97 60 98
REMARK SMILES IDX 61 99
REMARK H PARENT 21 5 7 16 15 27 26 33 85 52 53 63
REMARK Flexibility Score: inf
ROOT
ATOM      1  C   UNL A   1      34.775  30.718  27.585  1.00  0.00     0.116 C 
ENDROOT
BRANCH   1   2
ATOM      2  N   UNL A   1      33.529  30.014  27.851  1.00  0.00    -0.353 N 
ATOM      3  C   UNL A   1      32.547  29.635  26.997  1.00  0.00     0.258 C 
ATOM      4  O   UNL A   1      31.541  29.104  27.478  1.00  0.00    -0.271 OA
ATOM      5  H   UNL A   1      33.377  29.777  28.795  1.00  0.00     0.163 HD
BRANCH   3   6
ATOM      6  C   UNL A   1      32.715  29.810  25.475  1.00  0.00     0.331 C 
BRANCH   6   7
ATOM      7  O   UNL A   1      32.833  28.765  24.530  1.00  0.00    -0.467 OA
BRANCH   7   8
ATOM      8  C   UNL A   1      31.956  27.726  24.554  1.00  0.00     0.222 A 
ATOM      9  C   UNL A   1      31.620  25.687  25.571  1.00  0.00     0.230 A 
ATOM     10  N   UNL A   1      30.432  25.535  24.979  1.00  0.00    -0.218 NA
ATOM     11  N   UNL A   1      32.410  26.736  25.341  1.00  0.00    -0.177 NA
ATOM     12  C   UNL A   1      29.943  26.581  24.276  1.00  0.00     0.050 A 
ATOM     13  C   UNL A   1      28.521  26.399  23.828  1.00  0.00     0.067 C 
ATOM     14  C   UNL A   1      30.651  27.770  24.094  1.00  0.00     0.038 A 
BRANCH   9  15
ATOM     15  N   UNL A   1      31.936  24.739  26.545  1.00  0.00    -0.324 N 
ATOM     16  H   UNL A   1      31.344  24.726  27.331  1.00  0.00     0.170 HD
BRANCH  15  17
ATOM     17  C   UNL A   1      32.983  23.799  26.557  1.00  0.00     0.041 A 
ATOM     18  C   UNL A   1      36.623  23.608  25.377  1.00  0.00     0.044 C 
ATOM     19  C   UNL A   1      35.296  23.233  25.967  1.00  0.00    -0.049 A 
ATOM     20  C   UNL A   1      35.113  21.949  26.490  1.00  0.00     0.003 A 
ATOM     21  C   UNL A   1      34.230  24.150  26.012  1.00  0.00     0.029 A 
ATOM     22  C   UNL A   1      33.898  21.598  27.068  1.00  0.00     0.002 A 
ATOM     23  C   UNL A   1      32.851  22.521  27.113  1.00  0.00     0.026 A 
ENDBRANCH  15  17
ENDBRANCH   9  15
BRANCH  14  24
ATOM     24  C   UNL A   1      29.983  29.027  23.595  1.00  0.00     0.071 C 
BRANCH  24  25
ATOM     25  C   UNL A   1      29.999  29.164  22.068  1.00  0.00     0.161 C 
BRANCH  25  26
ATOM     26  O   UNL A   1      30.719  30.301  21.610  1.00  0.00    -0.396 OA
ATOM     27  H   UNL A   1      30.266  31.108  21.899  1.00  0.00     0.210 HD
ENDBRANCH  25  26
ENDBRANCH  24  25
ENDBRANCH  14  24
ENDBRANCH   7   8
ENDBRANCH   6   7
ENDBRANCH   3   6
ENDBRANCH   1   2
BRANCH   1  28
ATOM     28  C   UNL A   1      34.984  31.892  28.548  1.00  0.00     0.023 C 
BRANCH  28  29
ATOM     29  C   UNL A   1      34.337  33.216  28.132  1.00  0.00     0.023 C 
BRANCH  29  30
ATOM     30  C   UNL A   1      34.800  34.439  28.913  1.00  0.00     0.116 C 
BRANCH  30  31
ATOM     31  N   UNL A   1      33.875  34.911  29.928  1.00  0.00    -0.352 N 
ATOM     32  C   UNL A   1      33.815  34.584  31.275  1.00  0.00     0.251 C 
ATOM     33  H   UNL A   1      33.196  35.551  29.616  1.00  0.00     0.163 HD
ATOM     34  O   UNL A   1      32.879  34.938  31.969  1.00  0.00    -0.269 OA
BRANCH  32  35
ATOM     35  C   UNL A   1      34.990  33.923  31.908  1.00  0.00     0.039 A 
ATOM     36  C   UNL A   1      36.122  34.722  32.122  1.00  0.00     0.014 A 
ATOM     37  C   UNL A   1      35.072  32.543  32.068  1.00  0.00     0.014 A 
ATOM     38  C   UNL A   1      37.373  34.123  32.254  1.00  0.00     0.010 A 
ATOM     39  C   UNL A   1      36.319  31.946  32.108  1.00  0.00     0.010 A 
ATOM     40  C   UNL A   1      37.471  32.737  32.135  1.00  0.00    -0.014 A 
BRANCH  40  41
ATOM     41  C   UNL A   1      38.734  32.050  31.895  1.00  0.00     0.031 A 
ATOM     42  C   UNL A   1      38.767  30.737  31.227  1.00  0.00     0.074 A 
ATOM     43  C   UNL A   1      39.891  32.646  32.258  1.00  0.00     0.049 A 
ATOM     44  N   UNL A   1      39.694  29.855  31.394  1.00  0.00    -0.248 NA
ATOM     45  C   UNL A   1      37.708  30.297  30.328  1.00  0.00     0.031 C 
ATOM     46  C   UNL A   1      41.251  32.235  31.926  1.00  0.00     0.029 A 
ATOM     47  N   UNL A   1      40.051  33.624  33.235  1.00  0.00    -0.354 N 
ATOM     48  C   UNL A   1      39.518  28.879  30.441  1.00  0.00     0.074 A 
ATOM     49  C   UNL A   1      38.234  29.168  29.844  1.00  0.00     0.031 C 
ATOM     50  C   UNL A   1      42.090  32.739  32.847  1.00  0.00     0.029 A 
ATOM     51  C   UNL A   1      41.280  33.376  33.871  1.00  0.00     0.049 A 
ATOM     52  H   UNL A   1      39.423  34.353  33.442  1.00  0.00     0.167 HD
ATOM     53  C   UNL A   1      40.536  28.014  30.163  1.00  0.00     0.034 A 
ATOM     54  C   UNL A   1      41.324  33.096  35.207  1.00  0.00     0.034 A 
ATOM     55  C   UNL A   1      41.688  28.239  31.034  1.00  0.00     0.049 A 
ATOM     56  C   UNL A   1      41.878  31.721  35.511  1.00  0.00     0.074 A 
ATOM     57  C   UNL A   1      42.880  28.923  30.858  1.00  0.00     0.029 A 
ATOM     58  N   UNL A   1      41.580  27.985  32.397  1.00  0.00    -0.354 N 
ATOM     59  N   UNL A   1      42.028  30.776  34.623  1.00  0.00    -0.248 NA
ATOM     60  C   UNL A   1      42.293  31.299  36.845  1.00  0.00     0.031 C 
ATOM     61  C   UNL A   1      43.443  29.159  32.140  1.00  0.00     0.029 A 
ATOM     62  C   UNL A   1      42.616  28.582  33.090  1.00  0.00     0.049 A 
ATOM     63  H   UNL A   1      40.863  27.453  32.812  1.00  0.00     0.167 HD
ATOM     64  C   UNL A   1      42.508  29.643  35.229  1.00  0.00     0.074 A 
ATOM     65  C   UNL A   1      42.690  30.035  36.616  1.00  0.00     0.031 C 
ATOM     66  C   UNL A   1      42.698  28.475  34.541  1.00  0.00     0.034 A 
BRANCH  53  67
ATOM     67  C   UNL A   1      40.593  27.195  28.893  1.00  0.00     0.023 A 
ATOM     68  C   UNL A   1      41.567  27.489  27.915  1.00  0.00     0.031 A 
ATOM     69  C   UNL A   1      39.696  26.162  28.561  1.00  0.00     0.131 A 
ATOM     70  C   UNL A   1      41.550  26.867  26.652  1.00  0.00     0.055 A 
ATOM     71  C   UNL A   1      39.633  25.592  27.282  1.00  0.00     0.041 A 
ATOM     72  F   UNL A   1      38.875  25.628  29.476  1.00  0.00    -0.206 F 
ATOM     73  C   UNL A   1      40.554  25.956  26.312  1.00  0.00     0.022 A 
BRANCH  70  74
ATOM     74  S   UNL A   1      42.859  27.256  25.457  1.00  0.00     0.124 S 
ATOM     75  O   UNL A   1      43.960  27.666  26.321  1.00  0.00    -0.237 OA
ATOM     76  O   UNL A   1      43.023  25.986  24.759  1.00  0.00    -0.237 OA
ATOM     77  O   UNL A   1      42.276  28.329  24.652  1.00  0.00    -0.744 OA
ENDBRANCH  70  74
ENDBRANCH  53  67
BRANCH  54  78
ATOM     78  C   UNL A   1      40.270  33.815  35.985  1.00  0.00     0.023 A 
ATOM     79  C   UNL A   1      39.192  33.036  36.466  1.00  0.00     0.031 A 
ATOM     80  C   UNL A   1      40.496  35.059  36.587  1.00  0.00     0.131 A 
ATOM     81  C   UNL A   1      38.511  33.411  37.631  1.00  0.00     0.055 A 
ATOM     82  C   UNL A   1      39.751  35.472  37.700  1.00  0.00     0.041 A 
ATOM     83  F   UNL A   1      41.517  35.834  36.195  1.00  0.00    -0.206 F 
ATOM     84  C   UNL A   1      38.790  34.626  38.259  1.00  0.00     0.022 A 
BRANCH  81  85
ATOM     85  S   UNL A   1      37.490  32.168  38.483  1.00  0.00     0.124 S 
ATOM     86  O   UNL A   1      38.164  32.049  39.770  1.00  0.00    -0.237 OA
ATOM     87  O   UNL A   1      36.168  32.790  38.511  1.00  0.00    -0.237 OA
ATOM     88  O   UNL A   1      37.575  30.999  37.610  1.00  0.00    -0.744 OA
ENDBRANCH  81  85
ENDBRANCH  54  78
BRANCH  66  89
ATOM     89  C   UNL A   1      43.055  27.140  35.159  1.00  0.00     0.023 A 
ATOM     90  C   UNL A   1      44.185  26.394  34.788  1.00  0.00     0.031 A 
ATOM     91  C   UNL A   1      42.289  26.603  36.224  1.00  0.00     0.131 A 
ATOM     92  C   UNL A   1      44.462  25.150  35.382  1.00  0.00     0.055 A 
ATOM     93  C   UNL A   1      42.618  25.409  36.872  1.00  0.00     0.041 A 
ATOM     94  F   UNL A   1      41.190  27.219  36.682  1.00  0.00    -0.206 F 
ATOM     95  C   UNL A   1      43.701  24.662  36.440  1.00  0.00     0.022 A 
BRANCH  92  96
ATOM     96  S   UNL A   1      45.802  24.147  34.687  1.00  0.00     0.124 S 
ATOM     97  O   UNL A   1      45.845  24.622  33.307  1.00  0.00    -0.237 OA
ATOM     98  O   UNL A   1      46.940  24.520  35.521  1.00  0.00    -0.237 OA
ATOM     99  O   UNL A   1      45.330  22.775  34.856  1.00  0.00    -0.744 OA
ENDBRANCH  92  96
ENDBRANCH  66  89
ENDBRANCH  40  41
ENDBRANCH  32  35
ENDBRANCH  30  31
ENDBRANCH  29  30
ENDBRANCH  28  29
ENDBRANCH   1  28
TORSDOF 21
ENDMDL
MODEL 2
REMARK VINA RESULT:     -12.2      4.624     10.143
REMARK SMILES Cc1cccc(Nc2nc(C)c(CCO)c(OCC(=O)NCCCCNC(=O)c3ccc(-c4c5nc(c(-c6cc(S(=O)(=O)[O-])ccc6F)c6ccc([nH]6)c(-c6cc(S(=O)(=O)[O-])ccc6F)c6nc(c(-c7cc(S(=O)(=O)[O-])ccc7F)c7ccc4[nH]7)C=C6)C=C5)cc3)n2)c1
REMARK SMILES IDX 22 1 21 2 19 3 20 4 18 6 17 7 16 8 8 9 9 10 92 11 10 12
REMARK SMILES IDX 11 13 12 14 7 15 6 17 1 18 2 19 3 20 93 21 4 22 5 23 13 24
REMARK SMILES IDX 14 25 15 26 23 28 24 29 25 30 26 31 27 32 28 34 29 35 30 36
REMARK SMILES IDX 91 37 31 38 90 39 32 40 33 41 34 42 84 43 35 44 89 45 83 46
REMARK SMILES IDX 85 47 36 48 88 49 82 50 81 51 37 53 69 54 49 55 68 56 50 57
REMARK SMILES IDX 53 58 67 59 86 60 51 61 52 62 66 64 87 65 54 66 38 67 39 68
REMARK SMILES IDX 47 69 40 70 46 71 48 72 45 73 41 74 42 75 43 76 44 77 70 78
REMARK SMILES IDX 71 79 79 80 72 81 78 82 80 83 77 84 73 85 74 86 75 87 76 88
REMARK SMILES IDX 55 89 56 90 64 91 57 92 63 93 65 94 62 95 58 96 59 97 60 98
REMARK SMILES IDX 61 99
REMARK H PARENT 21 5 7 16 15 27 26 33 85 52 53 63
REMARK Flexibility Score: inf
ROOT
ATOM      1  C   UNL A   1      37.505  21.961  25.573  1.00  0.00     0.116 C 
ENDROOT
BRANCH   1   2
ATOM      2  N   UNL A   1      37.469  22.409  24.189  1.00  0.00    -0.353 N 
ATOM      3  C   UNL A   1      36.414  22.784  23.424  1.00  0.00     0.258 C 
ATOM      4  O   UNL A   1      36.632  23.061  22.240  1.00  0.00    -0.271 OA
ATOM      5  H   UNL A   1      38.345  22.446  23.739  1.00  0.00     0.163 HD
BRANCH   3   6
ATOM      6  C   UNL A   1      35.005  22.916  24.035  1.00  0.00     0.331 C 
BRANCH   6   7
ATOM      7  O   UNL A   1      34.668  22.703  25.392  1.00  0.00    -0.467 OA
BRANCH   7   8
ATOM      8  C   UNL A   1      33.498  23.191  25.885  1.00  0.00     0.222 A 
ATOM      9  C   UNL A   1      32.461  25.181  26.400  1.00  0.00     0.230 A 
ATOM     10  N   UNL A   1      31.320  24.561  26.710  1.00  0.00    -0.218 NA
ATOM     11  N   UNL A   1      33.563  24.524  26.035  1.00  0.00    -0.177 NA
ATOM     12  C   UNL A   1      31.237  23.236  26.454  1.00  0.00     0.050 A 
ATOM     13  C   UNL A   1      29.858  22.669  26.636  1.00  0.00     0.067 C 
ATOM     14  C   UNL A   1      32.304  22.492  25.949  1.00  0.00     0.038 A 
BRANCH   9  15
ATOM     15  N   UNL A   1      32.400  26.575  26.359  1.00  0.00    -0.324 N 
ATOM     16  H   UNL A   1      32.491  27.029  27.228  1.00  0.00     0.170 HD
BRANCH  15  17
ATOM     17  C   UNL A   1      32.225  27.420  25.247  1.00  0.00     0.041 A 
ATOM     18  C   UNL A   1      29.335  28.624  23.038  1.00  0.00     0.044 C 
ATOM     19  C   UNL A   1      30.714  28.422  23.595  1.00  0.00    -0.049 A 
ATOM     20  C   UNL A   1      31.802  29.051  22.983  1.00  0.00     0.003 A 
ATOM     21  C   UNL A   1      30.934  27.617  24.727  1.00  0.00     0.029 A 
ATOM     22  C   UNL A   1      33.081  28.899  23.507  1.00  0.00     0.002 A 
ATOM     23  C   UNL A   1      33.284  28.102  24.637  1.00  0.00     0.026 A 
ENDBRANCH  15  17
ENDBRANCH   9  15
BRANCH  14  24
ATOM     24  C   UNL A   1      32.112  21.112  25.373  1.00  0.00     0.071 C 
BRANCH  24  25
ATOM     25  C   UNL A   1      33.114  20.082  25.906  1.00  0.00     0.161 C 
BRANCH  25  26
ATOM     26  O   UNL A   1      33.519  20.328  27.245  1.00  0.00    -0.396 OA
ATOM     27  H   UNL A   1      33.382  21.265  27.458  1.00  0.00     0.210 HD
ENDBRANCH  25  26
ENDBRANCH  24  25
ENDBRANCH  14  24
ENDBRANCH   7   8
ENDBRANCH   6   7
ENDBRANCH   3   6
ENDBRANCH   1   2
BRANCH   1  28
ATOM     28  C   UNL A   1      38.549  20.861  25.790  1.00  0.00     0.023 C 
BRANCH  28  29
ATOM     29  C   UNL A   1      39.805  21.278  26.560  1.00  0.00     0.023 C 
BRANCH  29  30
ATOM     30  C   UNL A   1      40.014  22.780  26.697  1.00  0.00     0.116 C 
BRANCH  30  31
ATOM     31  N   UNL A   1      41.336  23.256  26.334  1.00  0.00    -0.352 N 
ATOM     32  C   UNL A   1      41.787  24.562  26.195  1.00  0.00     0.251 C 
ATOM     33  H   UNL A   1      42.005  22.556  26.161  1.00  0.00     0.163 HD
ATOM     34  O   UNL A   1      42.884  24.804  25.726  1.00  0.00    -0.269 OA
BRANCH  32  35
ATOM     35  C   UNL A   1      40.974  25.669  26.772  1.00  0.00     0.039 A 
ATOM     36  C   UNL A   1      40.994  26.889  26.083  1.00  0.00     0.014 A 
ATOM     37  C   UNL A   1      40.410  25.596  28.042  1.00  0.00     0.014 A 
ATOM     38  C   UNL A   1      40.677  28.066  26.757  1.00  0.00     0.010 A 
ATOM     39  C   UNL A   1      40.180  26.766  28.741  1.00  0.00     0.010 A 
ATOM     40  C   UNL A   1      40.377  28.001  28.118  1.00  0.00    -0.014 A 
BRANCH  40  41
ATOM     41  C   UNL A   1      40.389  29.171  28.988  1.00  0.00     0.031 A 
ATOM     42  C   UNL A   1      39.279  30.141  28.967  1.00  0.00     0.074 A 
ATOM     43  C   UNL A   1      41.415  29.346  29.849  1.00  0.00     0.049 A 
ATOM     44  N   UNL A   1      39.391  31.386  29.288  1.00  0.00    -0.248 NA
ATOM     45  C   UNL A   1      37.937  29.775  28.534  1.00  0.00     0.031 C 
ATOM     46  C   UNL A   1      41.517  30.317  30.934  1.00  0.00     0.029 A 
ATOM     47  N   UNL A   1      42.697  28.819  29.732  1.00  0.00    -0.354 N 
ATOM     48  C   UNL A   1      38.122  31.908  29.380  1.00  0.00     0.074 A 
ATOM     49  C   UNL A   1      37.257  30.883  28.841  1.00  0.00     0.031 C 
ATOM     50  C   UNL A   1      42.816  30.521  31.209  1.00  0.00     0.029 A 
ATOM     51  C   UNL A   1      43.590  29.789  30.220  1.00  0.00     0.049 A 
ATOM     52  H   UNL A   1      42.935  27.933  29.375  1.00  0.00     0.167 HD
ATOM     53  C   UNL A   1      37.923  33.092  30.028  1.00  0.00     0.034 A 
ATOM     54  C   UNL A   1      44.544  30.325  29.404  1.00  0.00     0.034 A 
ATOM     55  C   UNL A   1      39.184  33.679  30.478  1.00  0.00     0.049 A 
ATOM     56  C   UNL A   1      44.391  31.818  29.205  1.00  0.00     0.074 A 
ATOM     57  C   UNL A   1      39.834  33.685  31.701  1.00  0.00     0.029 A 
ATOM     58  N   UNL A   1      40.110  34.120  29.539  1.00  0.00    -0.354 N 
ATOM     59  N   UNL A   1      43.320  32.495  29.517  1.00  0.00    -0.248 NA
ATOM     60  C   UNL A   1      45.431  32.662  28.624  1.00  0.00     0.031 C 
ATOM     61  C   UNL A   1      41.189  34.047  31.475  1.00  0.00     0.029 A 
ATOM     62  C   UNL A   1      41.350  34.301  30.123  1.00  0.00     0.049 A 
ATOM     63  H   UNL A   1      39.911  34.282  28.589  1.00  0.00     0.167 HD
ATOM     64  C   UNL A   1      43.486  33.811  29.168  1.00  0.00     0.074 A 
ATOM     65  C   UNL A   1      44.840  33.869  28.645  1.00  0.00     0.031 C 
ATOM     66  C   UNL A   1      42.490  34.736  29.325  1.00  0.00     0.034 A 
BRANCH  53  67
ATOM     67  C   UNL A   1      36.566  33.537  30.528  1.00  0.00     0.023 A 
ATOM     68  C   UNL A   1      35.686  34.208  29.652  1.00  0.00     0.031 A 
ATOM     69  C   UNL A   1      36.104  33.384  31.848  1.00  0.00     0.131 A 
ATOM     70  C   UNL A   1      34.490  34.786  30.116  1.00  0.00     0.055 A 
ATOM     71  C   UNL A   1      34.950  34.017  32.328  1.00  0.00     0.041 A 
ATOM     72  F   UNL A   1      36.728  32.575  32.718  1.00  0.00    -0.206 F 
ATOM     73  C   UNL A   1      34.142  34.738  31.464  1.00  0.00     0.022 A 
BRANCH  70  74
ATOM     74  S   UNL A   1      33.379  35.595  28.931  1.00  0.00     0.124 S 
ATOM     75  O   UNL A   1      34.312  36.295  28.055  1.00  0.00    -0.237 OA
ATOM     76  O   UNL A   1      32.673  34.459  28.348  1.00  0.00    -0.237 OA
ATOM     77  O   UNL A   1      32.557  36.463  29.773  1.00  0.00    -0.744 OA
ENDBRANCH  70  74
ENDBRANCH  53  67
BRANCH  54  78
ATOM     78  C   UNL A   1      45.060  29.349  28.397  1.00  0.00     0.023 A 
ATOM     79  C   UNL A   1      45.992  28.391  28.859  1.00  0.00     0.031 A 
ATOM     80  C   UNL A   1      44.392  29.082  27.196  1.00  0.00     0.131 A 
ATOM     81  C   UNL A   1      46.085  27.137  28.242  1.00  0.00     0.055 A 
ATOM     82  C   UNL A   1      44.557  27.859  26.530  1.00  0.00     0.041 A 
ATOM     83  F   UNL A   1      43.477  29.937  26.716  1.00  0.00    -0.206 F 
ATOM     84  C   UNL A   1      45.365  26.861  27.079  1.00  0.00     0.022 A 
BRANCH  81  85
ATOM     85  S   UNL A   1      46.909  25.782  29.137  1.00  0.00     0.124 S 
ATOM     86  O   UNL A   1      45.946  24.696  29.000  1.00  0.00    -0.237 OA
ATOM     87  O   UNL A   1      48.163  25.618  28.406  1.00  0.00    -0.237 OA
ATOM     88  O   UNL A   1      47.077  26.318  30.487  1.00  0.00    -0.744 OA
ENDBRANCH  81  85
ENDBRANCH  54  78
BRANCH  66  89
ATOM     89  C   UNL A   1      42.525  36.160  28.812  1.00  0.00     0.023 A 
ATOM     90  C   UNL A   1      43.131  37.218  29.508  1.00  0.00     0.031 A 
ATOM     91  C   UNL A   1      42.003  36.485  27.535  1.00  0.00     0.131 A 
ATOM     92  C   UNL A   1      43.121  38.527  28.993  1.00  0.00     0.055 A 
ATOM     93  C   UNL A   1      42.073  37.770  26.988  1.00  0.00     0.041 A 
ATOM     94  F   UNL A   1      41.406  35.567  26.762  1.00  0.00    -0.206 F 
ATOM     95  C   UNL A   1      42.618  38.808  27.726  1.00  0.00     0.022 A 
BRANCH  92  96
ATOM     96  S   UNL A   1      43.715  39.871  30.055  1.00  0.00     0.124 S 
ATOM     97  O   UNL A   1      44.443  39.136  31.085  1.00  0.00    -0.237 OA
ATOM     98  O   UNL A   1      44.534  40.656  29.138  1.00  0.00    -0.237 OA
ATOM     99  O   UNL A   1      42.488  40.522  30.507  1.00  0.00    -0.744 OA
ENDBRANCH  92  96
ENDBRANCH  66  89
ENDBRANCH  40  41
ENDBRANCH  32  35
ENDBRANCH  30  31
ENDBRANCH  29  30
ENDBRANCH  28  29
ENDBRANCH   1  28
TORSDOF 21
ENDMDL
MODEL 3
REMARK VINA RESULT:     -11.8      4.459      9.800
REMARK SMILES Cc1cccc(Nc2nc(C)c(CCO)c(OCC(=O)NCCCCNC(=O)c3ccc(-c4c5nc(c(-c6cc(S(=O)(=O)[O-])ccc6F)c6ccc([nH]6)c(-c6cc(S(=O)(=O)[O-])ccc6F)c6nc(c(-c7cc(S(=O)(=O)[O-])ccc7F)c7ccc4[nH]7)C=C6)C=C5)cc3)n2)c1
REMARK SMILES IDX 22 1 21 2 19 3 20 4 18 6 17 7 16 8 8 9 9 10 92 11 10 12
REMARK SMILES IDX 11 13 12 14 7 15 6 17 1 18 2 19 3 20 93 21 4 22 5 23 13 24
REMARK SMILES IDX 14 25 15 26 23 28 24 29 25 30 26 31 27 32 28 34 29 35 30 36
REMARK SMILES IDX 91 37 31 38 90 39 32 40 33 41 34 42 84 43 35 44 89 45 83 46
REMARK SMILES IDX 85 47 36 48 88 49 82 50 81 51 37 53 69 54 49 55 68 56 50 57
REMARK SMILES IDX 53 58 67 59 86 60 51 61 52 62 66 64 87 65 54 66 38 67 39 68
REMARK SMILES IDX 47 69 40 70 46 71 48 72 45 73 41 74 42 75 43 76 44 77 70 78
REMARK SMILES IDX 71 79 79 80 72 81 78 82 80 83 77 84 73 85 74 86 75 87 76 88
REMARK SMILES IDX 55 89 56 90 64 91 57 92 63 93 65 94 62 95 58 96 59 97 60 98
REMARK SMILES IDX 61 99
REMARK H PARENT 21 5 7 16 15 27 26 33 85 52 53 63
REMARK Flexibility Score: inf
ROOT
ATOM      1  C   UNL A   1      39.143  20.752  25.790  1.00  0.00     0.116 C 
ENDROOT
BRANCH   1   2
ATOM      2  N   UNL A   1      38.791  22.102  26.207  1.00  0.00    -0.353 N 
ATOM      3  C   UNL A   1      37.771  22.897  25.802  1.00  0.00     0.258 C 
ATOM      4  O   UNL A   1      37.720  24.044  26.257  1.00  0.00    -0.271 OA
ATOM      5  H   UNL A   1      39.383  22.497  26.887  1.00  0.00     0.163 HD
BRANCH   3   6
ATOM      6  C   UNL A   1      36.682  22.359  24.852  1.00  0.00     0.331 C 
BRANCH   6   7
ATOM      7  O   UNL A   1      35.611  23.109  24.311  1.00  0.00    -0.467 OA
BRANCH   7   8
ATOM      8  C   UNL A   1      34.340  22.881  24.739  1.00  0.00     0.222 A 
ATOM      9  C   UNL A   1      32.974  21.179  25.472  1.00  0.00     0.230 A 
ATOM     10  N   UNL A   1      31.975  22.027  25.728  1.00  0.00    -0.218 NA
ATOM     11  N   UNL A   1      34.133  21.569  24.941  1.00  0.00    -0.177 NA
ATOM     12  C   UNL A   1      32.233  23.350  25.621  1.00  0.00     0.050 A 
ATOM     13  C   UNL A   1      31.124  24.227  26.128  1.00  0.00     0.067 C 
ATOM     14  C   UNL A   1      33.463  23.851  25.195  1.00  0.00     0.038 A 
BRANCH   9  15
ATOM     15  N   UNL A   1      32.780  19.867  25.910  1.00  0.00    -0.324 N 
ATOM     16  H   UNL A   1      32.465  19.773  26.838  1.00  0.00     0.170 HD
BRANCH  15  17
ATOM     17  C   UNL A   1      32.974  18.663  25.208  1.00  0.00     0.041 A 
ATOM     18  C   UNL A   1      32.362  14.925  25.786  1.00  0.00     0.044 C 
ATOM     19  C   UNL A   1      32.782  16.218  25.151  1.00  0.00    -0.049 A 
ATOM     20  C   UNL A   1      33.384  16.201  23.890  1.00  0.00     0.003 A 
ATOM     21  C   UNL A   1      32.575  17.451  25.797  1.00  0.00     0.029 A 
ATOM     22  C   UNL A   1      33.749  17.394  23.276  1.00  0.00     0.002 A 
ATOM     23  C   UNL A   1      33.531  18.612  23.925  1.00  0.00     0.026 A 
ENDBRANCH  15  17
ENDBRANCH   9  15
BRANCH  14  24
ATOM     24  C   UNL A   1      33.844  25.299  25.383  1.00  0.00     0.071 C 
BRANCH  24  25
ATOM     25  C   UNL A   1      33.563  26.169  24.153  1.00  0.00     0.161 C 
BRANCH  25  26
ATOM     26  O   UNL A   1      32.737  27.292  24.432  1.00  0.00    -0.396 OA
ATOM     27  H   UNL A   1      32.984  28.028  23.850  1.00  0.00     0.210 HD
ENDBRANCH  25  26
ENDBRANCH  24  25
ENDBRANCH  14  24
ENDBRANCH   7   8
ENDBRANCH   6   7
ENDBRANCH   3   6
ENDBRANCH   1   2
BRANCH   1  28
ATOM     28  C   UNL A   1      40.622  20.444  26.048  1.00  0.00     0.023 C 
BRANCH  28  29
ATOM     29  C   UNL A   1      41.090  20.592  27.498  1.00  0.00     0.023 C 
BRANCH  29  30
ATOM     30  C   UNL A   1      41.962  21.808  27.779  1.00  0.00     0.116 C 
BRANCH  30  31
ATOM     31  N   UNL A   1      42.654  22.353  26.625  1.00  0.00    -0.352 N 
ATOM     32  C   UNL A   1      42.403  23.527  25.929  1.00  0.00     0.251 C 
ATOM     33  H   UNL A   1      43.405  21.813  26.289  1.00  0.00     0.163 HD
ATOM     34  O   UNL A   1      42.969  23.771  24.879  1.00  0.00    -0.269 OA
BRANCH  32  35
ATOM     35  C   UNL A   1      41.543  24.567  26.561  1.00  0.00     0.039 A 
ATOM     36  C   UNL A   1      41.675  25.874  26.073  1.00  0.00     0.014 A 
ATOM     37  C   UNL A   1      40.819  24.329  27.725  1.00  0.00     0.014 A 
ATOM     38  C   UNL A   1      41.296  26.950  26.872  1.00  0.00     0.010 A 
ATOM     39  C   UNL A   1      40.524  25.392  28.559  1.00  0.00     0.010 A 
ATOM     40  C   UNL A   1      40.823  26.696  28.159  1.00  0.00    -0.014 A 
BRANCH  40  41
ATOM     41  C   UNL A   1      40.744  27.724  29.191  1.00  0.00     0.031 A 
ATOM     42  C   UNL A   1      39.704  28.767  29.142  1.00  0.00     0.074 A 
ATOM     43  C   UNL A   1      41.617  27.696  30.222  1.00  0.00     0.049 A 
ATOM     44  N   UNL A   1      39.821  29.940  29.667  1.00  0.00    -0.248 NA
ATOM     45  C   UNL A   1      38.438  28.568  28.448  1.00  0.00     0.031 C 
ATOM     46  C   UNL A   1      41.581  28.488  31.446  1.00  0.00     0.029 A 
ATOM     47  N   UNL A   1      42.873  27.096  30.232  1.00  0.00    -0.354 N 
ATOM     48  C   UNL A   1      38.582  30.536  29.634  1.00  0.00     0.074 A 
ATOM     49  C   UNL A   1      37.771  29.668  28.811  1.00  0.00     0.031 C 
ATOM     50  C   UNL A   1      42.823  28.553  31.954  1.00  0.00     0.029 A 
ATOM     51  C   UNL A   1      43.716  27.917  31.001  1.00  0.00     0.049 A 
ATOM     52  H   UNL A   1      43.124  26.256  29.784  1.00  0.00     0.167 HD
ATOM     53  C   UNL A   1      38.335  31.626  30.418  1.00  0.00     0.034 A 
ATOM     54  C   UNL A   1      44.820  28.492  30.441  1.00  0.00     0.034 A 
ATOM     55  C   UNL A   1      39.529  32.046  31.149  1.00  0.00     0.049 A 
ATOM     56  C   UNL A   1      44.778  30.006  30.455  1.00  0.00     0.074 A 
ATOM     57  C   UNL A   1      39.961  31.827  32.447  1.00  0.00     0.029 A 
ATOM     58  N   UNL A   1      40.621  32.548  30.451  1.00  0.00    -0.354 N 
ATOM     59  N   UNL A   1      43.704  30.708  30.691  1.00  0.00    -0.248 NA
ATOM     60  C   UNL A   1      45.941  30.845  30.186  1.00  0.00     0.031 C 
ATOM     61  C   UNL A   1      41.351  32.115  32.500  1.00  0.00     0.029 A 
ATOM     62  C   UNL A   1      41.752  32.550  31.247  1.00  0.00     0.049 A 
ATOM     63  H   UNL A   1      40.595  32.860  29.517  1.00  0.00     0.167 HD
ATOM     64  C   UNL A   1      43.992  32.045  30.583  1.00  0.00     0.074 A 
ATOM     65  C   UNL A   1      45.416  32.077  30.299  1.00  0.00     0.031 C 
ATOM     66  C   UNL A   1      43.031  33.009  30.720  1.00  0.00     0.034 A 
BRANCH  53  67
ATOM     67  C   UNL A   1      36.936  32.094  30.756  1.00  0.00     0.023 A 
ATOM     68  C   UNL A   1      36.161  32.743  29.772  1.00  0.00     0.031 A 
ATOM     69  C   UNL A   1      36.335  31.983  32.024  1.00  0.00     0.131 A 
ATOM     70  C   UNL A   1      34.927  33.343  30.089  1.00  0.00     0.055 A 
ATOM     71  C   UNL A   1      35.142  32.637  32.359  1.00  0.00     0.041 A 
ATOM     72  F   UNL A   1      36.855  31.197  32.978  1.00  0.00    -0.206 F 
ATOM     73  C   UNL A   1      34.437  33.337  31.392  1.00  0.00     0.022 A 
BRANCH  70  74
ATOM     74  S   UNL A   1      33.957  34.122  28.768  1.00  0.00     0.124 S 
ATOM     75  O   UNL A   1      34.889  35.111  28.237  1.00  0.00    -0.237 OA
ATOM     76  O   UNL A   1      33.653  32.989  27.902  1.00  0.00    -0.237 OA
ATOM     77  O   UNL A   1      32.806  34.681  29.477  1.00  0.00    -0.744 OA
ENDBRANCH  70  74
ENDBRANCH  53  67
BRANCH  54  78
ATOM     78  C   UNL A   1      45.451  27.636  29.391  1.00  0.00     0.023 A 
ATOM     79  C   UNL A   1      45.348  28.088  28.056  1.00  0.00     0.031 A 
ATOM     80  C   UNL A   1      46.442  26.691  29.685  1.00  0.00     0.131 A 
ATOM     81  C   UNL A   1      46.331  27.754  27.115  1.00  0.00     0.055 A 
ATOM     82  C   UNL A   1      47.371  26.289  28.716  1.00  0.00     0.041 A 
ATOM     83  F   UNL A   1      46.609  26.242  30.937  1.00  0.00    -0.206 F 
ATOM     84  C   UNL A   1      47.351  26.858  27.441  1.00  0.00     0.022 A 
BRANCH  81  85
ATOM     85  S   UNL A   1      46.440  28.728  25.581  1.00  0.00     0.124 S 
ATOM     86  O   UNL A   1      47.875  28.737  25.326  1.00  0.00    -0.237 OA
ATOM     87  O   UNL A   1      45.631  27.954  24.641  1.00  0.00    -0.237 OA
ATOM     88  O   UNL A   1      45.850  30.013  25.950  1.00  0.00    -0.744 OA
ENDBRANCH  81  85
ENDBRANCH  54  78
BRANCH  66  89
ATOM     89  C   UNL A   1      43.222  34.486  30.446  1.00  0.00     0.023 A 
ATOM     90  C   UNL A   1      42.926  35.087  29.213  1.00  0.00     0.031 A 
ATOM     91  C   UNL A   1      43.644  35.367  31.472  1.00  0.00     0.131 A 
ATOM     92  C   UNL A   1      43.137  36.463  29.005  1.00  0.00     0.055 A 
ATOM     93  C   UNL A   1      43.769  36.748  31.288  1.00  0.00     0.041 A 
ATOM     94  F   UNL A   1      43.950  34.925  32.700  1.00  0.00    -0.206 F 
ATOM     95  C   UNL A   1      43.533  37.303  30.041  1.00  0.00     0.022 A 
BRANCH  92  96
ATOM     96  S   UNL A   1      42.953  37.115  27.324  1.00  0.00     0.124 S 
ATOM     97  O   UNL A   1      41.971  36.197  26.754  1.00  0.00    -0.237 OA
ATOM     98  O   UNL A   1      42.484  38.476  27.564  1.00  0.00    -0.237 OA
ATOM     99  O   UNL A   1      44.298  37.011  26.764  1.00  0.00    -0.744 OA
ENDBRANCH  92  96
ENDBRANCH  66  89
ENDBRANCH  40  41
ENDBRANCH  32  35
ENDBRANCH  30  31
ENDBRANCH  29  30
ENDBRANCH  28  29
ENDBRANCH   1  28
TORSDOF 21
ENDMDL
