MODEL 1
REMARK VINA RESULT:     -11.7      0.000      0.000
REMARK SMILES O=C(NCCCCNC(=O)c1cn(C2C[NH+](CCC[C@@H]3CCCO3)C2)nn1)c1ccc(-c2c3nc(c(-c4cc(S(=O)(=O)[O-])ccc4F)c4ccc([nH]4)c(-c4cc(S(=O)(=O)[O-])ccc4F)c4nc(c(-c5cc(S(=O)(=O)[O-])ccc5F)c5ccc2[nH]5)C=C4)C=C3)cc1
REMARK SMILES IDX 6 1 5 2 4 3 3 4 1 5 2 6 28 8 29 9 90 10 30 11 89 12 31 13
REMARK SMILES IDX 32 14 33 15 83 16 34 17 88 18 82 19 84 20 35 21 87 22 81 23
REMARK SMILES IDX 80 24 36 26 68 27 48 28 67 29 49 30 52 31 66 32 85 33 50 34
REMARK SMILES IDX 51 35 65 37 86 38 53 39 37 40 38 41 46 42 39 43 45 44 47 45
REMARK SMILES IDX 44 46 40 47 41 48 42 49 43 50 69 51 70 52 78 53 71 54 77 55
REMARK SMILES IDX 79 56 76 57 72 58 73 59 74 60 75 61 54 62 55 63 63 64 56 65
REMARK SMILES IDX 62 66 64 67 61 68 57 69 58 70 59 71 60 72 7 73 8 74 9 75
REMARK SMILES IDX 10 77 11 78 12 79 27 80 13 81 26 82 14 83 15 84 25 85 16 86
REMARK SMILES IDX 17 88 18 89 19 90 20 91 21 92 24 93 22 94 23 95
REMARK H PARENT 3 7 84 25 52 36 8 76 16 87
REMARK Flexibility Score: inf
ROOT
ATOM      1  C   UNL A   1      37.733  21.574  25.295  1.00  0.00     0.023 C 
ENDROOT
BRANCH   1   2
ATOM      2  C   UNL A   1      38.626  22.529  26.094  1.00  0.00     0.023 C 
BRANCH   2   3
ATOM      3  C   UNL A   1      39.832  21.888  26.776  1.00  0.00     0.116 C 
BRANCH   3   4
ATOM      4  N   UNL A   1      41.101  22.134  26.125  1.00  0.00    -0.352 N 
ATOM      5  O   UNL A   1      43.124  22.866  25.647  1.00  0.00    -0.269 OA
ATOM      6  C   UNL A   1      42.062  23.104  26.231  1.00  0.00     0.251 C 
ATOM      7  H   UNL A   1      41.324  21.449  25.453  1.00  0.00     0.163 HD
BRANCH   6   8
ATOM      8  C   UNL A   1      41.898  24.416  26.921  1.00  0.00     0.039 A 
ATOM      9  C   UNL A   1      42.491  24.794  28.125  1.00  0.00     0.014 A 
ATOM     10  C   UNL A   1      41.046  25.339  26.280  1.00  0.00     0.014 A 
ATOM     11  C   UNL A   1      42.180  26.026  28.709  1.00  0.00     0.010 A 
ATOM     12  C   UNL A   1      40.736  26.570  26.856  1.00  0.00     0.010 A 
ATOM     13  C   UNL A   1      41.285  26.907  28.087  1.00  0.00    -0.014 A 
BRANCH  13  14
ATOM     14  C   UNL A   1      41.137  28.259  28.637  1.00  0.00     0.031 A 
ATOM     15  C   UNL A   1      42.206  29.195  28.191  1.00  0.00     0.074 A 
ATOM     16  C   UNL A   1      40.097  28.719  29.364  1.00  0.00     0.049 A 
ATOM     17  N   UNL A   1      43.160  29.697  28.902  1.00  0.00    -0.248 NA
ATOM     18  C   UNL A   1      42.322  29.487  26.754  1.00  0.00     0.031 C 
ATOM     19  C   UNL A   1      38.839  28.038  29.669  1.00  0.00     0.029 A 
ATOM     20  N   UNL A   1      39.915  29.955  29.928  1.00  0.00    -0.354 N 
ATOM     21  C   UNL A   1      43.862  30.554  28.060  1.00  0.00     0.074 A 
ATOM     22  C   UNL A   1      43.422  30.242  26.726  1.00  0.00     0.031 C 
ATOM     23  C   UNL A   1      37.954  28.931  30.176  1.00  0.00     0.029 A 
ATOM     24  C   UNL A   1      38.613  30.218  30.354  1.00  0.00     0.049 A 
ATOM     25  H   UNL A   1      40.647  30.607  30.024  1.00  0.00     0.167 HD
ATOM     26  C   UNL A   1      44.583  31.598  28.555  1.00  0.00     0.034 A 
ATOM     27  C   UNL A   1      38.098  31.406  30.785  1.00  0.00     0.034 A 
ATOM     28  C   UNL A   1      44.810  31.446  29.974  1.00  0.00     0.049 A 
ATOM     29  C   UNL A   1      39.238  32.231  31.251  1.00  0.00     0.074 A 
ATOM     30  C   UNL A   1      45.413  30.484  30.764  1.00  0.00     0.029 A 
ATOM     31  N   UNL A   1      44.054  32.207  30.836  1.00  0.00    -0.354 N 
ATOM     32  N   UNL A   1      39.952  31.937  32.302  1.00  0.00    -0.248 NA
ATOM     33  C   UNL A   1      39.884  33.115  30.292  1.00  0.00     0.031 C 
ATOM     34  C   UNL A   1      44.590  30.399  31.925  1.00  0.00     0.029 A 
ATOM     35  C   UNL A   1      43.591  31.368  31.818  1.00  0.00     0.049 A 
ATOM     36  H   UNL A   1      43.878  33.173  30.762  1.00  0.00     0.167 HD
ATOM     37  C   UNL A   1      41.259  32.208  31.929  1.00  0.00     0.074 A 
ATOM     38  C   UNL A   1      41.146  33.021  30.719  1.00  0.00     0.031 C 
ATOM     39  C   UNL A   1      42.306  31.519  32.473  1.00  0.00     0.034 A 
BRANCH  26  40
ATOM     40  C   UNL A   1      44.773  32.934  27.866  1.00  0.00     0.023 A 
ATOM     41  C   UNL A   1      43.931  33.990  28.270  1.00  0.00     0.031 A 
ATOM     42  C   UNL A   1      45.486  33.144  26.666  1.00  0.00     0.131 A 
ATOM     43  C   UNL A   1      43.728  35.110  27.446  1.00  0.00     0.055 A 
ATOM     44  C   UNL A   1      45.337  34.296  25.886  1.00  0.00     0.041 A 
ATOM     45  F   UNL A   1      46.289  32.220  26.127  1.00  0.00    -0.206 F 
ATOM     46  C   UNL A   1      44.426  35.270  26.254  1.00  0.00     0.022 A 
BRANCH  43  47
ATOM     47  S   UNL A   1      42.389  36.254  27.870  1.00  0.00     0.124 S 
ATOM     48  O   UNL A   1      41.314  35.329  28.210  1.00  0.00    -0.237 OA
ATOM     49  O   UNL A   1      42.972  37.001  28.980  1.00  0.00    -0.237 OA
ATOM     50  O   UNL A   1      42.193  37.017  26.640  1.00  0.00    -0.744 OA
ENDBRANCH  43  47
ENDBRANCH  26  40
BRANCH  27  51
ATOM     51  C   UNL A   1      36.735  31.977  30.546  1.00  0.00     0.023 A 
ATOM     52  C   UNL A   1      35.975  32.637  31.543  1.00  0.00     0.031 A 
ATOM     53  C   UNL A   1      36.270  32.108  29.218  1.00  0.00     0.131 A 
ATOM     54  C   UNL A   1      34.818  33.380  31.192  1.00  0.00     0.055 A 
ATOM     55  C   UNL A   1      35.131  32.842  28.878  1.00  0.00     0.041 A 
ATOM     56  F   UNL A   1      36.963  31.599  28.187  1.00  0.00    -0.206 F 
ATOM     57  C   UNL A   1      34.406  33.490  29.863  1.00  0.00     0.022 A 
BRANCH  54  58
ATOM     58  S   UNL A   1      33.869  34.306  32.451  1.00  0.00     0.124 S 
ATOM     59  O   UNL A   1      32.951  35.092  31.635  1.00  0.00    -0.237 OA
ATOM     60  O   UNL A   1      33.280  33.239  33.251  1.00  0.00    -0.237 OA
ATOM     61  O   UNL A   1      34.895  35.089  33.143  1.00  0.00    -0.744 OA
ENDBRANCH  54  58
ENDBRANCH  27  51
BRANCH  39  62
ATOM     62  C   UNL A   1      42.069  30.694  33.721  1.00  0.00     0.023 A 
ATOM     63  C   UNL A   1      42.076  29.282  33.779  1.00  0.00     0.031 A 
ATOM     64  C   UNL A   1      41.943  31.395  34.934  1.00  0.00     0.131 A 
ATOM     65  C   UNL A   1      41.947  28.629  35.021  1.00  0.00     0.055 A 
ATOM     66  C   UNL A   1      41.841  30.746  36.163  1.00  0.00     0.041 A 
ATOM     67  F   UNL A   1      41.951  32.739  34.949  1.00  0.00    -0.206 F 
ATOM     68  C   UNL A   1      41.836  29.358  36.209  1.00  0.00     0.022 A 
BRANCH  65  69
ATOM     69  S   UNL A   1      41.902  26.809  35.117  1.00  0.00     0.124 S 
ATOM     70  O   UNL A   1      40.624  26.465  34.505  1.00  0.00    -0.237 OA
ATOM     71  O   UNL A   1      43.095  26.424  34.367  1.00  0.00    -0.237 OA
ATOM     72  O   UNL A   1      41.980  26.543  36.555  1.00  0.00    -0.744 OA
ENDBRANCH  65  69
ENDBRANCH  39  62
ENDBRANCH  13  14
ENDBRANCH   6   8
ENDBRANCH   3   4
ENDBRANCH   2   3
ENDBRANCH   1   2
BRANCH   1  73
ATOM     73  C   UNL A   1      36.278  21.472  25.754  1.00  0.00     0.116 C 
BRANCH  73  74
ATOM     74  N   UNL A   1      35.632  20.247  25.306  1.00  0.00    -0.351 N 
ATOM     75  C   UNL A   1      34.340  20.042  24.904  1.00  0.00     0.273 C 
ATOM     76  H   UNL A   1      36.209  19.449  25.292  1.00  0.00     0.163 HD
ATOM     77  O   UNL A   1      33.962  18.872  24.709  1.00  0.00    -0.267 OA
BRANCH  75  78
ATOM     78  C   UNL A   1      33.458  21.170  24.700  1.00  0.00     0.170 A 
ATOM     79  C   UNL A   1      33.474  22.109  23.681  1.00  0.00     0.145 A 
ATOM     80  N   UNL A   1      32.397  21.437  25.528  1.00  0.00    -0.125 NA
ATOM     81  N   UNL A   1      32.467  22.967  24.014  1.00  0.00    -0.237 N 
ATOM     82  N   UNL A   1      31.808  22.544  25.106  1.00  0.00    -0.066 NA
BRANCH  81  83
ATOM     83  C   UNL A   1      32.128  24.218  23.421  1.00  0.00     0.218 C 
ATOM     84  C   UNL A   1      30.602  24.493  23.301  1.00  0.00     0.295 C 
ATOM     85  C   UNL A   1      32.097  25.431  24.370  1.00  0.00     0.295 C 
ATOM     86  N   UNL A   1      30.856  25.891  23.698  1.00  0.00    -0.331 N 
ATOM     87  H   UNL A   1      30.141  26.426  24.191  1.00  0.00     0.348 HD
BRANCH  86  88
ATOM     88  C   UNL A   1      31.087  26.840  22.593  1.00  0.00     0.262 C 
BRANCH  88  89
ATOM     89  C   UNL A   1      30.307  28.153  22.336  1.00  0.00     0.064 C 
BRANCH  89  90
ATOM     90  C   UNL A   1      29.753  28.996  23.495  1.00  0.00     0.038 C 
BRANCH  90  91
ATOM     91  C   UNL A   1      29.308  30.440  23.251  1.00  0.00     0.118 C 
ATOM     92  C   UNL A   1      27.867  30.832  23.519  1.00  0.00     0.034 C 
ATOM     93  O   UNL A   1      29.547  30.746  21.856  1.00  0.00    -0.378 OA
ATOM     94  C   UNL A   1      27.653  31.958  22.537  1.00  0.00     0.031 C 
ATOM     95  C   UNL A   1      28.400  31.433  21.332  1.00  0.00     0.160 C 
ENDBRANCH  90  91
ENDBRANCH  89  90
ENDBRANCH  88  89
ENDBRANCH  86  88
ENDBRANCH  81  83
ENDBRANCH  75  78
ENDBRANCH  73  74
ENDBRANCH   1  73
TORSDOF 19
ENDMDL
MODEL 2
REMARK VINA RESULT:     -11.6      1.591      2.331
REMARK SMILES O=C(NCCCCNC(=O)c1cn(C2C[NH+](CCC[C@@H]3CCCO3)C2)nn1)c1ccc(-c2c3nc(c(-c4cc(S(=O)(=O)[O-])ccc4F)c4ccc([nH]4)c(-c4cc(S(=O)(=O)[O-])ccc4F)c4nc(c(-c5cc(S(=O)(=O)[O-])ccc5F)c5ccc2[nH]5)C=C4)C=C3)cc1
REMARK SMILES IDX 6 1 5 2 4 3 3 4 1 5 2 6 28 8 29 9 90 10 30 11 89 12 31 13
REMARK SMILES IDX 32 14 33 15 83 16 34 17 88 18 82 19 84 20 35 21 87 22 81 23
REMARK SMILES IDX 80 24 36 26 68 27 48 28 67 29 49 30 52 31 66 32 85 33 50 34
REMARK SMILES IDX 51 35 65 37 86 38 53 39 37 40 38 41 46 42 39 43 45 44 47 45
REMARK SMILES IDX 44 46 40 47 41 48 42 49 43 50 69 51 70 52 78 53 71 54 77 55
REMARK SMILES IDX 79 56 76 57 72 58 73 59 74 60 75 61 54 62 55 63 63 64 56 65
REMARK SMILES IDX 62 66 64 67 61 68 57 69 58 70 59 71 60 72 7 73 8 74 9 75
REMARK SMILES IDX 10 77 11 78 12 79 27 80 13 81 26 82 14 83 15 84 25 85 16 86
REMARK SMILES IDX 17 88 18 89 19 90 20 91 21 92 24 93 22 94 23 95
REMARK H PARENT 3 7 84 25 52 36 8 76 16 87
REMARK Flexibility Score: inf
ROOT
ATOM      1  C   UNL A   1      36.605  21.018  25.055  1.00  0.00     0.023 C 
ENDROOT
BRANCH   1   2
ATOM      2  C   UNL A   1      37.605  22.158  24.833  1.00  0.00     0.023 C 
BRANCH   2   3
ATOM      3  C   UNL A   1      38.269  22.707  26.094  1.00  0.00     0.116 C 
BRANCH   3   4
ATOM      4  N   UNL A   1      39.684  22.427  26.208  1.00  0.00    -0.352 N 
ATOM      5  O   UNL A   1      41.794  22.431  26.844  1.00  0.00    -0.269 OA
ATOM      6  C   UNL A   1      40.751  23.087  26.757  1.00  0.00     0.251 C 
ATOM      7  H   UNL A   1      39.937  21.568  25.797  1.00  0.00     0.163 HD
BRANCH   6   8
ATOM      8  C   UNL A   1      40.762  24.516  27.180  1.00  0.00     0.039 A 
ATOM      9  C   UNL A   1      40.129  25.574  26.528  1.00  0.00     0.014 A 
ATOM     10  C   UNL A   1      41.501  24.801  28.348  1.00  0.00     0.014 A 
ATOM     11  C   UNL A   1      40.294  26.885  26.984  1.00  0.00     0.010 A 
ATOM     12  C   UNL A   1      41.664  26.107  28.809  1.00  0.00     0.010 A 
ATOM     13  C   UNL A   1      41.081  27.157  28.112  1.00  0.00    -0.014 A 
BRANCH  13  14
ATOM     14  C   UNL A   1      41.070  28.517  28.663  1.00  0.00     0.031 A 
ATOM     15  C   UNL A   1      42.226  29.342  28.214  1.00  0.00     0.074 A 
ATOM     16  C   UNL A   1      40.083  29.077  29.393  1.00  0.00     0.049 A 
ATOM     17  N   UNL A   1      43.227  29.746  28.923  1.00  0.00    -0.248 NA
ATOM     18  C   UNL A   1      42.367  29.623  26.777  1.00  0.00     0.031 C 
ATOM     19  C   UNL A   1      38.764  28.524  29.701  1.00  0.00     0.029 A 
ATOM     20  N   UNL A   1      40.027  30.325  29.958  1.00  0.00    -0.354 N 
ATOM     21  C   UNL A   1      44.009  30.530  28.078  1.00  0.00     0.074 A 
ATOM     22  C   UNL A   1      43.536  30.264  26.746  1.00  0.00     0.031 C 
ATOM     23  C   UNL A   1      37.974  29.500  30.211  1.00  0.00     0.029 A 
ATOM     24  C   UNL A   1      38.758  30.716  30.387  1.00  0.00     0.049 A 
ATOM     25  H   UNL A   1      40.820  30.901  30.052  1.00  0.00     0.167 HD
ATOM     26  C   UNL A   1      44.831  31.497  28.572  1.00  0.00     0.034 A 
ATOM     27  C   UNL A   1      38.365  31.949  30.821  1.00  0.00     0.034 A 
ATOM     28  C   UNL A   1      45.046  31.321  29.990  1.00  0.00     0.049 A 
ATOM     29  C   UNL A   1      39.583  32.655  31.284  1.00  0.00     0.074 A 
ATOM     30  C   UNL A   1      45.552  30.304  30.778  1.00  0.00     0.029 A 
ATOM     31  N   UNL A   1      44.372  32.153  30.855  1.00  0.00    -0.354 N 
ATOM     32  N   UNL A   1      40.268  32.291  32.332  1.00  0.00    -0.248 NA
ATOM     33  C   UNL A   1      40.311  33.472  30.323  1.00  0.00     0.031 C 
ATOM     34  C   UNL A   1      44.728  30.300  31.941  1.00  0.00     0.029 A 
ATOM     35  C   UNL A   1      43.830  31.364  31.838  1.00  0.00     0.049 A 
ATOM     36  H   UNL A   1      44.292  33.132  30.782  1.00  0.00     0.167 HD
ATOM     37  C   UNL A   1      41.594  32.432  31.956  1.00  0.00     0.074 A 
ATOM     38  C   UNL A   1      41.559  33.253  30.747  1.00  0.00     0.031 C 
ATOM     39  C   UNL A   1      42.568  31.642  32.497  1.00  0.00     0.034 A 
BRANCH  26  40
ATOM     40  C   UNL A   1      45.151  32.807  27.883  1.00  0.00     0.023 A 
ATOM     41  C   UNL A   1      44.342  33.916  28.205  1.00  0.00     0.031 A 
ATOM     42  C   UNL A   1      45.967  32.956  26.741  1.00  0.00     0.131 A 
ATOM     43  C   UNL A   1      44.269  35.031  27.354  1.00  0.00     0.055 A 
ATOM     44  C   UNL A   1      45.946  34.101  25.936  1.00  0.00     0.041 A 
ATOM     45  F   UNL A   1      46.755  31.979  26.279  1.00  0.00    -0.206 F 
ATOM     46  C   UNL A   1      45.066  35.132  26.219  1.00  0.00     0.022 A 
BRANCH  43  47
ATOM     47  S   UNL A   1      42.969  36.256  27.656  1.00  0.00     0.124 S 
ATOM     48  O   UNL A   1      42.750  36.099  29.090  1.00  0.00    -0.237 OA
ATOM     49  O   UNL A   1      43.617  37.494  27.234  1.00  0.00    -0.237 OA
ATOM     50  O   UNL A   1      41.873  35.804  26.803  1.00  0.00    -0.744 OA
ENDBRANCH  43  47
ENDBRANCH  26  40
BRANCH  27  51
ATOM     51  C   UNL A   1      37.065  32.652  30.586  1.00  0.00     0.023 A 
ATOM     52  C   UNL A   1      36.160  32.993  31.621  1.00  0.00     0.031 A 
ATOM     53  C   UNL A   1      36.824  33.244  29.326  1.00  0.00     0.131 A 
ATOM     54  C   UNL A   1      35.083  33.883  31.371  1.00  0.00     0.055 A 
ATOM     55  C   UNL A   1      35.763  34.120  29.086  1.00  0.00     0.041 A 
ATOM     56  F   UNL A   1      37.670  33.061  28.300  1.00  0.00    -0.206 F 
ATOM     57  C   UNL A   1      34.893  34.452  30.111  1.00  0.00     0.022 A 
BRANCH  54  58
ATOM     58  S   UNL A   1      33.951  34.401  32.710  1.00  0.00     0.124 S 
ATOM     59  O   UNL A   1      34.817  35.215  33.554  1.00  0.00    -0.237 OA
ATOM     60  O   UNL A   1      32.900  35.104  31.983  1.00  0.00    -0.237 OA
ATOM     61  O   UNL A   1      33.530  33.133  33.310  1.00  0.00    -0.744 OA
ENDBRANCH  54  58
ENDBRANCH  27  51
BRANCH  39  62
ATOM     62  C   UNL A   1      42.254  30.843  33.745  1.00  0.00     0.023 A 
ATOM     63  C   UNL A   1      42.056  29.444  33.791  1.00  0.00     0.031 A 
ATOM     64  C   UNL A   1      42.272  31.538  34.967  1.00  0.00     0.131 A 
ATOM     65  C   UNL A   1      41.873  28.800  35.031  1.00  0.00     0.055 A 
ATOM     66  C   UNL A   1      42.116  30.895  36.193  1.00  0.00     0.041 A 
ATOM     67  F   UNL A   1      42.478  32.866  34.993  1.00  0.00    -0.206 F 
ATOM     68  C   UNL A   1      41.910  29.522  36.228  1.00  0.00     0.022 A 
BRANCH  65  69
ATOM     69  S   UNL A   1      41.565  27.006  35.113  1.00  0.00     0.124 S 
ATOM     70  O   UNL A   1      40.483  26.800  34.157  1.00  0.00    -0.237 OA
ATOM     71  O   UNL A   1      42.862  26.446  34.741  1.00  0.00    -0.237 OA
ATOM     72  O   UNL A   1      41.191  26.790  36.512  1.00  0.00    -0.744 OA
ENDBRANCH  65  69
ENDBRANCH  39  62
ENDBRANCH  13  14
ENDBRANCH   6   8
ENDBRANCH   3   4
ENDBRANCH   2   3
ENDBRANCH   1   2
BRANCH   1  73
ATOM     73  C   UNL A   1      35.349  21.371  25.851  1.00  0.00     0.116 C 
BRANCH  73  74
ATOM     74  N   UNL A   1      34.206  20.543  25.494  1.00  0.00    -0.351 N 
ATOM     75  C   UNL A   1      32.868  20.822  25.582  1.00  0.00     0.273 C 
ATOM     76  H   UNL A   1      34.427  19.653  25.138  1.00  0.00     0.163 HD
ATOM     77  O   UNL A   1      32.059  19.903  25.364  1.00  0.00    -0.267 OA
BRANCH  75  78
ATOM     78  C   UNL A   1      32.429  22.162  25.906  1.00  0.00     0.170 A 
ATOM     79  C   UNL A   1      32.061  23.185  25.046  1.00  0.00     0.145 A 
ATOM     80  N   UNL A   1      32.270  22.595  27.198  1.00  0.00    -0.125 NA
ATOM     81  N   UNL A   1      31.795  24.231  25.880  1.00  0.00    -0.237 N 
ATOM     82  N   UNL A   1      31.896  23.864  27.169  1.00  0.00    -0.066 NA
BRANCH  81  83
ATOM     83  C   UNL A   1      31.534  25.592  25.548  1.00  0.00     0.218 C 
ATOM     84  C   UNL A   1      32.705  26.330  24.839  1.00  0.00     0.295 C 
ATOM     85  C   UNL A   1      30.801  25.836  24.215  1.00  0.00     0.295 C 
ATOM     86  N   UNL A   1      31.719  26.972  23.950  1.00  0.00    -0.331 N 
ATOM     87  H   UNL A   1      31.979  27.247  23.003  1.00  0.00     0.348 HD
BRANCH  86  88
ATOM     88  C   UNL A   1      31.204  28.279  24.401  1.00  0.00     0.262 C 
BRANCH  88  89
ATOM     89  C   UNL A   1      32.011  29.372  25.146  1.00  0.00     0.064 C 
BRANCH  89  90
ATOM     90  C   UNL A   1      31.849  29.599  26.657  1.00  0.00     0.038 C 
BRANCH  90  91
ATOM     91  C   UNL A   1      33.083  29.799  27.540  1.00  0.00     0.118 C 
ATOM     92  C   UNL A   1      33.961  31.019  27.331  1.00  0.00     0.034 C 
ATOM     93  O   UNL A   1      33.948  28.653  27.357  1.00  0.00    -0.378 OA
ATOM     94  C   UNL A   1      35.315  30.518  27.773  1.00  0.00     0.031 C 
ATOM     95  C   UNL A   1      35.299  29.115  27.211  1.00  0.00     0.160 C 
ENDBRANCH  90  91
ENDBRANCH  89  90
ENDBRANCH  88  89
ENDBRANCH  86  88
ENDBRANCH  81  83
ENDBRANCH  75  78
ENDBRANCH  73  74
ENDBRANCH   1  73
TORSDOF 19
ENDMDL
MODEL 3
REMARK VINA RESULT:     -11.4      1.900      2.239
REMARK SMILES O=C(NCCCCNC(=O)c1cn(C2C[NH+](CCC[C@@H]3CCCO3)C2)nn1)c1ccc(-c2c3nc(c(-c4cc(S(=O)(=O)[O-])ccc4F)c4ccc([nH]4)c(-c4cc(S(=O)(=O)[O-])ccc4F)c4nc(c(-c5cc(S(=O)(=O)[O-])ccc5F)c5ccc2[nH]5)C=C4)C=C3)cc1
REMARK SMILES IDX 6 1 5 2 4 3 3 4 1 5 2 6 28 8 29 9 90 10 30 11 89 12 31 13
REMARK SMILES IDX 32 14 33 15 83 16 34 17 88 18 82 19 84 20 35 21 87 22 81 23
REMARK SMILES IDX 80 24 36 26 68 27 48 28 67 29 49 30 52 31 66 32 85 33 50 34
REMARK SMILES IDX 51 35 65 37 86 38 53 39 37 40 38 41 46 42 39 43 45 44 47 45
REMARK SMILES IDX 44 46 40 47 41 48 42 49 43 50 69 51 70 52 78 53 71 54 77 55
REMARK SMILES IDX 79 56 76 57 72 58 73 59 74 60 75 61 54 62 55 63 63 64 56 65
REMARK SMILES IDX 62 66 64 67 61 68 57 69 58 70 59 71 60 72 7 73 8 74 9 75
REMARK SMILES IDX 10 77 11 78 12 79 27 80 13 81 26 82 14 83 15 84 25 85 16 86
REMARK SMILES IDX 17 88 18 89 19 90 20 91 21 92 24 93 22 94 23 95
REMARK H PARENT 3 7 84 25 52 36 8 76 16 87
REMARK Flexibility Score: inf
ROOT
ATOM      1  C   UNL A   1      36.590  20.392  24.996  1.00  0.00     0.023 C 
ENDROOT
BRANCH   1   2
ATOM      2  C   UNL A   1      37.709  21.364  24.606  1.00  0.00     0.023 C 
BRANCH   2   3
ATOM      3  C   UNL A   1      38.208  22.278  25.722  1.00  0.00     0.116 C 
BRANCH   3   4
ATOM      4  N   UNL A   1      39.418  21.832  26.379  1.00  0.00    -0.352 N 
ATOM      5  O   UNL A   1      41.109  21.623  27.777  1.00  0.00    -0.269 OA
ATOM      6  C   UNL A   1      40.286  22.396  27.278  1.00  0.00     0.251 C 
ATOM      7  H   UNL A   1      39.676  20.917  26.122  1.00  0.00     0.163 HD
BRANCH   6   8
ATOM      8  C   UNL A   1      40.348  23.843  27.631  1.00  0.00     0.039 A 
ATOM      9  C   UNL A   1      39.402  24.813  27.303  1.00  0.00     0.014 A 
ATOM     10  C   UNL A   1      41.491  24.244  28.355  1.00  0.00     0.014 A 
ATOM     11  C   UNL A   1      39.628  26.156  27.622  1.00  0.00     0.010 A 
ATOM     12  C   UNL A   1      41.719  25.581  28.678  1.00  0.00     0.010 A 
ATOM     13  C   UNL A   1      40.798  26.546  28.289  1.00  0.00    -0.014 A 
BRANCH  13  14
ATOM     14  C   UNL A   1      40.903  27.929  28.768  1.00  0.00     0.031 A 
ATOM     15  C   UNL A   1      42.031  28.681  28.150  1.00  0.00     0.074 A 
ATOM     16  C   UNL A   1      40.028  28.566  29.576  1.00  0.00     0.049 A 
ATOM     17  N   UNL A   1      43.121  29.072  28.721  1.00  0.00    -0.248 NA
ATOM     18  C   UNL A   1      42.016  28.889  26.694  1.00  0.00     0.031 C 
ATOM     19  C   UNL A   1      38.734  28.086  30.058  1.00  0.00     0.029 A 
ATOM     20  N   UNL A   1      40.086  29.839  30.079  1.00  0.00    -0.354 N 
ATOM     21  C   UNL A   1      43.831  29.781  27.755  1.00  0.00     0.074 A 
ATOM     22  C   UNL A   1      43.198  29.475  26.499  1.00  0.00     0.031 C 
ATOM     23  C   UNL A   1      38.045  29.118  30.604  1.00  0.00     0.029 A 
ATOM     24  C   UNL A   1      38.891  30.305  30.629  1.00  0.00     0.049 A 
ATOM     25  H   UNL A   1      40.906  30.383  30.054  1.00  0.00     0.167 HD
ATOM     26  C   UNL A   1      44.741  30.732  28.103  1.00  0.00     0.034 A 
ATOM     27  C   UNL A   1      38.598  31.572  31.041  1.00  0.00     0.034 A 
ATOM     28  C   UNL A   1      45.110  30.612  29.495  1.00  0.00     0.049 A 
ATOM     29  C   UNL A   1      39.888  32.245  31.327  1.00  0.00     0.074 A 
ATOM     30  C   UNL A   1      45.664  29.611  30.271  1.00  0.00     0.029 A 
ATOM     31  N   UNL A   1      44.573  31.512  30.387  1.00  0.00    -0.354 N 
ATOM     32  N   UNL A   1      40.674  31.899  32.309  1.00  0.00    -0.248 NA
ATOM     33  C   UNL A   1      40.532  32.983  30.251  1.00  0.00     0.031 C 
ATOM     34  C   UNL A   1      44.980  29.697  31.519  1.00  0.00     0.029 A 
ATOM     35  C   UNL A   1      44.117  30.793  31.464  1.00  0.00     0.049 A 
ATOM     36  H   UNL A   1      44.523  32.489  30.274  1.00  0.00     0.167 HD
ATOM     37  C   UNL A   1      41.952  31.963  31.780  1.00  0.00     0.074 A 
ATOM     38  C   UNL A   1      41.811  32.729  30.541  1.00  0.00     0.031 C 
ATOM     39  C   UNL A   1      42.951  31.157  32.246  1.00  0.00     0.034 A 
BRANCH  26  40
ATOM     40  C   UNL A   1      45.030  31.994  27.318  1.00  0.00     0.023 A 
ATOM     41  C   UNL A   1      46.368  32.221  26.936  1.00  0.00     0.031 A 
ATOM     42  C   UNL A   1      44.162  33.102  27.195  1.00  0.00     0.131 A 
ATOM     43  C   UNL A   1      46.814  33.508  26.589  1.00  0.00     0.055 A 
ATOM     44  C   UNL A   1      44.597  34.365  26.778  1.00  0.00     0.041 A 
ATOM     45  F   UNL A   1      42.876  33.060  27.561  1.00  0.00    -0.206 F 
ATOM     46  C   UNL A   1      45.937  34.583  26.508  1.00  0.00     0.022 A 
BRANCH  43  47
ATOM     47  S   UNL A   1      48.598  33.784  26.439  1.00  0.00     0.124 S 
ATOM     48  O   UNL A   1      48.882  34.523  27.664  1.00  0.00    -0.237 OA
ATOM     49  O   UNL A   1      49.110  32.419  26.377  1.00  0.00    -0.237 OA
ATOM     50  O   UNL A   1      48.719  34.551  25.202  1.00  0.00    -0.744 OA
ENDBRANCH  43  47
ENDBRANCH  26  40
BRANCH  27  51
ATOM     51  C   UNL A   1      37.308  32.321  30.919  1.00  0.00     0.023 A 
ATOM     52  C   UNL A   1      36.567  32.793  32.030  1.00  0.00     0.031 A 
ATOM     53  C   UNL A   1      36.922  32.819  29.655  1.00  0.00     0.131 A 
ATOM     54  C   UNL A   1      35.504  33.715  31.847  1.00  0.00     0.055 A 
ATOM     55  C   UNL A   1      35.874  33.726  29.480  1.00  0.00     0.041 A 
ATOM     56  F   UNL A   1      37.612  32.508  28.546  1.00  0.00    -0.206 F 
ATOM     57  C   UNL A   1      35.167  34.187  30.578  1.00  0.00     0.022 A 
BRANCH  54  58
ATOM     58  S   UNL A   1      34.587  34.400  33.274  1.00  0.00     0.124 S 
ATOM     59  O   UNL A   1      35.023  33.540  34.367  1.00  0.00    -0.237 OA
ATOM     60  O   UNL A   1      35.046  35.784  33.309  1.00  0.00    -0.237 OA
ATOM     61  O   UNL A   1      33.184  34.235  32.889  1.00  0.00    -0.744 OA
ENDBRANCH  54  58
ENDBRANCH  27  51
BRANCH  39  62
ATOM     62  C   UNL A   1      42.752  30.431  33.560  1.00  0.00     0.023 A 
ATOM     63  C   UNL A   1      42.271  29.108  33.698  1.00  0.00     0.031 A 
ATOM     64  C   UNL A   1      43.185  31.090  34.724  1.00  0.00     0.131 A 
ATOM     65  C   UNL A   1      42.228  28.505  34.970  1.00  0.00     0.055 A 
ATOM     66  C   UNL A   1      43.165  30.481  35.977  1.00  0.00     0.041 A 
ATOM     67  F   UNL A   1      43.673  32.341  34.658  1.00  0.00    -0.206 F 
ATOM     68  C   UNL A   1      42.679  29.186  36.105  1.00  0.00     0.022 A 
BRANCH  65  69
ATOM     69  S   UNL A   1      41.565  26.820  35.181  1.00  0.00     0.124 S 
ATOM     70  O   UNL A   1      42.699  25.962  34.859  1.00  0.00    -0.237 OA
ATOM     71  O   UNL A   1      41.141  26.822  36.579  1.00  0.00    -0.237 OA
ATOM     72  O   UNL A   1      40.465  26.765  34.216  1.00  0.00    -0.744 OA
ENDBRANCH  65  69
ENDBRANCH  39  62
ENDBRANCH  13  14
ENDBRANCH   6   8
ENDBRANCH   3   4
ENDBRANCH   2   3
ENDBRANCH   1   2
BRANCH   1  73
ATOM     73  C   UNL A   1      35.294  21.026  25.501  1.00  0.00     0.116 C 
BRANCH  73  74
ATOM     74  N   UNL A   1      34.196  20.074  25.581  1.00  0.00    -0.351 N 
ATOM     75  C   UNL A   1      32.937  20.153  25.050  1.00  0.00     0.273 C 
ATOM     76  H   UNL A   1      34.387  19.255  26.093  1.00  0.00     0.163 HD
ATOM     77  O   UNL A   1      32.105  19.287  25.376  1.00  0.00    -0.267 OA
BRANCH  75  78
ATOM     78  C   UNL A   1      32.607  21.213  24.123  1.00  0.00     0.170 A 
ATOM     79  C   UNL A   1      32.646  22.583  24.323  1.00  0.00     0.145 A 
ATOM     80  N   UNL A   1      32.233  20.969  22.825  1.00  0.00    -0.125 NA
ATOM     81  N   UNL A   1      32.185  23.097  23.148  1.00  0.00    -0.237 N 
ATOM     82  N   UNL A   1      31.964  22.127  22.244  1.00  0.00    -0.066 NA
BRANCH  81  83
ATOM     83  C   UNL A   1      31.849  24.447  22.834  1.00  0.00     0.218 C 
ATOM     84  C   UNL A   1      30.549  24.971  23.508  1.00  0.00     0.295 C 
ATOM     85  C   UNL A   1      32.527  25.531  23.695  1.00  0.00     0.295 C 
ATOM     86  N   UNL A   1      31.232  26.255  23.752  1.00  0.00    -0.331 N 
ATOM     87  H   UNL A   1      30.972  26.836  24.549  1.00  0.00     0.348 HD
BRANCH  86  88
ATOM     88  C   UNL A   1      31.069  27.278  22.701  1.00  0.00     0.262 C 
BRANCH  88  89
ATOM     89  C   UNL A   1      31.104  28.813  22.905  1.00  0.00     0.064 C 
BRANCH  89  90
ATOM     90  C   UNL A   1      30.061  29.530  23.777  1.00  0.00     0.038 C 
BRANCH  90  91
ATOM     91  C   UNL A   1      28.880  30.252  23.124  1.00  0.00     0.118 C 
ATOM     92  C   UNL A   1      28.628  30.081  21.638  1.00  0.00     0.034 C 
ATOM     93  O   UNL A   1      29.061  31.673  23.333  1.00  0.00    -0.378 OA
ATOM     94  C   UNL A   1      27.971  31.390  21.272  1.00  0.00     0.031 C 
ATOM     95  C   UNL A   1      28.779  32.359  22.105  1.00  0.00     0.160 C 
ENDBRANCH  90  91
ENDBRANCH  89  90
ENDBRANCH  88  89
ENDBRANCH  86  88
ENDBRANCH  81  83
ENDBRANCH  75  78
ENDBRANCH  73  74
ENDBRANCH   1  73
TORSDOF 19
ENDMDL
