MODEL 1
REMARK VINA RESULT:     -12.2      0.000      0.000
REMARK SMILES O=C(NCCCCNC(=O)c1ccc(-c2c3nc(c(-c4cc(S(=O)(=O)[O-])ccc4F)c4ccc([nH]4)c(-c4cc(S(=O)(=O)[O-])ccc4F)c4nc(c(-c5cc(S(=O)(=O)[O-])ccc5F)c5ccc2[nH]5)C=C4)C=C3)cc1)C1=NN(c2ccc([N+](=O)[O-])cc2)[C@H](c2ccccc2)C1
REMARK SMILES IDX 6 1 5 2 4 3 3 4 1 5 2 6 74 8 75 9 93 10 76 11 86 12 77 13
REMARK SMILES IDX 78 14 85 15 79 16 84 17 80 18 81 19 82 20 83 21 87 22 88 23
REMARK SMILES IDX 92 24 89 25 91 26 90 27 7 28 8 29 9 30 10 32 11 33 12 34
REMARK SMILES IDX 73 35 13 36 72 37 14 38 15 39 16 40 66 41 17 42 71 43 65 44
REMARK SMILES IDX 67 45 18 46 70 47 64 48 63 49 19 51 51 52 31 53 50 54 32 55
REMARK SMILES IDX 35 56 49 57 68 58 33 59 34 60 48 62 69 63 36 64 20 65 21 66
REMARK SMILES IDX 29 67 22 68 28 69 30 70 27 71 23 72 24 73 25 74 26 75 52 76
REMARK SMILES IDX 53 77 61 78 54 79 60 80 62 81 59 82 55 83 56 84 57 85 58 86
REMARK SMILES IDX 37 87 38 88 46 89 39 90 45 91 47 92 44 93 40 94 41 95 42 96
REMARK SMILES IDX 43 97
REMARK H PARENT 3 7 8 31 67 50 35 61
REMARK Flexibility Score: inf
ROOT
ATOM      1  C   UNL A   1      33.064  27.539  25.415  1.00  0.00     0.023 C 
ENDROOT
BRANCH   1   2
ATOM      2  C   UNL A   1      32.356  26.927  26.621  1.00  0.00     0.023 C 
BRANCH   2   3
ATOM      3  C   UNL A   1      31.628  25.614  26.350  1.00  0.00     0.116 C 
BRANCH   3   4
ATOM      4  N   UNL A   1      30.631  25.729  25.294  1.00  0.00    -0.351 N 
ATOM      5  O   UNL A   1      29.681  25.192  23.286  1.00  0.00    -0.268 OA
ATOM      6  C   UNL A   1      30.571  25.028  24.113  1.00  0.00     0.267 C 
ATOM      7  H   UNL A   1      29.915  26.387  25.443  1.00  0.00     0.163 HD
BRANCH   6   8
ATOM      8  C   UNL A   1      31.675  24.063  23.790  1.00  0.00     0.128 C 
ATOM      9  N   UNL A   1      31.588  22.792  24.021  1.00  0.00    -0.171 NA
ATOM     10  C   UNL A   1      32.931  24.545  23.149  1.00  0.00     0.096 C 
ATOM     11  N   UNL A   1      32.831  22.291  23.819  1.00  0.00    -0.257 N 
ATOM     12  C   UNL A   1      33.781  23.265  23.251  1.00  0.00     0.144 C 
BRANCH  11  13
ATOM     13  C   UNL A   1      32.977  20.913  23.786  1.00  0.00     0.061 A 
ATOM     14  C   UNL A   1      32.227  20.129  22.899  1.00  0.00     0.035 A 
ATOM     15  C   UNL A   1      33.823  20.264  24.696  1.00  0.00     0.035 A 
ATOM     16  C   UNL A   1      32.353  18.735  22.880  1.00  0.00     0.088 A 
ATOM     17  C   UNL A   1      33.965  18.875  24.691  1.00  0.00     0.088 A 
ATOM     18  C   UNL A   1      33.233  18.115  23.774  1.00  0.00     0.269 A 
BRANCH  18  19
ATOM     19  N   UNL A   1      33.394  16.658  23.747  1.00  0.00     0.062 N 
ATOM     20  O   UNL A   1      34.050  16.164  22.819  1.00  0.00    -0.258 OA
ATOM     21  O   UNL A   1      32.880  16.004  24.667  1.00  0.00    -0.258 OA
ENDBRANCH  18  19
ENDBRANCH  11  13
BRANCH  12  22
ATOM     22  C   UNL A   1      35.075  23.368  24.049  1.00  0.00    -0.023 A 
ATOM     23  C   UNL A   1      36.316  22.892  23.599  1.00  0.00     0.006 A 
ATOM     24  C   UNL A   1      35.035  23.990  25.313  1.00  0.00     0.006 A 
ATOM     25  C   UNL A   1      37.465  23.021  24.387  1.00  0.00     0.000 A 
ATOM     26  C   UNL A   1      36.189  24.156  26.081  1.00  0.00     0.000 A 
ATOM     27  C   UNL A   1      37.405  23.662  25.621  1.00  0.00     0.000 A 
ENDBRANCH  12  22
ENDBRANCH   6   8
ENDBRANCH   3   4
ENDBRANCH   2   3
ENDBRANCH   1   2
BRANCH   1  28
ATOM     28  C   UNL A   1      34.183  28.525  25.741  1.00  0.00     0.116 C 
BRANCH  28  29
ATOM     29  N   UNL A   1      33.698  29.778  26.295  1.00  0.00    -0.352 N 
ATOM     30  C   UNL A   1      34.222  30.546  27.310  1.00  0.00     0.251 C 
ATOM     31  H   UNL A   1      32.874  30.128  25.885  1.00  0.00     0.163 HD
ATOM     32  O   UNL A   1      33.587  31.512  27.726  1.00  0.00    -0.269 OA
BRANCH  30  33
ATOM     33  C   UNL A   1      35.522  30.188  27.921  1.00  0.00     0.039 A 
ATOM     34  C   UNL A   1      35.533  29.646  29.210  1.00  0.00     0.014 A 
ATOM     35  C   UNL A   1      36.724  30.373  27.233  1.00  0.00     0.014 A 
ATOM     36  C   UNL A   1      36.738  29.215  29.773  1.00  0.00     0.010 A 
ATOM     37  C   UNL A   1      37.913  29.876  27.765  1.00  0.00     0.010 A 
ATOM     38  C   UNL A   1      37.933  29.286  29.038  1.00  0.00    -0.014 A 
BRANCH  38  39
ATOM     39  C   UNL A   1      39.207  28.740  29.579  1.00  0.00     0.031 A 
ATOM     40  C   UNL A   1      39.900  29.429  30.723  1.00  0.00     0.074 A 
ATOM     41  C   UNL A   1      39.776  27.666  28.995  1.00  0.00     0.049 A 
ATOM     42  N   UNL A   1      41.058  29.165  31.271  1.00  0.00    -0.248 NA
ATOM     43  C   UNL A   1      39.208  30.586  31.311  1.00  0.00     0.031 C 
ATOM     44  C   UNL A   1      39.222  26.931  27.854  1.00  0.00     0.029 A 
ATOM     45  N   UNL A   1      40.949  27.008  29.271  1.00  0.00    -0.354 N 
ATOM     46  C   UNL A   1      41.241  30.127  32.258  1.00  0.00     0.074 A 
ATOM     47  C   UNL A   1      40.099  31.015  32.192  1.00  0.00     0.031 C 
ATOM     48  C   UNL A   1      40.044  25.916  27.543  1.00  0.00     0.029 A 
ATOM     49  C   UNL A   1      41.205  25.953  28.425  1.00  0.00     0.049 A 
ATOM     50  H   UNL A   1      41.551  27.268  30.005  1.00  0.00     0.167 HD
ATOM     51  C   UNL A   1      42.256  30.248  33.150  1.00  0.00     0.034 A 
ATOM     52  C   UNL A   1      42.263  25.119  28.357  1.00  0.00     0.034 A 
ATOM     53  C   UNL A   1      43.382  29.348  33.214  1.00  0.00     0.049 A 
ATOM     54  C   UNL A   1      43.391  25.289  29.344  1.00  0.00     0.074 A 
ATOM     55  C   UNL A   1      44.436  29.349  34.111  1.00  0.00     0.029 A 
ATOM     56  N   UNL A   1      43.604  28.287  32.345  1.00  0.00    -0.354 N 
ATOM     57  N   UNL A   1      43.525  26.179  30.300  1.00  0.00    -0.248 NA
ATOM     58  C   UNL A   1      44.504  24.335  29.249  1.00  0.00     0.031 C 
ATOM     59  C   UNL A   1      45.327  28.332  33.747  1.00  0.00     0.029 A 
ATOM     60  C   UNL A   1      44.793  27.648  32.668  1.00  0.00     0.049 A 
ATOM     61  H   UNL A   1      43.007  28.027  31.608  1.00  0.00     0.167 HD
ATOM     62  C   UNL A   1      44.723  25.869  30.939  1.00  0.00     0.074 A 
ATOM     63  C   UNL A   1      45.262  24.703  30.271  1.00  0.00     0.031 C 
ATOM     64  C   UNL A   1      45.323  26.490  31.987  1.00  0.00     0.034 A 
BRANCH  51  65
ATOM     65  C   UNL A   1      42.201  31.409  34.114  1.00  0.00     0.023 A 
ATOM     66  C   UNL A   1      41.315  31.419  35.206  1.00  0.00     0.031 A 
ATOM     67  C   UNL A   1      43.033  32.528  33.931  1.00  0.00     0.131 A 
ATOM     68  C   UNL A   1      41.231  32.552  36.029  1.00  0.00     0.055 A 
ATOM     69  C   UNL A   1      43.002  33.618  34.802  1.00  0.00     0.041 A 
ATOM     70  F   UNL A   1      43.885  32.583  32.896  1.00  0.00    -0.206 F 
ATOM     71  C   UNL A   1      42.087  33.641  35.851  1.00  0.00     0.022 A 
BRANCH  68  72
ATOM     72  S   UNL A   1      39.897  32.634  37.255  1.00  0.00     0.124 S 
ATOM     73  O   UNL A   1      39.233  33.881  36.884  1.00  0.00    -0.237 OA
ATOM     74  O   UNL A   1      39.150  31.409  36.992  1.00  0.00    -0.237 OA
ATOM     75  O   UNL A   1      40.607  32.670  38.533  1.00  0.00    -0.744 OA
ENDBRANCH  68  72
ENDBRANCH  51  65
BRANCH  52  76
ATOM     76  C   UNL A   1      42.327  24.057  27.311  1.00  0.00     0.023 A 
ATOM     77  C   UNL A   1      41.761  22.792  27.531  1.00  0.00     0.031 A 
ATOM     78  C   UNL A   1      43.005  24.274  26.099  1.00  0.00     0.131 A 
ATOM     79  C   UNL A   1      41.929  21.775  26.579  1.00  0.00     0.055 A 
ATOM     80  C   UNL A   1      43.122  23.276  25.129  1.00  0.00     0.041 A 
ATOM     81  F   UNL A   1      43.561  25.467  25.834  1.00  0.00    -0.206 F 
ATOM     82  C   UNL A   1      42.594  22.012  25.374  1.00  0.00     0.022 A 
BRANCH  79  83
ATOM     83  S   UNL A   1      41.347  20.104  26.982  1.00  0.00     0.124 S 
ATOM     84  O   UNL A   1      42.578  19.329  26.882  1.00  0.00    -0.237 OA
ATOM     85  O   UNL A   1      40.810  20.287  28.326  1.00  0.00    -0.237 OA
ATOM     86  O   UNL A   1      40.351  19.833  25.947  1.00  0.00    -0.744 OA
ENDBRANCH  79  83
ENDBRANCH  52  76
BRANCH  64  87
ATOM     87  C   UNL A   1      46.606  25.884  32.499  1.00  0.00     0.023 A 
ATOM     88  C   UNL A   1      46.611  24.889  33.493  1.00  0.00     0.031 A 
ATOM     89  C   UNL A   1      47.844  26.319  31.994  1.00  0.00     0.131 A 
ATOM     90  C   UNL A   1      47.829  24.403  33.990  1.00  0.00     0.055 A 
ATOM     91  C   UNL A   1      49.052  25.789  32.449  1.00  0.00     0.041 A 
ATOM     92  F   UNL A   1      47.899  27.267  31.044  1.00  0.00    -0.206 F 
ATOM     93  C   UNL A   1      49.049  24.835  33.463  1.00  0.00     0.022 A 
BRANCH  90  94
ATOM     94  S   UNL A   1      47.803  23.262  35.399  1.00  0.00     0.124 S 
ATOM     95  O   UNL A   1      48.977  23.684  36.155  1.00  0.00    -0.237 OA
ATOM     96  O   UNL A   1      46.511  23.554  36.013  1.00  0.00    -0.237 OA
ATOM     97  O   UNL A   1      47.906  21.943  34.775  1.00  0.00    -0.744 OA
ENDBRANCH  90  94
ENDBRANCH  64  87
ENDBRANCH  38  39
ENDBRANCH  30  33
ENDBRANCH  28  29
ENDBRANCH   1  28
TORSDOF 17
ENDMDL
MODEL 2
REMARK VINA RESULT:     -12.1      1.664      2.315
REMARK SMILES O=C(NCCCCNC(=O)c1ccc(-c2c3nc(c(-c4cc(S(=O)(=O)[O-])ccc4F)c4ccc([nH]4)c(-c4cc(S(=O)(=O)[O-])ccc4F)c4nc(c(-c5cc(S(=O)(=O)[O-])ccc5F)c5ccc2[nH]5)C=C4)C=C3)cc1)C1=NN(c2ccc([N+](=O)[O-])cc2)[C@H](c2ccccc2)C1
REMARK SMILES IDX 6 1 5 2 4 3 3 4 1 5 2 6 74 8 75 9 93 10 76 11 86 12 77 13
REMARK SMILES IDX 78 14 85 15 79 16 84 17 80 18 81 19 82 20 83 21 87 22 88 23
REMARK SMILES IDX 92 24 89 25 91 26 90 27 7 28 8 29 9 30 10 32 11 33 12 34
REMARK SMILES IDX 73 35 13 36 72 37 14 38 15 39 16 40 66 41 17 42 71 43 65 44
REMARK SMILES IDX 67 45 18 46 70 47 64 48 63 49 19 51 51 52 31 53 50 54 32 55
REMARK SMILES IDX 35 56 49 57 68 58 33 59 34 60 48 62 69 63 36 64 20 65 21 66
REMARK SMILES IDX 29 67 22 68 28 69 30 70 27 71 23 72 24 73 25 74 26 75 52 76
REMARK SMILES IDX 53 77 61 78 54 79 60 80 62 81 59 82 55 83 56 84 57 85 58 86
REMARK SMILES IDX 37 87 38 88 46 89 39 90 45 91 47 92 44 93 40 94 41 95 42 96
REMARK SMILES IDX 43 97
REMARK H PARENT 3 7 8 31 67 50 35 61
REMARK Flexibility Score: inf
ROOT
ATOM      1  C   UNL A   1      32.064  28.410  26.328  1.00  0.00     0.023 C 
ENDROOT
BRANCH   1   2
ATOM      2  C   UNL A   1      32.737  27.040  26.321  1.00  0.00     0.023 C 
BRANCH   2   3
ATOM      3  C   UNL A   1      31.789  25.849  26.407  1.00  0.00     0.116 C 
BRANCH   3   4
ATOM      4  N   UNL A   1      30.730  25.897  25.407  1.00  0.00    -0.351 N 
ATOM      5  O   UNL A   1      29.667  25.237  23.495  1.00  0.00    -0.268 OA
ATOM      6  C   UNL A   1      30.605  25.125  24.276  1.00  0.00     0.267 C 
ATOM      7  H   UNL A   1      30.021  26.562  25.558  1.00  0.00     0.163 HD
BRANCH   6   8
ATOM      8  C   UNL A   1      31.693  24.144  23.948  1.00  0.00     0.128 C 
ATOM      9  N   UNL A   1      31.587  22.874  24.178  1.00  0.00    -0.171 NA
ATOM     10  C   UNL A   1      32.954  24.608  23.303  1.00  0.00     0.096 C 
ATOM     11  N   UNL A   1      32.823  22.355  23.971  1.00  0.00    -0.257 N 
ATOM     12  C   UNL A   1      33.785  23.316  23.401  1.00  0.00     0.144 C 
BRANCH  11  13
ATOM     13  C   UNL A   1      32.948  20.975  23.936  1.00  0.00     0.061 A 
ATOM     14  C   UNL A   1      33.871  20.313  24.756  1.00  0.00     0.035 A 
ATOM     15  C   UNL A   1      32.206  20.215  23.021  1.00  0.00     0.035 A 
ATOM     16  C   UNL A   1      34.018  18.922  24.705  1.00  0.00     0.088 A 
ATOM     17  C   UNL A   1      32.335  18.826  22.956  1.00  0.00     0.088 A 
ATOM     18  C   UNL A   1      33.238  18.183  23.809  1.00  0.00     0.269 A 
BRANCH  18  19
ATOM     19  N   UNL A   1      33.363  16.723  23.764  1.00  0.00     0.062 N 
ATOM     20  O   UNL A   1      32.736  16.062  24.604  1.00  0.00    -0.258 OA
ATOM     21  O   UNL A   1      34.074  16.232  22.875  1.00  0.00    -0.258 OA
ENDBRANCH  18  19
ENDBRANCH  11  13
BRANCH  12  22
ATOM     22  C   UNL A   1      35.083  23.398  24.194  1.00  0.00    -0.023 A 
ATOM     23  C   UNL A   1      35.223  24.100  25.402  1.00  0.00     0.006 A 
ATOM     24  C   UNL A   1      36.215  22.722  23.699  1.00  0.00     0.006 A 
ATOM     25  C   UNL A   1      36.449  24.133  26.077  1.00  0.00     0.000 A 
ATOM     26  C   UNL A   1      37.427  22.721  24.394  1.00  0.00     0.000 A 
ATOM     27  C   UNL A   1      37.545  23.436  25.581  1.00  0.00     0.000 A 
ENDBRANCH  12  22
ENDBRANCH   6   8
ENDBRANCH   3   4
ENDBRANCH   2   3
ENDBRANCH   1   2
BRANCH   1  28
ATOM     28  C   UNL A   1      32.857  29.535  25.671  1.00  0.00     0.116 C 
BRANCH  28  29
ATOM     29  N   UNL A   1      32.556  30.846  26.224  1.00  0.00    -0.352 N 
ATOM     30  C   UNL A   1      33.234  31.569  27.178  1.00  0.00     0.251 C 
ATOM     31  H   UNL A   1      31.750  31.279  25.862  1.00  0.00     0.163 HD
ATOM     32  O   UNL A   1      32.742  32.608  27.611  1.00  0.00    -0.269 OA
BRANCH  30  33
ATOM     33  C   UNL A   1      34.527  31.079  27.707  1.00  0.00     0.039 A 
ATOM     34  C   UNL A   1      35.593  31.976  27.817  1.00  0.00     0.014 A 
ATOM     35  C   UNL A   1      34.692  29.749  28.104  1.00  0.00     0.014 A 
ATOM     36  C   UNL A   1      36.795  31.560  28.399  1.00  0.00     0.010 A 
ATOM     37  C   UNL A   1      35.863  29.356  28.749  1.00  0.00     0.010 A 
ATOM     38  C   UNL A   1      36.926  30.259  28.911  1.00  0.00    -0.014 A 
BRANCH  38  39
ATOM     39  C   UNL A   1      38.159  29.828  29.624  1.00  0.00     0.031 A 
ATOM     40  C   UNL A   1      38.485  30.394  30.979  1.00  0.00     0.074 A 
ATOM     41  C   UNL A   1      39.018  28.981  29.022  1.00  0.00     0.049 A 
ATOM     42  N   UNL A   1      39.552  30.217  31.716  1.00  0.00    -0.248 NA
ATOM     43  C   UNL A   1      37.491  31.301  31.572  1.00  0.00     0.031 C 
ATOM     44  C   UNL A   1      38.833  28.393  27.692  1.00  0.00     0.029 A 
ATOM     45  N   UNL A   1      40.223  28.475  29.440  1.00  0.00    -0.354 N 
ATOM     46  C   UNL A   1      39.365  30.997  32.852  1.00  0.00     0.074 A 
ATOM     47  C   UNL A   1      38.107  31.694  32.676  1.00  0.00     0.031 C 
ATOM     48  C   UNL A   1      39.876  27.593  27.416  1.00  0.00     0.029 A 
ATOM     49  C   UNL A   1      40.826  27.646  28.522  1.00  0.00     0.049 A 
ATOM     50  H   UNL A   1      40.620  28.686  30.316  1.00  0.00     0.167 HD
ATOM     51  C   UNL A   1      40.156  31.108  33.948  1.00  0.00     0.034 A 
ATOM     52  C   UNL A   1      42.017  27.015  28.557  1.00  0.00     0.034 A 
ATOM     53  C   UNL A   1      41.401  30.398  34.116  1.00  0.00     0.049 A 
ATOM     54  C   UNL A   1      42.891  27.173  29.777  1.00  0.00     0.074 A 
ATOM     55  C   UNL A   1      42.253  30.398  35.207  1.00  0.00     0.029 A 
ATOM     56  N   UNL A   1      41.977  29.563  33.166  1.00  0.00    -0.354 N 
ATOM     57  N   UNL A   1      42.676  27.882  30.861  1.00  0.00    -0.248 NA
ATOM     58  C   UNL A   1      44.163  26.437  29.780  1.00  0.00     0.031 C 
ATOM     59  C   UNL A   1      43.371  29.617  34.894  1.00  0.00     0.029 A 
ATOM     60  C   UNL A   1      43.184  29.068  33.636  1.00  0.00     0.049 A 
ATOM     61  H   UNL A   1      41.585  29.354  32.288  1.00  0.00     0.167 HD
ATOM     62  C   UNL A   1      43.773  27.649  31.687  1.00  0.00     0.074 A 
ATOM     63  C   UNL A   1      44.636  26.724  30.984  1.00  0.00     0.031 C 
ATOM     64  C   UNL A   1      44.041  28.153  32.920  1.00  0.00     0.034 A 
BRANCH  51  65
ATOM     65  C   UNL A   1      39.706  32.049  35.039  1.00  0.00     0.023 A 
ATOM     66  C   UNL A   1      39.027  31.584  36.179  1.00  0.00     0.031 A 
ATOM     67  C   UNL A   1      39.944  33.431  34.933  1.00  0.00     0.131 A 
ATOM     68  C   UNL A   1      38.548  32.497  37.131  1.00  0.00     0.055 A 
ATOM     69  C   UNL A   1      39.535  34.326  35.923  1.00  0.00     0.041 A 
ATOM     70  F   UNL A   1      40.569  33.936  33.859  1.00  0.00    -0.206 F 
ATOM     71  C   UNL A   1      38.820  33.863  37.024  1.00  0.00     0.022 A 
BRANCH  68  72
ATOM     72  S   UNL A   1      37.452  31.888  38.440  1.00  0.00     0.124 S 
ATOM     73  O   UNL A   1      38.298  32.028  39.622  1.00  0.00    -0.237 OA
ATOM     74  O   UNL A   1      36.318  32.801  38.353  1.00  0.00    -0.237 OA
ATOM     75  O   UNL A   1      37.174  30.509  38.041  1.00  0.00    -0.744 OA
ENDBRANCH  68  72
ENDBRANCH  51  65
BRANCH  52  76
ATOM     76  C   UNL A   1      42.472  26.186  27.402  1.00  0.00     0.023 A 
ATOM     77  C   UNL A   1      42.102  24.837  27.292  1.00  0.00     0.031 A 
ATOM     78  C   UNL A   1      43.331  26.717  26.424  1.00  0.00     0.131 A 
ATOM     79  C   UNL A   1      42.631  24.049  26.258  1.00  0.00     0.055 A 
ATOM     80  C   UNL A   1      43.811  25.943  25.365  1.00  0.00     0.041 A 
ATOM     81  F   UNL A   1      43.713  28.003  26.480  1.00  0.00    -0.206 F 
ATOM     82  C   UNL A   1      43.473  24.596  25.287  1.00  0.00     0.022 A 
BRANCH  79  83
ATOM     83  S   UNL A   1      42.279  22.269  26.256  1.00  0.00     0.124 S 
ATOM     84  O   UNL A   1      40.833  22.253  26.069  1.00  0.00    -0.237 OA
ATOM     85  O   UNL A   1      43.078  21.804  25.128  1.00  0.00    -0.237 OA
ATOM     86  O   UNL A   1      42.744  21.830  27.570  1.00  0.00    -0.744 OA
ENDBRANCH  79  83
ENDBRANCH  52  76
BRANCH  64  87
ATOM     87  C   UNL A   1      45.299  27.669  33.598  1.00  0.00     0.023 A 
ATOM     88  C   UNL A   1      45.311  26.516  34.402  1.00  0.00     0.031 A 
ATOM     89  C   UNL A   1      46.501  28.383  33.447  1.00  0.00     0.131 A 
ATOM     90  C   UNL A   1      46.486  26.142  35.070  1.00  0.00     0.055 A 
ATOM     91  C   UNL A   1      47.682  27.973  34.066  1.00  0.00     0.041 A 
ATOM     92  F   UNL A   1      46.547  29.492  32.691  1.00  0.00    -0.206 F 
ATOM     93  C   UNL A   1      47.676  26.854  34.894  1.00  0.00     0.022 A 
BRANCH  90  94
ATOM     94  S   UNL A   1      46.420  24.762  36.245  1.00  0.00     0.124 S 
ATOM     95  O   UNL A   1      45.378  25.198  37.169  1.00  0.00    -0.237 OA
ATOM     96  O   UNL A   1      46.076  23.635  35.383  1.00  0.00    -0.237 OA
ATOM     97  O   UNL A   1      47.770  24.722  36.805  1.00  0.00    -0.744 OA
ENDBRANCH  90  94
ENDBRANCH  64  87
ENDBRANCH  38  39
ENDBRANCH  30  33
ENDBRANCH  28  29
ENDBRANCH   1  28
TORSDOF 17
ENDMDL
MODEL 3
REMARK VINA RESULT:     -12.1      4.001      9.599
REMARK SMILES O=C(NCCCCNC(=O)c1ccc(-c2c3nc(c(-c4cc(S(=O)(=O)[O-])ccc4F)c4ccc([nH]4)c(-c4cc(S(=O)(=O)[O-])ccc4F)c4nc(c(-c5cc(S(=O)(=O)[O-])ccc5F)c5ccc2[nH]5)C=C4)C=C3)cc1)C1=NN(c2ccc([N+](=O)[O-])cc2)[C@H](c2ccccc2)C1
REMARK SMILES IDX 6 1 5 2 4 3 3 4 1 5 2 6 74 8 75 9 93 10 76 11 86 12 77 13
REMARK SMILES IDX 78 14 85 15 79 16 84 17 80 18 81 19 82 20 83 21 87 22 88 23
REMARK SMILES IDX 92 24 89 25 91 26 90 27 7 28 8 29 9 30 10 32 11 33 12 34
REMARK SMILES IDX 73 35 13 36 72 37 14 38 15 39 16 40 66 41 17 42 71 43 65 44
REMARK SMILES IDX 67 45 18 46 70 47 64 48 63 49 19 51 51 52 31 53 50 54 32 55
REMARK SMILES IDX 35 56 49 57 68 58 33 59 34 60 48 62 69 63 36 64 20 65 21 66
REMARK SMILES IDX 29 67 22 68 28 69 30 70 27 71 23 72 24 73 25 74 26 75 52 76
REMARK SMILES IDX 53 77 61 78 54 79 60 80 62 81 59 82 55 83 56 84 57 85 58 86
REMARK SMILES IDX 37 87 38 88 46 89 39 90 45 91 47 92 44 93 40 94 41 95 42 96
REMARK SMILES IDX 43 97
REMARK H PARENT 3 7 8 31 67 50 35 61
REMARK Flexibility Score: inf
ROOT
ATOM      1  C   UNL A   1      36.380  23.261  24.566  1.00  0.00     0.023 C 
ENDROOT
BRANCH   1   2
ATOM      2  C   UNL A   1      35.183  24.189  24.378  1.00  0.00     0.023 C 
BRANCH   2   3
ATOM      3  C   UNL A   1      34.100  23.671  23.437  1.00  0.00     0.116 C 
BRANCH   3   4
ATOM      4  N   UNL A   1      33.293  22.615  24.033  1.00  0.00    -0.351 N 
ATOM      5  O   UNL A   1      31.521  21.794  25.220  1.00  0.00    -0.268 OA
ATOM      6  C   UNL A   1      32.136  22.751  24.764  1.00  0.00     0.267 C 
ATOM      7  H   UNL A   1      33.612  21.695  23.897  1.00  0.00     0.163 HD
BRANCH   6   8
ATOM      8  C   UNL A   1      31.636  24.133  25.072  1.00  0.00     0.128 C 
ATOM      9  N   UNL A   1      31.076  24.892  24.185  1.00  0.00    -0.171 NA
ATOM     10  C   UNL A   1      31.745  24.681  26.453  1.00  0.00     0.096 C 
ATOM     11  N   UNL A   1      30.969  26.116  24.756  1.00  0.00    -0.257 N 
ATOM     12  C   UNL A   1      31.331  26.140  26.186  1.00  0.00     0.144 C 
BRANCH  11  13
ATOM     13  C   UNL A   1      30.205  27.071  24.105  1.00  0.00     0.061 A 
ATOM     14  C   UNL A   1      28.817  26.921  23.976  1.00  0.00     0.035 A 
ATOM     15  C   UNL A   1      30.814  28.174  23.490  1.00  0.00     0.035 A 
ATOM     16  C   UNL A   1      28.046  27.870  23.297  1.00  0.00     0.088 A 
ATOM     17  C   UNL A   1      30.062  29.134  22.810  1.00  0.00     0.088 A 
ATOM     18  C   UNL A   1      28.675  28.981  22.724  1.00  0.00     0.269 A 
BRANCH  18  19
ATOM     19  N   UNL A   1      27.875  29.997  22.032  1.00  0.00     0.062 N 
ATOM     20  O   UNL A   1      27.104  30.689  22.711  1.00  0.00    -0.258 OA
ATOM     21  O   UNL A   1      28.031  30.118  20.808  1.00  0.00    -0.258 OA
ENDBRANCH  18  19
ENDBRANCH  11  13
BRANCH  12  22
ATOM     22  C   UNL A   1      32.359  27.213  26.521  1.00  0.00    -0.023 A 
ATOM     23  C   UNL A   1      33.708  27.157  26.135  1.00  0.00     0.006 A 
ATOM     24  C   UNL A   1      31.937  28.341  27.252  1.00  0.00     0.006 A 
ATOM     25  C   UNL A   1      34.598  28.181  26.480  1.00  0.00     0.000 A 
ATOM     26  C   UNL A   1      32.816  29.382  27.560  1.00  0.00     0.000 A 
ATOM     27  C   UNL A   1      34.151  29.297  27.180  1.00  0.00     0.000 A 
ENDBRANCH  12  22
ENDBRANCH   6   8
ENDBRANCH   3   4
ENDBRANCH   2   3
ENDBRANCH   1   2
BRANCH   1  28
ATOM     28  C   UNL A   1      36.781  22.991  26.014  1.00  0.00     0.116 C 
BRANCH  28  29
ATOM     29  N   UNL A   1      37.998  22.205  26.133  1.00  0.00    -0.352 N 
ATOM     30  C   UNL A   1      39.273  22.611  26.455  1.00  0.00     0.251 C 
ATOM     31  H   UNL A   1      37.894  21.242  25.960  1.00  0.00     0.163 HD
ATOM     32  O   UNL A   1      40.200  21.809  26.374  1.00  0.00    -0.269 OA
BRANCH  30  33
ATOM     33  C   UNL A   1      39.531  24.012  26.857  1.00  0.00     0.039 A 
ATOM     34  C   UNL A   1      39.277  24.391  28.179  1.00  0.00     0.014 A 
ATOM     35  C   UNL A   1      40.030  24.948  25.948  1.00  0.00     0.014 A 
ATOM     36  C   UNL A   1      39.599  25.682  28.606  1.00  0.00     0.010 A 
ATOM     37  C   UNL A   1      40.417  26.211  26.392  1.00  0.00     0.010 A 
ATOM     38  C   UNL A   1      40.213  26.591  27.728  1.00  0.00    -0.014 A 
BRANCH  38  39
ATOM     39  C   UNL A   1      40.655  27.934  28.190  1.00  0.00     0.031 A 
ATOM     40  C   UNL A   1      42.119  28.283  28.210  1.00  0.00     0.074 A 
ATOM     41  C   UNL A   1      39.746  28.814  28.656  1.00  0.00     0.049 A 
ATOM     42  N   UNL A   1      42.708  29.360  28.662  1.00  0.00    -0.248 NA
ATOM     43  C   UNL A   1      43.044  27.274  27.673  1.00  0.00     0.031 C 
ATOM     44  C   UNL A   1      38.301  28.580  28.724  1.00  0.00     0.029 A 
ATOM     45  N   UNL A   1      39.899  30.078  29.171  1.00  0.00    -0.354 N 
ATOM     46  C   UNL A   1      44.071  29.156  28.477  1.00  0.00     0.074 A 
ATOM     47  C   UNL A   1      44.222  27.826  27.925  1.00  0.00     0.031 C 
ATOM     48  C   UNL A   1      37.702  29.670  29.231  1.00  0.00     0.029 A 
ATOM     49  C   UNL A   1      38.718  30.661  29.569  1.00  0.00     0.049 A 
ATOM     50  H   UNL A   1      40.772  30.525  29.248  1.00  0.00     0.167 HD
ATOM     51  C   UNL A   1      45.100  30.004  28.725  1.00  0.00     0.034 A 
ATOM     52  C   UNL A   1      38.480  31.852  30.156  1.00  0.00     0.034 A 
ATOM     53  C   UNL A   1      44.935  31.333  29.264  1.00  0.00     0.049 A 
ATOM     54  C   UNL A   1      39.644  32.768  30.444  1.00  0.00     0.074 A 
ATOM     55  C   UNL A   1      45.903  32.292  29.504  1.00  0.00     0.029 A 
ATOM     56  N   UNL A   1      43.723  31.891  29.650  1.00  0.00    -0.354 N 
ATOM     57  N   UNL A   1      40.923  32.574  30.222  1.00  0.00    -0.248 NA
ATOM     58  C   UNL A   1      39.329  34.067  31.054  1.00  0.00     0.031 C 
ATOM     59  C   UNL A   1      45.288  33.403  30.093  1.00  0.00     0.029 A 
ATOM     60  C   UNL A   1      43.925  33.168  30.152  1.00  0.00     0.049 A 
ATOM     61  H   UNL A   1      42.848  31.446  29.577  1.00  0.00     0.167 HD
ATOM     62  C   UNL A   1      41.559  33.742  30.635  1.00  0.00     0.074 A 
ATOM     63  C   UNL A   1      40.523  34.638  31.104  1.00  0.00     0.031 C 
ATOM     64  C   UNL A   1      42.882  34.048  30.625  1.00  0.00     0.034 A 
BRANCH  51  65
ATOM     65  C   UNL A   1      46.496  29.508  28.435  1.00  0.00     0.023 A 
ATOM     66  C   UNL A   1      47.242  28.803  29.395  1.00  0.00     0.031 A 
ATOM     67  C   UNL A   1      47.096  29.757  27.188  1.00  0.00     0.131 A 
ATOM     68  C   UNL A   1      48.567  28.432  29.120  1.00  0.00     0.055 A 
ATOM     69  C   UNL A   1      48.387  29.315  26.891  1.00  0.00     0.041 A 
ATOM     70  F   UNL A   1      46.441  30.442  26.239  1.00  0.00    -0.206 F 
ATOM     71  C   UNL A   1      49.136  28.661  27.865  1.00  0.00     0.022 A 
BRANCH  68  72
ATOM     72  S   UNL A   1      49.578  27.767  30.470  1.00  0.00     0.124 S 
ATOM     73  O   UNL A   1      49.380  28.772  31.510  1.00  0.00    -0.237 OA
ATOM     74  O   UNL A   1      48.965  26.466  30.712  1.00  0.00    -0.237 OA
ATOM     75  O   UNL A   1      50.925  27.725  29.901  1.00  0.00    -0.744 OA
ENDBRANCH  68  72
ENDBRANCH  51  65
BRANCH  52  76
ATOM     76  C   UNL A   1      37.092  32.250  30.531  1.00  0.00     0.023 A 
ATOM     77  C   UNL A   1      36.218  32.800  29.580  1.00  0.00     0.031 A 
ATOM     78  C   UNL A   1      36.640  32.141  31.857  1.00  0.00     0.131 A 
ATOM     79  C   UNL A   1      34.957  33.270  29.979  1.00  0.00     0.055 A 
ATOM     80  C   UNL A   1      35.363  32.558  32.239  1.00  0.00     0.041 A 
ATOM     81  F   UNL A   1      37.434  31.619  32.806  1.00  0.00    -0.206 F 
ATOM     82  C   UNL A   1      34.519  33.141  31.299  1.00  0.00     0.022 A 
BRANCH  79  83
ATOM     83  S   UNL A   1      33.931  34.143  28.763  1.00  0.00     0.124 S 
ATOM     84  O   UNL A   1      33.646  33.084  27.802  1.00  0.00    -0.237 OA
ATOM     85  O   UNL A   1      32.808  34.589  29.580  1.00  0.00    -0.237 OA
ATOM     86  O   UNL A   1      34.809  35.206  28.280  1.00  0.00    -0.744 OA
ENDBRANCH  79  83
ENDBRANCH  52  76
BRANCH  64  87
ATOM     87  C   UNL A   1      43.269  35.430  31.093  1.00  0.00     0.023 A 
ATOM     88  C   UNL A   1      43.344  35.756  32.458  1.00  0.00     0.031 A 
ATOM     89  C   UNL A   1      43.553  36.438  30.155  1.00  0.00     0.131 A 
ATOM     90  C   UNL A   1      43.639  37.071  32.848  1.00  0.00     0.055 A 
ATOM     91  C   UNL A   1      43.903  37.731  30.549  1.00  0.00     0.041 A 
ATOM     92  F   UNL A   1      43.494  36.184  28.838  1.00  0.00    -0.206 F 
ATOM     93  C   UNL A   1      43.935  38.056  31.902  1.00  0.00     0.022 A 
BRANCH  90  94
ATOM     94  S   UNL A   1      43.544  37.501  34.607  1.00  0.00     0.124 S 
ATOM     95  O   UNL A   1      42.161  37.165  34.928  1.00  0.00    -0.237 OA
ATOM     96  O   UNL A   1      44.563  36.637  35.195  1.00  0.00    -0.237 OA
ATOM     97  O   UNL A   1      43.857  38.929  34.629  1.00  0.00    -0.744 OA
ENDBRANCH  90  94
ENDBRANCH  64  87
ENDBRANCH  38  39
ENDBRANCH  30  33
ENDBRANCH  28  29
ENDBRANCH   1  28
TORSDOF 17
ENDMDL
