MODEL 1
REMARK VINA RESULT:     -11.9      0.000      0.000
REMARK SMILES [NH3+][C@H]1CCCN(C(=O)NC[C@H]2CC[C@@H](C(=O)NCCCCNC(=O)c3ccc(-c4c5nc(c(-c6cc(S(=O)(=O)[O-])ccc6F)c6ccc([nH]6)c(-c6cc(S(=O)(=O)[O-])ccc6F)c6nc(c(-c7cc(S(=O)(=O)[O-])ccc7F)c7ccc4[nH]7)C=C6)C=C5)cc3)CC2)C1
REMARK SMILES IDX 19 1 18 2 17 3 15 4 16 5 14 7 11 8 12 9 89 10 13 11 88 12
REMARK SMILES IDX 10 13 9 14 7 15 8 16 6 18 2 19 3 20 90 21 4 22 5 23 1 24
REMARK SMILES IDX 20 28 21 29 22 30 23 31 24 33 25 34 26 35 87 36 27 37 86 38
REMARK SMILES IDX 28 39 29 40 30 41 80 42 31 43 85 44 79 45 81 46 32 47 84 48
REMARK SMILES IDX 78 49 77 50 33 52 65 53 45 54 64 55 46 56 49 57 63 58 82 59
REMARK SMILES IDX 47 60 48 61 62 63 83 64 50 65 34 66 35 67 43 68 36 69 42 70
REMARK SMILES IDX 44 71 41 72 37 73 38 74 39 75 40 76 66 77 67 78 75 79 68 80
REMARK SMILES IDX 74 81 76 82 73 83 69 84 70 85 71 86 72 87 51 88 52 89 60 90
REMARK SMILES IDX 53 91 59 92 61 93 58 94 54 95 55 96 56 97 57 98
REMARK H PARENT 17 6 9 17 1 25 1 26 1 27 22 32 81 51 49 62
REMARK Flexibility Score: inf
ROOT
ATOM      1  C   UNL A   1      31.488  30.656  25.826  1.00  0.00     0.023 C 
ENDROOT
BRANCH   1   2
ATOM      2  C   UNL A   1      30.539  30.571  24.636  1.00  0.00     0.116 C 
BRANCH   2   3
ATOM      3  N   UNL A   1      31.003  29.699  23.577  1.00  0.00    -0.356 N 
ATOM      4  C   UNL A   1      31.199  28.351  23.550  1.00  0.00     0.223 C 
ATOM      5  O   UNL A   1      31.509  27.841  22.468  1.00  0.00    -0.275 OA
ATOM      6  H   UNL A   1      31.213  30.159  22.732  1.00  0.00     0.163 HD
BRANCH   4   7
ATOM      7  C   UNL A   1      31.111  27.477  24.805  1.00  0.00     0.078 C 
ATOM      8  C   UNL A   1      31.345  24.696  25.907  1.00  0.00     0.008 C 
ATOM      9  C   UNL A   1      32.412  25.752  26.242  1.00  0.00     0.006 C 
ATOM     10  C   UNL A   1      29.991  25.395  25.756  1.00  0.00     0.006 C 
ATOM     11  C   UNL A   1      32.469  26.967  25.313  1.00  0.00     0.014 C 
ATOM     12  C   UNL A   1      30.008  26.426  24.633  1.00  0.00     0.014 C 
BRANCH   8  13
ATOM     13  C   UNL A   1      31.653  23.824  24.675  1.00  0.00     0.121 C 
BRANCH  13  14
ATOM     14  N   UNL A   1      33.038  23.407  24.606  1.00  0.00    -0.338 N 
ATOM     15  C   UNL A   1      33.608  22.274  24.140  1.00  0.00     0.317 C 
ATOM     16  O   UNL A   1      34.752  22.386  23.698  1.00  0.00    -0.249 OA
ATOM     17  H   UNL A   1      33.678  24.067  24.961  1.00  0.00     0.165 HD
BRANCH  15  18
ATOM     18  N   UNL A   1      32.941  21.083  24.157  1.00  0.00    -0.319 N 
ATOM     19  C   UNL A   1      33.109  18.871  25.288  1.00  0.00     0.200 C 
ATOM     20  C   UNL A   1      32.351  18.249  24.103  1.00  0.00     0.068 C 
ATOM     21  C   UNL A   1      32.803  20.378  25.435  1.00  0.00     0.186 C 
ATOM     22  C   UNL A   1      32.514  19.084  22.830  1.00  0.00     0.028 C 
ATOM     23  C   UNL A   1      32.109  20.529  23.097  1.00  0.00     0.122 C 
BRANCH  19  24
ATOM     24  N   UNL A   1      32.770  18.131  26.511  1.00  0.00    -0.354 N 
ATOM     25  H   UNL A   1      32.643  18.789  27.281  1.00  0.00     0.344 HD
ATOM     26  H   UNL A   1      33.526  17.484  26.737  1.00  0.00     0.344 HD
ATOM     27  H   UNL A   1      31.907  17.608  26.364  1.00  0.00     0.344 HD
ENDBRANCH  19  24
ENDBRANCH  15  18
ENDBRANCH  13  14
ENDBRANCH   8  13
ENDBRANCH   4   7
ENDBRANCH   2   3
ENDBRANCH   1   2
BRANCH   1  28
ATOM     28  C   UNL A   1      31.362  31.931  26.653  1.00  0.00     0.023 C 
BRANCH  28  29
ATOM     29  C   UNL A   1      32.684  32.555  27.091  1.00  0.00     0.116 C 
BRANCH  29  30
ATOM     30  N   UNL A   1      32.539  33.886  27.663  1.00  0.00    -0.352 N 
ATOM     31  C   UNL A   1      33.296  34.473  28.655  1.00  0.00     0.251 C 
ATOM     32  H   UNL A   1      31.812  34.437  27.295  1.00  0.00     0.163 HD
ATOM     33  O   UNL A   1      32.979  35.564  29.107  1.00  0.00    -0.269 OA
BRANCH  31  34
ATOM     34  C   UNL A   1      34.462  33.738  29.197  1.00  0.00     0.039 A 
ATOM     35  C   UNL A   1      35.745  34.213  28.919  1.00  0.00     0.014 A 
ATOM     36  C   UNL A   1      34.280  32.628  30.024  1.00  0.00     0.014 A 
ATOM     37  C   UNL A   1      36.845  33.621  29.543  1.00  0.00     0.010 A 
ATOM     38  C   UNL A   1      35.370  32.089  30.700  1.00  0.00     0.010 A 
ATOM     39  C   UNL A   1      36.664  32.585  30.473  1.00  0.00    -0.014 A 
BRANCH  39  40
ATOM     40  C   UNL A   1      37.809  32.008  31.222  1.00  0.00     0.031 A 
ATOM     41  C   UNL A   1      38.646  30.925  30.597  1.00  0.00     0.074 A 
ATOM     42  C   UNL A   1      38.048  32.404  32.489  1.00  0.00     0.049 A 
ATOM     43  N   UNL A   1      39.625  30.232  31.117  1.00  0.00    -0.248 NA
ATOM     44  C   UNL A   1      38.310  30.551  29.216  1.00  0.00     0.031 C 
ATOM     45  C   UNL A   1      37.274  33.412  33.219  1.00  0.00     0.029 A 
ATOM     46  N   UNL A   1      38.999  32.000  33.392  1.00  0.00    -0.354 N 
ATOM     47  C   UNL A   1      40.013  29.328  30.133  1.00  0.00     0.074 A 
ATOM     48  C   UNL A   1      39.118  29.523  29.011  1.00  0.00     0.031 C 
ATOM     49  C   UNL A   1      37.795  33.561  34.448  1.00  0.00     0.029 A 
ATOM     50  C   UNL A   1      38.909  32.633  34.611  1.00  0.00     0.049 A 
ATOM     51  H   UNL A   1      39.682  31.321  33.187  1.00  0.00     0.167 HD
ATOM     52  C   UNL A   1      41.034  28.436  30.155  1.00  0.00     0.034 A 
ATOM     53  C   UNL A   1      39.634  32.474  35.736  1.00  0.00     0.034 A 
ATOM     54  C   UNL A   1      41.926  28.267  31.275  1.00  0.00     0.049 A 
ATOM     55  C   UNL A   1      40.760  31.470  35.740  1.00  0.00     0.074 A 
ATOM     56  C   UNL A   1      43.030  27.439  31.383  1.00  0.00     0.029 A 
ATOM     57  N   UNL A   1      41.815  28.936  32.488  1.00  0.00    -0.354 N 
ATOM     58  N   UNL A   1      41.148  30.661  34.781  1.00  0.00    -0.248 NA
ATOM     59  C   UNL A   1      41.552  31.368  36.973  1.00  0.00     0.031 C 
ATOM     60  C   UNL A   1      43.546  27.559  32.678  1.00  0.00     0.029 A 
ATOM     61  C   UNL A   1      42.811  28.517  33.358  1.00  0.00     0.049 A 
ATOM     62  H   UNL A   1      41.128  29.609  32.700  1.00  0.00     0.167 HD
ATOM     63  C   UNL A   1      42.248  29.975  35.288  1.00  0.00     0.074 A 
ATOM     64  C   UNL A   1      42.468  30.476  36.629  1.00  0.00     0.031 C 
ATOM     65  C   UNL A   1      43.011  29.020  34.697  1.00  0.00     0.034 A 
BRANCH  52  66
ATOM     66  C   UNL A   1      41.217  27.564  28.935  1.00  0.00     0.023 A 
ATOM     67  C   UNL A   1      42.224  27.820  27.988  1.00  0.00     0.031 A 
ATOM     68  C   UNL A   1      40.353  26.481  28.697  1.00  0.00     0.131 A 
ATOM     69  C   UNL A   1      42.289  27.061  26.810  1.00  0.00     0.055 A 
ATOM     70  C   UNL A   1      40.476  25.675  27.563  1.00  0.00     0.041 A 
ATOM     71  F   UNL A   1      39.360  26.197  29.555  1.00  0.00    -0.206 F 
ATOM     72  C   UNL A   1      41.439  25.974  26.603  1.00  0.00     0.022 A 
BRANCH  69  73
ATOM     73  S   UNL A   1      43.403  27.611  25.489  1.00  0.00     0.124 S 
ATOM     74  O   UNL A   1      44.080  28.739  26.125  1.00  0.00    -0.237 OA
ATOM     75  O   UNL A   1      44.220  26.427  25.251  1.00  0.00    -0.237 OA
ATOM     76  O   UNL A   1      42.494  27.971  24.402  1.00  0.00    -0.744 OA
ENDBRANCH  69  73
ENDBRANCH  52  66
BRANCH  53  77
ATOM     77  C   UNL A   1      39.324  33.272  36.955  1.00  0.00     0.023 A 
ATOM     78  C   UNL A   1      39.956  34.501  37.197  1.00  0.00     0.031 A 
ATOM     79  C   UNL A   1      38.415  32.797  37.918  1.00  0.00     0.131 A 
ATOM     80  C   UNL A   1      39.711  35.192  38.394  1.00  0.00     0.055 A 
ATOM     81  C   UNL A   1      38.135  33.512  39.084  1.00  0.00     0.041 A 
ATOM     82  F   UNL A   1      37.776  31.632  37.733  1.00  0.00    -0.206 F 
ATOM     83  C   UNL A   1      38.795  34.712  39.333  1.00  0.00     0.022 A 
BRANCH  80  84
ATOM     84  S   UNL A   1      40.665  36.694  38.742  1.00  0.00     0.124 S 
ATOM     85  O   UNL A   1      39.614  37.701  38.831  1.00  0.00    -0.237 OA
ATOM     86  O   UNL A   1      41.328  36.347  39.995  1.00  0.00    -0.237 OA
ATOM     87  O   UNL A   1      41.548  36.812  37.584  1.00  0.00    -0.744 OA
ENDBRANCH  80  84
ENDBRANCH  53  77
BRANCH  65  88
ATOM     88  C   UNL A   1      44.183  28.493  35.489  1.00  0.00     0.023 A 
ATOM     89  C   UNL A   1      44.037  27.458  36.428  1.00  0.00     0.031 A 
ATOM     90  C   UNL A   1      45.462  29.048  35.307  1.00  0.00     0.131 A 
ATOM     91  C   UNL A   1      45.141  27.044  37.188  1.00  0.00     0.055 A 
ATOM     92  C   UNL A   1      46.568  28.593  36.026  1.00  0.00     0.041 A 
ATOM     93  F   UNL A   1      45.657  30.041  34.424  1.00  0.00    -0.206 F 
ATOM     94  C   UNL A   1      46.409  27.594  36.982  1.00  0.00     0.022 A 
BRANCH  91  95
ATOM     95  S   UNL A   1      44.881  25.836  38.516  1.00  0.00     0.124 S 
ATOM     96  O   UNL A   1      44.202  24.753  37.812  1.00  0.00    -0.237 OA
ATOM     97  O   UNL A   1      46.244  25.556  38.955  1.00  0.00    -0.237 OA
ATOM     98  O   UNL A   1      44.056  26.560  39.482  1.00  0.00    -0.744 OA
ENDBRANCH  91  95
ENDBRANCH  65  88
ENDBRANCH  39  40
ENDBRANCH  31  34
ENDBRANCH  29  30
ENDBRANCH  28  29
ENDBRANCH   1  28
TORSDOF 18
ENDMDL
MODEL 2
REMARK VINA RESULT:     -11.9      5.628     11.645
REMARK SMILES [NH3+][C@H]1CCCN(C(=O)NC[C@H]2CC[C@@H](C(=O)NCCCCNC(=O)c3ccc(-c4c5nc(c(-c6cc(S(=O)(=O)[O-])ccc6F)c6ccc([nH]6)c(-c6cc(S(=O)(=O)[O-])ccc6F)c6nc(c(-c7cc(S(=O)(=O)[O-])ccc7F)c7ccc4[nH]7)C=C6)C=C5)cc3)CC2)C1
REMARK SMILES IDX 19 1 18 2 17 3 15 4 16 5 14 7 11 8 12 9 89 10 13 11 88 12
REMARK SMILES IDX 10 13 9 14 7 15 8 16 6 18 2 19 3 20 90 21 4 22 5 23 1 24
REMARK SMILES IDX 20 28 21 29 22 30 23 31 24 33 25 34 26 35 87 36 27 37 86 38
REMARK SMILES IDX 28 39 29 40 30 41 80 42 31 43 85 44 79 45 81 46 32 47 84 48
REMARK SMILES IDX 78 49 77 50 33 52 65 53 45 54 64 55 46 56 49 57 63 58 82 59
REMARK SMILES IDX 47 60 48 61 62 63 83 64 50 65 34 66 35 67 43 68 36 69 42 70
REMARK SMILES IDX 44 71 41 72 37 73 38 74 39 75 40 76 66 77 67 78 75 79 68 80
REMARK SMILES IDX 74 81 76 82 73 83 69 84 70 85 71 86 72 87 51 88 52 89 60 90
REMARK SMILES IDX 53 91 59 92 61 93 58 94 54 95 55 96 56 97 57 98
REMARK H PARENT 17 6 9 17 1 25 1 26 1 27 22 32 81 51 49 62
REMARK Flexibility Score: inf
ROOT
ATOM      1  C   UNL A   1      37.442  20.509  24.751  1.00  0.00     0.023 C 
ENDROOT
BRANCH   1   2
ATOM      2  C   UNL A   1      37.717  21.885  25.346  1.00  0.00     0.116 C 
BRANCH   2   3
ATOM      3  N   UNL A   1      36.733  22.309  26.321  1.00  0.00    -0.356 N 
ATOM      4  C   UNL A   1      35.450  22.740  26.167  1.00  0.00     0.223 C 
ATOM      5  O   UNL A   1      34.790  22.946  27.191  1.00  0.00    -0.275 OA
ATOM      6  H   UNL A   1      37.045  22.282  27.255  1.00  0.00     0.163 HD
BRANCH   4   7
ATOM      7  C   UNL A   1      34.834  23.033  24.794  1.00  0.00     0.078 C 
ATOM      8  C   UNL A   1      32.329  23.750  23.306  1.00  0.00     0.008 C 
ATOM      9  C   UNL A   1      33.462  24.780  23.453  1.00  0.00     0.006 C 
ATOM     10  C   UNL A   1      32.944  22.350  23.229  1.00  0.00     0.006 C 
ATOM     11  C   UNL A   1      34.475  24.511  24.569  1.00  0.00     0.014 C 
ATOM     12  C   UNL A   1      33.737  22.008  24.486  1.00  0.00     0.014 C 
BRANCH   8  13
ATOM     13  C   UNL A   1      31.244  23.814  24.399  1.00  0.00     0.121 C 
BRANCH  13  14
ATOM     14  N   UNL A   1      30.159  24.714  24.069  1.00  0.00    -0.338 N 
ATOM     15  C   UNL A   1      30.095  26.063  24.042  1.00  0.00     0.317 C 
ATOM     16  O   UNL A   1      29.298  26.552  23.239  1.00  0.00    -0.249 OA
ATOM     17  H   UNL A   1      29.320  24.263  23.820  1.00  0.00     0.165 HD
BRANCH  15  18
ATOM     18  N   UNL A   1      30.879  26.830  24.856  1.00  0.00    -0.319 N 
ATOM     19  C   UNL A   1      32.866  28.320  24.662  1.00  0.00     0.200 C 
ATOM     20  C   UNL A   1      33.180  28.030  26.139  1.00  0.00     0.068 C 
ATOM     21  C   UNL A   1      31.367  28.115  24.346  1.00  0.00     0.186 C 
ATOM     22  C   UNL A   1      32.586  26.693  26.591  1.00  0.00     0.028 C 
ATOM     23  C   UNL A   1      31.093  26.655  26.287  1.00  0.00     0.122 C 
BRANCH  19  24
ATOM     24  N   UNL A   1      33.302  29.685  24.342  1.00  0.00    -0.354 N 
ATOM     25  H   UNL A   1      34.119  29.922  24.905  1.00  0.00     0.344 HD
ATOM     26  H   UNL A   1      32.546  30.340  24.547  1.00  0.00     0.344 HD
ATOM     27  H   UNL A   1      33.542  29.742  23.352  1.00  0.00     0.344 HD
ENDBRANCH  19  24
ENDBRANCH  15  18
ENDBRANCH  13  14
ENDBRANCH   8  13
ENDBRANCH   4   7
ENDBRANCH   2   3
ENDBRANCH   1   2
BRANCH   1  28
ATOM     28  C   UNL A   1      38.540  19.479  24.990  1.00  0.00     0.023 C 
BRANCH  28  29
ATOM     29  C   UNL A   1      39.528  19.826  26.100  1.00  0.00     0.116 C 
BRANCH  29  30
ATOM     30  N   UNL A   1      40.750  19.036  26.063  1.00  0.00    -0.352 N 
ATOM     31  C   UNL A   1      42.052  19.477  26.173  1.00  0.00     0.251 C 
ATOM     32  H   UNL A   1      40.633  18.067  25.945  1.00  0.00     0.163 HD
ATOM     33  O   UNL A   1      42.981  18.699  26.010  1.00  0.00    -0.269 OA
BRANCH  31  34
ATOM     34  C   UNL A   1      42.303  20.911  26.438  1.00  0.00     0.039 A 
ATOM     35  C   UNL A   1      42.315  21.360  27.760  1.00  0.00     0.014 A 
ATOM     36  C   UNL A   1      42.588  21.789  25.389  1.00  0.00     0.014 A 
ATOM     37  C   UNL A   1      42.696  22.674  28.035  1.00  0.00     0.010 A 
ATOM     38  C   UNL A   1      43.039  23.074  25.672  1.00  0.00     0.010 A 
ATOM     39  C   UNL A   1      43.105  23.529  26.998  1.00  0.00    -0.014 A 
BRANCH  39  40
ATOM     40  C   UNL A   1      43.609  24.898  27.277  1.00  0.00     0.031 A 
ATOM     41  C   UNL A   1      42.673  25.948  27.810  1.00  0.00     0.074 A 
ATOM     42  C   UNL A   1      44.885  25.214  26.980  1.00  0.00     0.049 A 
ATOM     43  N   UNL A   1      42.893  27.219  28.030  1.00  0.00    -0.248 NA
ATOM     44  C   UNL A   1      41.298  25.517  28.099  1.00  0.00     0.031 C 
ATOM     45  C   UNL A   1      45.875  24.294  26.413  1.00  0.00     0.029 A 
ATOM     46  N   UNL A   1      45.569  26.399  27.100  1.00  0.00    -0.354 N 
ATOM     47  C   UNL A   1      41.681  27.742  28.468  1.00  0.00     0.074 A 
ATOM     48  C   UNL A   1      40.717  26.662  28.419  1.00  0.00     0.031 C 
ATOM     49  C   UNL A   1      47.040  24.942  26.256  1.00  0.00     0.029 A 
ATOM     50  C   UNL A   1      46.873  26.332  26.667  1.00  0.00     0.049 A 
ATOM     51  H   UNL A   1      45.163  27.219  27.462  1.00  0.00     0.167 HD
ATOM     52  C   UNL A   1      41.404  29.000  28.893  1.00  0.00     0.034 A 
ATOM     53  C   UNL A   1      47.823  27.286  26.598  1.00  0.00     0.034 A 
ATOM     54  C   UNL A   1      42.381  30.060  28.950  1.00  0.00     0.049 A 
ATOM     55  C   UNL A   1      47.490  28.680  27.067  1.00  0.00     0.074 A 
ATOM     56  C   UNL A   1      42.226  31.352  29.420  1.00  0.00     0.029 A 
ATOM     57  N   UNL A   1      43.697  29.952  28.518  1.00  0.00    -0.354 N 
ATOM     58  N   UNL A   1      46.352  29.145  27.530  1.00  0.00    -0.248 NA
ATOM     59  C   UNL A   1      48.572  29.671  27.018  1.00  0.00     0.031 C 
ATOM     60  C   UNL A   1      43.426  32.043  29.214  1.00  0.00     0.029 A 
ATOM     61  C   UNL A   1      44.354  31.162  28.683  1.00  0.00     0.049 A 
ATOM     62  H   UNL A   1      44.104  29.135  28.147  1.00  0.00     0.167 HD
ATOM     63  C   UNL A   1      46.593  30.478  27.853  1.00  0.00     0.074 A 
ATOM     64  C   UNL A   1      47.985  30.735  27.545  1.00  0.00     0.031 C 
ATOM     65  C   UNL A   1      45.742  31.405  28.362  1.00  0.00     0.034 A 
BRANCH  52  66
ATOM     66  C   UNL A   1      39.980  29.294  29.303  1.00  0.00     0.023 A 
ATOM     67  C   UNL A   1      39.597  29.342  30.656  1.00  0.00     0.031 A 
ATOM     68  C   UNL A   1      38.985  29.494  28.331  1.00  0.00     0.131 A 
ATOM     69  C   UNL A   1      38.245  29.500  30.996  1.00  0.00     0.055 A 
ATOM     70  C   UNL A   1      37.653  29.736  28.679  1.00  0.00     0.041 A 
ATOM     71  F   UNL A   1      39.285  29.441  27.024  1.00  0.00    -0.206 F 
ATOM     72  C   UNL A   1      37.274  29.724  30.018  1.00  0.00     0.022 A 
BRANCH  69  73
ATOM     73  S   UNL A   1      37.757  29.261  32.726  1.00  0.00     0.124 S 
ATOM     74  O   UNL A   1      36.449  29.911  32.755  1.00  0.00    -0.237 OA
ATOM     75  O   UNL A   1      37.751  27.808  32.854  1.00  0.00    -0.237 OA
ATOM     76  O   UNL A   1      38.805  29.950  33.477  1.00  0.00    -0.744 OA
ENDBRANCH  69  73
ENDBRANCH  52  66
BRANCH  53  77
ATOM     77  C   UNL A   1      49.176  26.969  26.059  1.00  0.00     0.023 A 
ATOM     78  C   UNL A   1      49.557  27.378  24.771  1.00  0.00     0.031 A 
ATOM     79  C   UNL A   1      50.096  26.217  26.811  1.00  0.00     0.131 A 
ATOM     80  C   UNL A   1      50.804  26.994  24.254  1.00  0.00     0.055 A 
ATOM     81  C   UNL A   1      51.356  25.881  26.312  1.00  0.00     0.041 A 
ATOM     82  F   UNL A   1      49.786  25.808  28.051  1.00  0.00    -0.206 F 
ATOM     83  C   UNL A   1      51.711  26.259  25.021  1.00  0.00     0.022 A 
BRANCH  80  84
ATOM     84  S   UNL A   1      51.195  27.405  22.532  1.00  0.00     0.124 S 
ATOM     85  O   UNL A   1      52.554  26.891  22.405  1.00  0.00    -0.237 OA
ATOM     86  O   UNL A   1      50.162  26.674  21.805  1.00  0.00    -0.237 OA
ATOM     87  O   UNL A   1      51.069  28.860  22.493  1.00  0.00    -0.744 OA
ENDBRANCH  80  84
ENDBRANCH  53  77
BRANCH  65  88
ATOM     88  C   UNL A   1      46.314  32.769  28.659  1.00  0.00     0.023 A 
ATOM     89  C   UNL A   1      46.297  33.803  27.707  1.00  0.00     0.031 A 
ATOM     90  C   UNL A   1      46.896  33.031  29.912  1.00  0.00     0.131 A 
ATOM     91  C   UNL A   1      46.899  35.035  28.004  1.00  0.00     0.055 A 
ATOM     92  C   UNL A   1      47.442  34.277  30.221  1.00  0.00     0.041 A 
ATOM     93  F   UNL A   1      46.940  32.079  30.858  1.00  0.00    -0.206 F 
ATOM     94  C   UNL A   1      47.457  35.284  29.260  1.00  0.00     0.022 A 
BRANCH  91  95
ATOM     95  S   UNL A   1      47.022  36.283  26.692  1.00  0.00     0.124 S 
ATOM     96  O   UNL A   1      48.261  36.970  27.042  1.00  0.00    -0.237 OA
ATOM     97  O   UNL A   1      47.066  35.464  25.486  1.00  0.00    -0.237 OA
ATOM     98  O   UNL A   1      45.805  37.075  26.858  1.00  0.00    -0.744 OA
ENDBRANCH  91  95
ENDBRANCH  65  88
ENDBRANCH  39  40
ENDBRANCH  31  34
ENDBRANCH  29  30
ENDBRANCH  28  29
ENDBRANCH   1  28
TORSDOF 18
ENDMDL
MODEL 3
REMARK VINA RESULT:     -11.8      1.713      2.232
REMARK SMILES [NH3+][C@H]1CCCN(C(=O)NC[C@H]2CC[C@@H](C(=O)NCCCCNC(=O)c3ccc(-c4c5nc(c(-c6cc(S(=O)(=O)[O-])ccc6F)c6ccc([nH]6)c(-c6cc(S(=O)(=O)[O-])ccc6F)c6nc(c(-c7cc(S(=O)(=O)[O-])ccc7F)c7ccc4[nH]7)C=C6)C=C5)cc3)CC2)C1
REMARK SMILES IDX 19 1 18 2 17 3 15 4 16 5 14 7 11 8 12 9 89 10 13 11 88 12
REMARK SMILES IDX 10 13 9 14 7 15 8 16 6 18 2 19 3 20 90 21 4 22 5 23 1 24
REMARK SMILES IDX 20 28 21 29 22 30 23 31 24 33 25 34 26 35 87 36 27 37 86 38
REMARK SMILES IDX 28 39 29 40 30 41 80 42 31 43 85 44 79 45 81 46 32 47 84 48
REMARK SMILES IDX 78 49 77 50 33 52 65 53 45 54 64 55 46 56 49 57 63 58 82 59
REMARK SMILES IDX 47 60 48 61 62 63 83 64 50 65 34 66 35 67 43 68 36 69 42 70
REMARK SMILES IDX 44 71 41 72 37 73 38 74 39 75 40 76 66 77 67 78 75 79 68 80
REMARK SMILES IDX 74 81 76 82 73 83 69 84 70 85 71 86 72 87 51 88 52 89 60 90
REMARK SMILES IDX 53 91 59 92 61 93 58 94 54 95 55 96 56 97 57 98
REMARK H PARENT 17 6 9 17 1 25 1 26 1 27 22 32 81 51 49 62
REMARK Flexibility Score: inf
ROOT
ATOM      1  C   UNL A   1      31.406  30.859  26.147  1.00  0.00     0.023 C 
ENDROOT
BRANCH   1   2
ATOM      2  C   UNL A   1      32.310  29.930  26.950  1.00  0.00     0.116 C 
BRANCH   2   3
ATOM      3  N   UNL A   1      31.787  28.587  27.097  1.00  0.00    -0.356 N 
ATOM      4  C   UNL A   1      31.627  27.585  26.188  1.00  0.00     0.223 C 
ATOM      5  O   UNL A   1      31.245  26.488  26.610  1.00  0.00    -0.275 OA
ATOM      6  H   UNL A   1      31.498  28.360  28.011  1.00  0.00     0.163 HD
BRANCH   4   7
ATOM      7  C   UNL A   1      31.838  27.790  24.684  1.00  0.00     0.078 C 
ATOM      8  C   UNL A   1      32.762  26.536  22.120  1.00  0.00     0.008 C 
ATOM      9  C   UNL A   1      31.267  26.821  22.346  1.00  0.00     0.006 C 
ATOM     10  C   UNL A   1      33.581  27.613  22.836  1.00  0.00     0.006 C 
ATOM     11  C   UNL A   1      30.835  27.031  23.800  1.00  0.00     0.014 C 
ATOM     12  C   UNL A   1      33.321  27.620  24.338  1.00  0.00     0.014 C 
BRANCH   8  13
ATOM     13  C   UNL A   1      33.227  25.127  22.534  1.00  0.00     0.121 C 
BRANCH  13  14
ATOM     14  N   UNL A   1      32.141  24.276  22.975  1.00  0.00    -0.338 N 
ATOM     15  C   UNL A   1      31.976  23.553  24.104  1.00  0.00     0.317 C 
ATOM     16  O   UNL A   1      30.813  23.386  24.474  1.00  0.00    -0.249 OA
ATOM     17  H   UNL A   1      31.390  24.216  22.341  1.00  0.00     0.165 HD
BRANCH  15  18
ATOM     18  N   UNL A   1      33.044  23.049  24.789  1.00  0.00    -0.319 N 
ATOM     19  C   UNL A   1      33.950  20.826  25.453  1.00  0.00     0.200 C 
ATOM     20  C   UNL A   1      34.666  21.510  26.629  1.00  0.00     0.068 C 
ATOM     21  C   UNL A   1      33.668  21.816  24.300  1.00  0.00     0.186 C 
ATOM     22  C   UNL A   1      33.970  22.813  27.032  1.00  0.00     0.028 C 
ATOM     23  C   UNL A   1      33.823  23.725  25.819  1.00  0.00     0.122 C 
BRANCH  19  24
ATOM     24  N   UNL A   1      34.760  19.688  24.999  1.00  0.00    -0.354 N 
ATOM     25  H   UNL A   1      35.691  20.016  24.739  1.00  0.00     0.344 HD
ATOM     26  H   UNL A   1      34.314  19.255  24.190  1.00  0.00     0.344 HD
ATOM     27  H   UNL A   1      34.838  19.004  25.751  1.00  0.00     0.344 HD
ENDBRANCH  19  24
ENDBRANCH  15  18
ENDBRANCH  13  14
ENDBRANCH   8  13
ENDBRANCH   4   7
ENDBRANCH   2   3
ENDBRANCH   1   2
BRANCH   1  28
ATOM     28  C   UNL A   1      31.405  32.310  26.615  1.00  0.00     0.023 C 
BRANCH  28  29
ATOM     29  C   UNL A   1      32.711  32.794  27.238  1.00  0.00     0.116 C 
BRANCH  29  30
ATOM     30  N   UNL A   1      32.633  34.142  27.782  1.00  0.00    -0.352 N 
ATOM     31  C   UNL A   1      33.430  34.717  28.750  1.00  0.00     0.251 C 
ATOM     32  H   UNL A   1      31.925  34.716  27.413  1.00  0.00     0.163 HD
ATOM     33  O   UNL A   1      33.169  35.830  29.182  1.00  0.00    -0.269 OA
BRANCH  31  34
ATOM     34  C   UNL A   1      34.571  33.944  29.290  1.00  0.00     0.039 A 
ATOM     35  C   UNL A   1      35.867  34.304  28.914  1.00  0.00     0.014 A 
ATOM     36  C   UNL A   1      34.360  32.914  30.210  1.00  0.00     0.014 A 
ATOM     37  C   UNL A   1      36.957  33.683  29.528  1.00  0.00     0.010 A 
ATOM     38  C   UNL A   1      35.446  32.352  30.874  1.00  0.00     0.010 A 
ATOM     39  C   UNL A   1      36.756  32.735  30.545  1.00  0.00    -0.014 A 
BRANCH  39  40
ATOM     40  C   UNL A   1      37.899  32.137  31.281  1.00  0.00     0.031 A 
ATOM     41  C   UNL A   1      38.699  31.028  30.652  1.00  0.00     0.074 A 
ATOM     42  C   UNL A   1      38.167  32.536  32.540  1.00  0.00     0.049 A 
ATOM     43  N   UNL A   1      39.669  30.315  31.162  1.00  0.00    -0.248 NA
ATOM     44  C   UNL A   1      38.332  30.652  29.279  1.00  0.00     0.031 C 
ATOM     45  C   UNL A   1      37.431  33.569  33.274  1.00  0.00     0.029 A 
ATOM     46  N   UNL A   1      39.123  32.117  33.431  1.00  0.00    -0.354 N 
ATOM     47  C   UNL A   1      40.019  29.395  30.179  1.00  0.00     0.074 A 
ATOM     48  C   UNL A   1      39.111  29.602  29.070  1.00  0.00     0.031 C 
ATOM     49  C   UNL A   1      37.975  33.715  34.494  1.00  0.00     0.029 A 
ATOM     50  C   UNL A   1      39.068  32.761  34.646  1.00  0.00     0.049 A 
ATOM     51  H   UNL A   1      39.785  31.419  33.221  1.00  0.00     0.167 HD
ATOM     52  C   UNL A   1      41.018  28.478  30.193  1.00  0.00     0.034 A 
ATOM     53  C   UNL A   1      39.807  32.593  35.761  1.00  0.00     0.034 A 
ATOM     54  C   UNL A   1      41.923  28.295  31.300  1.00  0.00     0.049 A 
ATOM     55  C   UNL A   1      40.907  31.562  35.756  1.00  0.00     0.074 A 
ATOM     56  C   UNL A   1      43.008  27.441  31.397  1.00  0.00     0.029 A 
ATOM     57  N   UNL A   1      41.848  28.977  32.509  1.00  0.00    -0.354 N 
ATOM     58  N   UNL A   1      41.260  30.736  34.798  1.00  0.00    -0.248 NA
ATOM     59  C   UNL A   1      41.716  31.450  36.976  1.00  0.00     0.031 C 
ATOM     60  C   UNL A   1      43.548  27.559  32.683  1.00  0.00     0.029 A 
ATOM     61  C   UNL A   1      42.847  28.540  33.366  1.00  0.00     0.049 A 
ATOM     62  H   UNL A   1      41.182  29.668  32.726  1.00  0.00     0.167 HD
ATOM     63  C   UNL A   1      42.351  30.027  35.292  1.00  0.00     0.074 A 
ATOM     64  C   UNL A   1      42.605  30.533  36.626  1.00  0.00     0.031 C 
ATOM     65  C   UNL A   1      43.081  29.049  34.698  1.00  0.00     0.034 A 
BRANCH  52  66
ATOM     66  C   UNL A   1      41.160  27.591  28.978  1.00  0.00     0.023 A 
ATOM     67  C   UNL A   1      42.175  27.798  28.027  1.00  0.00     0.031 A 
ATOM     68  C   UNL A   1      40.248  26.546  28.748  1.00  0.00     0.131 A 
ATOM     69  C   UNL A   1      42.204  27.031  26.854  1.00  0.00     0.055 A 
ATOM     70  C   UNL A   1      40.334  25.729  27.617  1.00  0.00     0.041 A 
ATOM     71  F   UNL A   1      39.245  26.311  29.609  1.00  0.00    -0.206 F 
ATOM     72  C   UNL A   1      41.306  25.980  26.654  1.00  0.00     0.022 A 
BRANCH  69  73
ATOM     73  S   UNL A   1      43.338  27.524  25.527  1.00  0.00     0.124 S 
ATOM     74  O   UNL A   1      44.112  28.578  26.178  1.00  0.00    -0.237 OA
ATOM     75  O   UNL A   1      44.055  26.285  25.247  1.00  0.00    -0.237 OA
ATOM     76  O   UNL A   1      42.444  27.982  24.465  1.00  0.00    -0.744 OA
ENDBRANCH  69  73
ENDBRANCH  52  66
BRANCH  53  77
ATOM     77  C   UNL A   1      39.536  33.408  36.979  1.00  0.00     0.023 A 
ATOM     78  C   UNL A   1      38.833  32.870  38.068  1.00  0.00     0.031 A 
ATOM     79  C   UNL A   1      39.944  34.752  37.056  1.00  0.00     0.131 A 
ATOM     80  C   UNL A   1      38.516  33.683  39.167  1.00  0.00     0.055 A 
ATOM     81  C   UNL A   1      39.670  35.543  38.173  1.00  0.00     0.041 A 
ATOM     82  F   UNL A   1      40.627  35.313  36.046  1.00  0.00    -0.206 F 
ATOM     83  C   UNL A   1      38.940  35.013  39.233  1.00  0.00     0.022 A 
BRANCH  80  84
ATOM     84  S   UNL A   1      37.470  32.999  40.482  1.00  0.00     0.124 S 
ATOM     85  O   UNL A   1      36.206  32.799  39.782  1.00  0.00    -0.237 OA
ATOM     86  O   UNL A   1      38.199  31.788  40.848  1.00  0.00    -0.237 OA
ATOM     87  O   UNL A   1      37.465  34.051  41.495  1.00  0.00    -0.744 OA
ENDBRANCH  80  84
ENDBRANCH  53  77
BRANCH  65  88
ATOM     88  C   UNL A   1      44.252  28.500  35.475  1.00  0.00     0.023 A 
ATOM     89  C   UNL A   1      44.091  27.499  36.449  1.00  0.00     0.031 A 
ATOM     90  C   UNL A   1      45.547  28.997  35.244  1.00  0.00     0.131 A 
ATOM     91  C   UNL A   1      45.198  27.065  37.194  1.00  0.00     0.055 A 
ATOM     92  C   UNL A   1      46.653  28.520  35.948  1.00  0.00     0.041 A 
ATOM     93  F   UNL A   1      45.757  29.955  34.326  1.00  0.00    -0.206 F 
ATOM     94  C   UNL A   1      46.480  27.557  36.938  1.00  0.00     0.022 A 
BRANCH  91  95
ATOM     95  S   UNL A   1      44.926  25.908  38.565  1.00  0.00     0.124 S 
ATOM     96  O   UNL A   1      44.194  24.828  37.910  1.00  0.00    -0.237 OA
ATOM     97  O   UNL A   1      46.288  25.594  38.982  1.00  0.00    -0.237 OA
ATOM     98  O   UNL A   1      44.150  26.690  39.525  1.00  0.00    -0.744 OA
ENDBRANCH  91  95
ENDBRANCH  65  88
ENDBRANCH  39  40
ENDBRANCH  31  34
ENDBRANCH  29  30
ENDBRANCH  28  29
ENDBRANCH   1  28
TORSDOF 18
ENDMDL
