MODEL 1
REMARK VINA RESULT:     -12.0      0.000      0.000
REMARK SMILES O=C(C[C@@H]([NH2+]Cc1cccnc1)C(=O)NCCCCNC(=O)c1ccc(-c2c3nc(c(-c4cc(S(=O)(=O)[O-])ccc4F)c4ccc([nH]4)c(-c4cc(S(=O)(=O)[O-])ccc4F)c4nc(c(-c5cc(S(=O)(=O)[O-])ccc5F)c5ccc2[nH]5)C=C4)C=C3)cc1)Nc1ccc2ccccc2c1
REMARK SMILES IDX 17 1 16 2 15 3 13 4 14 5 4 7 3 8 2 9 1 10 86 11 87 13 88 14
REMARK SMILES IDX 96 15 89 16 95 17 90 18 94 19 91 20 93 21 92 22 5 23 6 26
REMARK SMILES IDX 7 27 8 28 12 29 9 30 11 31 10 32 18 33 19 34 20 35 21 36
REMARK SMILES IDX 22 38 23 39 24 40 85 41 25 42 84 43 26 44 27 45 28 46 78 47
REMARK SMILES IDX 29 48 83 49 77 50 79 51 30 52 82 53 76 54 75 55 31 57 63 58
REMARK SMILES IDX 43 59 62 60 44 61 47 62 61 63 80 64 45 65 46 66 60 68 81 69
REMARK SMILES IDX 48 70 32 71 33 72 41 73 34 74 40 75 42 76 39 77 35 78 36 79
REMARK SMILES IDX 37 80 38 81 64 82 65 83 73 84 66 85 72 86 74 87 71 88 67 89
REMARK SMILES IDX 68 90 69 91 70 92 49 93 50 94 58 95 51 96 57 97 59 98 56 99
REMARK SMILES IDX 52 100 53 101 54 102 55 103
REMARK H PARENT 15 6 86 12 5 24 5 25 20 37 79 56 47 67
REMARK Flexibility Score: inf
ROOT
ATOM      1  C   UNL A   1      31.818  30.398  26.065  1.00  0.00     0.023 C 
ENDROOT
BRANCH   1   2
ATOM      2  C   UNL A   1      32.369  29.466  27.144  1.00  0.00     0.116 C 
BRANCH   2   3
ATOM      3  N   UNL A   1      31.557  28.269  27.250  1.00  0.00    -0.351 N 
ATOM      4  C   UNL A   1      31.524  27.160  26.458  1.00  0.00     0.278 C 
ATOM      5  O   UNL A   1      30.721  26.269  26.749  1.00  0.00    -0.268 OA
ATOM      6  H   UNL A   1      30.933  28.255  28.011  1.00  0.00     0.163 HD
BRANCH   4   7
ATOM      7  C   UNL A   1      32.501  26.980  25.278  1.00  0.00     0.282 C 
BRANCH   7   8
ATOM      8  C   UNL A   1      33.832  26.380  25.780  1.00  0.00     0.175 C 
BRANCH   8   9
ATOM      9  C   UNL A   1      34.231  25.074  25.124  1.00  0.00     0.230 C 
ATOM     10  O   UNL A   1      34.485  25.002  23.927  1.00  0.00    -0.274 OA
ATOM     11  N   UNL A   1      34.249  24.017  26.018  1.00  0.00    -0.326 N 
ATOM     12  H   UNL A   1      34.187  24.216  26.980  1.00  0.00     0.169 HD
BRANCH  11  13
ATOM     13  C   UNL A   1      34.353  22.678  25.620  1.00  0.00     0.041 A 
ATOM     14  C   UNL A   1      35.619  22.097  25.624  1.00  0.00     0.027 A 
ATOM     15  C   UNL A   1      33.243  21.943  25.205  1.00  0.00     0.034 A 
ATOM     16  C   UNL A   1      35.765  20.745  25.321  1.00  0.00     0.011 A 
ATOM     17  C   UNL A   1      33.401  20.616  24.767  1.00  0.00    -0.016 A 
ATOM     18  C   UNL A   1      34.667  19.996  24.883  1.00  0.00    -0.018 A 
ATOM     19  C   UNL A   1      32.343  19.893  24.192  1.00  0.00     0.009 A 
ATOM     20  C   UNL A   1      34.815  18.648  24.525  1.00  0.00     0.009 A 
ATOM     21  C   UNL A   1      32.527  18.574  23.770  1.00  0.00     0.001 A 
ATOM     22  C   UNL A   1      33.752  17.943  23.964  1.00  0.00     0.001 A 
ENDBRANCH  11  13
ENDBRANCH   8   9
ENDBRANCH   7   8
BRANCH   7  23
ATOM     23  N   UNL A   1      31.863  26.216  24.154  1.00  0.00    -0.332 N 
ATOM     24  H   UNL A   1      30.920  25.954  24.439  1.00  0.00     0.347 HD
ATOM     25  H   UNL A   1      32.456  25.406  23.971  1.00  0.00     0.347 HD
BRANCH  23  26
ATOM     26  C   UNL A   1      31.774  26.980  22.890  1.00  0.00     0.299 C 
BRANCH  26  27
ATOM     27  C   UNL A   1      30.563  27.871  22.851  1.00  0.00     0.024 A 
ATOM     28  C   UNL A   1      29.320  27.425  23.320  1.00  0.00     0.013 A 
ATOM     29  C   UNL A   1      30.616  29.141  22.286  1.00  0.00     0.120 A 
ATOM     30  C   UNL A   1      28.196  28.228  23.172  1.00  0.00     0.021 A 
ATOM     31  N   UNL A   1      29.540  29.948  22.150  1.00  0.00    -0.264 NA
ATOM     32  C   UNL A   1      28.356  29.469  22.581  1.00  0.00     0.111 A 
ENDBRANCH  26  27
ENDBRANCH  23  26
ENDBRANCH   7  23
ENDBRANCH   4   7
ENDBRANCH   2   3
ENDBRANCH   1   2
BRANCH   1  33
ATOM     33  C   UNL A   1      31.521  31.815  26.557  1.00  0.00     0.023 C 
BRANCH  33  34
ATOM     34  C   UNL A   1      32.669  32.482  27.302  1.00  0.00     0.116 C 
BRANCH  34  35
ATOM     35  N   UNL A   1      32.420  33.891  27.569  1.00  0.00    -0.352 N 
ATOM     36  C   UNL A   1      33.031  34.707  28.490  1.00  0.00     0.251 C 
ATOM     37  H   UNL A   1      31.724  34.315  27.018  1.00  0.00     0.163 HD
ATOM     38  O   UNL A   1      32.591  35.834  28.699  1.00  0.00    -0.269 OA
BRANCH  36  39
ATOM     39  C   UNL A   1      34.195  34.196  29.243  1.00  0.00     0.039 A 
ATOM     40  C   UNL A   1      33.982  33.347  30.330  1.00  0.00     0.014 A 
ATOM     41  C   UNL A   1      35.495  34.521  28.841  1.00  0.00     0.014 A 
ATOM     42  C   UNL A   1      35.077  32.769  30.975  1.00  0.00     0.010 A 
ATOM     43  C   UNL A   1      36.577  33.880  29.432  1.00  0.00     0.010 A 
ATOM     44  C   UNL A   1      36.381  33.000  30.509  1.00  0.00    -0.014 A 
BRANCH  44  45
ATOM     45  C   UNL A   1      37.558  32.350  31.140  1.00  0.00     0.031 A 
ATOM     46  C   UNL A   1      38.311  31.283  30.394  1.00  0.00     0.074 A 
ATOM     47  C   UNL A   1      37.908  32.670  32.401  1.00  0.00     0.049 A 
ATOM     48  N   UNL A   1      39.300  30.528  30.799  1.00  0.00    -0.248 NA
ATOM     49  C   UNL A   1      37.868  31.006  29.019  1.00  0.00     0.031 C 
ATOM     50  C   UNL A   1      37.236  33.668  33.238  1.00  0.00     0.029 A 
ATOM     51  N   UNL A   1      38.910  32.187  33.205  1.00  0.00    -0.354 N 
ATOM     52  C   UNL A   1      39.589  29.680  29.735  1.00  0.00     0.074 A 
ATOM     53  C   UNL A   1      38.621  29.967  28.697  1.00  0.00     0.031 C 
ATOM     54  C   UNL A   1      37.862  33.741  34.424  1.00  0.00     0.029 A 
ATOM     55  C   UNL A   1      38.945  32.762  34.454  1.00  0.00     0.049 A 
ATOM     56  H   UNL A   1      39.546  31.494  32.914  1.00  0.00     0.167 HD
ATOM     57  C   UNL A   1      40.586  28.767  29.622  1.00  0.00     0.034 A 
ATOM     58  C   UNL A   1      39.747  32.517  35.511  1.00  0.00     0.034 A 
ATOM     59  C   UNL A   1      41.546  28.500  30.666  1.00  0.00     0.049 A 
ATOM     60  C   UNL A   1      40.820  31.464  35.381  1.00  0.00     0.074 A 
ATOM     61  C   UNL A   1      42.619  27.628  30.645  1.00  0.00     0.029 A 
ATOM     62  N   UNL A   1      41.542  29.094  31.922  1.00  0.00    -0.354 N 
ATOM     63  N   UNL A   1      41.106  30.698  34.353  1.00  0.00    -0.248 NA
ATOM     64  C   UNL A   1      41.681  31.249  36.550  1.00  0.00     0.031 C 
ATOM     65  C   UNL A   1      43.217  27.639  31.910  1.00  0.00     0.029 A 
ATOM     66  C   UNL A   1      42.575  28.583  32.693  1.00  0.00     0.049 A 
ATOM     67  H   UNL A   1      40.900  29.779  32.220  1.00  0.00     0.167 HD
ATOM     68  C   UNL A   1      42.207  29.938  34.742  1.00  0.00     0.074 A 
ATOM     69  C   UNL A   1      42.536  30.346  36.091  1.00  0.00     0.031 C 
ATOM     70  C   UNL A   1      42.889  28.995  34.043  1.00  0.00     0.034 A 
BRANCH  57  71
ATOM     71  C   UNL A   1      40.662  27.978  28.335  1.00  0.00     0.023 A 
ATOM     72  C   UNL A   1      39.980  26.759  28.175  1.00  0.00     0.031 A 
ATOM     73  C   UNL A   1      41.458  28.428  27.267  1.00  0.00     0.131 A 
ATOM     74  C   UNL A   1      40.176  25.992  27.016  1.00  0.00     0.055 A 
ATOM     75  C   UNL A   1      41.574  27.706  26.078  1.00  0.00     0.041 A 
ATOM     76  F   UNL A   1      42.153  29.573  27.367  1.00  0.00    -0.206 F 
ATOM     77  C   UNL A   1      40.946  26.470  25.955  1.00  0.00     0.022 A 
BRANCH  74  78
ATOM     78  S   UNL A   1      39.547  24.290  26.991  1.00  0.00     0.124 S 
ATOM     79  O   UNL A   1      38.791  24.275  25.742  1.00  0.00    -0.237 OA
ATOM     80  O   UNL A   1      40.773  23.501  27.006  1.00  0.00    -0.237 OA
ATOM     81  O   UNL A   1      38.736  24.207  28.204  1.00  0.00    -0.744 OA
ENDBRANCH  74  78
ENDBRANCH  57  71
BRANCH  58  82
ATOM     82  C   UNL A   1      39.572  33.271  36.786  1.00  0.00     0.023 A 
ATOM     83  C   UNL A   1      38.837  32.726  37.852  1.00  0.00     0.031 A 
ATOM     84  C   UNL A   1      40.098  34.566  36.944  1.00  0.00     0.131 A 
ATOM     85  C   UNL A   1      38.606  33.490  39.006  1.00  0.00     0.055 A 
ATOM     86  C   UNL A   1      39.914  35.300  38.117  1.00  0.00     0.041 A 
ATOM     87  F   UNL A   1      40.811  35.134  35.958  1.00  0.00    -0.206 F 
ATOM     88  C   UNL A   1      39.152  34.768  39.152  1.00  0.00     0.022 A 
BRANCH  85  89
ATOM     89  S   UNL A   1      37.499  32.824  40.279  1.00  0.00     0.124 S 
ATOM     90  O   UNL A   1      38.122  31.538  40.571  1.00  0.00    -0.237 OA
ATOM     91  O   UNL A   1      37.595  33.837  41.324  1.00  0.00    -0.237 OA
ATOM     92  O   UNL A   1      36.206  32.751  39.601  1.00  0.00    -0.744 OA
ENDBRANCH  85  89
ENDBRANCH  58  82
BRANCH  70  93
ATOM     93  C   UNL A   1      44.098  28.382  34.709  1.00  0.00     0.023 A 
ATOM     94  C   UNL A   1      44.001  27.249  35.535  1.00  0.00     0.031 A 
ATOM     95  C   UNL A   1      45.371  28.948  34.514  1.00  0.00     0.131 A 
ATOM     96  C   UNL A   1      45.144  26.753  36.179  1.00  0.00     0.055 A 
ATOM     97  C   UNL A   1      46.516  28.410  35.103  1.00  0.00     0.041 A 
ATOM     98  F   UNL A   1      45.525  30.034  33.738  1.00  0.00    -0.206 F 
ATOM     99  C   UNL A   1      46.404  27.315  35.952  1.00  0.00     0.022 A 
BRANCH  96 100
ATOM    100  S   UNL A   1      44.952  25.420  37.395  1.00  0.00     0.124 S 
ATOM    101  O   UNL A   1      46.334  25.166  37.786  1.00  0.00    -0.237 OA
ATOM    102  O   UNL A   1      44.107  26.043  38.408  1.00  0.00    -0.237 OA
ATOM    103  O   UNL A   1      44.316  24.348  36.632  1.00  0.00    -0.744 OA
ENDBRANCH  96 100
ENDBRANCH  70  93
ENDBRANCH  44  45
ENDBRANCH  36  39
ENDBRANCH  34  35
ENDBRANCH  33  34
ENDBRANCH   1  33
TORSDOF 20
ENDMDL
MODEL 2
REMARK VINA RESULT:     -11.5      1.605      1.996
REMARK SMILES O=C(C[C@@H]([NH2+]Cc1cccnc1)C(=O)NCCCCNC(=O)c1ccc(-c2c3nc(c(-c4cc(S(=O)(=O)[O-])ccc4F)c4ccc([nH]4)c(-c4cc(S(=O)(=O)[O-])ccc4F)c4nc(c(-c5cc(S(=O)(=O)[O-])ccc5F)c5ccc2[nH]5)C=C4)C=C3)cc1)Nc1ccc2ccccc2c1
REMARK SMILES IDX 17 1 16 2 15 3 13 4 14 5 4 7 3 8 2 9 1 10 86 11 87 13 88 14
REMARK SMILES IDX 96 15 89 16 95 17 90 18 94 19 91 20 93 21 92 22 5 23 6 26
REMARK SMILES IDX 7 27 8 28 12 29 9 30 11 31 10 32 18 33 19 34 20 35 21 36
REMARK SMILES IDX 22 38 23 39 24 40 85 41 25 42 84 43 26 44 27 45 28 46 78 47
REMARK SMILES IDX 29 48 83 49 77 50 79 51 30 52 82 53 76 54 75 55 31 57 63 58
REMARK SMILES IDX 43 59 62 60 44 61 47 62 61 63 80 64 45 65 46 66 60 68 81 69
REMARK SMILES IDX 48 70 32 71 33 72 41 73 34 74 40 75 42 76 39 77 35 78 36 79
REMARK SMILES IDX 37 80 38 81 64 82 65 83 73 84 66 85 72 86 74 87 71 88 67 89
REMARK SMILES IDX 68 90 69 91 70 92 49 93 50 94 58 95 51 96 57 97 59 98 56 99
REMARK SMILES IDX 52 100 53 101 54 102 55 103
REMARK H PARENT 15 6 86 12 5 24 5 25 20 37 79 56 47 67
REMARK Flexibility Score: inf
ROOT
ATOM      1  C   UNL A   1      31.864  29.557  26.269  1.00  0.00     0.023 C 
ENDROOT
BRANCH   1   2
ATOM      2  C   UNL A   1      32.104  28.455  27.300  1.00  0.00     0.116 C 
BRANCH   2   3
ATOM      3  N   UNL A   1      31.029  27.482  27.269  1.00  0.00    -0.351 N 
ATOM      4  C   UNL A   1      30.757  26.507  26.357  1.00  0.00     0.278 C 
ATOM      5  O   UNL A   1      29.759  25.806  26.544  1.00  0.00    -0.268 OA
ATOM      6  H   UNL A   1      30.400  27.533  28.024  1.00  0.00     0.163 HD
BRANCH   4   7
ATOM      7  C   UNL A   1      31.696  26.231  25.164  1.00  0.00     0.282 C 
BRANCH   7   8
ATOM      8  C   UNL A   1      32.667  25.082  25.510  1.00  0.00     0.175 C 
BRANCH   8   9
ATOM      9  C   UNL A   1      32.211  23.707  25.067  1.00  0.00     0.230 C 
ATOM     10  O   UNL A   1      31.131  23.240  25.412  1.00  0.00    -0.274 OA
ATOM     11  N   UNL A   1      33.147  23.071  24.270  1.00  0.00    -0.326 N 
ATOM     12  H   UNL A   1      33.904  23.598  23.924  1.00  0.00     0.169 HD
BRANCH  11  13
ATOM     13  C   UNL A   1      33.071  21.714  23.931  1.00  0.00     0.041 A 
ATOM     14  C   UNL A   1      32.196  21.350  22.909  1.00  0.00     0.027 A 
ATOM     15  C   UNL A   1      33.816  20.743  24.598  1.00  0.00     0.034 A 
ATOM     16  C   UNL A   1      32.146  20.028  22.474  1.00  0.00     0.011 A 
ATOM     17  C   UNL A   1      33.671  19.386  24.257  1.00  0.00    -0.016 A 
ATOM     18  C   UNL A   1      32.870  19.035  23.144  1.00  0.00    -0.018 A 
ATOM     19  C   UNL A   1      34.276  18.364  25.005  1.00  0.00     0.009 A 
ATOM     20  C   UNL A   1      32.785  17.693  22.747  1.00  0.00     0.009 A 
ATOM     21  C   UNL A   1      34.120  17.024  24.640  1.00  0.00     0.001 A 
ATOM     22  C   UNL A   1      33.400  16.692  23.496  1.00  0.00     0.001 A 
ENDBRANCH  11  13
ENDBRANCH   8   9
ENDBRANCH   7   8
BRANCH   7  23
ATOM     23  N   UNL A   1      30.920  26.024  23.896  1.00  0.00    -0.332 N 
ATOM     24  H   UNL A   1      29.935  25.917  24.136  1.00  0.00     0.347 HD
ATOM     25  H   UNL A   1      31.305  25.194  23.444  1.00  0.00     0.347 HD
BRANCH  23  26
ATOM     26  C   UNL A   1      31.046  27.139  22.931  1.00  0.00     0.299 C 
BRANCH  26  27
ATOM     27  C   UNL A   1      29.920  28.128  23.059  1.00  0.00     0.024 A 
ATOM     28  C   UNL A   1      28.591  27.702  23.171  1.00  0.00     0.013 A 
ATOM     29  C   UNL A   1      30.151  29.499  23.000  1.00  0.00     0.120 A 
ATOM     30  C   UNL A   1      27.563  28.637  23.178  1.00  0.00     0.021 A 
ATOM     31  N   UNL A   1      29.169  30.428  23.025  1.00  0.00    -0.264 NA
ATOM     32  C   UNL A   1      27.900  29.976  23.099  1.00  0.00     0.111 A 
ENDBRANCH  26  27
ENDBRANCH  23  26
ENDBRANCH   7  23
ENDBRANCH   4   7
ENDBRANCH   2   3
ENDBRANCH   1   2
BRANCH   1  33
ATOM     33  C   UNL A   1      31.632  30.941  26.876  1.00  0.00     0.023 C 
BRANCH  33  34
ATOM     34  C   UNL A   1      32.563  32.027  26.355  1.00  0.00     0.116 C 
BRANCH  34  35
ATOM     35  N   UNL A   1      32.293  33.329  26.949  1.00  0.00    -0.352 N 
ATOM     36  C   UNL A   1      32.936  33.938  27.999  1.00  0.00     0.251 C 
ATOM     37  H   UNL A   1      31.554  33.839  26.546  1.00  0.00     0.163 HD
ATOM     38  O   UNL A   1      32.480  34.969  28.483  1.00  0.00    -0.269 OA
BRANCH  36  39
ATOM     39  C   UNL A   1      34.155  33.315  28.554  1.00  0.00     0.039 A 
ATOM     40  C   UNL A   1      35.348  34.040  28.558  1.00  0.00     0.014 A 
ATOM     41  C   UNL A   1      34.104  32.034  29.113  1.00  0.00     0.014 A 
ATOM     42  C   UNL A   1      36.476  33.505  29.183  1.00  0.00     0.010 A 
ATOM     43  C   UNL A   1      35.203  31.540  29.805  1.00  0.00     0.010 A 
ATOM     44  C   UNL A   1      36.403  32.268  29.844  1.00  0.00    -0.014 A 
BRANCH  44  45
ATOM     45  C   UNL A   1      37.572  31.704  30.567  1.00  0.00     0.031 A 
ATOM     46  C   UNL A   1      38.434  30.668  29.900  1.00  0.00     0.074 A 
ATOM     47  C   UNL A   1      37.819  32.074  31.839  1.00  0.00     0.049 A 
ATOM     48  N   UNL A   1      39.437  29.983  30.387  1.00  0.00    -0.248 NA
ATOM     49  C   UNL A   1      38.099  30.333  28.508  1.00  0.00     0.031 C 
ATOM     50  C   UNL A   1      37.036  33.049  32.604  1.00  0.00     0.029 A 
ATOM     51  N   UNL A   1      38.793  31.671  32.718  1.00  0.00    -0.354 N 
ATOM     52  C   UNL A   1      39.844  29.130  29.368  1.00  0.00     0.074 A 
ATOM     53  C   UNL A   1      38.931  29.334  28.263  1.00  0.00     0.031 C 
ATOM     54  C   UNL A   1      37.578  33.186  33.825  1.00  0.00     0.029 A 
ATOM     55  C   UNL A   1      38.712  32.276  33.951  1.00  0.00     0.049 A 
ATOM     56  H   UNL A   1      39.486  31.011  32.487  1.00  0.00     0.167 HD
ATOM     57  C   UNL A   1      40.898  28.276  29.344  1.00  0.00     0.034 A 
ATOM     58  C   UNL A   1      39.455  32.105  35.063  1.00  0.00     0.034 A 
ATOM     59  C   UNL A   1      41.801  28.092  30.454  1.00  0.00     0.049 A 
ATOM     60  C   UNL A   1      40.594  31.115  35.031  1.00  0.00     0.074 A 
ATOM     61  C   UNL A   1      42.923  27.286  30.526  1.00  0.00     0.029 A 
ATOM     62  N   UNL A   1      41.681  28.714  31.691  1.00  0.00    -0.354 N 
ATOM     63  N   UNL A   1      40.992  30.344  34.044  1.00  0.00    -0.248 NA
ATOM     64  C   UNL A   1      41.388  30.980  36.259  1.00  0.00     0.031 C 
ATOM     65  C   UNL A   1      43.435  27.363  31.825  1.00  0.00     0.029 A 
ATOM     66  C   UNL A   1      42.689  28.285  32.540  1.00  0.00     0.049 A 
ATOM     67  H   UNL A   1      40.981  29.365  31.929  1.00  0.00     0.167 HD
ATOM     68  C   UNL A   1      42.108  29.662  34.524  1.00  0.00     0.074 A 
ATOM     69  C   UNL A   1      42.323  30.120  35.880  1.00  0.00     0.031 C 
ATOM     70  C   UNL A   1      42.889  28.746  33.895  1.00  0.00     0.034 A 
BRANCH  57  71
ATOM     71  C   UNL A   1      41.105  27.464  28.086  1.00  0.00     0.023 A 
ATOM     72  C   UNL A   1      40.788  26.095  28.031  1.00  0.00     0.031 A 
ATOM     73  C   UNL A   1      41.663  28.054  26.939  1.00  0.00     0.131 A 
ATOM     74  C   UNL A   1      41.112  25.345  26.890  1.00  0.00     0.055 A 
ATOM     75  C   UNL A   1      41.897  27.322  25.773  1.00  0.00     0.041 A 
ATOM     76  F   UNL A   1      42.010  29.351  26.936  1.00  0.00    -0.206 F 
ATOM     77  C   UNL A   1      41.638  25.955  25.750  1.00  0.00     0.022 A 
BRANCH  74  78
ATOM     78  S   UNL A   1      40.993  23.537  26.984  1.00  0.00     0.124 S 
ATOM     79  O   UNL A   1      39.572  23.323  26.725  1.00  0.00    -0.237 OA
ATOM     80  O   UNL A   1      41.906  23.106  25.932  1.00  0.00    -0.237 OA
ATOM     81  O   UNL A   1      41.422  23.236  28.348  1.00  0.00    -0.744 OA
ENDBRANCH  74  78
ENDBRANCH  57  71
BRANCH  58  82
ATOM     82  C   UNL A   1      39.153  32.876  36.304  1.00  0.00     0.023 A 
ATOM     83  C   UNL A   1      39.696  34.154  36.510  1.00  0.00     0.031 A 
ATOM     84  C   UNL A   1      38.352  32.329  37.322  1.00  0.00     0.131 A 
ATOM     85  C   UNL A   1      39.475  34.821  37.725  1.00  0.00     0.055 A 
ATOM     86  C   UNL A   1      38.087  33.021  38.505  1.00  0.00     0.041 A 
ATOM     87  F   UNL A   1      37.805  31.111  37.177  1.00  0.00    -0.206 F 
ATOM     88  C   UNL A   1      38.661  34.270  38.718  1.00  0.00     0.022 A 
BRANCH  85  89
ATOM     89  S   UNL A   1      40.344  36.384  38.026  1.00  0.00     0.124 S 
ATOM     90  O   UNL A   1      39.290  37.202  38.615  1.00  0.00    -0.237 OA
ATOM     91  O   UNL A   1      41.414  35.968  38.926  1.00  0.00    -0.237 OA
ATOM     92  O   UNL A   1      40.779  36.794  36.692  1.00  0.00    -0.744 OA
ENDBRANCH  85  89
ENDBRANCH  58  82
BRANCH  70  93
ATOM     93  C   UNL A   1      44.086  28.222  34.655  1.00  0.00     0.023 A 
ATOM     94  C   UNL A   1      44.000  27.108  35.507  1.00  0.00     0.031 A 
ATOM     95  C   UNL A   1      45.334  28.857  34.522  1.00  0.00     0.131 A 
ATOM     96  C   UNL A   1      45.126  26.697  36.235  1.00  0.00     0.055 A 
ATOM     97  C   UNL A   1      46.467  28.403  35.198  1.00  0.00     0.041 A 
ATOM     98  F   UNL A   1      45.475  29.929  33.725  1.00  0.00    -0.206 F 
ATOM     99  C   UNL A   1      46.364  27.325  36.071  1.00  0.00     0.022 A 
BRANCH  96 100
ATOM    100  S   UNL A   1      44.932  25.388  37.477  1.00  0.00     0.124 S 
ATOM    101  O   UNL A   1      45.363  26.062  38.697  1.00  0.00    -0.237 OA
ATOM    102  O   UNL A   1      43.508  25.081  37.386  1.00  0.00    -0.237 OA
ATOM    103  O   UNL A   1      45.824  24.331  37.003  1.00  0.00    -0.744 OA
ENDBRANCH  96 100
ENDBRANCH  70  93
ENDBRANCH  44  45
ENDBRANCH  36  39
ENDBRANCH  34  35
ENDBRANCH  33  34
ENDBRANCH   1  33
TORSDOF 20
ENDMDL
MODEL 3
REMARK VINA RESULT:     -11.5      1.295      2.700
REMARK SMILES O=C(C[C@@H]([NH2+]Cc1cccnc1)C(=O)NCCCCNC(=O)c1ccc(-c2c3nc(c(-c4cc(S(=O)(=O)[O-])ccc4F)c4ccc([nH]4)c(-c4cc(S(=O)(=O)[O-])ccc4F)c4nc(c(-c5cc(S(=O)(=O)[O-])ccc5F)c5ccc2[nH]5)C=C4)C=C3)cc1)Nc1ccc2ccccc2c1
REMARK SMILES IDX 17 1 16 2 15 3 13 4 14 5 4 7 3 8 2 9 1 10 86 11 87 13 88 14
REMARK SMILES IDX 96 15 89 16 95 17 90 18 94 19 91 20 93 21 92 22 5 23 6 26
REMARK SMILES IDX 7 27 8 28 12 29 9 30 11 31 10 32 18 33 19 34 20 35 21 36
REMARK SMILES IDX 22 38 23 39 24 40 85 41 25 42 84 43 26 44 27 45 28 46 78 47
REMARK SMILES IDX 29 48 83 49 77 50 79 51 30 52 82 53 76 54 75 55 31 57 63 58
REMARK SMILES IDX 43 59 62 60 44 61 47 62 61 63 80 64 45 65 46 66 60 68 81 69
REMARK SMILES IDX 48 70 32 71 33 72 41 73 34 74 40 75 42 76 39 77 35 78 36 79
REMARK SMILES IDX 37 80 38 81 64 82 65 83 73 84 66 85 72 86 74 87 71 88 67 89
REMARK SMILES IDX 68 90 69 91 70 92 49 93 50 94 58 95 51 96 57 97 59 98 56 99
REMARK SMILES IDX 52 100 53 101 54 102 55 103
REMARK H PARENT 15 6 86 12 5 24 5 25 20 37 79 56 47 67
REMARK Flexibility Score: inf
ROOT
ATOM      1  C   UNL A   1      31.388  29.922  25.553  1.00  0.00     0.023 C 
ENDROOT
BRANCH   1   2
ATOM      2  C   UNL A   1      30.692  29.667  24.216  1.00  0.00     0.116 C 
BRANCH   2   3
ATOM      3  N   UNL A   1      31.627  29.133  23.245  1.00  0.00    -0.351 N 
ATOM      4  C   UNL A   1      31.995  27.844  23.000  1.00  0.00     0.278 C 
ATOM      5  O   UNL A   1      32.835  27.644  22.119  1.00  0.00    -0.268 OA
ATOM      6  H   UNL A   1      32.062  29.806  22.674  1.00  0.00     0.163 HD
BRANCH   4   7
ATOM      7  C   UNL A   1      31.339  26.661  23.741  1.00  0.00     0.282 C 
BRANCH   7   8
ATOM      8  C   UNL A   1      31.169  25.464  22.781  1.00  0.00     0.175 C 
BRANCH   8   9
ATOM      9  C   UNL A   1      31.048  24.115  23.459  1.00  0.00     0.230 C 
ATOM     10  O   UNL A   1      30.331  23.944  24.438  1.00  0.00    -0.274 OA
ATOM     11  N   UNL A   1      31.838  23.149  22.859  1.00  0.00    -0.326 N 
ATOM     12  H   UNL A   1      32.246  23.353  21.986  1.00  0.00     0.169 HD
BRANCH  11  13
ATOM     13  C   UNL A   1      32.085  21.896  23.432  1.00  0.00     0.041 A 
ATOM     14  C   UNL A   1      32.307  21.846  24.807  1.00  0.00     0.027 A 
ATOM     15  C   UNL A   1      32.138  20.730  22.668  1.00  0.00     0.034 A 
ATOM     16  C   UNL A   1      32.472  20.616  25.441  1.00  0.00     0.011 A 
ATOM     17  C   UNL A   1      32.438  19.500  23.280  1.00  0.00    -0.016 A 
ATOM     18  C   UNL A   1      32.548  19.437  24.689  1.00  0.00    -0.018 A 
ATOM     19  C   UNL A   1      32.659  18.333  22.531  1.00  0.00     0.009 A 
ATOM     20  C   UNL A   1      32.766  18.201  25.314  1.00  0.00     0.009 A 
ATOM     21  C   UNL A   1      32.950  17.123  23.165  1.00  0.00     0.001 A 
ATOM     22  C   UNL A   1      32.974  17.051  24.555  1.00  0.00     0.001 A 
ENDBRANCH  11  13
ENDBRANCH   8   9
ENDBRANCH   7   8
BRANCH   7  23
ATOM     23  N   UNL A   1      32.074  26.337  25.009  1.00  0.00    -0.332 N 
ATOM     24  H   UNL A   1      31.927  25.351  25.222  1.00  0.00     0.347 HD
ATOM     25  H   UNL A   1      31.704  26.953  25.733  1.00  0.00     0.347 HD
BRANCH  23  26
ATOM     26  C   UNL A   1      33.531  26.586  24.933  1.00  0.00     0.299 C 
BRANCH  26  27
ATOM     27  C   UNL A   1      34.321  25.308  24.881  1.00  0.00     0.024 A 
ATOM     28  C   UNL A   1      34.768  24.780  23.663  1.00  0.00     0.013 A 
ATOM     29  C   UNL A   1      34.578  24.569  26.031  1.00  0.00     0.120 A 
ATOM     30  C   UNL A   1      35.400  23.544  23.635  1.00  0.00     0.021 A 
ATOM     31  N   UNL A   1      35.210  23.373  26.031  1.00  0.00    -0.264 NA
ATOM     32  C   UNL A   1      35.593  22.883  24.835  1.00  0.00     0.111 A 
ENDBRANCH  26  27
ENDBRANCH  23  26
ENDBRANCH   7  23
ENDBRANCH   4   7
ENDBRANCH   2   3
ENDBRANCH   1   2
BRANCH   1  33
ATOM     33  C   UNL A   1      31.309  31.371  26.031  1.00  0.00     0.023 C 
BRANCH  33  34
ATOM     34  C   UNL A   1      32.459  31.807  26.929  1.00  0.00     0.116 C 
BRANCH  34  35
ATOM     35  N   UNL A   1      32.384  33.215  27.292  1.00  0.00    -0.352 N 
ATOM     36  C   UNL A   1      33.205  33.924  28.135  1.00  0.00     0.251 C 
ATOM     37  H   UNL A   1      31.650  33.725  26.881  1.00  0.00     0.163 HD
ATOM     38  O   UNL A   1      32.908  35.069  28.461  1.00  0.00    -0.269 OA
BRANCH  36  39
ATOM     39  C   UNL A   1      34.422  33.277  28.666  1.00  0.00     0.039 A 
ATOM     40  C   UNL A   1      35.657  33.904  28.491  1.00  0.00     0.014 A 
ATOM     41  C   UNL A   1      34.332  32.075  29.376  1.00  0.00     0.014 A 
ATOM     42  C   UNL A   1      36.795  33.358  29.087  1.00  0.00     0.010 A 
ATOM     43  C   UNL A   1      35.451  31.581  30.036  1.00  0.00     0.010 A 
ATOM     44  C   UNL A   1      36.696  32.214  29.896  1.00  0.00    -0.014 A 
BRANCH  44  45
ATOM     45  C   UNL A   1      37.882  31.648  30.590  1.00  0.00     0.031 A 
ATOM     46  C   UNL A   1      38.707  30.587  29.913  1.00  0.00     0.074 A 
ATOM     47  C   UNL A   1      38.177  32.039  31.845  1.00  0.00     0.049 A 
ATOM     48  N   UNL A   1      39.716  29.899  30.380  1.00  0.00    -0.248 NA
ATOM     49  C   UNL A   1      38.320  30.231  28.540  1.00  0.00     0.031 C 
ATOM     50  C   UNL A   1      37.433  33.038  32.616  1.00  0.00     0.029 A 
ATOM     51  N   UNL A   1      39.175  31.639  32.698  1.00  0.00    -0.354 N 
ATOM     52  C   UNL A   1      40.077  29.021  29.363  1.00  0.00     0.074 A 
ATOM     53  C   UNL A   1      39.130  29.217  28.286  1.00  0.00     0.031 C 
ATOM     54  C   UNL A   1      38.018  33.192  33.815  1.00  0.00     0.029 A 
ATOM     55  C   UNL A   1      39.144  32.269  33.921  1.00  0.00     0.049 A 
ATOM     56  H   UNL A   1      39.851  30.966  32.457  1.00  0.00     0.167 HD
ATOM     57  C   UNL A   1      41.119  28.153  29.321  1.00  0.00     0.034 A 
ATOM     58  C   UNL A   1      39.923  32.108  35.010  1.00  0.00     0.034 A 
ATOM     59  C   UNL A   1      42.057  27.977  30.403  1.00  0.00     0.049 A 
ATOM     60  C   UNL A   1      41.047  31.103  34.958  1.00  0.00     0.074 A 
ATOM     61  C   UNL A   1      43.170  27.158  30.452  1.00  0.00     0.029 A 
ATOM     62  N   UNL A   1      41.987  28.624  31.630  1.00  0.00    -0.354 N 
ATOM     63  N   UNL A   1      41.401  30.308  33.974  1.00  0.00    -0.248 NA
ATOM     64  C   UNL A   1      41.881  30.980  36.161  1.00  0.00     0.031 C 
ATOM     65  C   UNL A   1      43.728  27.252  31.731  1.00  0.00     0.029 A 
ATOM     66  C   UNL A   1      43.018  28.197  32.453  1.00  0.00     0.049 A 
ATOM     67  H   UNL A   1      41.304  29.289  31.879  1.00  0.00     0.167 HD
ATOM     68  C   UNL A   1      42.523  29.619  34.428  1.00  0.00     0.074 A 
ATOM     69  C   UNL A   1      42.791  30.100  35.767  1.00  0.00     0.031 C 
ATOM     70  C   UNL A   1      43.271  28.681  33.792  1.00  0.00     0.034 A 
BRANCH  57  71
ATOM     71  C   UNL A   1      41.272  27.314  28.072  1.00  0.00     0.023 A 
ATOM     72  C   UNL A   1      40.884  25.962  28.039  1.00  0.00     0.031 A 
ATOM     73  C   UNL A   1      41.849  27.858  26.912  1.00  0.00     0.131 A 
ATOM     74  C   UNL A   1      41.159  25.182  26.906  1.00  0.00     0.055 A 
ATOM     75  C   UNL A   1      42.034  27.100  25.755  1.00  0.00     0.041 A 
ATOM     76  F   UNL A   1      42.262  29.136  26.888  1.00  0.00    -0.206 F 
ATOM     77  C   UNL A   1      41.705  25.748  25.753  1.00  0.00     0.022 A 
BRANCH  74  78
ATOM     78  S   UNL A   1      40.947  23.384  27.026  1.00  0.00     0.124 S 
ATOM     79  O   UNL A   1      39.492  23.258  27.015  1.00  0.00    -0.237 OA
ATOM     80  O   UNL A   1      41.639  22.905  25.835  1.00  0.00    -0.237 OA
ATOM     81  O   UNL A   1      41.585  23.047  28.297  1.00  0.00    -0.744 OA
ENDBRANCH  74  78
ENDBRANCH  57  71
BRANCH  58  82
ATOM     82  C   UNL A   1      39.673  32.906  36.245  1.00  0.00     0.023 A 
ATOM     83  C   UNL A   1      38.802  32.440  37.242  1.00  0.00     0.031 A 
ATOM     84  C   UNL A   1      40.267  34.168  36.428  1.00  0.00     0.131 A 
ATOM     85  C   UNL A   1      38.508  33.250  38.351  1.00  0.00     0.055 A 
ATOM     86  C   UNL A   1      40.017  34.945  37.560  1.00  0.00     0.041 A 
ATOM     87  F   UNL A   1      41.111  34.662  35.507  1.00  0.00    -0.206 F 
ATOM     88  C   UNL A   1      39.122  34.492  38.524  1.00  0.00     0.022 A 
BRANCH  85  89
ATOM     89  S   UNL A   1      37.238  32.692  39.519  1.00  0.00     0.124 S 
ATOM     90  O   UNL A   1      37.252  33.764  40.507  1.00  0.00    -0.237 OA
ATOM     91  O   UNL A   1      36.056  32.617  38.669  1.00  0.00    -0.237 OA
ATOM     92  O   UNL A   1      37.749  31.405  39.988  1.00  0.00    -0.744 OA
ENDBRANCH  85  89
ENDBRANCH  58  82
BRANCH  70  93
ATOM     93  C   UNL A   1      44.486  28.156  34.520  1.00  0.00     0.023 A 
ATOM     94  C   UNL A   1      44.404  27.099  35.443  1.00  0.00     0.031 A 
ATOM     95  C   UNL A   1      45.749  28.730  34.285  1.00  0.00     0.131 A 
ATOM     96  C   UNL A   1      45.551  26.687  36.137  1.00  0.00     0.055 A 
ATOM     97  C   UNL A   1      46.898  28.272  34.928  1.00  0.00     0.041 A 
ATOM     98  F   UNL A   1      45.887  29.745  33.416  1.00  0.00    -0.206 F 
ATOM     99  C   UNL A   1      46.801  27.253  35.871  1.00  0.00     0.022 A 
BRANCH  96 100
ATOM    100  S   UNL A   1      45.375  25.464  37.465  1.00  0.00     0.124 S 
ATOM    101  O   UNL A   1      45.637  26.268  38.654  1.00  0.00    -0.237 OA
ATOM    102  O   UNL A   1      43.998  25.012  37.292  1.00  0.00    -0.237 OA
ATOM    103  O   UNL A   1      46.397  24.468  37.152  1.00  0.00    -0.744 OA
ENDBRANCH  96 100
ENDBRANCH  70  93
ENDBRANCH  44  45
ENDBRANCH  36  39
ENDBRANCH  34  35
ENDBRANCH  33  34
ENDBRANCH   1  33
TORSDOF 20
ENDMDL
