MODEL 1
REMARK VINA RESULT:     -13.6      0.000      0.000
REMARK SMILES O=C(NCCCCNC(=O)c1ccc(-c2c3nc(c(-c4cc(S(=O)(=O)[O-])ccc4F)c4ccc([nH]4)c(-c4cc(S(=O)(=O)[O-])ccc4F)c4nc(c(-c5cc(S(=O)(=O)[O-])ccc5F)c5ccc2[nH]5)C=C4)C=C3)cc1)C1=Cc2cc(Cl)cc(-c3ccc(O)cc3)c2O[C@@H]1C(F)(F)F
REMARK SMILES IDX 6 1 5 2 4 3 3 4 1 5 2 6 74 8 75 9 91 10 76 11 90 12 77 13
REMARK SMILES IDX 89 14 78 15 81 16 79 17 80 18 92 19 93 20 94 21 95 22 82 23
REMARK SMILES IDX 83 24 88 25 84 26 87 27 85 28 86 29 7 31 8 32 9 33 10 35
REMARK SMILES IDX 11 36 12 37 73 38 13 39 72 40 14 41 15 42 16 43 66 44 17 45
REMARK SMILES IDX 71 46 65 47 67 48 18 49 70 50 64 51 63 52 19 54 51 55 31 56
REMARK SMILES IDX 50 57 32 58 35 59 49 60 68 61 33 62 34 63 48 65 69 66 36 67
REMARK SMILES IDX 20 68 21 69 29 70 22 71 28 72 30 73 27 74 23 75 24 76 25 77
REMARK SMILES IDX 26 78 52 79 53 80 61 81 54 82 60 83 62 84 59 85 55 86 56 87
REMARK SMILES IDX 57 88 58 89 37 90 38 91 46 92 39 93 45 94 47 95 44 96 40 97
REMARK SMILES IDX 41 98 42 99 43 100
REMARK H PARENT 3 7 86 30 8 34 67 53 35 64
REMARK Flexibility Score: inf
ROOT
ATOM      1  C   UNL A   1      35.914  20.904  25.367  1.00  0.00     0.023 C 
ENDROOT
BRANCH   1   2
ATOM      2  C   UNL A   1      35.084  21.493  26.505  1.00  0.00     0.023 C 
BRANCH   2   3
ATOM      3  C   UNL A   1      33.618  21.081  26.582  1.00  0.00     0.116 C 
BRANCH   3   4
ATOM      4  N   UNL A   1      32.704  22.059  27.144  1.00  0.00    -0.352 N 
ATOM      5  O   UNL A   1      31.295  23.806  27.198  1.00  0.00    -0.270 OA
ATOM      6  C   UNL A   1      32.138  23.166  26.569  1.00  0.00     0.251 C 
ATOM      7  H   UNL A   1      32.452  21.903  28.083  1.00  0.00     0.163 HD
BRANCH   6   8
ATOM      8  C   UNL A   1      32.442  23.612  25.172  1.00  0.00     0.067 C 
ATOM      9  C   UNL A   1      31.492  23.882  24.258  1.00  0.00     0.025 C 
ATOM     10  C   UNL A   1      33.721  24.423  25.099  1.00  0.00     0.314 C 
ATOM     11  C   UNL A   1      31.292  25.353  24.129  1.00  0.00     0.019 A 
ATOM     12  O   UNL A   1      33.417  25.838  25.228  1.00  0.00    -0.475 OA
ATOM     13  C   UNL A   1      30.061  25.803  23.641  1.00  0.00     0.032 A 
ATOM     14  C   UNL A   1      32.189  26.248  24.751  1.00  0.00     0.135 A 
ATOM     15  C   UNL A   1      29.684  27.121  23.864  1.00  0.00     0.042 A 
ATOM     16  C   UNL A   1      31.790  27.569  25.020  1.00  0.00     0.026 A 
ATOM     17  Cl  UNL A   1      28.107  27.635  23.408  1.00  0.00    -0.084 Cl
ATOM     18  C   UNL A   1      30.525  27.990  24.560  1.00  0.00     0.033 A 
BRANCH  10  19
ATOM     19  C   UNL A   1      34.556  24.122  23.841  1.00  0.00     0.429 C 
ATOM     20  F   UNL A   1      35.885  24.182  24.092  1.00  0.00    -0.167 F 
ATOM     21  F   UNL A   1      34.303  22.877  23.364  1.00  0.00    -0.167 F 
ATOM     22  F   UNL A   1      34.305  24.984  22.825  1.00  0.00    -0.167 F 
ENDBRANCH  10  19
BRANCH  16  23
ATOM     23  C   UNL A   1      32.532  28.456  25.930  1.00  0.00    -0.014 A 
ATOM     24  C   UNL A   1      31.914  29.614  26.437  1.00  0.00     0.012 A 
ATOM     25  C   UNL A   1      33.888  28.246  26.215  1.00  0.00     0.012 A 
ATOM     26  C   UNL A   1      32.642  30.564  27.152  1.00  0.00     0.047 A 
ATOM     27  C   UNL A   1      34.619  29.191  26.943  1.00  0.00     0.047 A 
ATOM     28  C   UNL A   1      33.993  30.353  27.383  1.00  0.00     0.115 A 
BRANCH  28  29
ATOM     29  O   UNL A   1      34.677  31.328  28.043  1.00  0.00    -0.508 OA
ATOM     30  H   UNL A   1      34.248  32.128  28.271  1.00  0.00     0.293 HD
ENDBRANCH  28  29
ENDBRANCH  16  23
ENDBRANCH   6   8
ENDBRANCH   3   4
ENDBRANCH   2   3
ENDBRANCH   1   2
BRANCH   1  31
ATOM     31  C   UNL A   1      37.316  21.472  25.137  1.00  0.00     0.116 C 
BRANCH  31  32
ATOM     32  N   UNL A   1      38.421  20.554  25.369  1.00  0.00    -0.352 N 
ATOM     33  C   UNL A   1      39.572  20.770  26.111  1.00  0.00     0.251 C 
ATOM     34  H   UNL A   1      38.342  19.669  24.944  1.00  0.00     0.163 HD
ATOM     35  O   UNL A   1      40.406  19.890  26.229  1.00  0.00    -0.269 OA
BRANCH  33  36
ATOM     36  C   UNL A   1      39.806  22.113  26.700  1.00  0.00     0.039 A 
ATOM     37  C   UNL A   1      40.797  22.252  27.676  1.00  0.00     0.014 A 
ATOM     38  C   UNL A   1      39.134  23.237  26.215  1.00  0.00     0.014 A 
ATOM     39  C   UNL A   1      41.206  23.530  28.067  1.00  0.00     0.010 A 
ATOM     40  C   UNL A   1      39.587  24.512  26.560  1.00  0.00     0.010 A 
ATOM     41  C   UNL A   1      40.657  24.672  27.458  1.00  0.00    -0.014 A 
BRANCH  41  42
ATOM     42  C   UNL A   1      41.260  26.020  27.672  1.00  0.00     0.031 A 
ATOM     43  C   UNL A   1      42.622  26.353  27.129  1.00  0.00     0.074 A 
ATOM     44  C   UNL A   1      40.606  26.919  28.440  1.00  0.00     0.049 A 
ATOM     45  N   UNL A   1      43.316  27.455  27.264  1.00  0.00    -0.248 NA
ATOM     46  C   UNL A   1      43.303  25.306  26.354  1.00  0.00     0.031 C 
ATOM     47  C   UNL A   1      39.306  26.698  29.078  1.00  0.00     0.029 A 
ATOM     48  N   UNL A   1      40.947  28.192  28.828  1.00  0.00    -0.354 N 
ATOM     49  C   UNL A   1      44.522  27.230  26.609  1.00  0.00     0.074 A 
ATOM     50  C   UNL A   1      44.477  25.871  26.110  1.00  0.00     0.031 C 
ATOM     51  C   UNL A   1      38.952  27.801  29.758  1.00  0.00     0.029 A 
ATOM     52  C   UNL A   1      40.015  28.794  29.646  1.00  0.00     0.049 A 
ATOM     53  H   UNL A   1      41.781  28.634  28.548  1.00  0.00     0.167 HD
ATOM     54  C   UNL A   1      45.562  28.082  26.431  1.00  0.00     0.034 A 
ATOM     55  C   UNL A   1      40.016  30.001  30.248  1.00  0.00     0.034 A 
ATOM     56  C   UNL A   1      45.587  29.442  26.911  1.00  0.00     0.049 A 
ATOM     57  C   UNL A   1      41.189  30.926  30.032  1.00  0.00     0.074 A 
ATOM     58  C   UNL A   1      46.549  30.414  26.691  1.00  0.00     0.029 A 
ATOM     59  N   UNL A   1      44.621  30.021  27.722  1.00  0.00    -0.354 N 
ATOM     60  N   UNL A   1      42.277  30.728  29.324  1.00  0.00    -0.248 NA
ATOM     61  C   UNL A   1      41.131  32.240  30.688  1.00  0.00     0.031 C 
ATOM     62  C   UNL A   1      46.200  31.553  27.422  1.00  0.00     0.029 A 
ATOM     63  C   UNL A   1      44.984  31.321  28.043  1.00  0.00     0.049 A 
ATOM     64  H   UNL A   1      43.797  29.573  28.026  1.00  0.00     0.167 HD
ATOM     65  C   UNL A   1      43.008  31.908  29.418  1.00  0.00     0.074 A 
ATOM     66  C   UNL A   1      42.238  32.814  30.242  1.00  0.00     0.031 C 
ATOM     67  C   UNL A   1      44.209  32.218  28.865  1.00  0.00     0.034 A 
BRANCH  54  68
ATOM     68  C   UNL A   1      46.777  27.564  25.701  1.00  0.00     0.023 A 
ATOM     69  C   UNL A   1      47.039  27.900  24.363  1.00  0.00     0.031 A 
ATOM     70  C   UNL A   1      47.697  26.732  26.365  1.00  0.00     0.131 A 
ATOM     71  C   UNL A   1      48.162  27.364  23.714  1.00  0.00     0.055 A 
ATOM     72  C   UNL A   1      48.850  26.258  25.735  1.00  0.00     0.041 A 
ATOM     73  F   UNL A   1      47.489  26.364  27.640  1.00  0.00    -0.206 F 
ATOM     74  C   UNL A   1      49.082  26.566  24.399  1.00  0.00     0.022 A 
BRANCH  71  75
ATOM     75  S   UNL A   1      48.348  27.638  21.931  1.00  0.00     0.124 S 
ATOM     76  O   UNL A   1      47.071  28.263  21.594  1.00  0.00    -0.237 OA
ATOM     77  O   UNL A   1      49.519  28.504  21.864  1.00  0.00    -0.237 OA
ATOM     78  O   UNL A   1      48.536  26.293  21.394  1.00  0.00    -0.744 OA
ENDBRANCH  71  75
ENDBRANCH  54  68
BRANCH  55  79
ATOM     79  C   UNL A   1      38.886  30.417  31.130  1.00  0.00     0.023 A 
ATOM     80  C   UNL A   1      37.884  31.281  30.659  1.00  0.00     0.031 A 
ATOM     81  C   UNL A   1      38.831  30.017  32.476  1.00  0.00     0.131 A 
ATOM     82  C   UNL A   1      36.907  31.767  31.543  1.00  0.00     0.055 A 
ATOM     83  C   UNL A   1      37.822  30.456  33.336  1.00  0.00     0.041 A 
ATOM     84  F   UNL A   1      39.760  29.187  32.978  1.00  0.00    -0.206 F 
ATOM     85  C   UNL A   1      36.863  31.352  32.875  1.00  0.00     0.022 A 
BRANCH  82  86
ATOM     86  S   UNL A   1      35.760  33.042  30.951  1.00  0.00     0.124 S 
ATOM     87  O   UNL A   1      35.981  34.113  31.918  1.00  0.00    -0.237 OA
ATOM     88  O   UNL A   1      36.253  33.286  29.600  1.00  0.00    -0.237 OA
ATOM     89  O   UNL A   1      34.456  32.389  31.029  1.00  0.00    -0.744 OA
ENDBRANCH  82  86
ENDBRANCH  55  79
BRANCH  67  90
ATOM     90  C   UNL A   1      44.730  33.616  29.088  1.00  0.00     0.023 A 
ATOM     91  C   UNL A   1      44.331  34.695  28.282  1.00  0.00     0.031 A 
ATOM     92  C   UNL A   1      45.650  33.867  30.123  1.00  0.00     0.131 A 
ATOM     93  C   UNL A   1      44.885  35.967  28.492  1.00  0.00     0.055 A 
ATOM     94  C   UNL A   1      46.156  35.145  30.362  1.00  0.00     0.041 A 
ATOM     95  F   UNL A   1      46.068  32.871  30.921  1.00  0.00    -0.206 F 
ATOM     96  C   UNL A   1      45.783  36.202  29.537  1.00  0.00     0.022 A 
BRANCH  93  97
ATOM     97  S   UNL A   1      44.474  37.302  27.334  1.00  0.00     0.124 S 
ATOM     98  O   UNL A   1      45.705  37.420  26.558  1.00  0.00    -0.237 OA
ATOM     99  O   UNL A   1      43.322  36.758  26.623  1.00  0.00    -0.237 OA
ATOM    100  O   UNL A   1      44.182  38.436  28.209  1.00  0.00    -0.744 OA
ENDBRANCH  93  97
ENDBRANCH  67  90
ENDBRANCH  41  42
ENDBRANCH  33  36
ENDBRANCH  31  32
ENDBRANCH   1  31
TORSDOF 17
ENDMDL
MODEL 2
REMARK VINA RESULT:     -13.3      4.897     10.598
REMARK SMILES O=C(NCCCCNC(=O)c1ccc(-c2c3nc(c(-c4cc(S(=O)(=O)[O-])ccc4F)c4ccc([nH]4)c(-c4cc(S(=O)(=O)[O-])ccc4F)c4nc(c(-c5cc(S(=O)(=O)[O-])ccc5F)c5ccc2[nH]5)C=C4)C=C3)cc1)C1=Cc2cc(Cl)cc(-c3ccc(O)cc3)c2O[C@@H]1C(F)(F)F
REMARK SMILES IDX 6 1 5 2 4 3 3 4 1 5 2 6 74 8 75 9 91 10 76 11 90 12 77 13
REMARK SMILES IDX 89 14 78 15 81 16 79 17 80 18 92 19 93 20 94 21 95 22 82 23
REMARK SMILES IDX 83 24 88 25 84 26 87 27 85 28 86 29 7 31 8 32 9 33 10 35
REMARK SMILES IDX 11 36 12 37 73 38 13 39 72 40 14 41 15 42 16 43 66 44 17 45
REMARK SMILES IDX 71 46 65 47 67 48 18 49 70 50 64 51 63 52 19 54 51 55 31 56
REMARK SMILES IDX 50 57 32 58 35 59 49 60 68 61 33 62 34 63 48 65 69 66 36 67
REMARK SMILES IDX 20 68 21 69 29 70 22 71 28 72 30 73 27 74 23 75 24 76 25 77
REMARK SMILES IDX 26 78 52 79 53 80 61 81 54 82 60 83 62 84 59 85 55 86 56 87
REMARK SMILES IDX 57 88 58 89 37 90 38 91 46 92 39 93 45 94 47 95 44 96 40 97
REMARK SMILES IDX 41 98 42 99 43 100
REMARK H PARENT 3 7 86 30 8 34 67 53 35 64
REMARK Flexibility Score: inf
ROOT
ATOM      1  C   UNL A   1      31.569  28.966  26.613  1.00  0.00     0.023 C 
ENDROOT
BRANCH   1   2
ATOM      2  C   UNL A   1      32.134  27.569  26.861  1.00  0.00     0.023 C 
BRANCH   2   3
ATOM      3  C   UNL A   1      31.353  26.391  26.289  1.00  0.00     0.116 C 
BRANCH   3   4
ATOM      4  N   UNL A   1      31.635  25.090  26.868  1.00  0.00    -0.352 N 
ATOM      5  O   UNL A   1      32.656  23.110  27.146  1.00  0.00    -0.270 OA
ATOM      6  C   UNL A   1      32.482  24.103  26.438  1.00  0.00     0.251 C 
ATOM      7  H   UNL A   1      31.143  24.885  27.695  1.00  0.00     0.163 HD
BRANCH   6   8
ATOM      8  C   UNL A   1      33.273  24.193  25.170  1.00  0.00     0.067 C 
ATOM      9  C   UNL A   1      34.598  24.428  25.139  1.00  0.00     0.025 C 
ATOM     10  C   UNL A   1      32.702  23.308  24.079  1.00  0.00     0.314 C 
ATOM     11  C   UNL A   1      35.349  23.161  24.904  1.00  0.00     0.019 A 
ATOM     12  O   UNL A   1      33.351  22.008  24.108  1.00  0.00    -0.475 OA
ATOM     13  C   UNL A   1      36.680  23.105  25.330  1.00  0.00     0.032 A 
ATOM     14  C   UNL A   1      34.659  21.984  24.546  1.00  0.00     0.135 A 
ATOM     15  C   UNL A   1      37.288  21.867  25.493  1.00  0.00     0.042 A 
ATOM     16  C   UNL A   1      35.256  20.729  24.756  1.00  0.00     0.026 A 
ATOM     17  Cl  UNL A   1      38.868  21.787  26.167  1.00  0.00    -0.084 Cl
ATOM     18  C   UNL A   1      36.584  20.692  25.230  1.00  0.00     0.033 A 
BRANCH  10  19
ATOM     19  C   UNL A   1      32.763  23.955  22.683  1.00  0.00     0.429 C 
ATOM     20  F   UNL A   1      33.010  23.042  21.715  1.00  0.00    -0.167 F 
ATOM     21  F   UNL A   1      31.589  24.557  22.364  1.00  0.00    -0.167 F 
ATOM     22  F   UNL A   1      33.724  24.907  22.586  1.00  0.00    -0.167 F 
ENDBRANCH  10  19
BRANCH  16  23
ATOM     23  C   UNL A   1      34.498  19.468  24.707  1.00  0.00    -0.014 A 
ATOM     24  C   UNL A   1      33.168  19.432  25.164  1.00  0.00     0.012 A 
ATOM     25  C   UNL A   1      35.104  18.262  24.328  1.00  0.00     0.012 A 
ATOM     26  C   UNL A   1      32.485  18.224  25.299  1.00  0.00     0.047 A 
ATOM     27  C   UNL A   1      34.417  17.049  24.450  1.00  0.00     0.047 A 
ATOM     28  C   UNL A   1      33.122  17.041  24.958  1.00  0.00     0.115 A 
BRANCH  28  29
ATOM     29  O   UNL A   1      32.436  15.880  25.151  1.00  0.00    -0.508 OA
ATOM     30  H   UNL A   1      31.501  15.890  25.187  1.00  0.00     0.293 HD
ENDBRANCH  28  29
ENDBRANCH  16  23
ENDBRANCH   6   8
ENDBRANCH   3   4
ENDBRANCH   2   3
ENDBRANCH   1   2
BRANCH   1  31
ATOM     31  C   UNL A   1      32.530  30.047  26.115  1.00  0.00     0.116 C 
BRANCH  31  32
ATOM     32  N   UNL A   1      32.353  31.371  26.691  1.00  0.00    -0.352 N 
ATOM     33  C   UNL A   1      33.271  32.122  27.409  1.00  0.00     0.251 C 
ATOM     34  H   UNL A   1      31.470  31.786  26.554  1.00  0.00     0.163 HD
ATOM     35  O   UNL A   1      32.979  33.234  27.815  1.00  0.00    -0.269 OA
BRANCH  33  36
ATOM     36  C   UNL A   1      34.590  31.524  27.737  1.00  0.00     0.039 A 
ATOM     37  C   UNL A   1      35.676  32.376  27.951  1.00  0.00     0.014 A 
ATOM     38  C   UNL A   1      34.724  30.148  27.941  1.00  0.00     0.014 A 
ATOM     39  C   UNL A   1      36.857  31.864  28.498  1.00  0.00     0.010 A 
ATOM     40  C   UNL A   1      35.880  29.651  28.544  1.00  0.00     0.010 A 
ATOM     41  C   UNL A   1      36.943  30.511  28.868  1.00  0.00    -0.014 A 
BRANCH  41  42
ATOM     42  C   UNL A   1      38.089  30.011  29.684  1.00  0.00     0.031 A 
ATOM     43  C   UNL A   1      38.270  30.446  31.112  1.00  0.00     0.074 A 
ATOM     44  C   UNL A   1      39.021  29.228  29.098  1.00  0.00     0.049 A 
ATOM     45  N   UNL A   1      39.233  30.150  31.947  1.00  0.00    -0.248 NA
ATOM     46  C   UNL A   1      37.251  31.348  31.666  1.00  0.00     0.031 C 
ATOM     47  C   UNL A   1      38.996  28.784  27.702  1.00  0.00     0.029 A 
ATOM     48  N   UNL A   1      40.177  28.675  29.594  1.00  0.00    -0.354 N 
ATOM     49  C   UNL A   1      38.949  30.842  33.119  1.00  0.00     0.074 A 
ATOM     50  C   UNL A   1      37.742  31.603  32.871  1.00  0.00     0.031 C 
ATOM     51  C   UNL A   1      40.071  28.015  27.461  1.00  0.00     0.029 A 
ATOM     52  C   UNL A   1      40.888  27.943  28.668  1.00  0.00     0.049 A 
ATOM     53  H   UNL A   1      40.471  28.791  30.527  1.00  0.00     0.167 HD
ATOM     54  C   UNL A   1      39.625  30.833  34.296  1.00  0.00     0.034 A 
ATOM     55  C   UNL A   1      42.067  27.297  28.769  1.00  0.00     0.034 A 
ATOM     56  C   UNL A   1      40.813  30.052  34.541  1.00  0.00     0.049 A 
ATOM     57  C   UNL A   1      42.797  27.307  30.090  1.00  0.00     0.074 A 
ATOM     58  C   UNL A   1      41.508  29.896  35.728  1.00  0.00     0.029 A 
ATOM     59  N   UNL A   1      41.495  29.313  33.584  1.00  0.00    -0.354 N 
ATOM     60  N   UNL A   1      42.456  27.888  31.217  1.00  0.00    -0.248 NA
ATOM     61  C   UNL A   1      44.064  26.566  30.157  1.00  0.00     0.031 C 
ATOM     62  C   UNL A   1      42.645  29.122  35.475  1.00  0.00     0.029 A 
ATOM     63  C   UNL A   1      42.624  28.733  34.146  1.00  0.00     0.049 A 
ATOM     64  H   UNL A   1      41.218  29.216  32.644  1.00  0.00     0.167 HD
ATOM     65  C   UNL A   1      43.447  27.546  32.133  1.00  0.00     0.074 A 
ATOM     66  C   UNL A   1      44.392  26.704  31.432  1.00  0.00     0.031 C 
ATOM     67  C   UNL A   1      43.561  27.893  33.440  1.00  0.00     0.034 A 
BRANCH  54  68
ATOM     68  C   UNL A   1      39.110  31.713  35.408  1.00  0.00     0.023 A 
ATOM     69  C   UNL A   1      38.459  31.181  36.534  1.00  0.00     0.031 A 
ATOM     70  C   UNL A   1      39.291  33.106  35.347  1.00  0.00     0.131 A 
ATOM     71  C   UNL A   1      37.964  32.042  37.526  1.00  0.00     0.055 A 
ATOM     72  C   UNL A   1      38.858  33.951  36.371  1.00  0.00     0.041 A 
ATOM     73  F   UNL A   1      39.891  33.671  34.287  1.00  0.00    -0.206 F 
ATOM     74  C   UNL A   1      38.182  33.420  37.464  1.00  0.00     0.022 A 
BRANCH  71  75
ATOM     75  S   UNL A   1      36.938  31.342  38.848  1.00  0.00     0.124 S 
ATOM     76  O   UNL A   1      36.699  29.989  38.351  1.00  0.00    -0.237 OA
ATOM     77  O   UNL A   1      37.806  31.450  40.014  1.00  0.00    -0.237 OA
ATOM     78  O   UNL A   1      35.761  32.208  38.864  1.00  0.00    -0.744 OA
ENDBRANCH  71  75
ENDBRANCH  54  68
BRANCH  55  79
ATOM     79  C   UNL A   1      42.657  26.594  27.592  1.00  0.00     0.023 A 
ATOM     80  C   UNL A   1      42.494  25.209  27.422  1.00  0.00     0.031 A 
ATOM     81  C   UNL A   1      43.455  27.281  26.661  1.00  0.00     0.131 A 
ATOM     82  C   UNL A   1      43.169  24.547  26.385  1.00  0.00     0.055 A 
ATOM     83  C   UNL A   1      44.077  26.626  25.595  1.00  0.00     0.041 A 
ATOM     84  F   UNL A   1      43.641  28.607  26.772  1.00  0.00    -0.206 F 
ATOM     85  C   UNL A   1      43.950  25.247  25.464  1.00  0.00     0.022 A 
BRANCH  82  86
ATOM     86  S   UNL A   1      43.103  22.735  26.326  1.00  0.00     0.124 S 
ATOM     87  O   UNL A   1      42.166  22.435  27.403  1.00  0.00    -0.237 OA
ATOM     88  O   UNL A   1      42.621  22.495  24.970  1.00  0.00    -0.237 OA
ATOM     89  O   UNL A   1      44.487  22.336  26.573  1.00  0.00    -0.744 OA
ENDBRANCH  82  86
ENDBRANCH  55  79
BRANCH  67  90
ATOM     90  C   UNL A   1      44.720  27.311  34.209  1.00  0.00     0.023 A 
ATOM     91  C   UNL A   1      44.658  26.033  34.792  1.00  0.00     0.031 A 
ATOM     92  C   UNL A   1      45.905  28.053  34.366  1.00  0.00     0.131 A 
ATOM     93  C   UNL A   1      45.741  25.555  35.547  1.00  0.00     0.055 A 
ATOM     94  C   UNL A   1      46.999  27.550  35.070  1.00  0.00     0.041 A 
ATOM     95  F   UNL A   1      46.017  29.279  33.832  1.00  0.00    -0.206 F 
ATOM     96  C   UNL A   1      46.918  26.300  35.675  1.00  0.00     0.022 A 
BRANCH  93  97
ATOM     97  S   UNL A   1      45.568  23.976  36.421  1.00  0.00     0.124 S 
ATOM     98  O   UNL A   1      45.557  24.403  37.818  1.00  0.00    -0.237 OA
ATOM     99  O   UNL A   1      44.304  23.465  35.901  1.00  0.00    -0.237 OA
ATOM    100  O   UNL A   1      46.754  23.226  36.012  1.00  0.00    -0.744 OA
ENDBRANCH  93  97
ENDBRANCH  67  90
ENDBRANCH  41  42
ENDBRANCH  33  36
ENDBRANCH  31  32
ENDBRANCH   1  31
TORSDOF 17
ENDMDL
MODEL 3
REMARK VINA RESULT:     -13.2      4.866     10.328
REMARK SMILES O=C(NCCCCNC(=O)c1ccc(-c2c3nc(c(-c4cc(S(=O)(=O)[O-])ccc4F)c4ccc([nH]4)c(-c4cc(S(=O)(=O)[O-])ccc4F)c4nc(c(-c5cc(S(=O)(=O)[O-])ccc5F)c5ccc2[nH]5)C=C4)C=C3)cc1)C1=Cc2cc(Cl)cc(-c3ccc(O)cc3)c2O[C@@H]1C(F)(F)F
REMARK SMILES IDX 6 1 5 2 4 3 3 4 1 5 2 6 74 8 75 9 91 10 76 11 90 12 77 13
REMARK SMILES IDX 89 14 78 15 81 16 79 17 80 18 92 19 93 20 94 21 95 22 82 23
REMARK SMILES IDX 83 24 88 25 84 26 87 27 85 28 86 29 7 31 8 32 9 33 10 35
REMARK SMILES IDX 11 36 12 37 73 38 13 39 72 40 14 41 15 42 16 43 66 44 17 45
REMARK SMILES IDX 71 46 65 47 67 48 18 49 70 50 64 51 63 52 19 54 51 55 31 56
REMARK SMILES IDX 50 57 32 58 35 59 49 60 68 61 33 62 34 63 48 65 69 66 36 67
REMARK SMILES IDX 20 68 21 69 29 70 22 71 28 72 30 73 27 74 23 75 24 76 25 77
REMARK SMILES IDX 26 78 52 79 53 80 61 81 54 82 60 83 62 84 59 85 55 86 56 87
REMARK SMILES IDX 57 88 58 89 37 90 38 91 46 92 39 93 45 94 47 95 44 96 40 97
REMARK SMILES IDX 41 98 42 99 43 100
REMARK H PARENT 3 7 86 30 8 34 67 53 35 64
REMARK Flexibility Score: inf
ROOT
ATOM      1  C   UNL A   1      31.838  29.693  25.135  1.00  0.00     0.023 C 
ENDROOT
BRANCH   1   2
ATOM      2  C   UNL A   1      32.851  29.277  24.070  1.00  0.00     0.023 C 
BRANCH   2   3
ATOM      3  C   UNL A   1      32.300  28.654  22.792  1.00  0.00     0.116 C 
BRANCH   3   4
ATOM      4  N   UNL A   1      33.093  27.590  22.202  1.00  0.00    -0.352 N 
ATOM      5  O   UNL A   1      33.793  25.498  21.785  1.00  0.00    -0.270 OA
ATOM      6  C   UNL A   1      33.118  26.251  22.489  1.00  0.00     0.251 C 
ATOM      7  H   UNL A   1      33.706  27.874  21.486  1.00  0.00     0.163 HD
BRANCH   6   8
ATOM      8  C   UNL A   1      32.308  25.629  23.585  1.00  0.00     0.067 C 
ATOM      9  C   UNL A   1      31.519  24.554  23.403  1.00  0.00     0.025 C 
ATOM     10  C   UNL A   1      32.974  25.777  24.938  1.00  0.00     0.314 C 
ATOM     11  C   UNL A   1      32.188  23.322  23.908  1.00  0.00     0.019 A 
ATOM     12  O   UNL A   1      33.797  24.611  25.214  1.00  0.00    -0.475 OA
ATOM     13  C   UNL A   1      31.781  22.095  23.374  1.00  0.00     0.032 A 
ATOM     14  C   UNL A   1      33.377  23.419  24.662  1.00  0.00     0.135 A 
ATOM     15  C   UNL A   1      32.610  20.989  23.508  1.00  0.00     0.042 A 
ATOM     16  C   UNL A   1      34.240  22.313  24.757  1.00  0.00     0.026 A 
ATOM     17  Cl  UNL A   1      32.190  19.520  22.718  1.00  0.00    -0.084 Cl
ATOM     18  C   UNL A   1      33.832  21.096  24.172  1.00  0.00     0.033 A 
BRANCH  10  19
ATOM     19  C   UNL A   1      31.975  26.062  26.075  1.00  0.00     0.429 C 
ATOM     20  F   UNL A   1      31.596  24.928  26.709  1.00  0.00    -0.167 F 
ATOM     21  F   UNL A   1      32.514  26.877  27.017  1.00  0.00    -0.167 F 
ATOM     22  F   UNL A   1      30.843  26.670  25.639  1.00  0.00    -0.167 F 
ENDBRANCH  10  19
BRANCH  16  23
ATOM     23  C   UNL A   1      35.623  22.422  25.248  1.00  0.00    -0.014 A 
ATOM     24  C   UNL A   1      36.069  23.626  25.822  1.00  0.00     0.012 A 
ATOM     25  C   UNL A   1      36.555  21.395  25.049  1.00  0.00     0.012 A 
ATOM     26  C   UNL A   1      37.414  23.823  26.130  1.00  0.00     0.047 A 
ATOM     27  C   UNL A   1      37.904  21.583  25.369  1.00  0.00     0.047 A 
ATOM     28  C   UNL A   1      38.323  22.805  25.884  1.00  0.00     0.115 A 
BRANCH  28  29
ATOM     29  O   UNL A   1      39.635  23.056  26.154  1.00  0.00    -0.508 OA
ATOM     30  H   UNL A   1      40.304  22.597  25.688  1.00  0.00     0.293 HD
ENDBRANCH  28  29
ENDBRANCH  16  23
ENDBRANCH   6   8
ENDBRANCH   3   4
ENDBRANCH   2   3
ENDBRANCH   1   2
BRANCH   1  31
ATOM     31  C   UNL A   1      32.366  30.026  26.532  1.00  0.00     0.116 C 
BRANCH  31  32
ATOM     32  N   UNL A   1      32.294  31.426  26.922  1.00  0.00    -0.352 N 
ATOM     33  C   UNL A   1      33.295  32.214  27.469  1.00  0.00     0.251 C 
ATOM     34  H   UNL A   1      31.425  31.868  26.781  1.00  0.00     0.163 HD
ATOM     35  O   UNL A   1      33.086  33.387  27.729  1.00  0.00    -0.269 OA
BRANCH  33  36
ATOM     36  C   UNL A   1      34.601  31.592  27.799  1.00  0.00     0.039 A 
ATOM     37  C   UNL A   1      35.713  32.420  27.969  1.00  0.00     0.014 A 
ATOM     38  C   UNL A   1      34.702  30.221  28.047  1.00  0.00     0.014 A 
ATOM     39  C   UNL A   1      36.888  31.896  28.517  1.00  0.00     0.010 A 
ATOM     40  C   UNL A   1      35.853  29.713  28.651  1.00  0.00     0.010 A 
ATOM     41  C   UNL A   1      36.944  30.554  28.932  1.00  0.00    -0.014 A 
BRANCH  41  42
ATOM     42  C   UNL A   1      38.087  30.051  29.748  1.00  0.00     0.031 A 
ATOM     43  C   UNL A   1      38.267  30.483  31.177  1.00  0.00     0.074 A 
ATOM     44  C   UNL A   1      39.019  29.266  29.162  1.00  0.00     0.049 A 
ATOM     45  N   UNL A   1      39.229  30.185  32.013  1.00  0.00    -0.248 NA
ATOM     46  C   UNL A   1      37.249  31.387  31.730  1.00  0.00     0.031 C 
ATOM     47  C   UNL A   1      38.994  28.824  27.766  1.00  0.00     0.029 A 
ATOM     48  N   UNL A   1      40.173  28.710  29.659  1.00  0.00    -0.354 N 
ATOM     49  C   UNL A   1      38.945  30.875  33.185  1.00  0.00     0.074 A 
ATOM     50  C   UNL A   1      37.740  31.639  32.936  1.00  0.00     0.031 C 
ATOM     51  C   UNL A   1      40.068  28.054  27.526  1.00  0.00     0.029 A 
ATOM     52  C   UNL A   1      40.883  27.979  28.733  1.00  0.00     0.049 A 
ATOM     53  H   UNL A   1      40.466  28.825  30.592  1.00  0.00     0.167 HD
ATOM     54  C   UNL A   1      39.619  30.864  34.363  1.00  0.00     0.034 A 
ATOM     55  C   UNL A   1      42.061  27.330  28.835  1.00  0.00     0.034 A 
ATOM     56  C   UNL A   1      40.805  30.080  34.609  1.00  0.00     0.049 A 
ATOM     57  C   UNL A   1      42.789  27.336  30.157  1.00  0.00     0.074 A 
ATOM     58  C   UNL A   1      41.499  29.921  35.796  1.00  0.00     0.029 A 
ATOM     59  N   UNL A   1      41.487  29.341  33.652  1.00  0.00    -0.354 N 
ATOM     60  N   UNL A   1      42.448  27.917  31.284  1.00  0.00    -0.248 NA
ATOM     61  C   UNL A   1      44.055  26.593  30.224  1.00  0.00     0.031 C 
ATOM     62  C   UNL A   1      42.634  29.145  35.544  1.00  0.00     0.029 A 
ATOM     63  C   UNL A   1      42.614  28.758  34.214  1.00  0.00     0.049 A 
ATOM     64  H   UNL A   1      41.211  29.245  32.711  1.00  0.00     0.167 HD
ATOM     65  C   UNL A   1      43.437  27.572  32.200  1.00  0.00     0.074 A 
ATOM     66  C   UNL A   1      44.382  26.728  31.500  1.00  0.00     0.031 C 
ATOM     67  C   UNL A   1      43.550  27.917  33.508  1.00  0.00     0.034 A 
BRANCH  54  68
ATOM     68  C   UNL A   1      39.105  31.743  35.476  1.00  0.00     0.023 A 
ATOM     69  C   UNL A   1      38.447  31.212  36.597  1.00  0.00     0.031 A 
ATOM     70  C   UNL A   1      39.293  33.136  35.419  1.00  0.00     0.131 A 
ATOM     71  C   UNL A   1      37.952  32.072  37.590  1.00  0.00     0.055 A 
ATOM     72  C   UNL A   1      38.861  33.980  36.444  1.00  0.00     0.041 A 
ATOM     73  F   UNL A   1      39.901  33.700  34.363  1.00  0.00    -0.206 F 
ATOM     74  C   UNL A   1      38.177  33.450  37.533  1.00  0.00     0.022 A 
BRANCH  71  75
ATOM     75  S   UNL A   1      36.917  31.375  38.906  1.00  0.00     0.124 S 
ATOM     76  O   UNL A   1      37.791  31.506  40.069  1.00  0.00    -0.237 OA
ATOM     77  O   UNL A   1      35.747  32.245  38.884  1.00  0.00    -0.237 OA
ATOM     78  O   UNL A   1      36.681  30.002  38.466  1.00  0.00    -0.744 OA
ENDBRANCH  71  75
ENDBRANCH  54  68
BRANCH  55  79
ATOM     79  C   UNL A   1      42.651  26.627  27.657  1.00  0.00     0.023 A 
ATOM     80  C   UNL A   1      42.571  25.230  27.536  1.00  0.00     0.031 A 
ATOM     81  C   UNL A   1      43.368  27.332  26.675  1.00  0.00     0.131 A 
ATOM     82  C   UNL A   1      43.248  24.577  26.494  1.00  0.00     0.055 A 
ATOM     83  C   UNL A   1      43.991  26.683  25.607  1.00  0.00     0.041 A 
ATOM     84  F   UNL A   1      43.473  28.669  26.739  1.00  0.00    -0.206 F 
ATOM     85  C   UNL A   1      43.948  25.295  25.522  1.00  0.00     0.022 A 
BRANCH  82  86
ATOM     86  S   UNL A   1      43.296  22.764  26.493  1.00  0.00     0.124 S 
ATOM     87  O   UNL A   1      42.231  22.438  25.550  1.00  0.00    -0.237 OA
ATOM     88  O   UNL A   1      44.658  22.500  26.039  1.00  0.00    -0.237 OA
ATOM     89  O   UNL A   1      43.026  22.416  27.886  1.00  0.00    -0.744 OA
ENDBRANCH  82  86
ENDBRANCH  55  79
BRANCH  67  90
ATOM     90  C   UNL A   1      44.708  27.331  34.278  1.00  0.00     0.023 A 
ATOM     91  C   UNL A   1      44.626  26.073  34.899  1.00  0.00     0.031 A 
ATOM     92  C   UNL A   1      45.910  28.051  34.397  1.00  0.00     0.131 A 
ATOM     93  C   UNL A   1      45.708  25.593  35.652  1.00  0.00     0.055 A 
ATOM     94  C   UNL A   1      47.003  27.545  35.101  1.00  0.00     0.041 A 
ATOM     95  F   UNL A   1      46.042  29.259  33.826  1.00  0.00    -0.206 F 
ATOM     96  C   UNL A   1      46.903  26.314  35.742  1.00  0.00     0.022 A 
BRANCH  93  97
ATOM     97  S   UNL A   1      45.514  24.043  36.574  1.00  0.00     0.124 S 
ATOM     98  O   UNL A   1      44.396  23.414  35.877  1.00  0.00    -0.237 OA
ATOM     99  O   UNL A   1      46.815  23.406  36.395  1.00  0.00    -0.237 OA
ATOM    100  O   UNL A   1      45.225  24.488  37.935  1.00  0.00    -0.744 OA
ENDBRANCH  93  97
ENDBRANCH  67  90
ENDBRANCH  41  42
ENDBRANCH  33  36
ENDBRANCH  31  32
ENDBRANCH   1  31
TORSDOF 17
ENDMDL
