MODEL 1
REMARK VINA RESULT:     -12.1      0.000      0.000
REMARK SMILES CC(C)CSc1cc2c(cc1Cl)C=C(C(=O)NCCCCNC(=O)c1ccc(-c3c4nc(c(-c5cc(S(=O)(=O)[O-])ccc5F)c5ccc([nH]5)c(-c5cc(S(=O)(=O)[O-])ccc5F)c5nc(c(-c6cc(S(=O)(=O)[O-])ccc6F)c6ccc3[nH]6)C=C5)C=C4)cc1)[C@@H](C(F)(F)F)O2
REMARK SMILES IDX 19 1 18 2 17 3 15 4 16 5 14 7 6 8 7 9 11 10 8 11 10 12 12 13
REMARK SMILES IDX 9 14 93 15 13 16 88 17 5 18 4 19 2 20 1 21 3 22 89 23 90 24
REMARK SMILES IDX 91 25 92 26 20 27 21 28 22 29 23 30 24 32 25 33 26 34 87 35
REMARK SMILES IDX 27 36 86 37 28 38 29 39 30 40 80 41 31 42 85 43 79 44 81 45
REMARK SMILES IDX 32 46 84 47 78 48 77 49 33 51 65 52 45 53 64 54 46 55 49 56
REMARK SMILES IDX 63 57 82 58 47 59 48 60 62 62 83 63 50 64 34 65 35 66 43 67
REMARK SMILES IDX 36 68 42 69 44 70 41 71 37 72 38 73 39 74 40 75 66 76 67 77
REMARK SMILES IDX 75 78 68 79 74 80 76 81 73 82 69 83 70 84 71 85 72 86 51 87
REMARK SMILES IDX 52 88 60 89 53 90 59 91 61 92 58 93 54 94 55 95 56 96 57 97
REMARK H PARENT 17 6 22 31 81 50 49 61
REMARK Flexibility Score: inf
ROOT
ATOM      1  C   UNL A   1      31.940  29.558  26.849  1.00  0.00     0.023 C 
ENDROOT
BRANCH   1   2
ATOM      2  C   UNL A   1      32.216  28.875  25.514  1.00  0.00     0.116 C 
BRANCH   2   3
ATOM      3  N   UNL A   1      30.996  28.493  24.821  1.00  0.00    -0.352 N 
ATOM      4  C   UNL A   1      30.511  27.388  24.207  1.00  0.00     0.251 C 
ATOM      5  O   UNL A   1      29.370  27.487  23.748  1.00  0.00    -0.270 OA
ATOM      6  H   UNL A   1      30.351  29.237  24.790  1.00  0.00     0.163 HD
BRANCH   4   7
ATOM      7  C   UNL A   1      31.255  26.101  24.045  1.00  0.00     0.067 C 
ATOM      8  C   UNL A   1      33.632  21.727  24.974  1.00  0.00     0.030 A 
ATOM      9  C   UNL A   1      33.147  22.376  23.840  1.00  0.00     0.063 A 
ATOM     10  C   UNL A   1      33.611  22.448  26.188  1.00  0.00     0.055 A 
ATOM     11  C   UNL A   1      32.544  23.630  23.922  1.00  0.00     0.129 A 
ATOM     12  C   UNL A   1      33.047  23.734  26.257  1.00  0.00     0.033 A 
ATOM     13  Cl  UNL A   1      34.249  21.803  27.665  1.00  0.00    -0.083 Cl
ATOM     14  C   UNL A   1      32.478  24.317  25.124  1.00  0.00     0.019 A 
ATOM     15  O   UNL A   1      31.981  24.066  22.765  1.00  0.00    -0.475 OA
ATOM     16  C   UNL A   1      31.771  25.588  25.178  1.00  0.00     0.025 C 
ATOM     17  C   UNL A   1      31.450  25.415  22.723  1.00  0.00     0.314 C 
BRANCH   8  18
ATOM     18  S   UNL A   1      34.211  20.025  24.902  1.00  0.00    -0.124 SA
BRANCH  18  19
ATOM     19  C   UNL A   1      32.705  18.983  24.740  1.00  0.00     0.078 C 
BRANCH  19  20
ATOM     20  C   UNL A   1      32.909  17.554  24.192  1.00  0.00    -0.007 C 
ATOM     21  C   UNL A   1      34.325  17.227  23.721  1.00  0.00     0.008 C 
ATOM     22  C   UNL A   1      32.517  16.546  25.282  1.00  0.00     0.008 C 
ENDBRANCH  19  20
ENDBRANCH  18  19
ENDBRANCH   8  18
BRANCH  17  23
ATOM     23  C   UNL A   1      32.326  26.212  21.742  1.00  0.00     0.429 C 
ATOM     24  F   UNL A   1      32.003  25.891  20.463  1.00  0.00    -0.167 F 
ATOM     25  F   UNL A   1      32.172  27.549  21.852  1.00  0.00    -0.167 F 
ATOM     26  F   UNL A   1      33.642  25.945  21.904  1.00  0.00    -0.167 F 
ENDBRANCH  17  23
ENDBRANCH   4   7
ENDBRANCH   2   3
ENDBRANCH   1   2
BRANCH   1  27
ATOM     27  C   UNL A   1      31.308  30.943  26.725  1.00  0.00     0.023 C 
BRANCH  27  28
ATOM     28  C   UNL A   1      32.259  32.060  26.304  1.00  0.00     0.116 C 
BRANCH  28  29
ATOM     29  N   UNL A   1      32.107  33.298  27.062  1.00  0.00    -0.352 N 
ATOM     30  C   UNL A   1      33.004  33.840  27.959  1.00  0.00     0.251 C 
ATOM     31  H   UNL A   1      31.273  33.801  26.917  1.00  0.00     0.163 HD
ATOM     32  O   UNL A   1      32.743  34.868  28.573  1.00  0.00    -0.269 OA
BRANCH  30  33
ATOM     33  C   UNL A   1      34.260  33.104  28.192  1.00  0.00     0.039 A 
ATOM     34  C   UNL A   1      34.204  31.791  28.666  1.00  0.00     0.014 A 
ATOM     35  C   UNL A   1      35.471  33.793  28.122  1.00  0.00     0.014 A 
ATOM     36  C   UNL A   1      35.334  31.239  29.251  1.00  0.00     0.010 A 
ATOM     37  C   UNL A   1      36.624  33.199  28.638  1.00  0.00     0.010 A 
ATOM     38  C   UNL A   1      36.550  31.946  29.267  1.00  0.00    -0.014 A 
BRANCH  38  39
ATOM     39  C   UNL A   1      37.720  31.364  29.971  1.00  0.00     0.031 A 
ATOM     40  C   UNL A   1      38.017  31.723  31.402  1.00  0.00     0.074 A 
ATOM     41  C   UNL A   1      38.474  30.451  29.331  1.00  0.00     0.049 A 
ATOM     42  N   UNL A   1      38.974  31.284  32.178  1.00  0.00    -0.248 NA
ATOM     43  C   UNL A   1      37.128  32.702  32.051  1.00  0.00     0.031 C 
ATOM     44  C   UNL A   1      38.258  30.017  27.951  1.00  0.00     0.029 A 
ATOM     45  N   UNL A   1      39.544  29.706  29.754  1.00  0.00    -0.354 N 
ATOM     46  C   UNL A   1      38.819  31.940  33.394  1.00  0.00     0.074 A 
ATOM     47  C   UNL A   1      37.688  32.831  33.247  1.00  0.00     0.031 C 
ATOM     48  C   UNL A   1      39.126  29.039  27.660  1.00  0.00     0.029 A 
ATOM     49  C   UNL A   1      40.010  28.829  28.803  1.00  0.00     0.049 A 
ATOM     50  H   UNL A   1      39.940  29.790  30.651  1.00  0.00     0.167 HD
ATOM     51  C   UNL A   1      39.545  31.800  34.528  1.00  0.00     0.034 A 
ATOM     52  C   UNL A   1      41.044  27.962  28.836  1.00  0.00     0.034 A 
ATOM     53  C   UNL A   1      40.650  30.887  34.666  1.00  0.00     0.049 A 
ATOM     54  C   UNL A   1      41.858  27.855  30.096  1.00  0.00     0.074 A 
ATOM     55  C   UNL A   1      41.426  30.648  35.786  1.00  0.00     0.029 A 
ATOM     56  N   UNL A   1      41.134  30.059  33.661  1.00  0.00    -0.354 N 
ATOM     57  N   UNL A   1      41.680  28.466  31.245  1.00  0.00    -0.248 NA
ATOM     58  C   UNL A   1      43.017  26.954  30.069  1.00  0.00     0.031 C 
ATOM     59  C   UNL A   1      42.409  29.716  35.447  1.00  0.00     0.029 A 
ATOM     60  C   UNL A   1      42.215  29.331  34.128  1.00  0.00     0.049 A 
ATOM     61  H   UNL A   1      40.762  30.000  32.752  1.00  0.00     0.167 HD
ATOM     62  C   UNL A   1      42.702  28.022  32.077  1.00  0.00     0.074 A 
ATOM     63  C   UNL A   1      43.474  27.066  31.310  1.00  0.00     0.031 C 
ATOM     64  C   UNL A   1      42.979  28.382  33.355  1.00  0.00     0.034 A 
BRANCH  51  65
ATOM     65  C   UNL A   1      39.176  32.633  35.731  1.00  0.00     0.023 A 
ATOM     66  C   UNL A   1      39.677  33.943  35.860  1.00  0.00     0.031 A 
ATOM     67  C   UNL A   1      38.444  32.091  36.801  1.00  0.00     0.131 A 
ATOM     68  C   UNL A   1      39.461  34.656  37.046  1.00  0.00     0.055 A 
ATOM     69  C   UNL A   1      38.206  32.817  37.969  1.00  0.00     0.041 A 
ATOM     70  F   UNL A   1      37.944  30.846  36.722  1.00  0.00    -0.206 F 
ATOM     71  C   UNL A   1      38.726  34.102  38.099  1.00  0.00     0.022 A 
BRANCH  68  72
ATOM     72  S   UNL A   1      40.167  36.308  37.292  1.00  0.00     0.124 S 
ATOM     73  O   UNL A   1      40.001  36.904  35.968  1.00  0.00    -0.237 OA
ATOM     74  O   UNL A   1      39.305  36.857  38.335  1.00  0.00    -0.237 OA
ATOM     75  O   UNL A   1      41.546  36.046  37.685  1.00  0.00    -0.744 OA
ENDBRANCH  68  72
ENDBRANCH  51  65
BRANCH  52  76
ATOM     76  C   UNL A   1      41.314  27.120  27.636  1.00  0.00     0.023 A 
ATOM     77  C   UNL A   1      40.962  25.758  27.619  1.00  0.00     0.031 A 
ATOM     78  C   UNL A   1      42.051  27.627  26.555  1.00  0.00     0.131 A 
ATOM     79  C   UNL A   1      41.426  24.930  26.590  1.00  0.00     0.055 A 
ATOM     80  C   UNL A   1      42.448  26.814  25.491  1.00  0.00     0.041 A 
ATOM     81  F   UNL A   1      42.418  28.917  26.532  1.00  0.00    -0.206 F 
ATOM     82  C   UNL A   1      42.155  25.453  25.518  1.00  0.00     0.022 A 
BRANCH  79  83
ATOM     83  S   UNL A   1      41.245  23.128  26.699  1.00  0.00     0.124 S 
ATOM     84  O   UNL A   1      42.155  22.668  25.656  1.00  0.00    -0.237 OA
ATOM     85  O   UNL A   1      41.673  22.866  28.072  1.00  0.00    -0.237 OA
ATOM     86  O   UNL A   1      39.826  22.909  26.443  1.00  0.00    -0.744 OA
ENDBRANCH  79  83
ENDBRANCH  52  76
BRANCH  64  87
ATOM     87  C   UNL A   1      44.183  27.771  34.025  1.00  0.00     0.023 A 
ATOM     88  C   UNL A   1      44.058  26.570  34.747  1.00  0.00     0.031 A 
ATOM     89  C   UNL A   1      45.410  28.455  34.070  1.00  0.00     0.131 A 
ATOM     90  C   UNL A   1      45.132  26.110  35.519  1.00  0.00     0.055 A 
ATOM     91  C   UNL A   1      46.490  27.970  34.808  1.00  0.00     0.041 A 
ATOM     92  F   UNL A   1      45.572  29.607  33.401  1.00  0.00    -0.206 F 
ATOM     93  C   UNL A   1      46.348  26.800  35.549  1.00  0.00     0.022 A 
BRANCH  90  94
ATOM     94  S   UNL A   1      44.965  24.643  36.575  1.00  0.00     0.124 S 
ATOM     95  O   UNL A   1      44.310  25.196  37.758  1.00  0.00    -0.237 OA
ATOM     96  O   UNL A   1      44.134  23.767  35.754  1.00  0.00    -0.237 OA
ATOM     97  O   UNL A   1      46.339  24.198  36.776  1.00  0.00    -0.744 OA
ENDBRANCH  90  94
ENDBRANCH  64  87
ENDBRANCH  38  39
ENDBRANCH  30  33
ENDBRANCH  28  29
ENDBRANCH  27  28
ENDBRANCH   1  27
TORSDOF 18
ENDMDL
MODEL 2
REMARK VINA RESULT:     -11.8      1.916      2.172
REMARK SMILES CC(C)CSc1cc2c(cc1Cl)C=C(C(=O)NCCCCNC(=O)c1ccc(-c3c4nc(c(-c5cc(S(=O)(=O)[O-])ccc5F)c5ccc([nH]5)c(-c5cc(S(=O)(=O)[O-])ccc5F)c5nc(c(-c6cc(S(=O)(=O)[O-])ccc6F)c6ccc3[nH]6)C=C5)C=C4)cc1)[C@@H](C(F)(F)F)O2
REMARK SMILES IDX 19 1 18 2 17 3 15 4 16 5 14 7 6 8 7 9 11 10 8 11 10 12 12 13
REMARK SMILES IDX 9 14 93 15 13 16 88 17 5 18 4 19 2 20 1 21 3 22 89 23 90 24
REMARK SMILES IDX 91 25 92 26 20 27 21 28 22 29 23 30 24 32 25 33 26 34 87 35
REMARK SMILES IDX 27 36 86 37 28 38 29 39 30 40 80 41 31 42 85 43 79 44 81 45
REMARK SMILES IDX 32 46 84 47 78 48 77 49 33 51 65 52 45 53 64 54 46 55 49 56
REMARK SMILES IDX 63 57 82 58 47 59 48 60 62 62 83 63 50 64 34 65 35 66 43 67
REMARK SMILES IDX 36 68 42 69 44 70 41 71 37 72 38 73 39 74 40 75 66 76 67 77
REMARK SMILES IDX 75 78 68 79 74 80 76 81 73 82 69 83 70 84 71 85 72 86 51 87
REMARK SMILES IDX 52 88 60 89 53 90 59 91 61 92 58 93 54 94 55 95 56 96 57 97
REMARK H PARENT 17 6 22 31 81 50 49 61
REMARK Flexibility Score: inf
ROOT
ATOM      1  C   UNL A   1      32.004  29.384  26.791  1.00  0.00     0.023 C 
ENDROOT
BRANCH   1   2
ATOM      2  C   UNL A   1      32.214  28.721  25.434  1.00  0.00     0.116 C 
BRANCH   2   3
ATOM      3  N   UNL A   1      30.965  28.291  24.826  1.00  0.00    -0.352 N 
ATOM      4  C   UNL A   1      30.473  27.157  24.272  1.00  0.00     0.251 C 
ATOM      5  O   UNL A   1      29.304  27.215  23.878  1.00  0.00    -0.270 OA
ATOM      6  H   UNL A   1      30.300  29.017  24.813  1.00  0.00     0.163 HD
BRANCH   4   7
ATOM      7  C   UNL A   1      31.238  25.884  24.100  1.00  0.00     0.067 C 
ATOM      8  C   UNL A   1      33.733  21.570  24.999  1.00  0.00     0.030 A 
ATOM      9  C   UNL A   1      33.201  22.197  23.873  1.00  0.00     0.063 A 
ATOM     10  C   UNL A   1      33.733  22.303  26.206  1.00  0.00     0.055 A 
ATOM     11  C   UNL A   1      32.575  23.439  23.961  1.00  0.00     0.129 A 
ATOM     12  C   UNL A   1      33.145  23.578  26.279  1.00  0.00     0.033 A 
ATOM     13  Cl  UNL A   1      34.428  21.686  27.669  1.00  0.00    -0.083 Cl
ATOM     14  C   UNL A   1      32.530  24.137  25.158  1.00  0.00     0.019 A 
ATOM     15  O   UNL A   1      31.968  23.852  22.817  1.00  0.00    -0.475 OA
ATOM     16  C   UNL A   1      31.799  25.393  25.222  1.00  0.00     0.025 C 
ATOM     17  C   UNL A   1      31.408  25.188  22.779  1.00  0.00     0.314 C 
BRANCH   8  18
ATOM     18  S   UNL A   1      34.345  19.880  24.926  1.00  0.00    -0.124 SA
BRANCH  18  19
ATOM     19  C   UNL A   1      32.873  18.797  25.126  1.00  0.00     0.078 C 
BRANCH  19  20
ATOM     20  C   UNL A   1      32.544  17.852  23.950  1.00  0.00    -0.007 C 
ATOM     21  C   UNL A   1      32.346  18.533  22.596  1.00  0.00     0.008 C 
ATOM     22  C   UNL A   1      33.675  16.822  23.813  1.00  0.00     0.008 C 
ENDBRANCH  19  20
ENDBRANCH  18  19
ENDBRANCH   8  18
BRANCH  17  23
ATOM     23  C   UNL A   1      32.238  25.993  21.764  1.00  0.00     0.429 C 
ATOM     24  F   UNL A   1      31.416  26.626  20.889  1.00  0.00    -0.167 F 
ATOM     25  F   UNL A   1      33.000  26.951  22.336  1.00  0.00    -0.167 F 
ATOM     26  F   UNL A   1      33.064  25.203  21.042  1.00  0.00    -0.167 F 
ENDBRANCH  17  23
ENDBRANCH   4   7
ENDBRANCH   2   3
ENDBRANCH   1   2
BRANCH   1  27
ATOM     27  C   UNL A   1      31.435  30.799  26.715  1.00  0.00     0.023 C 
BRANCH  27  28
ATOM     28  C   UNL A   1      32.440  31.890  26.358  1.00  0.00     0.116 C 
BRANCH  28  29
ATOM     29  N   UNL A   1      32.297  33.119  27.133  1.00  0.00    -0.352 N 
ATOM     30  C   UNL A   1      33.209  33.655  28.018  1.00  0.00     0.251 C 
ATOM     31  H   UNL A   1      31.458  33.619  27.010  1.00  0.00     0.163 HD
ATOM     32  O   UNL A   1      32.955  34.674  28.649  1.00  0.00    -0.269 OA
BRANCH  30  33
ATOM     33  C   UNL A   1      34.473  32.923  28.218  1.00  0.00     0.039 A 
ATOM     34  C   UNL A   1      34.433  31.606  28.680  1.00  0.00     0.014 A 
ATOM     35  C   UNL A   1      35.679  33.619  28.130  1.00  0.00     0.014 A 
ATOM     36  C   UNL A   1      35.578  31.054  29.236  1.00  0.00     0.010 A 
ATOM     37  C   UNL A   1      36.846  33.026  28.616  1.00  0.00     0.010 A 
ATOM     38  C   UNL A   1      36.790  31.767  29.233  1.00  0.00    -0.014 A 
BRANCH  38  39
ATOM     39  C   UNL A   1      37.978  31.183  29.908  1.00  0.00     0.031 A 
ATOM     40  C   UNL A   1      38.300  31.526  31.338  1.00  0.00     0.074 A 
ATOM     41  C   UNL A   1      38.726  30.284  29.242  1.00  0.00     0.049 A 
ATOM     42  N   UNL A   1      39.275  31.084  32.088  1.00  0.00    -0.248 NA
ATOM     43  C   UNL A   1      37.417  32.490  32.016  1.00  0.00     0.031 C 
ATOM     44  C   UNL A   1      38.486  29.867  27.860  1.00  0.00     0.029 A 
ATOM     45  N   UNL A   1      39.809  29.541  29.634  1.00  0.00    -0.354 N 
ATOM     46  C   UNL A   1      39.138  31.723  33.316  1.00  0.00     0.074 A 
ATOM     47  C   UNL A   1      37.999  32.607  33.202  1.00  0.00     0.031 C 
ATOM     48  C   UNL A   1      39.355  28.899  27.540  1.00  0.00     0.029 A 
ATOM     49  C   UNL A   1      40.263  28.680  28.663  1.00  0.00     0.049 A 
ATOM     50  H   UNL A   1      40.222  29.616  30.524  1.00  0.00     0.167 HD
ATOM     51  C   UNL A   1      39.887  31.573  34.434  1.00  0.00     0.034 A 
ATOM     52  C   UNL A   1      41.303  27.821  28.665  1.00  0.00     0.034 A 
ATOM     53  C   UNL A   1      41.001  30.666  34.539  1.00  0.00     0.049 A 
ATOM     54  C   UNL A   1      42.142  27.703  29.907  1.00  0.00     0.074 A 
ATOM     55  C   UNL A   1      41.800  30.418  35.641  1.00  0.00     0.029 A 
ATOM     56  N   UNL A   1      41.471  29.856  33.514  1.00  0.00    -0.354 N 
ATOM     57  N   UNL A   1      41.981  28.297  31.067  1.00  0.00    -0.248 NA
ATOM     58  C   UNL A   1      43.306  26.810  29.846  1.00  0.00     0.031 C 
ATOM     59  C   UNL A   1      42.782  29.498  35.270  1.00  0.00     0.029 A 
ATOM     60  C   UNL A   1      42.566  29.129  33.951  1.00  0.00     0.049 A 
ATOM     61  H   UNL A   1      41.082  29.805  32.611  1.00  0.00     0.167 HD
ATOM     62  C   UNL A   1      43.022  27.850  31.873  1.00  0.00     0.074 A 
ATOM     63  C   UNL A   1      43.786  26.909  31.080  1.00  0.00     0.031 C 
ATOM     64  C   UNL A   1      43.321  28.195  33.151  1.00  0.00     0.034 A 
BRANCH  51  65
ATOM     65  C   UNL A   1      39.536  32.388  35.654  1.00  0.00     0.023 A 
ATOM     66  C   UNL A   1      38.658  31.864  36.622  1.00  0.00     0.031 A 
ATOM     67  C   UNL A   1      39.964  33.720  35.793  1.00  0.00     0.131 A 
ATOM     68  C   UNL A   1      38.214  32.679  37.672  1.00  0.00     0.055 A 
ATOM     69  C   UNL A   1      39.541  34.518  36.857  1.00  0.00     0.041 A 
ATOM     70  F   UNL A   1      40.803  34.262  34.895  1.00  0.00    -0.206 F 
ATOM     71  C   UNL A   1      38.653  34.001  37.797  1.00  0.00     0.022 A 
BRANCH  68  72
ATOM     72  S   UNL A   1      37.011  32.075  38.887  1.00  0.00     0.124 S 
ATOM     73  O   UNL A   1      37.615  32.507  40.146  1.00  0.00    -0.237 OA
ATOM     74  O   UNL A   1      35.799  32.792  38.499  1.00  0.00    -0.237 OA
ATOM     75  O   UNL A   1      36.989  30.633  38.672  1.00  0.00    -0.744 OA
ENDBRANCH  68  72
ENDBRANCH  51  65
BRANCH  52  76
ATOM     76  C   UNL A   1      41.555  26.996  27.449  1.00  0.00     0.023 A 
ATOM     77  C   UNL A   1      41.246  25.623  27.433  1.00  0.00     0.031 A 
ATOM     78  C   UNL A   1      42.236  27.533  26.346  1.00  0.00     0.131 A 
ATOM     79  C   UNL A   1      41.698  24.818  26.381  1.00  0.00     0.055 A 
ATOM     80  C   UNL A   1      42.620  26.741  25.262  1.00  0.00     0.041 A 
ATOM     81  F   UNL A   1      42.562  28.834  26.320  1.00  0.00    -0.206 F 
ATOM     82  C   UNL A   1      42.371  25.371  25.288  1.00  0.00     0.022 A 
BRANCH  79  83
ATOM     83  S   UNL A   1      41.577  23.010  26.482  1.00  0.00     0.124 S 
ATOM     84  O   UNL A   1      42.331  22.590  25.305  1.00  0.00    -0.237 OA
ATOM     85  O   UNL A   1      42.213  22.738  27.769  1.00  0.00    -0.237 OA
ATOM     86  O   UNL A   1      40.141  22.758  26.437  1.00  0.00    -0.744 OA
ENDBRANCH  79  83
ENDBRANCH  52  76
BRANCH  64  87
ATOM     87  C   UNL A   1      44.542  27.584  33.789  1.00  0.00     0.023 A 
ATOM     88  C   UNL A   1      45.798  28.203  33.652  1.00  0.00     0.031 A 
ATOM     89  C   UNL A   1      44.481  26.320  34.401  1.00  0.00     0.131 A 
ATOM     90  C   UNL A   1      46.951  27.536  34.085  1.00  0.00     0.055 A 
ATOM     91  C   UNL A   1      45.629  25.679  34.867  1.00  0.00     0.041 A 
ATOM     92  F   UNL A   1      43.305  25.690  34.548  1.00  0.00    -0.206 F 
ATOM     93  C   UNL A   1      46.873  26.280  34.696  1.00  0.00     0.022 A 
BRANCH  90  94
ATOM     94  S   UNL A   1      48.600  28.236  33.799  1.00  0.00     0.124 S 
ATOM     95  O   UNL A   1      49.462  27.076  34.013  1.00  0.00    -0.237 OA
ATOM     96  O   UNL A   1      48.504  28.694  32.416  1.00  0.00    -0.237 OA
ATOM     97  O   UNL A   1      48.714  29.289  34.803  1.00  0.00    -0.744 OA
ENDBRANCH  90  94
ENDBRANCH  64  87
ENDBRANCH  38  39
ENDBRANCH  30  33
ENDBRANCH  28  29
ENDBRANCH  27  28
ENDBRANCH   1  27
TORSDOF 18
ENDMDL
MODEL 3
REMARK VINA RESULT:     -11.8      1.942      2.400
REMARK SMILES CC(C)CSc1cc2c(cc1Cl)C=C(C(=O)NCCCCNC(=O)c1ccc(-c3c4nc(c(-c5cc(S(=O)(=O)[O-])ccc5F)c5ccc([nH]5)c(-c5cc(S(=O)(=O)[O-])ccc5F)c5nc(c(-c6cc(S(=O)(=O)[O-])ccc6F)c6ccc3[nH]6)C=C5)C=C4)cc1)[C@@H](C(F)(F)F)O2
REMARK SMILES IDX 19 1 18 2 17 3 15 4 16 5 14 7 6 8 7 9 11 10 8 11 10 12 12 13
REMARK SMILES IDX 9 14 93 15 13 16 88 17 5 18 4 19 2 20 1 21 3 22 89 23 90 24
REMARK SMILES IDX 91 25 92 26 20 27 21 28 22 29 23 30 24 32 25 33 26 34 87 35
REMARK SMILES IDX 27 36 86 37 28 38 29 39 30 40 80 41 31 42 85 43 79 44 81 45
REMARK SMILES IDX 32 46 84 47 78 48 77 49 33 51 65 52 45 53 64 54 46 55 49 56
REMARK SMILES IDX 63 57 82 58 47 59 48 60 62 62 83 63 50 64 34 65 35 66 43 67
REMARK SMILES IDX 36 68 42 69 44 70 41 71 37 72 38 73 39 74 40 75 66 76 67 77
REMARK SMILES IDX 75 78 68 79 74 80 76 81 73 82 69 83 70 84 71 85 72 86 51 87
REMARK SMILES IDX 52 88 60 89 53 90 59 91 61 92 58 93 54 94 55 95 56 96 57 97
REMARK H PARENT 17 6 22 31 81 50 49 61
REMARK Flexibility Score: inf
ROOT
ATOM      1  C   UNL A   1      33.328  29.271  26.548  1.00  0.00     0.023 C 
ENDROOT
BRANCH   1   2
ATOM      2  C   UNL A   1      32.984  29.206  25.064  1.00  0.00     0.116 C 
BRANCH   2   3
ATOM      3  N   UNL A   1      31.617  28.770  24.828  1.00  0.00    -0.352 N 
ATOM      4  C   UNL A   1      30.987  27.611  24.526  1.00  0.00     0.251 C 
ATOM      5  O   UNL A   1      29.757  27.677  24.430  1.00  0.00    -0.270 OA
ATOM      6  H   UNL A   1      30.980  29.517  24.910  1.00  0.00     0.163 HD
BRANCH   4   7
ATOM      7  C   UNL A   1      31.667  26.299  24.295  1.00  0.00     0.067 C 
ATOM      8  C   UNL A   1      33.734  21.726  24.971  1.00  0.00     0.030 A 
ATOM      9  C   UNL A   1      33.360  22.498  23.872  1.00  0.00     0.063 A 
ATOM     10  C   UNL A   1      33.675  22.341  26.240  1.00  0.00     0.055 A 
ATOM     11  C   UNL A   1      32.823  23.774  24.029  1.00  0.00     0.129 A 
ATOM     12  C   UNL A   1      33.179  23.649  26.390  1.00  0.00     0.033 A 
ATOM     13  Cl  UNL A   1      34.180  21.535  27.690  1.00  0.00    -0.083 Cl
ATOM     14  C   UNL A   1      32.718  24.359  25.281  1.00  0.00     0.019 A 
ATOM     15  O   UNL A   1      32.361  24.341  22.884  1.00  0.00    -0.475 OA
ATOM     16  C   UNL A   1      32.080  25.661  25.406  1.00  0.00     0.025 C 
ATOM     17  C   UNL A   1      31.909  25.718  22.930  1.00  0.00     0.314 C 
BRANCH   8  18
ATOM     18  S   UNL A   1      34.222  20.005  24.783  1.00  0.00    -0.124 SA
BRANCH  18  19
ATOM     19  C   UNL A   1      32.807  19.162  23.966  1.00  0.00     0.078 C 
BRANCH  19  20
ATOM     20  C   UNL A   1      32.761  17.623  24.076  1.00  0.00    -0.007 C 
ATOM     21  C   UNL A   1      33.807  16.874  23.252  1.00  0.00     0.008 C 
ATOM     22  C   UNL A   1      32.933  17.228  25.551  1.00  0.00     0.008 C 
ENDBRANCH  19  20
ENDBRANCH  18  19
ENDBRANCH   8  18
BRANCH  17  23
ATOM     23  C   UNL A   1      32.889  26.541  22.078  1.00  0.00     0.429 C 
ATOM     24  F   UNL A   1      32.341  27.744  21.770  1.00  0.00    -0.167 F 
ATOM     25  F   UNL A   1      34.057  26.800  22.705  1.00  0.00    -0.167 F 
ATOM     26  F   UNL A   1      33.189  25.925  20.912  1.00  0.00    -0.167 F 
ENDBRANCH  17  23
ENDBRANCH   4   7
ENDBRANCH   2   3
ENDBRANCH   1   2
BRANCH   1  27
ATOM     27  C   UNL A   1      32.728  30.470  27.278  1.00  0.00     0.023 C 
BRANCH  27  28
ATOM     28  C   UNL A   1      33.712  31.584  27.626  1.00  0.00     0.116 C 
BRANCH  28  29
ATOM     29  N   UNL A   1      33.114  32.912  27.714  1.00  0.00    -0.352 N 
ATOM     30  C   UNL A   1      33.480  33.935  28.564  1.00  0.00     0.251 C 
ATOM     31  H   UNL A   1      32.368  33.098  27.099  1.00  0.00     0.163 HD
ATOM     32  O   UNL A   1      32.869  34.996  28.578  1.00  0.00    -0.269 OA
BRANCH  30  33
ATOM     33  C   UNL A   1      34.597  33.679  29.493  1.00  0.00     0.039 A 
ATOM     34  C   UNL A   1      35.877  34.127  29.160  1.00  0.00     0.014 A 
ATOM     35  C   UNL A   1      34.391  32.831  30.581  1.00  0.00     0.014 A 
ATOM     36  C   UNL A   1      36.972  33.568  29.802  1.00  0.00     0.010 A 
ATOM     37  C   UNL A   1      35.494  32.336  31.278  1.00  0.00     0.010 A 
ATOM     38  C   UNL A   1      36.794  32.648  30.850  1.00  0.00    -0.014 A 
BRANCH  38  39
ATOM     39  C   UNL A   1      37.985  32.006  31.464  1.00  0.00     0.031 A 
ATOM     40  C   UNL A   1      38.436  32.382  32.850  1.00  0.00     0.074 A 
ATOM     41  C   UNL A   1      38.617  31.029  30.787  1.00  0.00     0.049 A 
ATOM     42  N   UNL A   1      39.432  31.900  33.548  1.00  0.00    -0.248 NA
ATOM     43  C   UNL A   1      37.676  33.434  33.546  1.00  0.00     0.031 C 
ATOM     44  C   UNL A   1      38.246  30.576  29.447  1.00  0.00     0.029 A 
ATOM     45  N   UNL A   1      39.672  30.226  31.134  1.00  0.00    -0.354 N 
ATOM     46  C   UNL A   1      39.432  32.596  34.752  1.00  0.00     0.074 A 
ATOM     47  C   UNL A   1      38.352  33.556  34.681  1.00  0.00     0.031 C 
ATOM     48  C   UNL A   1      39.019  29.535  29.109  1.00  0.00     0.029 A 
ATOM     49  C   UNL A   1      39.990  29.296  30.172  1.00  0.00     0.049 A 
ATOM     50  H   UNL A   1      40.154  30.306  31.988  1.00  0.00     0.167 HD
ATOM     51  C   UNL A   1      40.250  32.437  35.820  1.00  0.00     0.034 A 
ATOM     52  C   UNL A   1      40.965  28.363  30.139  1.00  0.00     0.034 A 
ATOM     53  C   UNL A   1      41.303  31.456  35.885  1.00  0.00     0.049 A 
ATOM     54  C   UNL A   1      41.884  28.235  31.322  1.00  0.00     0.074 A 
ATOM     55  C   UNL A   1      42.163  31.195  36.936  1.00  0.00     0.029 A 
ATOM     56  N   UNL A   1      41.637  30.573  34.867  1.00  0.00    -0.354 N 
ATOM     57  N   UNL A   1      41.853  28.885  32.463  1.00  0.00    -0.248 NA
ATOM     58  C   UNL A   1      42.976  27.258  31.218  1.00  0.00     0.031 C 
ATOM     59  C   UNL A   1      43.048  30.192  36.539  1.00  0.00     0.029 A 
ATOM     60  C   UNL A   1      42.708  29.787  35.256  1.00  0.00     0.049 A 
ATOM     61  H   UNL A   1      41.179  30.515  33.997  1.00  0.00     0.167 HD
ATOM     62  C   UNL A   1      42.917  28.396  33.211  1.00  0.00     0.074 A 
ATOM     63  C   UNL A   1      43.553  27.371  32.409  1.00  0.00     0.031 C 
ATOM     64  C   UNL A   1      43.335  28.769  34.447  1.00  0.00     0.034 A 
BRANCH  51  65
ATOM     65  C   UNL A   1      40.049  33.323  37.023  1.00  0.00     0.023 A 
ATOM     66  C   UNL A   1      39.334  32.846  38.138  1.00  0.00     0.031 A 
ATOM     67  C   UNL A   1      40.449  34.671  37.015  1.00  0.00     0.131 A 
ATOM     68  C   UNL A   1      39.017  33.718  39.188  1.00  0.00     0.055 A 
ATOM     69  C   UNL A   1      40.156  35.529  38.077  1.00  0.00     0.041 A 
ATOM     70  F   UNL A   1      41.135  35.171  35.975  1.00  0.00    -0.206 F 
ATOM     71  C   UNL A   1      39.426  35.056  39.164  1.00  0.00     0.022 A 
BRANCH  68  72
ATOM     72  S   UNL A   1      38.017  33.170  40.598  1.00  0.00     0.124 S 
ATOM     73  O   UNL A   1      38.201  34.271  41.540  1.00  0.00    -0.237 OA
ATOM     74  O   UNL A   1      36.685  33.069  40.007  1.00  0.00    -0.237 OA
ATOM     75  O   UNL A   1      38.630  31.907  40.992  1.00  0.00    -0.744 OA
ENDBRANCH  68  72
ENDBRANCH  51  65
BRANCH  52  76
ATOM     76  C   UNL A   1      41.068  27.475  28.947  1.00  0.00     0.023 A 
ATOM     77  C   UNL A   1      42.075  27.674  27.984  1.00  0.00     0.031 A 
ATOM     78  C   UNL A   1      40.082  26.512  28.682  1.00  0.00     0.131 A 
ATOM     79  C   UNL A   1      42.021  26.989  26.765  1.00  0.00     0.055 A 
ATOM     80  C   UNL A   1      40.074  25.775  27.496  1.00  0.00     0.041 A 
ATOM     81  F   UNL A   1      39.096  26.293  29.565  1.00  0.00    -0.206 F 
ATOM     82  C   UNL A   1      41.034  26.030  26.521  1.00  0.00     0.022 A 
BRANCH  79  83
ATOM     83  S   UNL A   1      43.124  27.445  25.398  1.00  0.00     0.124 S 
ATOM     84  O   UNL A   1      43.494  26.141  24.860  1.00  0.00    -0.237 OA
ATOM     85  O   UNL A   1      42.241  28.248  24.555  1.00  0.00    -0.237 OA
ATOM     86  O   UNL A   1      44.195  28.187  26.053  1.00  0.00    -0.744 OA
ENDBRANCH  79  83
ENDBRANCH  52  76
BRANCH  64  87
ATOM     87  C   UNL A   1      44.554  28.097  35.023  1.00  0.00     0.023 A 
ATOM     88  C   UNL A   1      44.427  26.889  35.735  1.00  0.00     0.031 A 
ATOM     89  C   UNL A   1      45.810  28.728  34.994  1.00  0.00     0.131 A 
ATOM     90  C   UNL A   1      45.530  26.371  36.425  1.00  0.00     0.055 A 
ATOM     91  C   UNL A   1      46.915  28.185  35.649  1.00  0.00     0.041 A 
ATOM     92  F   UNL A   1      45.975  29.884  34.332  1.00  0.00    -0.206 F 
ATOM     93  C   UNL A   1      46.775  27.009  36.381  1.00  0.00     0.022 A 
BRANCH  90  94
ATOM     94  S   UNL A   1      45.373  24.895  37.468  1.00  0.00     0.124 S 
ATOM     95  O   UNL A   1      46.737  24.371  37.456  1.00  0.00    -0.237 OA
ATOM     96  O   UNL A   1      44.935  25.463  38.739  1.00  0.00    -0.237 OA
ATOM     97  O   UNL A   1      44.386  24.076  36.772  1.00  0.00    -0.744 OA
ENDBRANCH  90  94
ENDBRANCH  64  87
ENDBRANCH  38  39
ENDBRANCH  30  33
ENDBRANCH  28  29
ENDBRANCH  27  28
ENDBRANCH   1  27
TORSDOF 18
ENDMDL
