MODEL 1
REMARK VINA RESULT:     -11.6      0.000      0.000
REMARK SMILES C[C@H](CNC(=O)Cn1cccc1C(=O)NCCCCNC(=O)c1ccc(-c2c3nc(c(-c4cc(S(=O)(=O)[O-])ccc4F)c4ccc([nH]4)c(-c4cc(S(=O)(=O)[O-])ccc4F)c4nc(c(-c5cc(S(=O)(=O)[O-])ccc5F)c5ccc2[nH]5)C=C4)C=C3)cc1)[NH+](C)C
REMARK SMILES IDX 16 1 15 2 13 3 14 4 12 6 8 7 9 8 10 9 11 10 7 11 5 12 4 13
REMARK SMILES IDX 6 15 3 16 2 17 1 18 86 19 87 20 88 21 17 23 18 24 19 25
REMARK SMILES IDX 20 26 21 27 22 29 23 30 24 31 85 32 25 33 84 34 26 35 27 36
REMARK SMILES IDX 28 37 78 38 29 39 83 40 77 41 79 42 30 43 82 44 76 45 75 46
REMARK SMILES IDX 31 48 63 49 43 50 62 51 44 52 47 53 61 54 80 55 45 56 46 57
REMARK SMILES IDX 60 59 81 60 48 61 32 62 33 63 41 64 34 65 40 66 42 67 39 68
REMARK SMILES IDX 35 69 36 70 37 71 38 72 64 73 65 74 73 75 66 76 72 77 74 78
REMARK SMILES IDX 71 79 67 80 68 81 69 82 70 83 49 84 50 85 58 86 51 87 57 88
REMARK SMILES IDX 59 89 56 90 52 91 53 92 54 93 55 94
REMARK H PARENT 15 5 4 14 86 22 20 28 79 47 47 58
REMARK Flexibility Score: inf
ROOT
ATOM      1  C   UNL A   1      32.352  30.428  25.931  1.00  0.00     0.116 C 
ENDROOT
BRANCH   1   2
ATOM      2  N   UNL A   1      31.339  29.988  25.001  1.00  0.00    -0.351 N 
ATOM      3  C   UNL A   1      31.150  29.019  24.064  1.00  0.00     0.267 C 
ATOM      4  O   UNL A   1      30.020  29.106  23.561  1.00  0.00    -0.268 OA
ATOM      5  H   UNL A   1      30.543  30.564  25.065  1.00  0.00     0.163 HD
BRANCH   3   6
ATOM      6  C   UNL A   1      32.056  27.965  23.597  1.00  0.00     0.107 A 
ATOM      7  N   UNL A   1      32.374  26.654  23.939  1.00  0.00    -0.334 N 
ATOM      8  C   UNL A   1      33.380  26.180  23.105  1.00  0.00     0.087 A 
ATOM      9  C   UNL A   1      33.767  27.172  22.252  1.00  0.00     0.020 A 
ATOM     10  C   UNL A   1      32.947  28.267  22.549  1.00  0.00     0.033 A 
BRANCH   7  11
ATOM     11  C   UNL A   1      31.805  25.723  24.900  1.00  0.00     0.222 C 
BRANCH  11  12
ATOM     12  C   UNL A   1      30.676  24.826  24.472  1.00  0.00     0.240 C 
ATOM     13  N   UNL A   1      30.459  23.577  24.953  1.00  0.00    -0.349 N 
ATOM     14  H   UNL A   1      29.516  23.297  24.992  1.00  0.00     0.163 HD
ATOM     15  O   UNL A   1      29.895  25.224  23.599  1.00  0.00    -0.273 OA
BRANCH  13  16
ATOM     16  C   UNL A   1      31.420  22.594  25.418  1.00  0.00     0.180 C 
BRANCH  16  17
ATOM     17  C   UNL A   1      32.178  21.778  24.329  1.00  0.00     0.199 C 
ATOM     18  C   UNL A   1      33.520  22.382  23.893  1.00  0.00     0.077 C 
BRANCH  17  19
ATOM     19  N   UNL A   1      32.266  20.354  24.749  1.00  0.00    -0.336 N 
ATOM     20  C   UNL A   1      32.441  19.458  23.603  1.00  0.00     0.332 C 
ATOM     21  C   UNL A   1      33.305  20.092  25.747  1.00  0.00     0.332 C 
ATOM     22  H   UNL A   1      31.369  20.158  25.194  1.00  0.00     0.347 HD
ENDBRANCH  17  19
ENDBRANCH  16  17
ENDBRANCH  13  16
ENDBRANCH  11  12
ENDBRANCH   7  11
ENDBRANCH   3   6
ENDBRANCH   1   2
BRANCH   1  23
ATOM     23  C   UNL A   1      32.369  29.548  27.188  1.00  0.00     0.023 C 
BRANCH  23  24
ATOM     24  C   UNL A   1      33.602  28.655  27.361  1.00  0.00     0.023 C 
BRANCH  24  25
ATOM     25  C   UNL A   1      34.890  29.256  26.797  1.00  0.00     0.116 C 
BRANCH  25  26
ATOM     26  N   UNL A   1      35.228  30.522  27.429  1.00  0.00    -0.352 N 
ATOM     27  C   UNL A   1      36.219  30.787  28.345  1.00  0.00     0.251 C 
ATOM     28  H   UNL A   1      34.675  31.291  27.165  1.00  0.00     0.163 HD
ATOM     29  O   UNL A   1      36.157  31.797  29.032  1.00  0.00    -0.269 OA
BRANCH  27  30
ATOM     30  C   UNL A   1      37.343  29.843  28.523  1.00  0.00     0.039 A 
ATOM     31  C   UNL A   1      38.404  29.900  27.616  1.00  0.00     0.014 A 
ATOM     32  C   UNL A   1      37.329  28.878  29.538  1.00  0.00     0.014 A 
ATOM     33  C   UNL A   1      39.492  29.047  27.777  1.00  0.00     0.010 A 
ATOM     34  C   UNL A   1      38.422  28.027  29.708  1.00  0.00     0.010 A 
ATOM     35  C   UNL A   1      39.518  28.133  28.845  1.00  0.00    -0.014 A 
BRANCH  35  36
ATOM     36  C   UNL A   1      40.829  27.521  29.194  1.00  0.00     0.031 A 
ATOM     37  C   UNL A   1      41.150  26.380  28.178  1.00  0.00     0.074 A 
ATOM     38  C   UNL A   1      41.481  27.977  30.318  1.00  0.00     0.049 A 
ATOM     39  N   UNL A   1      41.707  25.222  28.360  1.00  0.00    -0.248 NA
ATOM     40  C   UNL A   1      40.662  26.493  26.768  1.00  0.00     0.031 C 
ATOM     41  C   UNL A   1      41.063  29.143  31.137  1.00  0.00     0.029 A 
ATOM     42  N   UNL A   1      42.616  27.582  31.009  1.00  0.00    -0.354 N 
ATOM     43  C   UNL A   1      41.875  24.609  27.088  1.00  0.00     0.074 A 
ATOM     44  C   UNL A   1      41.064  25.360  26.184  1.00  0.00     0.031 C 
ATOM     45  C   UNL A   1      41.854  29.296  32.230  1.00  0.00     0.029 A 
ATOM     46  C   UNL A   1      42.877  28.266  32.246  1.00  0.00     0.049 A 
ATOM     47  H   UNL A   1      43.209  26.872  30.671  1.00  0.00     0.167 HD
ATOM     48  C   UNL A   1      42.815  23.640  26.846  1.00  0.00     0.034 A 
ATOM     49  C   UNL A   1      43.817  27.985  33.218  1.00  0.00     0.034 A 
ATOM     50  C   UNL A   1      43.528  23.391  28.053  1.00  0.00     0.049 A 
ATOM     51  C   UNL A   1      44.633  26.934  32.594  1.00  0.00     0.074 A 
ATOM     52  C   UNL A   1      43.165  22.843  29.251  1.00  0.00     0.029 A 
ATOM     53  N   UNL A   1      44.708  24.086  28.206  1.00  0.00    -0.354 N 
ATOM     54  N   UNL A   1      45.530  27.131  31.677  1.00  0.00    -0.248 NA
ATOM     55  C   UNL A   1      44.382  25.538  32.984  1.00  0.00     0.031 C 
ATOM     56  C   UNL A   1      43.801  23.699  30.168  1.00  0.00     0.029 A 
ATOM     57  C   UNL A   1      44.745  24.500  29.506  1.00  0.00     0.049 A 
ATOM     58  H   UNL A   1      45.389  24.252  27.515  1.00  0.00     0.167 HD
ATOM     59  C   UNL A   1      45.703  25.868  31.174  1.00  0.00     0.074 A 
ATOM     60  C   UNL A   1      45.293  24.947  32.215  1.00  0.00     0.031 C 
ATOM     61  C   UNL A   1      45.544  25.657  29.843  1.00  0.00     0.034 A 
BRANCH  48  62
ATOM     62  C   UNL A   1      43.442  23.044  25.600  1.00  0.00     0.023 A 
ATOM     63  C   UNL A   1      43.428  21.622  25.526  1.00  0.00     0.031 A 
ATOM     64  C   UNL A   1      44.314  23.693  24.722  1.00  0.00     0.131 A 
ATOM     65  C   UNL A   1      44.381  20.911  24.788  1.00  0.00     0.055 A 
ATOM     66  C   UNL A   1      45.209  22.974  23.907  1.00  0.00     0.041 A 
ATOM     67  F   UNL A   1      44.397  25.027  24.671  1.00  0.00    -0.206 F 
ATOM     68  C   UNL A   1      45.282  21.582  23.975  1.00  0.00     0.022 A 
BRANCH  65  69
ATOM     69  S   UNL A   1      44.543  19.126  25.100  1.00  0.00     0.124 S 
ATOM     70  O   UNL A   1      44.646  18.591  23.746  1.00  0.00    -0.237 OA
ATOM     71  O   UNL A   1      45.758  19.064  25.905  1.00  0.00    -0.237 OA
ATOM     72  O   UNL A   1      43.310  18.795  25.812  1.00  0.00    -0.744 OA
ENDBRANCH  65  69
ENDBRANCH  48  62
BRANCH  49  73
ATOM     73  C   UNL A   1      44.250  28.329  34.662  1.00  0.00     0.023 A 
ATOM     74  C   UNL A   1      44.321  27.482  35.785  1.00  0.00     0.031 A 
ATOM     75  C   UNL A   1      44.674  29.678  34.944  1.00  0.00     0.131 A 
ATOM     76  C   UNL A   1      44.857  27.970  37.029  1.00  0.00     0.055 A 
ATOM     77  C   UNL A   1      45.288  30.115  36.116  1.00  0.00     0.041 A 
ATOM     78  F   UNL A   1      44.494  30.690  34.088  1.00  0.00    -0.206 F 
ATOM     79  C   UNL A   1      45.396  29.252  37.170  1.00  0.00     0.022 A 
BRANCH  76  80
ATOM     80  S   UNL A   1      44.869  26.965  38.550  1.00  0.00     0.124 S 
ATOM     81  O   UNL A   1      43.522  26.402  38.552  1.00  0.00    -0.237 OA
ATOM     82  O   UNL A   1      45.960  26.028  38.315  1.00  0.00    -0.237 OA
ATOM     83  O   UNL A   1      45.125  27.949  39.605  1.00  0.00    -0.744 OA
ENDBRANCH  76  80
ENDBRANCH  49  73
BRANCH  61  84
ATOM     84  C   UNL A   1      45.856  26.850  28.947  1.00  0.00     0.023 A 
ATOM     85  C   UNL A   1      44.813  27.664  28.468  1.00  0.00     0.031 A 
ATOM     86  C   UNL A   1      47.143  27.160  28.471  1.00  0.00     0.131 A 
ATOM     87  C   UNL A   1      45.064  28.709  27.555  1.00  0.00     0.055 A 
ATOM     88  C   UNL A   1      47.399  28.200  27.566  1.00  0.00     0.041 A 
ATOM     89  F   UNL A   1      48.202  26.449  28.853  1.00  0.00    -0.206 F 
ATOM     90  C   UNL A   1      46.354  28.983  27.101  1.00  0.00     0.022 A 
BRANCH  87  91
ATOM     91  S   UNL A   1      43.684  29.740  26.984  1.00  0.00     0.124 S 
ATOM     92  O   UNL A   1      42.990  28.859  26.051  1.00  0.00    -0.237 OA
ATOM     93  O   UNL A   1      42.979  30.041  28.226  1.00  0.00    -0.237 OA
ATOM     94  O   UNL A   1      44.348  30.889  26.367  1.00  0.00    -0.744 OA
ENDBRANCH  87  91
ENDBRANCH  61  84
ENDBRANCH  35  36
ENDBRANCH  27  30
ENDBRANCH  25  26
ENDBRANCH  24  25
ENDBRANCH  23  24
ENDBRANCH   1  23
TORSDOF 19
ENDMDL
MODEL 2
REMARK VINA RESULT:     -11.2      2.931      8.337
REMARK SMILES C[C@H](CNC(=O)Cn1cccc1C(=O)NCCCCNC(=O)c1ccc(-c2c3nc(c(-c4cc(S(=O)(=O)[O-])ccc4F)c4ccc([nH]4)c(-c4cc(S(=O)(=O)[O-])ccc4F)c4nc(c(-c5cc(S(=O)(=O)[O-])ccc5F)c5ccc2[nH]5)C=C4)C=C3)cc1)[NH+](C)C
REMARK SMILES IDX 16 1 15 2 13 3 14 4 12 6 8 7 9 8 10 9 11 10 7 11 5 12 4 13
REMARK SMILES IDX 6 15 3 16 2 17 1 18 86 19 87 20 88 21 17 23 18 24 19 25
REMARK SMILES IDX 20 26 21 27 22 29 23 30 24 31 85 32 25 33 84 34 26 35 27 36
REMARK SMILES IDX 28 37 78 38 29 39 83 40 77 41 79 42 30 43 82 44 76 45 75 46
REMARK SMILES IDX 31 48 63 49 43 50 62 51 44 52 47 53 61 54 80 55 45 56 46 57
REMARK SMILES IDX 60 59 81 60 48 61 32 62 33 63 41 64 34 65 40 66 42 67 39 68
REMARK SMILES IDX 35 69 36 70 37 71 38 72 64 73 65 74 73 75 66 76 72 77 74 78
REMARK SMILES IDX 71 79 67 80 68 81 69 82 70 83 49 84 50 85 58 86 51 87 57 88
REMARK SMILES IDX 59 89 56 90 52 91 53 92 54 93 55 94
REMARK H PARENT 15 5 4 14 86 22 20 28 79 47 47 58
REMARK Flexibility Score: inf
ROOT
ATOM      1  C   UNL A   1      31.705  28.217  27.639  1.00  0.00     0.116 C 
ENDROOT
BRANCH   1   2
ATOM      2  N   UNL A   1      31.050  27.012  27.186  1.00  0.00    -0.351 N 
ATOM      3  C   UNL A   1      31.262  25.990  26.312  1.00  0.00     0.267 C 
ATOM      4  O   UNL A   1      30.329  25.174  26.354  1.00  0.00    -0.268 OA
ATOM      5  H   UNL A   1      30.191  26.893  27.651  1.00  0.00     0.163 HD
BRANCH   3   6
ATOM      6  C   UNL A   1      32.370  25.754  25.381  1.00  0.00     0.107 A 
ATOM      7  N   UNL A   1      32.840  26.284  24.183  1.00  0.00    -0.334 N 
ATOM      8  C   UNL A   1      33.962  25.578  23.763  1.00  0.00     0.087 A 
ATOM      9  C   UNL A   1      34.210  24.559  24.636  1.00  0.00     0.020 A 
ATOM     10  C   UNL A   1      33.236  24.672  25.636  1.00  0.00     0.033 A 
BRANCH   7  11
ATOM     11  C   UNL A   1      32.437  27.435  23.393  1.00  0.00     0.222 C 
BRANCH  11  12
ATOM     12  C   UNL A   1      31.458  27.247  22.267  1.00  0.00     0.240 C 
ATOM     13  N   UNL A   1      30.427  28.082  21.994  1.00  0.00    -0.349 N 
ATOM     14  H   UNL A   1      30.179  28.152  21.043  1.00  0.00     0.163 HD
ATOM     15  O   UNL A   1      31.564  26.248  21.544  1.00  0.00    -0.273 OA
BRANCH  13  16
ATOM     16  C   UNL A   1      29.635  28.890  22.903  1.00  0.00     0.180 C 
BRANCH  16  17
ATOM     17  C   UNL A   1      28.143  29.127  22.521  1.00  0.00     0.199 C 
ATOM     18  C   UNL A   1      27.128  28.434  23.440  1.00  0.00     0.077 C 
BRANCH  17  19
ATOM     19  N   UNL A   1      27.901  30.584  22.346  1.00  0.00    -0.336 N 
ATOM     20  C   UNL A   1      27.692  31.258  23.630  1.00  0.00     0.332 C 
ATOM     21  C   UNL A   1      28.947  31.273  21.588  1.00  0.00     0.332 C 
ATOM     22  H   UNL A   1      27.046  30.640  21.794  1.00  0.00     0.347 HD
ENDBRANCH  17  19
ENDBRANCH  16  17
ENDBRANCH  13  16
ENDBRANCH  11  12
ENDBRANCH   7  11
ENDBRANCH   3   6
ENDBRANCH   1   2
BRANCH   1  23
ATOM     23  C   UNL A   1      31.966  29.176  26.470  1.00  0.00     0.023 C 
BRANCH  23  24
ATOM     24  C   UNL A   1      32.584  30.528  26.842  1.00  0.00     0.023 C 
BRANCH  24  25
ATOM     25  C   UNL A   1      34.002  30.430  27.407  1.00  0.00     0.116 C 
BRANCH  25  26
ATOM     26  N   UNL A   1      34.241  31.400  28.463  1.00  0.00    -0.352 N 
ATOM     27  C   UNL A   1      35.203  31.384  29.446  1.00  0.00     0.251 C 
ATOM     28  H   UNL A   1      33.632  32.173  28.477  1.00  0.00     0.163 HD
ATOM     29  O   UNL A   1      35.061  32.069  30.447  1.00  0.00    -0.269 OA
BRANCH  27  30
ATOM     30  C   UNL A   1      36.395  30.519  29.307  1.00  0.00     0.039 A 
ATOM     31  C   UNL A   1      37.141  30.606  28.129  1.00  0.00     0.014 A 
ATOM     32  C   UNL A   1      36.743  29.596  30.301  1.00  0.00     0.014 A 
ATOM     33  C   UNL A   1      38.287  29.829  27.983  1.00  0.00     0.010 A 
ATOM     34  C   UNL A   1      37.897  28.822  30.162  1.00  0.00     0.010 A 
ATOM     35  C   UNL A   1      38.686  28.962  29.015  1.00  0.00    -0.014 A 
BRANCH  35  36
ATOM     36  C   UNL A   1      40.081  28.447  28.979  1.00  0.00     0.031 A 
ATOM     37  C   UNL A   1      41.072  29.632  29.214  1.00  0.00     0.074 A 
ATOM     38  C   UNL A   1      40.276  27.113  28.701  1.00  0.00     0.049 A 
ATOM     39  N   UNL A   1      42.227  29.882  28.679  1.00  0.00    -0.248 NA
ATOM     40  C   UNL A   1      40.655  30.777  30.082  1.00  0.00     0.031 C 
ATOM     41  C   UNL A   1      39.200  26.097  28.581  1.00  0.00     0.029 A 
ATOM     42  N   UNL A   1      41.391  26.323  28.466  1.00  0.00    -0.354 N 
ATOM     43  C   UNL A   1      42.774  31.025  29.323  1.00  0.00     0.074 A 
ATOM     44  C   UNL A   1      41.693  31.618  30.044  1.00  0.00     0.031 C 
ATOM     45  C   UNL A   1      39.694  24.886  28.216  1.00  0.00     0.029 A 
ATOM     46  C   UNL A   1      41.135  24.966  28.068  1.00  0.00     0.049 A 
ATOM     47  H   UNL A   1      42.306  26.672  28.568  1.00  0.00     0.167 HD
ATOM     48  C   UNL A   1      44.119  31.290  29.359  1.00  0.00     0.034 A 
ATOM     49  C   UNL A   1      42.020  24.008  27.613  1.00  0.00     0.034 A 
ATOM     50  C   UNL A   1      44.801  30.256  28.657  1.00  0.00     0.049 A 
ATOM     51  C   UNL A   1      43.330  24.640  27.824  1.00  0.00     0.074 A 
ATOM     52  C   UNL A   1      44.832  29.891  27.339  1.00  0.00     0.029 A 
ATOM     53  N   UNL A   1      45.280  29.221  29.430  1.00  0.00    -0.354 N 
ATOM     54  N   UNL A   1      43.927  24.755  28.971  1.00  0.00    -0.248 NA
ATOM     55  C   UNL A   1      44.000  25.251  26.666  1.00  0.00     0.031 C 
ATOM     56  C   UNL A   1      44.769  28.489  27.425  1.00  0.00     0.029 A 
ATOM     57  C   UNL A   1      45.017  28.073  28.742  1.00  0.00     0.049 A 
ATOM     58  H   UNL A   1      45.723  29.296  30.306  1.00  0.00     0.167 HD
ATOM     59  C   UNL A   1      44.865  25.718  28.706  1.00  0.00     0.074 A 
ATOM     60  C   UNL A   1      45.098  25.688  27.277  1.00  0.00     0.031 C 
ATOM     61  C   UNL A   1      44.906  26.833  29.478  1.00  0.00     0.034 A 
BRANCH  48  62
ATOM     62  C   UNL A   1      45.011  32.194  30.188  1.00  0.00     0.023 A 
ATOM     63  C   UNL A   1      45.857  33.068  29.448  1.00  0.00     0.031 A 
ATOM     64  C   UNL A   1      45.340  32.019  31.535  1.00  0.00     0.131 A 
ATOM     65  C   UNL A   1      47.065  33.544  29.971  1.00  0.00     0.055 A 
ATOM     66  C   UNL A   1      46.508  32.578  32.086  1.00  0.00     0.041 A 
ATOM     67  F   UNL A   1      44.605  31.249  32.345  1.00  0.00    -0.206 F 
ATOM     68  C   UNL A   1      47.402  33.299  31.293  1.00  0.00     0.022 A 
BRANCH  65  69
ATOM     69  S   UNL A   1      48.259  34.286  28.816  1.00  0.00     0.124 S 
ATOM     70  O   UNL A   1      48.924  35.272  29.660  1.00  0.00    -0.237 OA
ATOM     71  O   UNL A   1      49.064  33.132  28.425  1.00  0.00    -0.237 OA
ATOM     72  O   UNL A   1      47.411  34.835  27.760  1.00  0.00    -0.744 OA
ENDBRANCH  65  69
ENDBRANCH  48  62
BRANCH  49  73
ATOM     73  C   UNL A   1      42.106  22.613  26.950  1.00  0.00     0.023 A 
ATOM     74  C   UNL A   1      43.233  21.964  26.409  1.00  0.00     0.031 A 
ATOM     75  C   UNL A   1      40.906  21.817  26.876  1.00  0.00     0.131 A 
ATOM     76  C   UNL A   1      43.130  20.610  25.930  1.00  0.00     0.055 A 
ATOM     77  C   UNL A   1      40.835  20.475  26.510  1.00  0.00     0.041 A 
ATOM     78  F   UNL A   1      39.691  22.310  27.139  1.00  0.00    -0.206 F 
ATOM     79  C   UNL A   1      41.960  19.854  26.044  1.00  0.00     0.022 A 
BRANCH  76  80
ATOM     80  S   UNL A   1      44.516  19.754  25.111  1.00  0.00     0.124 S 
ATOM     81  O   UNL A   1      45.668  20.500  25.607  1.00  0.00    -0.237 OA
ATOM     82  O   UNL A   1      44.381  18.384  25.587  1.00  0.00    -0.237 OA
ATOM     83  O   UNL A   1      44.234  19.937  23.685  1.00  0.00    -0.744 OA
ENDBRANCH  76  80
ENDBRANCH  49  73
BRANCH  61  84
ATOM     84  C   UNL A   1      44.423  26.657  30.913  1.00  0.00     0.023 A 
ATOM     85  C   UNL A   1      43.329  27.407  31.385  1.00  0.00     0.031 A 
ATOM     86  C   UNL A   1      45.064  25.843  31.864  1.00  0.00     0.131 A 
ATOM     87  C   UNL A   1      42.928  27.340  32.735  1.00  0.00     0.055 A 
ATOM     88  C   UNL A   1      44.667  25.771  33.207  1.00  0.00     0.041 A 
ATOM     89  F   UNL A   1      46.115  25.098  31.528  1.00  0.00    -0.206 F 
ATOM     90  C   UNL A   1      43.592  26.523  33.651  1.00  0.00     0.022 A 
BRANCH  87  91
ATOM     91  S   UNL A   1      41.498  28.312  33.286  1.00  0.00     0.124 S 
ATOM     92  O   UNL A   1      42.012  29.678  33.263  1.00  0.00    -0.237 OA
ATOM     93  O   UNL A   1      40.490  27.990  32.281  1.00  0.00    -0.237 OA
ATOM     94  O   UNL A   1      41.218  27.783  34.622  1.00  0.00    -0.744 OA
ENDBRANCH  87  91
ENDBRANCH  61  84
ENDBRANCH  35  36
ENDBRANCH  27  30
ENDBRANCH  25  26
ENDBRANCH  24  25
ENDBRANCH  23  24
ENDBRANCH   1  23
TORSDOF 19
ENDMDL
MODEL 3
REMARK VINA RESULT:     -11.1      2.834      7.880
REMARK SMILES C[C@H](CNC(=O)Cn1cccc1C(=O)NCCCCNC(=O)c1ccc(-c2c3nc(c(-c4cc(S(=O)(=O)[O-])ccc4F)c4ccc([nH]4)c(-c4cc(S(=O)(=O)[O-])ccc4F)c4nc(c(-c5cc(S(=O)(=O)[O-])ccc5F)c5ccc2[nH]5)C=C4)C=C3)cc1)[NH+](C)C
REMARK SMILES IDX 16 1 15 2 13 3 14 4 12 6 8 7 9 8 10 9 11 10 7 11 5 12 4 13
REMARK SMILES IDX 6 15 3 16 2 17 1 18 86 19 87 20 88 21 17 23 18 24 19 25
REMARK SMILES IDX 20 26 21 27 22 29 23 30 24 31 85 32 25 33 84 34 26 35 27 36
REMARK SMILES IDX 28 37 78 38 29 39 83 40 77 41 79 42 30 43 82 44 76 45 75 46
REMARK SMILES IDX 31 48 63 49 43 50 62 51 44 52 47 53 61 54 80 55 45 56 46 57
REMARK SMILES IDX 60 59 81 60 48 61 32 62 33 63 41 64 34 65 40 66 42 67 39 68
REMARK SMILES IDX 35 69 36 70 37 71 38 72 64 73 65 74 73 75 66 76 72 77 74 78
REMARK SMILES IDX 71 79 67 80 68 81 69 82 70 83 49 84 50 85 58 86 51 87 57 88
REMARK SMILES IDX 59 89 56 90 52 91 53 92 54 93 55 94
REMARK H PARENT 15 5 4 14 86 22 20 28 79 47 47 58
REMARK Flexibility Score: inf
ROOT
ATOM      1  C   UNL A   1      33.721  26.859  26.197  1.00  0.00     0.116 C 
ENDROOT
BRANCH   1   2
ATOM      2  N   UNL A   1      32.349  26.447  26.377  1.00  0.00    -0.351 N 
ATOM      3  C   UNL A   1      31.173  26.454  25.692  1.00  0.00     0.267 C 
ATOM      4  O   UNL A   1      30.273  25.919  26.357  1.00  0.00    -0.268 OA
ATOM      5  H   UNL A   1      32.228  26.036  27.263  1.00  0.00     0.163 HD
BRANCH   3   6
ATOM      6  C   UNL A   1      30.853  26.987  24.364  1.00  0.00     0.107 A 
ATOM      7  N   UNL A   1      31.081  26.646  23.035  1.00  0.00    -0.334 N 
ATOM      8  C   UNL A   1      30.530  27.611  22.199  1.00  0.00     0.087 A 
ATOM      9  C   UNL A   1      29.988  28.610  22.955  1.00  0.00     0.020 A 
ATOM     10  C   UNL A   1      30.180  28.222  24.286  1.00  0.00     0.033 A 
BRANCH   7  11
ATOM     11  C   UNL A   1      31.678  25.478  22.408  1.00  0.00     0.222 C 
BRANCH  11  12
ATOM     12  C   UNL A   1      33.176  25.384  22.310  1.00  0.00     0.240 C 
ATOM     13  N   UNL A   1      33.924  24.396  22.858  1.00  0.00    -0.349 N 
ATOM     14  H   UNL A   1      34.744  24.163  22.366  1.00  0.00     0.163 HD
ATOM     15  O   UNL A   1      33.793  26.277  21.717  1.00  0.00    -0.273 OA
BRANCH  13  16
ATOM     16  C   UNL A   1      33.687  23.630  24.068  1.00  0.00     0.180 C 
BRANCH  16  17
ATOM     17  C   UNL A   1      34.936  23.026  24.777  1.00  0.00     0.199 C 
ATOM     18  C   UNL A   1      35.766  24.034  25.582  1.00  0.00     0.077 C 
BRANCH  17  19
ATOM     19  N   UNL A   1      34.533  21.822  25.551  1.00  0.00    -0.336 N 
ATOM     20  C   UNL A   1      34.002  22.176  26.870  1.00  0.00     0.332 C 
ATOM     21  C   UNL A   1      33.583  20.955  24.850  1.00  0.00     0.332 C 
ATOM     22  H   UNL A   1      35.394  21.288  25.668  1.00  0.00     0.347 HD
ENDBRANCH  17  19
ENDBRANCH  16  17
ENDBRANCH  13  16
ENDBRANCH  11  12
ENDBRANCH   7  11
ENDBRANCH   3   6
ENDBRANCH   1   2
BRANCH   1  23
ATOM     23  C   UNL A   1      33.808  28.144  25.364  1.00  0.00     0.023 C 
BRANCH  23  24
ATOM     24  C   UNL A   1      33.450  29.441  26.097  1.00  0.00     0.023 C 
BRANCH  24  25
ATOM     25  C   UNL A   1      33.791  29.427  27.588  1.00  0.00     0.116 C 
BRANCH  25  26
ATOM     26  N   UNL A   1      34.141  30.749  28.084  1.00  0.00    -0.352 N 
ATOM     27  C   UNL A   1      35.263  31.137  28.779  1.00  0.00     0.251 C 
ATOM     28  H   UNL A   1      33.489  31.461  27.897  1.00  0.00     0.163 HD
ATOM     29  O   UNL A   1      35.252  32.179  29.417  1.00  0.00    -0.269 OA
BRANCH  27  30
ATOM     30  C   UNL A   1      36.471  30.285  28.780  1.00  0.00     0.039 A 
ATOM     31  C   UNL A   1      37.226  30.207  27.606  1.00  0.00     0.014 A 
ATOM     32  C   UNL A   1      36.829  29.531  29.904  1.00  0.00     0.014 A 
ATOM     33  C   UNL A   1      38.387  29.440  27.586  1.00  0.00     0.010 A 
ATOM     34  C   UNL A   1      37.998  28.768  29.891  1.00  0.00     0.010 A 
ATOM     35  C   UNL A   1      38.794  28.748  28.740  1.00  0.00    -0.014 A 
BRANCH  35  36
ATOM     36  C   UNL A   1      40.199  28.261  28.791  1.00  0.00     0.031 A 
ATOM     37  C   UNL A   1      41.152  29.471  29.051  1.00  0.00     0.074 A 
ATOM     38  C   UNL A   1      40.435  26.926  28.553  1.00  0.00     0.049 A 
ATOM     39  N   UNL A   1      42.330  29.734  28.572  1.00  0.00    -0.248 NA
ATOM     40  C   UNL A   1      40.667  30.626  29.869  1.00  0.00     0.031 C 
ATOM     41  C   UNL A   1      39.387  25.885  28.399  1.00  0.00     0.029 A 
ATOM     42  N   UNL A   1      41.576  26.154  28.396  1.00  0.00    -0.354 N 
ATOM     43  C   UNL A   1      42.818  30.902  29.219  1.00  0.00     0.074 A 
ATOM     44  C   UNL A   1      41.689  31.488  29.868  1.00  0.00     0.031 C 
ATOM     45  C   UNL A   1      39.923  24.677  28.088  1.00  0.00     0.029 A 
ATOM     46  C   UNL A   1      41.369  24.784  28.016  1.00  0.00     0.049 A 
ATOM     47  H   UNL A   1      42.477  26.525  28.538  1.00  0.00     0.167 HD
ATOM     48  C   UNL A   1      44.154  31.196  29.321  1.00  0.00     0.034 A 
ATOM     49  C   UNL A   1      42.296  23.835  27.630  1.00  0.00     0.034 A 
ATOM     50  C   UNL A   1      44.893  30.161  28.679  1.00  0.00     0.049 A 
ATOM     51  C   UNL A   1      43.579  24.499  27.897  1.00  0.00     0.074 A 
ATOM     52  C   UNL A   1      45.002  29.768  27.374  1.00  0.00     0.029 A 
ATOM     53  N   UNL A   1      45.349  29.154  29.500  1.00  0.00    -0.354 N 
ATOM     54  N   UNL A   1      44.111  24.651  29.071  1.00  0.00    -0.248 NA
ATOM     55  C   UNL A   1      44.298  25.098  26.763  1.00  0.00     0.031 C 
ATOM     56  C   UNL A   1      44.962  28.368  27.488  1.00  0.00     0.029 A 
ATOM     57  C   UNL A   1      45.147  27.985  28.825  1.00  0.00     0.049 A 
ATOM     58  H   UNL A   1      45.744  29.256  30.397  1.00  0.00     0.167 HD
ATOM     59  C   UNL A   1      45.044  25.627  28.835  1.00  0.00     0.074 A 
ATOM     60  C   UNL A   1      45.354  25.572  27.421  1.00  0.00     0.031 C 
ATOM     61  C   UNL A   1      45.021  26.760  29.582  1.00  0.00     0.034 A 
BRANCH  48  62
ATOM     62  C   UNL A   1      44.982  32.135  30.176  1.00  0.00     0.023 A 
ATOM     63  C   UNL A   1      45.995  32.860  29.486  1.00  0.00     0.031 A 
ATOM     64  C   UNL A   1      45.093  32.104  31.568  1.00  0.00     0.131 A 
ATOM     65  C   UNL A   1      47.147  33.320  30.136  1.00  0.00     0.055 A 
ATOM     66  C   UNL A   1      46.207  32.651  32.231  1.00  0.00     0.041 A 
ATOM     67  F   UNL A   1      44.187  31.483  32.332  1.00  0.00    -0.206 F 
ATOM     68  C   UNL A   1      47.263  33.216  31.514  1.00  0.00     0.022 A 
BRANCH  65  69
ATOM     69  S   UNL A   1      48.553  33.842  29.108  1.00  0.00     0.124 S 
ATOM     70  O   UNL A   1      48.361  33.041  27.904  1.00  0.00    -0.237 OA
ATOM     71  O   UNL A   1      48.315  35.275  28.967  1.00  0.00    -0.237 OA
ATOM     72  O   UNL A   1      49.715  33.484  29.919  1.00  0.00    -0.744 OA
ENDBRANCH  65  69
ENDBRANCH  48  62
BRANCH  49  73
ATOM     73  C   UNL A   1      42.445  22.429  27.004  1.00  0.00     0.023 A 
ATOM     74  C   UNL A   1      43.544  21.886  26.312  1.00  0.00     0.031 A 
ATOM     75  C   UNL A   1      41.351  21.499  27.146  1.00  0.00     0.131 A 
ATOM     76  C   UNL A   1      43.531  20.507  25.896  1.00  0.00     0.055 A 
ATOM     77  C   UNL A   1      41.386  20.141  26.836  1.00  0.00     0.041 A 
ATOM     78  F   UNL A   1      40.140  21.864  27.583  1.00  0.00    -0.206 F 
ATOM     79  C   UNL A   1      42.491  19.630  26.217  1.00  0.00     0.022 A 
BRANCH  76  80
ATOM     80  S   UNL A   1      44.867  19.775  24.895  1.00  0.00     0.124 S 
ATOM     81  O   UNL A   1      44.787  18.366  25.268  1.00  0.00    -0.237 OA
ATOM     82  O   UNL A   1      44.474  20.106  23.532  1.00  0.00    -0.237 OA
ATOM     83  O   UNL A   1      46.067  20.468  25.371  1.00  0.00    -0.744 OA
ENDBRANCH  76  80
ENDBRANCH  49  73
BRANCH  61  84
ATOM     84  C   UNL A   1      44.465  26.605  30.993  1.00  0.00     0.023 A 
ATOM     85  C   UNL A   1      43.330  27.338  31.388  1.00  0.00     0.031 A 
ATOM     86  C   UNL A   1      45.071  25.827  31.996  1.00  0.00     0.131 A 
ATOM     87  C   UNL A   1      42.858  27.293  32.716  1.00  0.00     0.055 A 
ATOM     88  C   UNL A   1      44.604  25.776  33.318  1.00  0.00     0.041 A 
ATOM     89  F   UNL A   1      46.156  25.101  31.735  1.00  0.00    -0.206 F 
ATOM     90  C   UNL A   1      43.490  26.513  33.685  1.00  0.00     0.022 A 
BRANCH  87  91
ATOM     91  S   UNL A   1      41.379  28.242  33.166  1.00  0.00     0.124 S 
ATOM     92  O   UNL A   1      41.876  29.614  33.197  1.00  0.00    -0.237 OA
ATOM     93  O   UNL A   1      40.455  27.920  32.083  1.00  0.00    -0.237 OA
ATOM     94  O   UNL A   1      41.004  27.694  34.470  1.00  0.00    -0.744 OA
ENDBRANCH  87  91
ENDBRANCH  61  84
ENDBRANCH  35  36
ENDBRANCH  27  30
ENDBRANCH  25  26
ENDBRANCH  24  25
ENDBRANCH  23  24
ENDBRANCH   1  23
TORSDOF 19
ENDMDL
