MODEL 1
REMARK VINA RESULT:     -14.0      0.000      0.000
REMARK SMILES Cc1ccc(-c2nc(NC(=O)[C@H]3[C@@H](C(=O)NCCCCNC(=O)c4ccc(-c5c6nc(c(-c7cc(S(=O)(=O)[O-])ccc7F)c7ccc([nH]7)c(-c7cc(S(=O)(=O)[O-])ccc7F)c7nc(c(-c8cc(S(=O)(=O)[O-])ccc8F)c8ccc5[nH]8)C=C7)C=C6)cc4)[C@@H]4CC[C@H]3O4)sc2C)cc1
REMARK SMILES IDX 18 1 17 2 16 3 14 4 15 5 13 7 12 8 90 9 87 10 89 11 91 12
REMARK SMILES IDX 88 13 10 14 9 15 11 17 8 18 6 19 7 20 93 21 92 22 94 23 5 24
REMARK SMILES IDX 1 25 2 26 3 27 96 28 4 29 95 30 19 31 20 32 21 33 22 34
REMARK SMILES IDX 23 36 24 37 25 38 86 39 26 40 85 41 27 42 28 43 29 44 79 45
REMARK SMILES IDX 30 46 84 47 78 48 80 49 31 50 83 51 77 52 76 53 32 55 64 56
REMARK SMILES IDX 44 57 63 58 45 59 48 60 62 61 81 62 46 63 47 64 61 66 82 67
REMARK SMILES IDX 49 68 33 69 34 70 42 71 35 72 41 73 43 74 40 75 36 76 37 77
REMARK SMILES IDX 38 78 39 79 65 80 66 81 74 82 67 83 73 84 75 85 72 86 68 87
REMARK SMILES IDX 69 88 70 89 71 90 50 91 51 92 59 93 52 94 58 95 60 96 57 97
REMARK SMILES IDX 53 98 54 99 55 100 56 101
REMARK H PARENT 16 6 9 16 21 35 80 54 48 65
REMARK Flexibility Score: inf
ROOT
ATOM      1  C   UNL A   1      32.536  30.341  26.616  1.00  0.00     0.023 C 
ENDROOT
BRANCH   1   2
ATOM      2  C   UNL A   1      33.270  29.013  26.434  1.00  0.00     0.116 C 
BRANCH   2   3
ATOM      3  N   UNL A   1      33.953  28.780  25.162  1.00  0.00    -0.356 N 
ATOM      4  C   UNL A   1      33.336  28.657  23.950  1.00  0.00     0.226 C 
ATOM      5  O   UNL A   1      33.680  29.400  23.029  1.00  0.00    -0.275 OA
ATOM      6  H   UNL A   1      34.934  28.705  25.181  1.00  0.00     0.163 HD
BRANCH   4   7
ATOM      7  C   UNL A   1      32.185  27.699  23.806  1.00  0.00     0.122 C 
ATOM      8  C   UNL A   1      32.323  26.215  23.449  1.00  0.00     0.123 C 
ATOM      9  C   UNL A   1      30.945  25.985  22.806  1.00  0.00     0.132 C 
ATOM     10  C   UNL A   1      31.070  28.151  22.812  1.00  0.00     0.132 C 
ATOM     11  C   UNL A   1      29.774  26.428  23.726  1.00  0.00     0.035 C 
ATOM     12  O   UNL A   1      30.985  27.058  21.846  1.00  0.00    -0.373 OA
ATOM     13  C   UNL A   1      29.711  27.940  23.468  1.00  0.00     0.035 C 
BRANCH   8  14
ATOM     14  C   UNL A   1      33.364  25.374  22.664  1.00  0.00     0.232 C 
ATOM     15  N   UNL A   1      33.968  24.176  22.829  1.00  0.00    -0.302 N 
ATOM     16  H   UNL A   1      34.564  23.978  22.071  1.00  0.00     0.172 HD
ATOM     17  O   UNL A   1      33.795  25.954  21.637  1.00  0.00    -0.274 OA
BRANCH  15  18
ATOM     18  C   UNL A   1      33.991  23.162  23.745  1.00  0.00     0.190 A 
ATOM     19  C   UNL A   1      33.888  21.100  24.613  1.00  0.00     0.086 A 
ATOM     20  N   UNL A   1      33.896  21.877  23.436  1.00  0.00    -0.220 NA
ATOM     21  C   UNL A   1      34.077  21.851  25.767  1.00  0.00     0.031 A 
ATOM     22  S   UNL A   1      34.269  23.487  25.355  1.00  0.00    -0.101 S 
ATOM     23  C   UNL A   1      34.174  21.515  27.212  1.00  0.00     0.059 C 
BRANCH  19  24
ATOM     24  C   UNL A   1      33.737  19.632  24.636  1.00  0.00     0.001 A 
ATOM     25  C   UNL A   1      33.210  15.355  25.256  1.00  0.00     0.044 C 
ATOM     26  C   UNL A   1      33.400  16.825  25.012  1.00  0.00    -0.051 A 
ATOM     27  C   UNL A   1      34.663  17.371  24.742  1.00  0.00     0.004 A 
ATOM     28  C   UNL A   1      32.300  17.682  25.028  1.00  0.00     0.004 A 
ATOM     29  C   UNL A   1      34.834  18.761  24.559  1.00  0.00     0.010 A 
ATOM     30  C   UNL A   1      32.468  19.056  24.821  1.00  0.00     0.010 A 
ENDBRANCH  19  24
ENDBRANCH  15  18
ENDBRANCH   8  14
ENDBRANCH   4   7
ENDBRANCH   2   3
ENDBRANCH   1   2
BRANCH   1  31
ATOM     31  C   UNL A   1      33.254  31.380  27.461  1.00  0.00     0.023 C 
BRANCH  31  32
ATOM     32  C   UNL A   1      34.676  30.991  27.824  1.00  0.00     0.116 C 
BRANCH  32  33
ATOM     33  N   UNL A   1      35.170  31.584  29.065  1.00  0.00    -0.352 N 
ATOM     34  C   UNL A   1      36.165  31.125  29.922  1.00  0.00     0.251 C 
ATOM     35  H   UNL A   1      34.738  32.428  29.331  1.00  0.00     0.163 HD
ATOM     36  O   UNL A   1      36.453  31.714  30.937  1.00  0.00    -0.269 OA
BRANCH  34  37
ATOM     37  C   UNL A   1      36.968  29.953  29.484  1.00  0.00     0.039 A 
ATOM     38  C   UNL A   1      37.189  28.941  30.425  1.00  0.00     0.014 A 
ATOM     39  C   UNL A   1      37.719  30.019  28.318  1.00  0.00     0.014 A 
ATOM     40  C   UNL A   1      38.342  28.168  30.325  1.00  0.00     0.010 A 
ATOM     41  C   UNL A   1      38.926  29.356  28.291  1.00  0.00     0.010 A 
ATOM     42  C   UNL A   1      39.261  28.473  29.322  1.00  0.00    -0.014 A 
BRANCH  42  43
ATOM     43  C   UNL A   1      40.620  27.960  29.298  1.00  0.00     0.031 A 
ATOM     44  C   UNL A   1      40.873  26.606  28.775  1.00  0.00     0.074 A 
ATOM     45  C   UNL A   1      41.656  28.726  29.705  1.00  0.00     0.049 A 
ATOM     46  N   UNL A   1      41.856  25.863  29.148  1.00  0.00    -0.248 NA
ATOM     47  C   UNL A   1      39.993  25.965  27.803  1.00  0.00     0.031 C 
ATOM     48  C   UNL A   1      43.079  28.452  29.535  1.00  0.00     0.029 A 
ATOM     49  N   UNL A   1      41.614  29.813  30.576  1.00  0.00    -0.354 N 
ATOM     50  C   UNL A   1      41.909  24.796  28.285  1.00  0.00     0.074 A 
ATOM     51  C   UNL A   1      40.691  24.866  27.512  1.00  0.00     0.031 C 
ATOM     52  C   UNL A   1      43.767  29.145  30.457  1.00  0.00     0.029 A 
ATOM     53  C   UNL A   1      42.801  29.779  31.336  1.00  0.00     0.049 A 
ATOM     54  H   UNL A   1      40.891  30.478  30.648  1.00  0.00     0.167 HD
ATOM     55  C   UNL A   1      43.038  24.042  28.209  1.00  0.00     0.034 A 
ATOM     56  C   UNL A   1      42.747  29.635  32.693  1.00  0.00     0.034 A 
ATOM     57  C   UNL A   1      44.072  24.505  29.130  1.00  0.00     0.049 A 
ATOM     58  C   UNL A   1      43.363  28.347  33.203  1.00  0.00     0.074 A 
ATOM     59  C   UNL A   1      45.197  25.300  28.994  1.00  0.00     0.029 A 
ATOM     60  N   UNL A   1      43.851  24.389  30.489  1.00  0.00    -0.354 N 
ATOM     61  N   UNL A   1      43.871  27.417  32.441  1.00  0.00    -0.248 NA
ATOM     62  C   UNL A   1      43.374  27.970  34.617  1.00  0.00     0.031 C 
ATOM     63  C   UNL A   1      45.624  25.688  30.296  1.00  0.00     0.029 A 
ATOM     64  C   UNL A   1      44.775  25.108  31.221  1.00  0.00     0.049 A 
ATOM     65  H   UNL A   1      43.123  23.860  30.887  1.00  0.00     0.167 HD
ATOM     66  C   UNL A   1      44.188  26.325  33.205  1.00  0.00     0.074 A 
ATOM     67  C   UNL A   1      43.868  26.723  34.564  1.00  0.00     0.031 C 
ATOM     68  C   UNL A   1      44.644  25.153  32.668  1.00  0.00     0.034 A 
BRANCH  55  69
ATOM     69  C   UNL A   1      43.285  23.072  27.089  1.00  0.00     0.023 A 
ATOM     70  C   UNL A   1      42.712  21.790  27.163  1.00  0.00     0.031 A 
ATOM     71  C   UNL A   1      44.086  23.325  25.960  1.00  0.00     0.131 A 
ATOM     72  C   UNL A   1      43.023  20.799  26.219  1.00  0.00     0.055 A 
ATOM     73  C   UNL A   1      44.447  22.322  25.052  1.00  0.00     0.041 A 
ATOM     74  F   UNL A   1      44.525  24.561  25.676  1.00  0.00    -0.206 F 
ATOM     75  C   UNL A   1      43.924  21.043  25.187  1.00  0.00     0.022 A 
BRANCH  72  76
ATOM     76  S   UNL A   1      42.211  19.187  26.362  1.00  0.00     0.124 S 
ATOM     77  O   UNL A   1      43.039  18.347  25.501  1.00  0.00    -0.237 OA
ATOM     78  O   UNL A   1      42.297  18.925  27.794  1.00  0.00    -0.237 OA
ATOM     79  O   UNL A   1      40.861  19.442  25.859  1.00  0.00    -0.744 OA
ENDBRANCH  72  76
ENDBRANCH  55  69
BRANCH  56  80
ATOM     80  C   UNL A   1      41.567  30.330  33.285  1.00  0.00     0.023 A 
ATOM     81  C   UNL A   1      41.636  31.737  33.377  1.00  0.00     0.031 A 
ATOM     82  C   UNL A   1      40.302  29.729  33.329  1.00  0.00     0.131 A 
ATOM     83  C   UNL A   1      40.465  32.505  33.327  1.00  0.00     0.055 A 
ATOM     84  C   UNL A   1      39.134  30.500  33.343  1.00  0.00     0.041 A 
ATOM     85  F   UNL A   1      40.171  28.400  33.219  1.00  0.00    -0.206 F 
ATOM     86  C   UNL A   1      39.211  31.893  33.287  1.00  0.00     0.022 A 
BRANCH  83  87
ATOM     87  S   UNL A   1      40.606  34.288  33.019  1.00  0.00     0.124 S 
ATOM     88  O   UNL A   1      40.601  34.842  34.367  1.00  0.00    -0.237 OA
ATOM     89  O   UNL A   1      41.869  34.397  32.293  1.00  0.00    -0.237 OA
ATOM     90  O   UNL A   1      39.428  34.586  32.206  1.00  0.00    -0.744 OA
ENDBRANCH  83  87
ENDBRANCH  56  80
BRANCH  68  91
ATOM     91  C   UNL A   1      44.989  23.945  33.497  1.00  0.00     0.023 A 
ATOM     92  C   UNL A   1      46.320  23.552  33.706  1.00  0.00     0.031 A 
ATOM     93  C   UNL A   1      43.994  23.101  34.039  1.00  0.00     0.131 A 
ATOM     94  C   UNL A   1      46.618  22.420  34.482  1.00  0.00     0.055 A 
ATOM     95  C   UNL A   1      44.293  21.923  34.727  1.00  0.00     0.041 A 
ATOM     96  F   UNL A   1      42.690  23.409  33.966  1.00  0.00    -0.206 F 
ATOM     97  C   UNL A   1      45.614  21.582  34.965  1.00  0.00     0.022 A 
BRANCH  94  98
ATOM     98  S   UNL A   1      48.345  22.114  34.930  1.00  0.00     0.124 S 
ATOM     99  O   UNL A   1      48.635  20.857  34.250  1.00  0.00    -0.237 OA
ATOM    100  O   UNL A   1      49.003  23.298  34.384  1.00  0.00    -0.237 OA
ATOM    101  O   UNL A   1      48.314  22.041  36.389  1.00  0.00    -0.744 OA
ENDBRANCH  94  98
ENDBRANCH  68  91
ENDBRANCH  42  43
ENDBRANCH  34  37
ENDBRANCH  32  33
ENDBRANCH  31  32
ENDBRANCH   1  31
TORSDOF 17
ENDMDL
MODEL 2
REMARK VINA RESULT:     -13.7      1.400      2.252
REMARK SMILES Cc1ccc(-c2nc(NC(=O)[C@H]3[C@@H](C(=O)NCCCCNC(=O)c4ccc(-c5c6nc(c(-c7cc(S(=O)(=O)[O-])ccc7F)c7ccc([nH]7)c(-c7cc(S(=O)(=O)[O-])ccc7F)c7nc(c(-c8cc(S(=O)(=O)[O-])ccc8F)c8ccc5[nH]8)C=C7)C=C6)cc4)[C@@H]4CC[C@H]3O4)sc2C)cc1
REMARK SMILES IDX 18 1 17 2 16 3 14 4 15 5 13 7 12 8 90 9 87 10 89 11 91 12
REMARK SMILES IDX 88 13 10 14 9 15 11 17 8 18 6 19 7 20 93 21 92 22 94 23 5 24
REMARK SMILES IDX 1 25 2 26 3 27 96 28 4 29 95 30 19 31 20 32 21 33 22 34
REMARK SMILES IDX 23 36 24 37 25 38 86 39 26 40 85 41 27 42 28 43 29 44 79 45
REMARK SMILES IDX 30 46 84 47 78 48 80 49 31 50 83 51 77 52 76 53 32 55 64 56
REMARK SMILES IDX 44 57 63 58 45 59 48 60 62 61 81 62 46 63 47 64 61 66 82 67
REMARK SMILES IDX 49 68 33 69 34 70 42 71 35 72 41 73 43 74 40 75 36 76 37 77
REMARK SMILES IDX 38 78 39 79 65 80 66 81 74 82 67 83 73 84 75 85 72 86 68 87
REMARK SMILES IDX 69 88 70 89 71 90 50 91 51 92 59 93 52 94 58 95 60 96 57 97
REMARK SMILES IDX 53 98 54 99 55 100 56 101
REMARK H PARENT 16 6 9 16 21 35 80 54 48 65
REMARK Flexibility Score: inf
ROOT
ATOM      1  C   UNL A   1      32.912  28.824  27.133  1.00  0.00     0.023 C 
ENDROOT
BRANCH   1   2
ATOM      2  C   UNL A   1      33.955  28.269  26.164  1.00  0.00     0.116 C 
BRANCH   2   3
ATOM      3  N   UNL A   1      33.873  26.853  25.811  1.00  0.00    -0.356 N 
ATOM      4  C   UNL A   1      33.273  26.357  24.688  1.00  0.00     0.226 C 
ATOM      5  O   UNL A   1      33.928  25.637  23.933  1.00  0.00    -0.275 OA
ATOM      6  H   UNL A   1      34.281  26.206  26.430  1.00  0.00     0.163 HD
BRANCH   4   7
ATOM      7  C   UNL A   1      31.873  26.791  24.352  1.00  0.00     0.122 C 
ATOM      8  C   UNL A   1      30.631  26.459  25.186  1.00  0.00     0.123 C 
ATOM      9  C   UNL A   1      29.562  26.531  24.082  1.00  0.00     0.132 C 
ATOM     10  C   UNL A   1      31.390  26.408  22.919  1.00  0.00     0.132 C 
ATOM     11  C   UNL A   1      29.602  27.872  23.299  1.00  0.00     0.035 C 
ATOM     12  O   UNL A   1      30.176  25.626  23.144  1.00  0.00    -0.373 OA
ATOM     13  C   UNL A   1      30.725  27.622  22.282  1.00  0.00     0.035 C 
BRANCH   8  14
ATOM     14  C   UNL A   1      30.242  25.310  26.155  1.00  0.00     0.232 C 
ATOM     15  N   UNL A   1      30.718  24.079  26.441  1.00  0.00    -0.302 N 
ATOM     16  H   UNL A   1      30.193  23.659  27.161  1.00  0.00     0.172 HD
ATOM     17  O   UNL A   1      29.202  25.552  26.816  1.00  0.00    -0.274 OA
BRANCH  15  18
ATOM     18  C   UNL A   1      31.717  23.247  26.019  1.00  0.00     0.190 A 
ATOM     19  C   UNL A   1      33.772  22.462  25.594  1.00  0.00     0.086 A 
ATOM     20  N   UNL A   1      33.008  23.478  26.206  1.00  0.00    -0.220 NA
ATOM     21  C   UNL A   1      32.996  21.447  25.049  1.00  0.00     0.031 A 
ATOM     22  S   UNL A   1      31.353  21.779  25.321  1.00  0.00    -0.101 S 
ATOM     23  C   UNL A   1      33.309  20.177  24.342  1.00  0.00     0.059 C 
BRANCH  19  24
ATOM     24  C   UNL A   1      35.248  22.439  25.563  1.00  0.00     0.001 A 
ATOM     25  C   UNL A   1      39.567  22.025  25.912  1.00  0.00     0.044 C 
ATOM     26  C   UNL A   1      38.080  22.191  25.769  1.00  0.00    -0.051 A 
ATOM     27  C   UNL A   1      37.431  23.377  26.140  1.00  0.00     0.004 A 
ATOM     28  C   UNL A   1      37.313  21.156  25.236  1.00  0.00     0.004 A 
ATOM     29  C   UNL A   1      36.028  23.501  26.042  1.00  0.00     0.010 A 
ATOM     30  C   UNL A   1      35.925  21.292  25.116  1.00  0.00     0.010 A 
ENDBRANCH  19  24
ENDBRANCH  15  18
ENDBRANCH   8  14
ENDBRANCH   4   7
ENDBRANCH   2   3
ENDBRANCH   1   2
BRANCH   1  31
ATOM     31  C   UNL A   1      33.117  30.267  27.566  1.00  0.00     0.023 C 
BRANCH  31  32
ATOM     32  C   UNL A   1      34.559  30.731  27.470  1.00  0.00     0.116 C 
BRANCH  32  33
ATOM     33  N   UNL A   1      35.047  31.445  28.648  1.00  0.00    -0.352 N 
ATOM     34  C   UNL A   1      36.048  31.081  29.543  1.00  0.00     0.251 C 
ATOM     35  H   UNL A   1      34.605  32.304  28.834  1.00  0.00     0.163 HD
ATOM     36  O   UNL A   1      36.329  31.766  30.498  1.00  0.00    -0.269 OA
BRANCH  34  37
ATOM     37  C   UNL A   1      36.865  29.882  29.216  1.00  0.00     0.039 A 
ATOM     38  C   UNL A   1      37.132  28.986  30.257  1.00  0.00     0.014 A 
ATOM     39  C   UNL A   1      37.585  29.832  28.030  1.00  0.00     0.014 A 
ATOM     40  C   UNL A   1      38.298  28.229  30.212  1.00  0.00     0.010 A 
ATOM     41  C   UNL A   1      38.805  29.193  28.043  1.00  0.00     0.010 A 
ATOM     42  C   UNL A   1      39.185  28.438  29.156  1.00  0.00    -0.014 A 
BRANCH  42  43
ATOM     43  C   UNL A   1      40.554  27.951  29.152  1.00  0.00     0.031 A 
ATOM     44  C   UNL A   1      40.839  26.596  28.650  1.00  0.00     0.074 A 
ATOM     45  C   UNL A   1      41.571  28.743  29.559  1.00  0.00     0.049 A 
ATOM     46  N   UNL A   1      41.832  25.876  29.042  1.00  0.00    -0.248 NA
ATOM     47  C   UNL A   1      39.981  25.925  27.678  1.00  0.00     0.031 C 
ATOM     48  C   UNL A   1      43.001  28.493  29.406  1.00  0.00     0.029 A 
ATOM     49  N   UNL A   1      41.499  29.840  30.415  1.00  0.00    -0.354 N 
ATOM     50  C   UNL A   1      41.914  24.799  28.194  1.00  0.00     0.074 A 
ATOM     51  C   UNL A   1      40.703  24.836  27.408  1.00  0.00     0.031 C 
ATOM     52  C   UNL A   1      43.666  29.212  30.325  1.00  0.00     0.029 A 
ATOM     53  C   UNL A   1      42.679  29.839  31.187  1.00  0.00     0.049 A 
ATOM     54  H   UNL A   1      40.762  30.492  30.471  1.00  0.00     0.167 HD
ATOM     55  C   UNL A   1      43.058  24.067  28.139  1.00  0.00     0.034 A 
ATOM     56  C   UNL A   1      42.615  29.711  32.545  1.00  0.00     0.034 A 
ATOM     57  C   UNL A   1      44.073  24.562  29.063  1.00  0.00     0.049 A 
ATOM     58  C   UNL A   1      43.251  28.443  33.077  1.00  0.00     0.074 A 
ATOM     59  C   UNL A   1      45.184  25.377  28.927  1.00  0.00     0.029 A 
ATOM     60  N   UNL A   1      43.841  24.460  30.421  1.00  0.00    -0.354 N 
ATOM     61  N   UNL A   1      43.784  27.513  32.333  1.00  0.00    -0.248 NA
ATOM     62  C   UNL A   1      43.255  28.084  34.497  1.00  0.00     0.031 C 
ATOM     63  C   UNL A   1      45.591  25.790  30.228  1.00  0.00     0.029 A 
ATOM     64  C   UNL A   1      44.745  25.206  31.152  1.00  0.00     0.049 A 
ATOM     65  H   UNL A   1      43.120  23.922  30.820  1.00  0.00     0.167 HD
ATOM     66  C   UNL A   1      44.115  26.437  33.114  1.00  0.00     0.074 A 
ATOM     67  C   UNL A   1      43.774  26.846  34.465  1.00  0.00     0.031 C 
ATOM     68  C   UNL A   1      44.599  25.267  32.598  1.00  0.00     0.034 A 
BRANCH  55  69
ATOM     69  C   UNL A   1      43.335  23.087  27.034  1.00  0.00     0.023 A 
ATOM     70  C   UNL A   1      42.839  21.777  27.149  1.00  0.00     0.031 A 
ATOM     71  C   UNL A   1      44.094  23.360  25.880  1.00  0.00     0.131 A 
ATOM     72  C   UNL A   1      43.184  20.784  26.219  1.00  0.00     0.055 A 
ATOM     73  C   UNL A   1      44.491  22.359  24.986  1.00  0.00     0.041 A 
ATOM     74  F   UNL A   1      44.454  24.613  25.560  1.00  0.00    -0.206 F 
ATOM     75  C   UNL A   1      44.046  21.056  25.161  1.00  0.00     0.022 A 
BRANCH  72  76
ATOM     76  S   UNL A   1      42.470  19.131  26.416  1.00  0.00     0.124 S 
ATOM     77  O   UNL A   1      43.495  18.280  25.821  1.00  0.00    -0.237 OA
ATOM     78  O   UNL A   1      42.312  19.036  27.863  1.00  0.00    -0.237 OA
ATOM     79  O   UNL A   1      41.220  19.211  25.660  1.00  0.00    -0.744 OA
ENDBRANCH  72  76
ENDBRANCH  55  69
BRANCH  56  80
ATOM     80  C   UNL A   1      41.416  30.391  33.116  1.00  0.00     0.023 A 
ATOM     81  C   UNL A   1      41.447  31.801  33.169  1.00  0.00     0.031 A 
ATOM     82  C   UNL A   1      40.167  29.758  33.176  1.00  0.00     0.131 A 
ATOM     83  C   UNL A   1      40.256  32.536  33.097  1.00  0.00     0.055 A 
ATOM     84  C   UNL A   1      38.979  30.498  33.168  1.00  0.00     0.041 A 
ATOM     85  F   UNL A   1      40.072  28.423  33.103  1.00  0.00    -0.206 F 
ATOM     86  C   UNL A   1      39.019  31.890  33.073  1.00  0.00     0.022 A 
BRANCH  83  87
ATOM     87  S   UNL A   1      40.350  34.313  32.739  1.00  0.00     0.124 S 
ATOM     88  O   UNL A   1      38.961  34.651  32.454  1.00  0.00    -0.237 OA
ATOM     89  O   UNL A   1      40.897  34.868  33.974  1.00  0.00    -0.237 OA
ATOM     90  O   UNL A   1      41.266  34.382  31.602  1.00  0.00    -0.744 OA
ENDBRANCH  83  87
ENDBRANCH  56  80
BRANCH  68  91
ATOM     91  C   UNL A   1      44.959  24.077  33.445  1.00  0.00     0.023 A 
ATOM     92  C   UNL A   1      46.295  23.746  33.718  1.00  0.00     0.031 A 
ATOM     93  C   UNL A   1      43.979  23.189  33.942  1.00  0.00     0.131 A 
ATOM     94  C   UNL A   1      46.607  22.629  34.512  1.00  0.00     0.055 A 
ATOM     95  C   UNL A   1      44.298  22.026  34.647  1.00  0.00     0.041 A 
ATOM     96  F   UNL A   1      42.667  23.436  33.806  1.00  0.00    -0.206 F 
ATOM     97  C   UNL A   1      45.621  21.747  34.949  1.00  0.00     0.022 A 
BRANCH  94  98
ATOM     98  S   UNL A   1      48.323  22.404  35.042  1.00  0.00     0.124 S 
ATOM     99  O   UNL A   1      48.675  21.119  34.449  1.00  0.00    -0.237 OA
ATOM    100  O   UNL A   1      48.968  23.574  34.452  1.00  0.00    -0.237 OA
ATOM    101  O   UNL A   1      48.237  22.414  36.501  1.00  0.00    -0.744 OA
ENDBRANCH  94  98
ENDBRANCH  68  91
ENDBRANCH  42  43
ENDBRANCH  34  37
ENDBRANCH  32  33
ENDBRANCH  31  32
ENDBRANCH   1  31
TORSDOF 17
ENDMDL
MODEL 3
REMARK VINA RESULT:     -13.7      4.096     10.765
REMARK SMILES Cc1ccc(-c2nc(NC(=O)[C@H]3[C@@H](C(=O)NCCCCNC(=O)c4ccc(-c5c6nc(c(-c7cc(S(=O)(=O)[O-])ccc7F)c7ccc([nH]7)c(-c7cc(S(=O)(=O)[O-])ccc7F)c7nc(c(-c8cc(S(=O)(=O)[O-])ccc8F)c8ccc5[nH]8)C=C7)C=C6)cc4)[C@@H]4CC[C@H]3O4)sc2C)cc1
REMARK SMILES IDX 18 1 17 2 16 3 14 4 15 5 13 7 12 8 90 9 87 10 89 11 91 12
REMARK SMILES IDX 88 13 10 14 9 15 11 17 8 18 6 19 7 20 93 21 92 22 94 23 5 24
REMARK SMILES IDX 1 25 2 26 3 27 96 28 4 29 95 30 19 31 20 32 21 33 22 34
REMARK SMILES IDX 23 36 24 37 25 38 86 39 26 40 85 41 27 42 28 43 29 44 79 45
REMARK SMILES IDX 30 46 84 47 78 48 80 49 31 50 83 51 77 52 76 53 32 55 64 56
REMARK SMILES IDX 44 57 63 58 45 59 48 60 62 61 81 62 46 63 47 64 61 66 82 67
REMARK SMILES IDX 49 68 33 69 34 70 42 71 35 72 41 73 43 74 40 75 36 76 37 77
REMARK SMILES IDX 38 78 39 79 65 80 66 81 74 82 67 83 73 84 75 85 72 86 68 87
REMARK SMILES IDX 69 88 70 89 71 90 50 91 51 92 59 93 52 94 58 95 60 96 57 97
REMARK SMILES IDX 53 98 54 99 55 100 56 101
REMARK H PARENT 16 6 9 16 21 35 80 54 48 65
REMARK Flexibility Score: inf
ROOT
ATOM      1  C   UNL A   1      37.616  23.693  25.795  1.00  0.00     0.023 C 
ENDROOT
BRANCH   1   2
ATOM      2  C   UNL A   1      36.584  23.674  24.669  1.00  0.00     0.116 C 
BRANCH   2   3
ATOM      3  N   UNL A   1      35.328  24.391  24.882  1.00  0.00    -0.356 N 
ATOM      4  C   UNL A   1      34.220  23.872  25.489  1.00  0.00     0.226 C 
ATOM      5  O   UNL A   1      33.741  24.463  26.458  1.00  0.00    -0.275 OA
ATOM      6  H   UNL A   1      35.276  25.321  24.563  1.00  0.00     0.163 HD
BRANCH   4   7
ATOM      7  C   UNL A   1      33.686  22.544  25.028  1.00  0.00     0.122 C 
ATOM      8  C   UNL A   1      32.200  22.210  24.861  1.00  0.00     0.123 C 
ATOM      9  C   UNL A   1      32.262  20.686  25.061  1.00  0.00     0.132 C 
ATOM     10  C   UNL A   1      34.186  21.312  25.845  1.00  0.00     0.132 C 
ATOM     11  C   UNL A   1      33.294  20.002  24.121  1.00  0.00     0.035 C 
ATOM     12  O   UNL A   1      32.961  20.673  26.320  1.00  0.00    -0.373 OA
ATOM     13  C   UNL A   1      34.614  20.218  24.875  1.00  0.00     0.035 C 
BRANCH   8  14
ATOM     14  C   UNL A   1      30.886  22.724  25.509  1.00  0.00     0.232 C 
ATOM     15  N   UNL A   1      30.306  23.928  25.703  1.00  0.00    -0.302 N 
ATOM     16  H   UNL A   1      29.430  23.828  26.142  1.00  0.00     0.172 HD
ATOM     17  O   UNL A   1      30.198  21.808  26.023  1.00  0.00    -0.274 OA
BRANCH  15  18
ATOM     18  C   UNL A   1      30.585  25.245  25.468  1.00  0.00     0.190 A 
ATOM     19  C   UNL A   1      31.425  27.305  25.733  1.00  0.00     0.086 A 
ATOM     20  N   UNL A   1      31.409  25.976  26.205  1.00  0.00    -0.220 NA
ATOM     21  C   UNL A   1      30.669  27.487  24.581  1.00  0.00     0.031 A 
ATOM     22  S   UNL A   1      29.976  26.008  24.117  1.00  0.00    -0.101 S 
ATOM     23  C   UNL A   1      30.393  28.653  23.702  1.00  0.00     0.059 C 
BRANCH  19  24
ATOM     24  C   UNL A   1      32.194  28.398  26.359  1.00  0.00     0.001 A 
ATOM     25  C   UNL A   1      34.551  31.809  27.686  1.00  0.00     0.044 C 
ATOM     26  C   UNL A   1      33.737  30.621  27.258  1.00  0.00    -0.051 A 
ATOM     27  C   UNL A   1      34.251  29.318  27.310  1.00  0.00     0.004 A 
ATOM     28  C   UNL A   1      32.426  30.797  26.816  1.00  0.00     0.004 A 
ATOM     29  C   UNL A   1      33.490  28.215  26.863  1.00  0.00     0.010 A 
ATOM     30  C   UNL A   1      31.665  29.700  26.396  1.00  0.00     0.010 A 
ENDBRANCH  19  24
ENDBRANCH  15  18
ENDBRANCH   8  14
ENDBRANCH   4   7
ENDBRANCH   2   3
ENDBRANCH   1   2
BRANCH   1  31
ATOM     31  C   UNL A   1      38.597  22.532  25.810  1.00  0.00     0.023 C 
BRANCH  31  32
ATOM     32  C   UNL A   1      39.653  22.643  26.895  1.00  0.00     0.116 C 
BRANCH  32  33
ATOM     33  N   UNL A   1      40.974  23.045  26.418  1.00  0.00    -0.352 N 
ATOM     34  C   UNL A   1      41.504  24.324  26.275  1.00  0.00     0.251 C 
ATOM     35  H   UNL A   1      41.573  22.308  26.160  1.00  0.00     0.163 HD
ATOM     36  O   UNL A   1      42.616  24.508  25.838  1.00  0.00    -0.269 OA
BRANCH  34  37
ATOM     37  C   UNL A   1      40.712  25.464  26.809  1.00  0.00     0.039 A 
ATOM     38  C   UNL A   1      40.799  26.680  26.122  1.00  0.00     0.014 A 
ATOM     39  C   UNL A   1      40.183  25.405  28.091  1.00  0.00     0.014 A 
ATOM     40  C   UNL A   1      40.612  27.866  26.825  1.00  0.00     0.010 A 
ATOM     41  C   UNL A   1      40.134  26.571  28.822  1.00  0.00     0.010 A 
ATOM     42  C   UNL A   1      40.402  27.795  28.202  1.00  0.00    -0.014 A 
BRANCH  42  43
ATOM     43  C   UNL A   1      40.500  28.943  29.088  1.00  0.00     0.031 A 
ATOM     44  C   UNL A   1      39.385  29.904  29.153  1.00  0.00     0.074 A 
ATOM     45  C   UNL A   1      41.580  29.113  29.883  1.00  0.00     0.049 A 
ATOM     46  N   UNL A   1      39.524  31.148  29.454  1.00  0.00    -0.248 NA
ATOM     47  C   UNL A   1      38.010  29.529  28.837  1.00  0.00     0.031 C 
ATOM     48  C   UNL A   1      41.731  30.070  30.975  1.00  0.00     0.029 A 
ATOM     49  N   UNL A   1      42.859  28.594  29.695  1.00  0.00    -0.354 N 
ATOM     50  C   UNL A   1      38.265  31.661  29.650  1.00  0.00     0.074 A 
ATOM     51  C   UNL A   1      37.356  30.638  29.188  1.00  0.00     0.031 C 
ATOM     52  C   UNL A   1      43.040  30.278  31.189  1.00  0.00     0.029 A 
ATOM     53  C   UNL A   1      43.770  29.568  30.154  1.00  0.00     0.049 A 
ATOM     54  H   UNL A   1      43.085  27.714  29.314  1.00  0.00     0.167 HD
ATOM     55  C   UNL A   1      38.111  32.837  30.315  1.00  0.00     0.034 A 
ATOM     56  C   UNL A   1      44.673  30.126  29.294  1.00  0.00     0.034 A 
ATOM     57  C   UNL A   1      39.389  33.413  30.721  1.00  0.00     0.049 A 
ATOM     58  C   UNL A   1      44.476  31.611  29.068  1.00  0.00     0.074 A 
ATOM     59  C   UNL A   1      40.110  33.419  31.903  1.00  0.00     0.029 A 
ATOM     60  N   UNL A   1      40.259  33.854  29.743  1.00  0.00    -0.354 N 
ATOM     61  N   UNL A   1      43.515  32.319  29.596  1.00  0.00    -0.248 NA
ATOM     62  C   UNL A   1      45.303  32.399  28.152  1.00  0.00     0.031 C 
ATOM     63  C   UNL A   1      41.439  33.839  31.607  1.00  0.00     0.029 A 
ATOM     64  C   UNL A   1      41.516  34.111  30.254  1.00  0.00     0.049 A 
ATOM     65  H   UNL A   1      40.013  33.971  28.796  1.00  0.00     0.167 HD
ATOM     66  C   UNL A   1      43.528  33.580  29.059  1.00  0.00     0.074 A 
ATOM     67  C   UNL A   1      44.674  33.585  28.166  1.00  0.00     0.031 C 
ATOM     68  C   UNL A   1      42.575  34.517  29.343  1.00  0.00     0.034 A 
BRANCH  55  69
ATOM     69  C   UNL A   1      36.779  33.298  30.836  1.00  0.00     0.023 A 
ATOM     70  C   UNL A   1      35.904  33.969  29.964  1.00  0.00     0.031 A 
ATOM     71  C   UNL A   1      36.331  33.146  32.162  1.00  0.00     0.131 A 
ATOM     72  C   UNL A   1      34.712  34.544  30.430  1.00  0.00     0.055 A 
ATOM     73  C   UNL A   1      35.174  33.771  32.643  1.00  0.00     0.041 A 
ATOM     74  F   UNL A   1      36.981  32.359  33.034  1.00  0.00    -0.206 F 
ATOM     75  C   UNL A   1      34.362  34.489  31.776  1.00  0.00     0.022 A 
BRANCH  72  76
ATOM     76  S   UNL A   1      33.620  35.356  29.234  1.00  0.00     0.124 S 
ATOM     77  O   UNL A   1      34.541  35.687  28.151  1.00  0.00    -0.237 OA
ATOM     78  O   UNL A   1      32.642  34.311  28.953  1.00  0.00    -0.237 OA
ATOM     79  O   UNL A   1      33.101  36.505  29.976  1.00  0.00    -0.744 OA
ENDBRANCH  72  76
ENDBRANCH  55  69
BRANCH  56  80
ATOM     80  C   UNL A   1      45.160  29.147  28.279  1.00  0.00     0.023 A 
ATOM     81  C   UNL A   1      46.079  28.172  28.723  1.00  0.00     0.031 A 
ATOM     82  C   UNL A   1      44.448  28.892  27.100  1.00  0.00     0.131 A 
ATOM     83  C   UNL A   1      46.133  26.918  28.099  1.00  0.00     0.055 A 
ATOM     84  C   UNL A   1      44.552  27.659  26.444  1.00  0.00     0.041 A 
ATOM     85  F   UNL A   1      43.542  29.768  26.643  1.00  0.00    -0.206 F 
ATOM     86  C   UNL A   1      45.355  26.647  26.972  1.00  0.00     0.022 A 
BRANCH  83  87
ATOM     87  S   UNL A   1      46.997  25.563  28.943  1.00  0.00     0.124 S 
ATOM     88  O   UNL A   1      48.376  25.752  28.511  1.00  0.00    -0.237 OA
ATOM     89  O   UNL A   1      46.732  25.832  30.354  1.00  0.00    -0.237 OA
ATOM     90  O   UNL A   1      46.332  24.366  28.433  1.00  0.00    -0.744 OA
ENDBRANCH  83  87
ENDBRANCH  56  80
BRANCH  68  91
ATOM     91  C   UNL A   1      42.577  35.902  28.755  1.00  0.00     0.023 A 
ATOM     92  C   UNL A   1      42.980  37.018  29.502  1.00  0.00     0.031 A 
ATOM     93  C   UNL A   1      42.099  36.160  27.450  1.00  0.00     0.131 A 
ATOM     94  C   UNL A   1      42.973  38.302  28.931  1.00  0.00     0.055 A 
ATOM     95  C   UNL A   1      42.001  37.449  26.921  1.00  0.00     0.041 A 
ATOM     96  F   UNL A   1      41.751  35.168  26.615  1.00  0.00    -0.206 F 
ATOM     97  C   UNL A   1      42.453  38.531  27.659  1.00  0.00     0.022 A 
BRANCH  94  98
ATOM     98  S   UNL A   1      43.744  39.657  29.850  1.00  0.00     0.124 S 
ATOM     99  O   UNL A   1      42.849  40.777  29.582  1.00  0.00    -0.237 OA
ATOM    100  O   UNL A   1      43.719  39.137  31.215  1.00  0.00    -0.237 OA
ATOM    101  O   UNL A   1      45.074  39.765  29.254  1.00  0.00    -0.744 OA
ENDBRANCH  94  98
ENDBRANCH  68  91
ENDBRANCH  42  43
ENDBRANCH  34  37
ENDBRANCH  32  33
ENDBRANCH  31  32
ENDBRANCH   1  31
TORSDOF 17
ENDMDL
