MODEL 1
REMARK VINA RESULT:     -13.1      0.000      0.000
REMARK SMILES O=C(NCCCCNC(=O)c1ccc(-c2c3nc(c(-c4cc(S(=O)(=O)[O-])ccc4F)c4ccc([nH]4)c(-c4cc(S(=O)(=O)[O-])ccc4F)c4nc(c(-c5cc(S(=O)(=O)[O-])ccc5F)c5ccc2[nH]5)C=C4)C=C3)cc1)C1=Cc2c(ccc(Cl)c2-c2ccccc2)O[C@H]1C(F)(F)F
REMARK SMILES IDX 6 1 5 2 4 3 3 4 1 5 2 6 74 8 75 9 90 10 76 11 89 12 77 13
REMARK SMILES IDX 82 14 78 15 80 16 79 17 81 18 91 19 92 20 93 21 94 22 83 23
REMARK SMILES IDX 84 24 88 25 85 26 87 27 86 28 7 29 8 30 9 31 10 33 11 34
REMARK SMILES IDX 12 35 73 36 13 37 72 38 14 39 15 40 16 41 66 42 17 43 71 44
REMARK SMILES IDX 65 45 67 46 18 47 70 48 64 49 63 50 19 52 51 53 31 54 50 55
REMARK SMILES IDX 32 56 35 57 49 58 68 59 33 60 34 61 48 63 69 64 36 65 20 66
REMARK SMILES IDX 21 67 29 68 22 69 28 70 30 71 27 72 23 73 24 74 25 75 26 76
REMARK SMILES IDX 52 77 53 78 61 79 54 80 60 81 62 82 59 83 55 84 56 85 57 86
REMARK SMILES IDX 58 87 37 88 38 89 46 90 39 91 45 92 47 93 44 94 40 95 41 96
REMARK SMILES IDX 42 97 43 98
REMARK H PARENT 3 7 8 32 67 51 35 62
REMARK Flexibility Score: inf
ROOT
ATOM      1  C   UNL A   1      36.836  19.470  24.956  1.00  0.00     0.023 C 
ENDROOT
BRANCH   1   2
ATOM      2  C   UNL A   1      35.467  20.131  25.106  1.00  0.00     0.023 C 
BRANCH   2   3
ATOM      3  C   UNL A   1      35.381  21.277  26.107  1.00  0.00     0.116 C 
BRANCH   3   4
ATOM      4  N   UNL A   1      34.075  21.895  26.238  1.00  0.00    -0.352 N 
ATOM      5  O   UNL A   1      32.499  23.481  25.953  1.00  0.00    -0.270 OA
ATOM      6  C   UNL A   1      33.619  23.059  25.680  1.00  0.00     0.251 C 
ATOM      7  H   UNL A   1      33.430  21.413  26.804  1.00  0.00     0.163 HD
BRANCH   6   8
ATOM      8  C   UNL A   1      34.465  23.832  24.743  1.00  0.00     0.067 C 
ATOM      9  C   UNL A   1      34.435  25.168  24.839  1.00  0.00     0.026 C 
ATOM     10  C   UNL A   1      34.932  23.212  23.464  1.00  0.00     0.314 C 
ATOM     11  C   UNL A   1      33.643  25.723  23.707  1.00  0.00     0.027 A 
ATOM     12  O   UNL A   1      34.363  23.873  22.282  1.00  0.00    -0.475 OA
ATOM     13  C   UNL A   1      33.633  25.020  22.490  1.00  0.00     0.128 A 
ATOM     14  C   UNL A   1      32.786  26.828  23.945  1.00  0.00     0.011 A 
ATOM     15  C   UNL A   1      32.750  25.405  21.487  1.00  0.00     0.049 A 
ATOM     16  C   UNL A   1      31.876  27.168  22.934  1.00  0.00     0.049 A 
ATOM     17  C   UNL A   1      31.859  26.461  21.719  1.00  0.00     0.025 A 
ATOM     18  Cl  UNL A   1      30.698  28.410  23.158  1.00  0.00    -0.084 Cl
BRANCH  10  19
ATOM     19  C   UNL A   1      36.473  23.169  23.375  1.00  0.00     0.429 C 
ATOM     20  F   UNL A   1      36.955  21.975  22.955  1.00  0.00    -0.167 F 
ATOM     21  F   UNL A   1      36.938  24.106  22.513  1.00  0.00    -0.167 F 
ATOM     22  F   UNL A   1      37.059  23.414  24.574  1.00  0.00    -0.167 F 
ENDBRANCH  10  19
BRANCH  14  23
ATOM     23  C   UNL A   1      32.848  27.450  25.281  1.00  0.00    -0.016 A 
ATOM     24  C   UNL A   1      33.637  28.594  25.487  1.00  0.00     0.009 A 
ATOM     25  C   UNL A   1      31.878  27.122  26.245  1.00  0.00     0.009 A 
ATOM     26  C   UNL A   1      33.391  29.444  26.564  1.00  0.00     0.001 A 
ATOM     27  C   UNL A   1      31.629  27.979  27.320  1.00  0.00     0.001 A 
ATOM     28  C   UNL A   1      32.368  29.151  27.462  1.00  0.00     0.000 A 
ENDBRANCH  14  23
ENDBRANCH   6   8
ENDBRANCH   3   4
ENDBRANCH   2   3
ENDBRANCH   1   2
BRANCH   1  29
ATOM     29  C   UNL A   1      38.057  20.313  25.316  1.00  0.00     0.116 C 
BRANCH  29  30
ATOM     30  N   UNL A   1      39.254  19.550  25.641  1.00  0.00    -0.352 N 
ATOM     31  C   UNL A   1      40.403  19.961  26.293  1.00  0.00     0.251 C 
ATOM     32  H   UNL A   1      39.245  18.608  25.356  1.00  0.00     0.163 HD
ATOM     33  O   UNL A   1      41.332  19.184  26.444  1.00  0.00    -0.269 OA
BRANCH  31  34
ATOM     34  C   UNL A   1      40.514  21.369  26.742  1.00  0.00     0.039 A 
ATOM     35  C   UNL A   1      41.396  21.678  27.781  1.00  0.00     0.014 A 
ATOM     36  C   UNL A   1      39.821  22.387  26.083  1.00  0.00     0.014 A 
ATOM     37  C   UNL A   1      41.680  23.016  28.074  1.00  0.00     0.010 A 
ATOM     38  C   UNL A   1      40.158  23.717  26.328  1.00  0.00     0.010 A 
ATOM     39  C   UNL A   1      41.116  24.045  27.303  1.00  0.00    -0.014 A 
BRANCH  39  40
ATOM     40  C   UNL A   1      41.538  25.467  27.460  1.00  0.00     0.031 A 
ATOM     41  C   UNL A   1      42.863  25.920  26.909  1.00  0.00     0.074 A 
ATOM     42  C   UNL A   1      40.784  26.315  28.190  1.00  0.00     0.049 A 
ATOM     43  N   UNL A   1      43.490  27.054  27.090  1.00  0.00    -0.248 NA
ATOM     44  C   UNL A   1      43.592  24.956  26.073  1.00  0.00     0.031 C 
ATOM     45  C   UNL A   1      39.495  25.989  28.807  1.00  0.00     0.029 A 
ATOM     46  N   UNL A   1      41.001  27.621  28.563  1.00  0.00    -0.354 N 
ATOM     47  C   UNL A   1      44.702  26.929  26.418  1.00  0.00     0.074 A 
ATOM     48  C   UNL A   1      44.733  25.594  25.858  1.00  0.00     0.031 C 
ATOM     49  C   UNL A   1      39.036  27.062  29.469  1.00  0.00     0.029 A 
ATOM     50  C   UNL A   1      40.017  28.140  29.376  1.00  0.00     0.049 A 
ATOM     51  H   UNL A   1      41.788  28.138  28.275  1.00  0.00     0.167 HD
ATOM     52  C   UNL A   1      45.690  27.846  26.274  1.00  0.00     0.034 A 
ATOM     53  C   UNL A   1      39.924  29.334  29.996  1.00  0.00     0.034 A 
ATOM     54  C   UNL A   1      45.630  29.184  26.809  1.00  0.00     0.049 A 
ATOM     55  C   UNL A   1      41.037  30.338  29.814  1.00  0.00     0.074 A 
ATOM     56  C   UNL A   1      46.550  30.210  26.666  1.00  0.00     0.029 A 
ATOM     57  N   UNL A   1      44.595  29.685  27.587  1.00  0.00    -0.354 N 
ATOM     58  N   UNL A   1      42.156  30.215  29.140  1.00  0.00    -0.248 NA
ATOM     59  C   UNL A   1      40.872  31.645  30.468  1.00  0.00     0.031 C 
ATOM     60  C   UNL A   1      46.099  31.310  27.402  1.00  0.00     0.029 A 
ATOM     61  C   UNL A   1      44.864  30.996  27.946  1.00  0.00     0.049 A 
ATOM     62  H   UNL A   1      43.789  29.182  27.844  1.00  0.00     0.167 HD
ATOM     63  C   UNL A   1      42.803  31.443  29.251  1.00  0.00     0.074 A 
ATOM     64  C   UNL A   1      41.951  32.293  30.055  1.00  0.00     0.031 C 
ATOM     65  C   UNL A   1      43.993  31.837  28.730  1.00  0.00     0.034 A 
BRANCH  52  66
ATOM     66  C   UNL A   1      46.932  27.424  25.529  1.00  0.00     0.023 A 
ATOM     67  C   UNL A   1      47.157  27.802  24.195  1.00  0.00     0.031 A 
ATOM     68  C   UNL A   1      47.905  26.633  26.165  1.00  0.00     0.131 A 
ATOM     69  C   UNL A   1      48.295  27.335  23.520  1.00  0.00     0.055 A 
ATOM     70  C   UNL A   1      49.072  26.234  25.512  1.00  0.00     0.041 A 
ATOM     71  F   UNL A   1      47.734  26.228  27.434  1.00  0.00    -0.206 F 
ATOM     72  C   UNL A   1      49.267  26.575  24.176  1.00  0.00     0.022 A 
BRANCH  69  73
ATOM     73  S   UNL A   1      48.433  27.642  21.739  1.00  0.00     0.124 S 
ATOM     74  O   UNL A   1      49.538  28.596  21.691  1.00  0.00    -0.237 OA
ATOM     75  O   UNL A   1      48.714  26.312  21.209  1.00  0.00    -0.237 OA
ATOM     76  O   UNL A   1      47.127  28.192  21.382  1.00  0.00    -0.744 OA
ENDBRANCH  69  73
ENDBRANCH  52  66
BRANCH  53  77
ATOM     77  C   UNL A   1      38.756  29.658  30.868  1.00  0.00     0.023 A 
ATOM     78  C   UNL A   1      37.742  30.524  30.424  1.00  0.00     0.031 A 
ATOM     79  C   UNL A   1      38.671  29.167  32.183  1.00  0.00     0.131 A 
ATOM     80  C   UNL A   1      36.725  30.924  31.306  1.00  0.00     0.055 A 
ATOM     81  C   UNL A   1      37.624  29.522  33.038  1.00  0.00     0.041 A 
ATOM     82  F   UNL A   1      39.608  28.333  32.659  1.00  0.00    -0.206 F 
ATOM     83  C   UNL A   1      36.654  30.420  32.607  1.00  0.00     0.022 A 
BRANCH  80  84
ATOM     84  S   UNL A   1      35.564  32.209  30.765  1.00  0.00     0.124 S 
ATOM     85  O   UNL A   1      35.250  31.772  29.410  1.00  0.00    -0.237 OA
ATOM     86  O   UNL A   1      34.493  32.080  31.748  1.00  0.00    -0.237 OA
ATOM     87  O   UNL A   1      36.350  33.437  30.859  1.00  0.00    -0.744 OA
ENDBRANCH  80  84
ENDBRANCH  53  77
BRANCH  65  88
ATOM     88  C   UNL A   1      44.400  33.272  28.942  1.00  0.00     0.023 A 
ATOM     89  C   UNL A   1      43.869  34.320  28.172  1.00  0.00     0.031 A 
ATOM     90  C   UNL A   1      45.327  33.591  29.950  1.00  0.00     0.131 A 
ATOM     91  C   UNL A   1      44.300  35.636  28.396  1.00  0.00     0.055 A 
ATOM     92  C   UNL A   1      45.715  34.907  30.201  1.00  0.00     0.041 A 
ATOM     93  F   UNL A   1      45.865  32.626  30.713  1.00  0.00    -0.206 F 
ATOM     94  C   UNL A   1      45.208  35.938  29.415  1.00  0.00     0.022 A 
BRANCH  91  95
ATOM     95  S   UNL A   1      43.704  36.950  27.296  1.00  0.00     0.124 S 
ATOM     96  O   UNL A   1      44.952  37.547  26.831  1.00  0.00    -0.237 OA
ATOM     97  O   UNL A   1      42.945  36.203  26.298  1.00  0.00    -0.237 OA
ATOM     98  O   UNL A   1      42.902  37.797  28.176  1.00  0.00    -0.744 OA
ENDBRANCH  91  95
ENDBRANCH  65  88
ENDBRANCH  39  40
ENDBRANCH  31  34
ENDBRANCH  29  30
ENDBRANCH   1  29
TORSDOF 16
ENDMDL
MODEL 2
REMARK VINA RESULT:     -13.1      5.069     10.667
REMARK SMILES O=C(NCCCCNC(=O)c1ccc(-c2c3nc(c(-c4cc(S(=O)(=O)[O-])ccc4F)c4ccc([nH]4)c(-c4cc(S(=O)(=O)[O-])ccc4F)c4nc(c(-c5cc(S(=O)(=O)[O-])ccc5F)c5ccc2[nH]5)C=C4)C=C3)cc1)C1=Cc2c(ccc(Cl)c2-c2ccccc2)O[C@H]1C(F)(F)F
REMARK SMILES IDX 6 1 5 2 4 3 3 4 1 5 2 6 74 8 75 9 90 10 76 11 89 12 77 13
REMARK SMILES IDX 82 14 78 15 80 16 79 17 81 18 91 19 92 20 93 21 94 22 83 23
REMARK SMILES IDX 84 24 88 25 85 26 87 27 86 28 7 29 8 30 9 31 10 33 11 34
REMARK SMILES IDX 12 35 73 36 13 37 72 38 14 39 15 40 16 41 66 42 17 43 71 44
REMARK SMILES IDX 65 45 67 46 18 47 70 48 64 49 63 50 19 52 51 53 31 54 50 55
REMARK SMILES IDX 32 56 35 57 49 58 68 59 33 60 34 61 48 63 69 64 36 65 20 66
REMARK SMILES IDX 21 67 29 68 22 69 28 70 30 71 27 72 23 73 24 74 25 75 26 76
REMARK SMILES IDX 52 77 53 78 61 79 54 80 60 81 62 82 59 83 55 84 56 85 57 86
REMARK SMILES IDX 58 87 37 88 38 89 46 90 39 91 45 92 47 93 44 94 40 95 41 96
REMARK SMILES IDX 42 97 43 98
REMARK H PARENT 3 7 8 32 67 51 35 62
REMARK Flexibility Score: inf
ROOT
ATOM      1  C   UNL A   1      31.044  31.599  25.748  1.00  0.00     0.023 C 
ENDROOT
BRANCH   1   2
ATOM      2  C   UNL A   1      31.111  30.345  24.880  1.00  0.00     0.023 C 
BRANCH   2   3
ATOM      3  C   UNL A   1      32.499  29.757  24.655  1.00  0.00     0.116 C 
BRANCH   3   4
ATOM      4  N   UNL A   1      32.554  28.599  23.782  1.00  0.00    -0.352 N 
ATOM      5  O   UNL A   1      32.761  26.420  23.247  1.00  0.00    -0.270 OA
ATOM      6  C   UNL A   1      32.654  27.276  24.120  1.00  0.00     0.251 C 
ATOM      7  H   UNL A   1      32.513  28.791  22.818  1.00  0.00     0.163 HD
BRANCH   6   8
ATOM      8  C   UNL A   1      32.639  26.853  25.539  1.00  0.00     0.067 C 
ATOM      9  C   UNL A   1      33.473  25.870  25.901  1.00  0.00     0.026 C 
ATOM     10  C   UNL A   1      31.447  27.140  26.397  1.00  0.00     0.314 C 
ATOM     11  C   UNL A   1      32.695  24.615  26.096  1.00  0.00     0.027 A 
ATOM     12  O   UNL A   1      30.759  25.915  26.826  1.00  0.00    -0.475 OA
ATOM     13  C   UNL A   1      31.361  24.715  26.526  1.00  0.00     0.128 A 
ATOM     14  C   UNL A   1      33.257  23.385  25.669  1.00  0.00     0.011 A 
ATOM     15  C   UNL A   1      30.557  23.581  26.525  1.00  0.00     0.049 A 
ATOM     16  C   UNL A   1      32.413  22.266  25.637  1.00  0.00     0.049 A 
ATOM     17  C   UNL A   1      31.076  22.367  26.059  1.00  0.00     0.025 A 
ATOM     18  Cl  UNL A   1      32.949  20.747  25.016  1.00  0.00    -0.084 Cl
BRANCH  10  19
ATOM     19  C   UNL A   1      31.814  28.014  27.615  1.00  0.00     0.429 C 
ATOM     20  F   UNL A   1      31.811  27.333  28.787  1.00  0.00    -0.167 F 
ATOM     21  F   UNL A   1      33.052  28.549  27.476  1.00  0.00    -0.167 F 
ATOM     22  F   UNL A   1      30.954  29.051  27.777  1.00  0.00    -0.167 F 
ENDBRANCH  10  19
BRANCH  14  23
ATOM     23  C   UNL A   1      34.652  23.416  25.186  1.00  0.00    -0.016 A 
ATOM     24  C   UNL A   1      35.704  23.097  26.060  1.00  0.00     0.009 A 
ATOM     25  C   UNL A   1      34.907  23.424  23.804  1.00  0.00     0.009 A 
ATOM     26  C   UNL A   1      36.943  22.692  25.565  1.00  0.00     0.001 A 
ATOM     27  C   UNL A   1      36.147  23.012  23.310  1.00  0.00     0.001 A 
ATOM     28  C   UNL A   1      37.153  22.622  24.190  1.00  0.00     0.000 A 
ENDBRANCH  14  23
ENDBRANCH   6   8
ENDBRANCH   3   4
ENDBRANCH   2   3
ENDBRANCH   1   2
BRANCH   1  29
ATOM     29  C   UNL A   1      32.144  31.781  26.792  1.00  0.00     0.116 C 
BRANCH  29  30
ATOM     30  N   UNL A   1      32.342  33.151  27.241  1.00  0.00    -0.352 N 
ATOM     31  C   UNL A   1      33.435  33.715  27.874  1.00  0.00     0.251 C 
ATOM     32  H   UNL A   1      31.591  33.764  27.072  1.00  0.00     0.163 HD
ATOM     33  O   UNL A   1      33.408  34.886  28.218  1.00  0.00    -0.269 OA
BRANCH  31  34
ATOM     34  C   UNL A   1      34.607  32.862  28.187  1.00  0.00     0.039 A 
ATOM     35  C   UNL A   1      35.874  33.450  28.236  1.00  0.00     0.014 A 
ATOM     36  C   UNL A   1      34.444  31.516  28.517  1.00  0.00     0.014 A 
ATOM     37  C   UNL A   1      36.957  32.721  28.740  1.00  0.00     0.010 A 
ATOM     38  C   UNL A   1      35.507  30.814  29.084  1.00  0.00     0.010 A 
ATOM     39  C   UNL A   1      36.767  31.419  29.232  1.00  0.00    -0.014 A 
BRANCH  39  40
ATOM     40  C   UNL A   1      37.849  30.683  29.946  1.00  0.00     0.031 A 
ATOM     41  C   UNL A   1      38.147  31.001  31.386  1.00  0.00     0.074 A 
ATOM     42  C   UNL A   1      38.630  29.815  29.270  1.00  0.00     0.049 A 
ATOM     43  N   UNL A   1      39.149  30.608  32.131  1.00  0.00    -0.248 NA
ATOM     44  C   UNL A   1      37.211  31.908  32.067  1.00  0.00     0.031 C 
ATOM     45  C   UNL A   1      38.467  29.446  27.862  1.00  0.00     0.029 A 
ATOM     46  N   UNL A   1      39.737  29.101  29.667  1.00  0.00    -0.354 N 
ATOM     47  C   UNL A   1      38.984  31.245  33.356  1.00  0.00     0.074 A 
ATOM     48  C   UNL A   1      37.805  32.076  33.240  1.00  0.00     0.031 C 
ATOM     49  C   UNL A   1      39.428  28.574  27.518  1.00  0.00     0.029 A 
ATOM     50  C   UNL A   1      40.311  28.358  28.659  1.00  0.00     0.049 A 
ATOM     51  H   UNL A   1      40.087  29.120  30.587  1.00  0.00     0.167 HD
ATOM     52  C   UNL A   1      39.740  31.137  34.477  1.00  0.00     0.034 A 
ATOM     53  C   UNL A   1      41.434  27.609  28.646  1.00  0.00     0.034 A 
ATOM     54  C   UNL A   1      40.893  30.277  34.589  1.00  0.00     0.049 A 
ATOM     55  C   UNL A   1      42.254  27.502  29.909  1.00  0.00     0.074 A 
ATOM     56  C   UNL A   1      41.690  30.048  35.698  1.00  0.00     0.029 A 
ATOM     57  N   UNL A   1      41.414  29.506  33.560  1.00  0.00    -0.354 N 
ATOM     58  N   UNL A   1      42.057  28.080  31.071  1.00  0.00    -0.248 NA
ATOM     59  C   UNL A   1      43.443  26.638  29.863  1.00  0.00     0.031 C 
ATOM     60  C   UNL A   1      42.724  29.183  35.325  1.00  0.00     0.029 A 
ATOM     61  C   UNL A   1      42.531  28.816  34.003  1.00  0.00     0.049 A 
ATOM     62  H   UNL A   1      41.044  29.455  32.649  1.00  0.00     0.167 HD
ATOM     63  C   UNL A   1      43.069  27.610  31.904  1.00  0.00     0.074 A 
ATOM     64  C   UNL A   1      43.873  26.702  31.115  1.00  0.00     0.031 C 
ATOM     65  C   UNL A   1      43.309  27.897  33.208  1.00  0.00     0.034 A 
BRANCH  52  66
ATOM     66  C   UNL A   1      39.359  31.987  35.663  1.00  0.00     0.023 A 
ATOM     67  C   UNL A   1      38.592  31.476  36.723  1.00  0.00     0.031 A 
ATOM     68  C   UNL A   1      39.770  33.330  35.732  1.00  0.00     0.131 A 
ATOM     69  C   UNL A   1      38.206  32.319  37.776  1.00  0.00     0.055 A 
ATOM     70  C   UNL A   1      39.447  34.144  36.820  1.00  0.00     0.041 A 
ATOM     71  F   UNL A   1      40.490  33.877  34.740  1.00  0.00    -0.206 F 
ATOM     72  C   UNL A   1      38.650  33.643  37.845  1.00  0.00     0.022 A 
BRANCH  69  73
ATOM     73  S   UNL A   1      37.023  31.693  38.998  1.00  0.00     0.124 S 
ATOM     74  O   UNL A   1      37.791  31.812  40.236  1.00  0.00    -0.237 OA
ATOM     75  O   UNL A   1      35.900  32.613  38.853  1.00  0.00    -0.237 OA
ATOM     76  O   UNL A   1      36.768  30.323  38.559  1.00  0.00    -0.744 OA
ENDBRANCH  69  73
ENDBRANCH  52  66
BRANCH  53  77
ATOM     77  C   UNL A   1      41.877  26.913  27.401  1.00  0.00     0.023 A 
ATOM     78  C   UNL A   1      41.729  25.523  27.260  1.00  0.00     0.031 A 
ATOM     79  C   UNL A   1      42.522  27.613  26.366  1.00  0.00     0.131 A 
ATOM     80  C   UNL A   1      42.276  24.869  26.144  1.00  0.00     0.055 A 
ATOM     81  C   UNL A   1      43.011  26.965  25.229  1.00  0.00     0.041 A 
ATOM     82  F   UNL A   1      42.687  28.943  26.444  1.00  0.00    -0.206 F 
ATOM     83  C   UNL A   1      42.906  25.582  25.122  1.00  0.00     0.022 A 
BRANCH  80  84
ATOM     84  S   UNL A   1      42.257  23.055  26.107  1.00  0.00     0.124 S 
ATOM     85  O   UNL A   1      43.035  22.726  27.295  1.00  0.00    -0.237 OA
ATOM     86  O   UNL A   1      40.828  22.768  26.174  1.00  0.00    -0.237 OA
ATOM     87  O   UNL A   1      42.897  22.735  24.832  1.00  0.00    -0.744 OA
ENDBRANCH  80  84
ENDBRANCH  53  77
BRANCH  65  88
ATOM     88  C   UNL A   1      44.435  27.158  33.884  1.00  0.00     0.023 A 
ATOM     89  C   UNL A   1      44.253  25.894  34.468  1.00  0.00     0.031 A 
ATOM     90  C   UNL A   1      45.719  27.731  33.925  1.00  0.00     0.131 A 
ATOM     91  C   UNL A   1      45.331  25.259  35.104  1.00  0.00     0.055 A 
ATOM     92  C   UNL A   1      46.799  27.074  34.515  1.00  0.00     0.041 A 
ATOM     93  F   UNL A   1      45.945  28.939  33.381  1.00  0.00    -0.206 F 
ATOM     94  C   UNL A   1      46.605  25.834  35.118  1.00  0.00     0.022 A 
BRANCH  91  95
ATOM     95  S   UNL A   1      45.036  23.693  35.970  1.00  0.00     0.124 S 
ATOM     96  O   UNL A   1      43.757  23.271  35.408  1.00  0.00    -0.237 OA
ATOM     97  O   UNL A   1      46.196  22.897  35.581  1.00  0.00    -0.237 OA
ATOM     98  O   UNL A   1      44.998  24.080  37.378  1.00  0.00    -0.744 OA
ENDBRANCH  91  95
ENDBRANCH  65  88
ENDBRANCH  39  40
ENDBRANCH  31  34
ENDBRANCH  29  30
ENDBRANCH   1  29
TORSDOF 16
ENDMDL
MODEL 3
REMARK VINA RESULT:     -12.8      5.032      8.098
REMARK SMILES O=C(NCCCCNC(=O)c1ccc(-c2c3nc(c(-c4cc(S(=O)(=O)[O-])ccc4F)c4ccc([nH]4)c(-c4cc(S(=O)(=O)[O-])ccc4F)c4nc(c(-c5cc(S(=O)(=O)[O-])ccc5F)c5ccc2[nH]5)C=C4)C=C3)cc1)C1=Cc2c(ccc(Cl)c2-c2ccccc2)O[C@H]1C(F)(F)F
REMARK SMILES IDX 6 1 5 2 4 3 3 4 1 5 2 6 74 8 75 9 90 10 76 11 89 12 77 13
REMARK SMILES IDX 82 14 78 15 80 16 79 17 81 18 91 19 92 20 93 21 94 22 83 23
REMARK SMILES IDX 84 24 88 25 85 26 87 27 86 28 7 29 8 30 9 31 10 33 11 34
REMARK SMILES IDX 12 35 73 36 13 37 72 38 14 39 15 40 16 41 66 42 17 43 71 44
REMARK SMILES IDX 65 45 67 46 18 47 70 48 64 49 63 50 19 52 51 53 31 54 50 55
REMARK SMILES IDX 32 56 35 57 49 58 68 59 33 60 34 61 48 63 69 64 36 65 20 66
REMARK SMILES IDX 21 67 29 68 22 69 28 70 30 71 27 72 23 73 24 74 25 75 26 76
REMARK SMILES IDX 52 77 53 78 61 79 54 80 60 81 62 82 59 83 55 84 56 85 57 86
REMARK SMILES IDX 58 87 37 88 38 89 46 90 39 91 45 92 47 93 44 94 40 95 41 96
REMARK SMILES IDX 42 97 43 98
REMARK H PARENT 3 7 8 32 67 51 35 62
REMARK Flexibility Score: inf
ROOT
ATOM      1  C   UNL A   1      31.530  28.621  25.787  1.00  0.00     0.023 C 
ENDROOT
BRANCH   1   2
ATOM      2  C   UNL A   1      31.423  27.471  26.786  1.00  0.00     0.023 C 
BRANCH   2   3
ATOM      3  C   UNL A   1      30.909  26.147  26.234  1.00  0.00     0.116 C 
BRANCH   3   4
ATOM      4  N   UNL A   1      31.388  24.958  26.914  1.00  0.00    -0.352 N 
ATOM      5  O   UNL A   1      32.425  22.968  27.117  1.00  0.00    -0.270 OA
ATOM      6  C   UNL A   1      32.167  23.946  26.422  1.00  0.00     0.251 C 
ATOM      7  H   UNL A   1      31.116  24.867  27.856  1.00  0.00     0.163 HD
BRANCH   6   8
ATOM      8  C   UNL A   1      32.709  24.008  25.046  1.00  0.00     0.067 C 
ATOM      9  C   UNL A   1      32.867  22.851  24.389  1.00  0.00     0.026 C 
ATOM     10  C   UNL A   1      33.491  25.203  24.598  1.00  0.00     0.314 C 
ATOM     11  C   UNL A   1      34.314  22.504  24.349  1.00  0.00     0.027 A 
ATOM     12  O   UNL A   1      34.893  24.878  24.310  1.00  0.00    -0.475 OA
ATOM     13  C   UNL A   1      35.253  23.550  24.338  1.00  0.00     0.128 A 
ATOM     14  C   UNL A   1      34.700  21.149  24.508  1.00  0.00     0.011 A 
ATOM     15  C   UNL A   1      36.602  23.257  24.500  1.00  0.00     0.049 A 
ATOM     16  C   UNL A   1      36.062  20.885  24.713  1.00  0.00     0.049 A 
ATOM     17  C   UNL A   1      37.001  21.932  24.711  1.00  0.00     0.025 A 
ATOM     18  Cl  UNL A   1      36.635  19.292  25.046  1.00  0.00    -0.084 Cl
BRANCH  10  19
ATOM     19  C   UNL A   1      32.832  25.897  23.386  1.00  0.00     0.429 C 
ATOM     20  F   UNL A   1      31.479  25.823  23.393  1.00  0.00    -0.167 F 
ATOM     21  F   UNL A   1      33.153  27.214  23.345  1.00  0.00    -0.167 F 
ATOM     22  F   UNL A   1      33.235  25.358  22.209  1.00  0.00    -0.167 F 
ENDBRANCH  10  19
BRANCH  14  23
ATOM     23  C   UNL A   1      33.620  20.144  24.560  1.00  0.00    -0.016 A 
ATOM     24  C   UNL A   1      33.155  19.552  23.374  1.00  0.00     0.009 A 
ATOM     25  C   UNL A   1      33.297  19.535  25.785  1.00  0.00     0.009 A 
ATOM     26  C   UNL A   1      32.483  18.331  23.404  1.00  0.00     0.001 A 
ATOM     27  C   UNL A   1      32.630  18.309  25.813  1.00  0.00     0.001 A 
ATOM     28  C   UNL A   1      32.248  17.697  24.622  1.00  0.00     0.000 A 
ENDBRANCH  14  23
ENDBRANCH   6   8
ENDBRANCH   3   4
ENDBRANCH   2   3
ENDBRANCH   1   2
BRANCH   1  29
ATOM     29  C   UNL A   1      32.698  29.588  25.965  1.00  0.00     0.116 C 
BRANCH  29  30
ATOM     30  N   UNL A   1      32.338  30.892  26.503  1.00  0.00    -0.352 N 
ATOM     31  C   UNL A   1      33.087  31.754  27.284  1.00  0.00     0.251 C 
ATOM     32  H   UNL A   1      31.431  31.205  26.281  1.00  0.00     0.163 HD
ATOM     33  O   UNL A   1      32.601  32.801  27.681  1.00  0.00    -0.269 OA
BRANCH  31  34
ATOM     34  C   UNL A   1      34.459  31.357  27.684  1.00  0.00     0.039 A 
ATOM     35  C   UNL A   1      35.448  32.341  27.765  1.00  0.00     0.014 A 
ATOM     36  C   UNL A   1      34.742  30.044  28.063  1.00  0.00     0.014 A 
ATOM     37  C   UNL A   1      36.683  32.035  28.346  1.00  0.00     0.010 A 
ATOM     38  C   UNL A   1      35.946  29.759  28.706  1.00  0.00     0.010 A 
ATOM     39  C   UNL A   1      36.916  30.759  28.884  1.00  0.00    -0.014 A 
BRANCH  39  40
ATOM     40  C   UNL A   1      38.142  30.452  29.676  1.00  0.00     0.031 A 
ATOM     41  C   UNL A   1      39.149  29.467  29.146  1.00  0.00     0.074 A 
ATOM     42  C   UNL A   1      38.290  30.969  30.913  1.00  0.00     0.049 A 
ATOM     43  N   UNL A   1      40.180  28.931  29.749  1.00  0.00    -0.248 NA
ATOM     44  C   UNL A   1      38.948  28.999  27.767  1.00  0.00     0.031 C 
ATOM     45  C   UNL A   1      37.367  31.908  31.556  1.00  0.00     0.029 A 
ATOM     46  N   UNL A   1      39.258  30.761  31.867  1.00  0.00    -0.354 N 
ATOM     47  C   UNL A   1      40.732  28.039  28.835  1.00  0.00     0.074 A 
ATOM     48  C   UNL A   1      39.898  28.082  27.653  1.00  0.00     0.031 C 
ATOM     49  C   UNL A   1      37.816  32.199  32.787  1.00  0.00     0.029 A 
ATOM     50  C   UNL A   1      39.028  31.430  33.050  1.00  0.00     0.049 A 
ATOM     51  H   UNL A   1      40.044  30.187  31.719  1.00  0.00     0.167 HD
ATOM     52  C   UNL A   1      41.837  27.265  28.968  1.00  0.00     0.034 A 
ATOM     53  C   UNL A   1      39.700  31.409  34.220  1.00  0.00     0.034 A 
ATOM     54  C   UNL A   1      42.679  27.259  30.140  1.00  0.00     0.049 A 
ATOM     55  C   UNL A   1      40.931  30.542  34.338  1.00  0.00     0.074 A 
ATOM     56  C   UNL A   1      43.854  26.558  30.351  1.00  0.00     0.029 A 
ATOM     57  N   UNL A   1      42.436  27.986  31.298  1.00  0.00    -0.354 N 
ATOM     58  N   UNL A   1      41.460  29.737  33.448  1.00  0.00    -0.248 NA
ATOM     59  C   UNL A   1      41.659  30.586  35.615  1.00  0.00     0.031 C 
ATOM     60  C   UNL A   1      44.293  26.819  31.654  1.00  0.00     0.029 A 
ATOM     61  C   UNL A   1      43.430  27.735  32.231  1.00  0.00     0.049 A 
ATOM     62  H   UNL A   1      41.672  28.590  31.435  1.00  0.00     0.167 HD
ATOM     63  C   UNL A   1      42.607  29.217  34.042  1.00  0.00     0.074 A 
ATOM     64  C   UNL A   1      42.695  29.800  35.363  1.00  0.00     0.031 C 
ATOM     65  C   UNL A   1      43.514  28.342  33.537  1.00  0.00     0.034 A 
BRANCH  52  66
ATOM     66  C   UNL A   1      42.186  26.342  27.827  1.00  0.00     0.023 A 
ATOM     67  C   UNL A   1      41.693  25.029  27.762  1.00  0.00     0.031 A 
ATOM     68  C   UNL A   1      43.025  26.786  26.790  1.00  0.00     0.131 A 
ATOM     69  C   UNL A   1      42.093  24.184  26.716  1.00  0.00     0.055 A 
ATOM     70  C   UNL A   1      43.359  25.965  25.712  1.00  0.00     0.041 A 
ATOM     71  F   UNL A   1      43.539  28.026  26.809  1.00  0.00    -0.206 F 
ATOM     72  C   UNL A   1      42.903  24.650  25.676  1.00  0.00     0.022 A 
BRANCH  69  73
ATOM     73  S   UNL A   1      41.633  22.432  26.792  1.00  0.00     0.124 S 
ATOM     74  O   UNL A   1      42.428  21.969  27.926  1.00  0.00    -0.237 OA
ATOM     75  O   UNL A   1      40.190  22.493  27.004  1.00  0.00    -0.237 OA
ATOM     76  O   UNL A   1      42.050  21.911  25.492  1.00  0.00    -0.744 OA
ENDBRANCH  69  73
ENDBRANCH  52  66
BRANCH  53  77
ATOM     77  C   UNL A   1      39.229  32.208  35.390  1.00  0.00     0.023 A 
ATOM     78  C   UNL A   1      39.654  33.534  35.577  1.00  0.00     0.031 A 
ATOM     79  C   UNL A   1      38.406  31.637  36.378  1.00  0.00     0.131 A 
ATOM     80  C   UNL A   1      39.312  34.222  36.752  1.00  0.00     0.055 A 
ATOM     81  C   UNL A   1      38.019  32.347  37.517  1.00  0.00     0.041 A 
ATOM     82  F   UNL A   1      37.966  30.376  36.250  1.00  0.00    -0.206 F 
ATOM     83  C   UNL A   1      38.488  33.641  37.718  1.00  0.00     0.022 A 
BRANCH  80  84
ATOM     84  S   UNL A   1      40.060  35.847  37.055  1.00  0.00     0.124 S 
ATOM     85  O   UNL A   1      39.717  36.563  35.832  1.00  0.00    -0.237 OA
ATOM     86  O   UNL A   1      39.369  36.275  38.266  1.00  0.00    -0.237 OA
ATOM     87  O   UNL A   1      41.479  35.541  37.223  1.00  0.00    -0.744 OA
ENDBRANCH  80  84
ENDBRANCH  53  77
BRANCH  65  88
ATOM     88  C   UNL A   1      44.720  28.029  34.385  1.00  0.00     0.023 A 
ATOM     89  C   UNL A   1      44.736  26.957  35.292  1.00  0.00     0.031 A 
ATOM     90  C   UNL A   1      45.879  28.815  34.263  1.00  0.00     0.131 A 
ATOM     91  C   UNL A   1      45.878  26.723  36.073  1.00  0.00     0.055 A 
ATOM     92  C   UNL A   1      47.029  28.549  35.007  1.00  0.00     0.041 A 
ATOM     93  F   UNL A   1      45.915  29.852  33.410  1.00  0.00    -0.206 F 
ATOM     94  C   UNL A   1      47.029  27.502  35.925  1.00  0.00     0.022 A 
BRANCH  91  95
ATOM     95  S   UNL A   1      45.823  25.421  37.335  1.00  0.00     0.124 S 
ATOM     96  O   UNL A   1      44.962  26.018  38.351  1.00  0.00    -0.237 OA
ATOM     97  O   UNL A   1      45.253  24.297  36.599  1.00  0.00    -0.237 OA
ATOM     98  O   UNL A   1      47.222  25.259  37.723  1.00  0.00    -0.744 OA
ENDBRANCH  91  95
ENDBRANCH  65  88
ENDBRANCH  39  40
ENDBRANCH  31  34
ENDBRANCH  29  30
ENDBRANCH   1  29
TORSDOF 16
ENDMDL
