MODEL 1
REMARK VINA RESULT:     -11.7      0.000      0.000
REMARK SMILES Cc1cccc(C[N@@H+](C)C[C@]2(C(=O)NCCCCNC(=O)c3ccc(-c4c5nc(c(-c6cc(S(=O)(=O)[O-])ccc6F)c6ccc([nH]6)c(-c6cc(S(=O)(=O)[O-])ccc6F)c6nc(c(-c7cc(S(=O)(=O)[O-])ccc7F)c7ccc4[nH]7)C=C6)C=C5)cc3)CCC[C@H](C)C2)n1
REMARK SMILES IDX 16 1 15 2 14 3 12 4 13 5 11 7 85 8 90 9 86 10 88 11 87 12
REMARK SMILES IDX 89 13 10 14 8 15 9 16 7 18 6 19 1 20 2 21 3 22 91 23 4 24
REMARK SMILES IDX 5 25 17 26 18 27 19 28 20 29 21 31 22 32 23 33 84 34 24 35
REMARK SMILES IDX 83 36 25 37 26 38 27 39 77 40 28 41 82 42 76 43 78 44 29 45
REMARK SMILES IDX 81 46 75 47 74 48 30 50 62 51 42 52 61 53 43 54 46 55 60 56
REMARK SMILES IDX 79 57 44 58 45 59 59 61 80 62 47 63 31 64 32 65 40 66 33 67
REMARK SMILES IDX 39 68 41 69 38 70 34 71 35 72 36 73 37 74 63 75 64 76 72 77
REMARK SMILES IDX 65 78 71 79 73 80 70 81 66 82 67 83 68 84 69 85 48 86 49 87
REMARK SMILES IDX 57 88 50 89 56 90 58 91 55 92 51 93 52 94 53 95 54 96
REMARK H PARENT 14 6 8 17 19 30 78 49 46 60
REMARK Flexibility Score: inf
ROOT
ATOM      1  C   UNL A   1      32.726  26.925  24.480  1.00  0.00     0.023 C 
ENDROOT
BRANCH   1   2
ATOM      2  C   UNL A   1      33.695  25.873  25.002  1.00  0.00     0.116 C 
BRANCH   2   3
ATOM      3  N   UNL A   1      34.393  25.166  23.950  1.00  0.00    -0.355 N 
ATOM      4  C   UNL A   1      34.835  23.880  23.881  1.00  0.00     0.231 C 
ATOM      5  O   UNL A   1      35.149  23.486  22.750  1.00  0.00    -0.274 OA
ATOM      6  H   UNL A   1      34.580  25.706  23.149  1.00  0.00     0.163 HD
BRANCH   4   7
ATOM      7  C   UNL A   1      34.983  22.950  25.121  1.00  0.00     0.098 C 
ATOM      8  C   UNL A   1      35.618  21.595  24.637  1.00  0.00     0.023 C 
ATOM      9  C   UNL A   1      35.949  23.510  26.196  1.00  0.00     0.026 C 
ATOM     10  C   UNL A   1      37.076  21.700  24.175  1.00  0.00     0.002 C 
ATOM     11  C   UNL A   1      37.383  23.703  25.672  1.00  0.00    -0.013 C 
ATOM     12  C   UNL A   1      37.965  22.364  25.217  1.00  0.00     0.003 C 
ATOM     13  C   UNL A   1      38.269  24.340  26.742  1.00  0.00     0.007 C 
BRANCH   7  14
ATOM     14  C   UNL A   1      33.559  22.555  25.666  1.00  0.00     0.279 C 
BRANCH  14  15
ATOM     15  N   UNL A   1      32.608  21.944  24.725  1.00  0.00    -0.331 N 
ATOM     16  C   UNL A   1      31.470  22.816  24.425  1.00  0.00     0.333 C 
ATOM     17  H   UNL A   1      33.175  21.811  23.888  1.00  0.00     0.348 HD
BRANCH  15  18
ATOM     18  C   UNL A   1      32.096  20.609  25.120  1.00  0.00     0.319 C 
BRANCH  18  19
ATOM     19  C   UNL A   1      32.634  19.397  24.367  1.00  0.00     0.095 A 
ATOM     20  C   UNL A   1      34.997  16.641  25.000  1.00  0.00     0.067 C 
ATOM     21  C   UNL A   1      34.000  17.515  24.300  1.00  0.00     0.038 A 
ATOM     22  C   UNL A   1      33.553  17.187  23.023  1.00  0.00     0.023 A 
ATOM     23  N   UNL A   1      33.564  18.612  24.969  1.00  0.00    -0.252 NA
ATOM     24  C   UNL A   1      32.620  18.010  22.407  1.00  0.00     0.004 A 
ATOM     25  C   UNL A   1      32.153  19.129  23.086  1.00  0.00     0.030 A 
ENDBRANCH  18  19
ENDBRANCH  15  18
ENDBRANCH  14  15
ENDBRANCH   7  14
ENDBRANCH   4   7
ENDBRANCH   2   3
ENDBRANCH   1   2
BRANCH   1  26
ATOM     26  C   UNL A   1      32.391  28.033  25.470  1.00  0.00     0.023 C 
BRANCH  26  27
ATOM     27  C   UNL A   1      33.138  29.346  25.262  1.00  0.00     0.116 C 
BRANCH  27  28
ATOM     28  N   UNL A   1      32.556  30.473  25.984  1.00  0.00    -0.352 N 
ATOM     29  C   UNL A   1      33.082  31.189  27.034  1.00  0.00     0.251 C 
ATOM     30  H   UNL A   1      31.667  30.761  25.676  1.00  0.00     0.163 HD
ATOM     31  O   UNL A   1      32.417  32.063  27.584  1.00  0.00    -0.269 OA
BRANCH  29  32
ATOM     32  C   UNL A   1      34.436  30.856  27.521  1.00  0.00     0.039 A 
ATOM     33  C   UNL A   1      35.388  31.873  27.625  1.00  0.00     0.014 A 
ATOM     34  C   UNL A   1      34.734  29.560  27.950  1.00  0.00     0.014 A 
ATOM     35  C   UNL A   1      36.609  31.610  28.250  1.00  0.00     0.010 A 
ATOM     36  C   UNL A   1      35.917  29.323  28.642  1.00  0.00     0.010 A 
ATOM     37  C   UNL A   1      36.861  30.348  28.810  1.00  0.00    -0.014 A 
BRANCH  37  38
ATOM     38  C   UNL A   1      38.097  30.078  29.592  1.00  0.00     0.031 A 
ATOM     39  C   UNL A   1      39.105  29.085  29.079  1.00  0.00     0.074 A 
ATOM     40  C   UNL A   1      38.263  30.653  30.801  1.00  0.00     0.049 A 
ATOM     41  N   UNL A   1      40.184  28.627  29.660  1.00  0.00    -0.248 NA
ATOM     42  C   UNL A   1      38.846  28.504  27.752  1.00  0.00     0.031 C 
ATOM     43  C   UNL A   1      37.326  31.588  31.431  1.00  0.00     0.029 A 
ATOM     44  N   UNL A   1      39.268  30.523  31.729  1.00  0.00    -0.354 N 
ATOM     45  C   UNL A   1      40.714  27.683  28.787  1.00  0.00     0.074 A 
ATOM     46  C   UNL A   1      39.814  27.605  27.655  1.00  0.00     0.031 C 
ATOM     47  C   UNL A   1      37.808  31.957  32.629  1.00  0.00     0.029 A 
ATOM     48  C   UNL A   1      39.063  31.255  32.877  1.00  0.00     0.049 A 
ATOM     49  H   UNL A   1      40.063  29.960  31.585  1.00  0.00     0.167 HD
ATOM     50  C   UNL A   1      41.853  26.960  28.911  1.00  0.00     0.034 A 
ATOM     51  C   UNL A   1      39.794  31.336  34.008  1.00  0.00     0.034 A 
ATOM     52  C   UNL A   1      42.763  27.083  30.022  1.00  0.00     0.049 A 
ATOM     53  C   UNL A   1      41.071  30.538  34.106  1.00  0.00     0.074 A 
ATOM     54  C   UNL A   1      43.992  26.471  30.198  1.00  0.00     0.029 A 
ATOM     55  N   UNL A   1      42.544  27.866  31.147  1.00  0.00    -0.354 N 
ATOM     56  N   UNL A   1      41.597  29.710  33.232  1.00  0.00    -0.248 NA
ATOM     57  C   UNL A   1      41.862  30.697  35.334  1.00  0.00     0.031 C 
ATOM     58  C   UNL A   1      44.489  26.838  31.452  1.00  0.00     0.029 A 
ATOM     59  C   UNL A   1      43.602  27.730  32.033  1.00  0.00     0.049 A 
ATOM     60  H   UNL A   1      41.753  28.433  31.295  1.00  0.00     0.167 HD
ATOM     61  C   UNL A   1      42.796  29.280  33.793  1.00  0.00     0.074 A 
ATOM     62  C   UNL A   1      42.924  29.950  35.070  1.00  0.00     0.031 C 
ATOM     63  C   UNL A   1      43.714  28.411  33.299  1.00  0.00     0.034 A 
BRANCH  50  64
ATOM     64  C   UNL A   1      42.171  25.958  27.830  1.00  0.00     0.023 A 
ATOM     65  C   UNL A   1      41.790  24.610  27.934  1.00  0.00     0.031 A 
ATOM     66  C   UNL A   1      42.861  26.364  26.674  1.00  0.00     0.131 A 
ATOM     67  C   UNL A   1      42.146  23.704  26.924  1.00  0.00     0.055 A 
ATOM     68  C   UNL A   1      43.152  25.472  25.641  1.00  0.00     0.041 A 
ATOM     69  F   UNL A   1      43.267  27.636  26.531  1.00  0.00    -0.206 F 
ATOM     70  C   UNL A   1      42.803  24.131  25.767  1.00  0.00     0.022 A 
BRANCH  67  71
ATOM     71  S   UNL A   1      41.826  21.938  27.187  1.00  0.00     0.124 S 
ATOM     72  O   UNL A   1      42.062  21.395  25.851  1.00  0.00    -0.237 OA
ATOM     73  O   UNL A   1      42.812  21.585  28.202  1.00  0.00    -0.237 OA
ATOM     74  O   UNL A   1      40.435  21.904  27.630  1.00  0.00    -0.744 OA
ENDBRANCH  67  71
ENDBRANCH  50  64
BRANCH  51  75
ATOM     75  C   UNL A   1      39.346  32.182  35.153  1.00  0.00     0.023 A 
ATOM     76  C   UNL A   1      38.738  31.607  36.281  1.00  0.00     0.031 A 
ATOM     77  C   UNL A   1      39.444  33.584  35.102  1.00  0.00     0.131 A 
ATOM     78  C   UNL A   1      38.192  32.430  37.279  1.00  0.00     0.055 A 
ATOM     79  C   UNL A   1      38.952  34.396  36.126  1.00  0.00     0.041 A 
ATOM     80  F   UNL A   1      40.020  34.187  34.050  1.00  0.00    -0.206 F 
ATOM     81  C   UNL A   1      38.304  33.820  37.214  1.00  0.00     0.022 A 
BRANCH  78  82
ATOM     82  S   UNL A   1      37.221  31.658  38.603  1.00  0.00     0.124 S 
ATOM     83  O   UNL A   1      38.112  31.801  39.749  1.00  0.00    -0.237 OA
ATOM     84  O   UNL A   1      36.019  32.485  38.617  1.00  0.00    -0.237 OA
ATOM     85  O   UNL A   1      37.028  30.288  38.129  1.00  0.00    -0.744 OA
ENDBRANCH  78  82
ENDBRANCH  51  75
BRANCH  63  86
ATOM     86  C   UNL A   1      44.959  28.188  34.118  1.00  0.00     0.023 A 
ATOM     87  C   UNL A   1      45.049  27.147  35.058  1.00  0.00     0.031 A 
ATOM     88  C   UNL A   1      46.066  29.039  33.961  1.00  0.00     0.131 A 
ATOM     89  C   UNL A   1      46.203  27.015  35.844  1.00  0.00     0.055 A 
ATOM     90  C   UNL A   1      47.234  28.868  34.706  1.00  0.00     0.041 A 
ATOM     91  F   UNL A   1      46.033  30.049  33.078  1.00  0.00    -0.206 F 
ATOM     92  C   UNL A   1      47.302  27.859  35.663  1.00  0.00     0.022 A 
BRANCH  89  93
ATOM     93  S   UNL A   1      46.221  25.773  37.165  1.00  0.00     0.124 S 
ATOM     94  O   UNL A   1      47.210  24.820  36.674  1.00  0.00    -0.237 OA
ATOM     95  O   UNL A   1      46.618  26.560  38.328  1.00  0.00    -0.237 OA
ATOM     96  O   UNL A   1      44.845  25.280  37.192  1.00  0.00    -0.744 OA
ENDBRANCH  89  93
ENDBRANCH  63  86
ENDBRANCH  37  38
ENDBRANCH  29  32
ENDBRANCH  27  28
ENDBRANCH  26  27
ENDBRANCH   1  26
TORSDOF 18
ENDMDL
MODEL 2
REMARK VINA RESULT:     -11.7      3.710      5.783
REMARK SMILES Cc1cccc(C[N@@H+](C)C[C@]2(C(=O)NCCCCNC(=O)c3ccc(-c4c5nc(c(-c6cc(S(=O)(=O)[O-])ccc6F)c6ccc([nH]6)c(-c6cc(S(=O)(=O)[O-])ccc6F)c6nc(c(-c7cc(S(=O)(=O)[O-])ccc7F)c7ccc4[nH]7)C=C6)C=C5)cc3)CCC[C@H](C)C2)n1
REMARK SMILES IDX 16 1 15 2 14 3 12 4 13 5 11 7 85 8 90 9 86 10 88 11 87 12
REMARK SMILES IDX 89 13 10 14 8 15 9 16 7 18 6 19 1 20 2 21 3 22 91 23 4 24
REMARK SMILES IDX 5 25 17 26 18 27 19 28 20 29 21 31 22 32 23 33 84 34 24 35
REMARK SMILES IDX 83 36 25 37 26 38 27 39 77 40 28 41 82 42 76 43 78 44 29 45
REMARK SMILES IDX 81 46 75 47 74 48 30 50 62 51 42 52 61 53 43 54 46 55 60 56
REMARK SMILES IDX 79 57 44 58 45 59 59 61 80 62 47 63 31 64 32 65 40 66 33 67
REMARK SMILES IDX 39 68 41 69 38 70 34 71 35 72 36 73 37 74 63 75 64 76 72 77
REMARK SMILES IDX 65 78 71 79 73 80 70 81 66 82 67 83 68 84 69 85 48 86 49 87
REMARK SMILES IDX 57 88 50 89 56 90 58 91 55 92 51 93 52 94 53 95 54 96
REMARK H PARENT 14 6 8 17 19 30 78 49 46 60
REMARK Flexibility Score: inf
ROOT
ATOM      1  C   UNL A   1      32.447  30.152  26.531  1.00  0.00     0.023 C 
ENDROOT
BRANCH   1   2
ATOM      2  C   UNL A   1      31.781  29.592  25.282  1.00  0.00     0.116 C 
BRANCH   2   3
ATOM      3  N   UNL A   1      32.693  29.430  24.170  1.00  0.00    -0.355 N 
ATOM      4  C   UNL A   1      32.650  28.595  23.097  1.00  0.00     0.231 C 
ATOM      5  O   UNL A   1      33.424  28.877  22.173  1.00  0.00    -0.274 OA
ATOM      6  H   UNL A   1      33.477  30.024  24.195  1.00  0.00     0.163 HD
BRANCH   4   7
ATOM      7  C   UNL A   1      31.731  27.340  23.014  1.00  0.00     0.098 C 
ATOM      8  C   UNL A   1      32.316  26.383  21.912  1.00  0.00     0.023 C 
ATOM      9  C   UNL A   1      31.704  26.512  24.323  1.00  0.00     0.026 C 
ATOM     10  C   UNL A   1      33.658  25.737  22.271  1.00  0.00     0.002 C 
ATOM     11  C   UNL A   1      33.088  25.963  24.715  1.00  0.00    -0.013 C 
ATOM     12  C   UNL A   1      33.618  25.035  23.621  1.00  0.00     0.003 C 
ATOM     13  C   UNL A   1      33.021  25.233  26.056  1.00  0.00     0.007 C 
BRANCH   7  14
ATOM     14  C   UNL A   1      30.310  27.754  22.474  1.00  0.00     0.279 C 
BRANCH  14  15
ATOM     15  N   UNL A   1      29.197  27.802  23.434  1.00  0.00    -0.331 N 
ATOM     16  C   UNL A   1      28.739  26.470  23.836  1.00  0.00     0.333 C 
ATOM     17  H   UNL A   1      29.610  28.284  24.232  1.00  0.00     0.348 HD
BRANCH  15  18
ATOM     18  C   UNL A   1      28.024  28.601  23.003  1.00  0.00     0.319 C 
BRANCH  18  19
ATOM     19  C   UNL A   1      28.250  30.078  22.701  1.00  0.00     0.095 A 
ATOM     20  C   UNL A   1      27.875  32.344  19.819  1.00  0.00     0.067 C 
ATOM     21  C   UNL A   1      28.181  31.859  21.204  1.00  0.00     0.038 A 
ATOM     22  C   UNL A   1      28.608  32.751  22.184  1.00  0.00     0.023 A 
ATOM     23  N   UNL A   1      28.013  30.533  21.444  1.00  0.00    -0.252 NA
ATOM     24  C   UNL A   1      28.870  32.270  23.459  1.00  0.00     0.004 A 
ATOM     25  C   UNL A   1      28.689  30.918  23.724  1.00  0.00     0.030 A 
ENDBRANCH  18  19
ENDBRANCH  15  18
ENDBRANCH  14  15
ENDBRANCH   7  14
ENDBRANCH   4   7
ENDBRANCH   2   3
ENDBRANCH   1   2
BRANCH   1  26
ATOM     26  C   UNL A   1      32.005  31.559  26.915  1.00  0.00     0.023 C 
BRANCH  26  27
ATOM     27  C   UNL A   1      33.102  32.462  27.470  1.00  0.00     0.116 C 
BRANCH  27  28
ATOM     28  N   UNL A   1      32.675  33.841  27.682  1.00  0.00    -0.352 N 
ATOM     29  C   UNL A   1      33.181  34.777  28.554  1.00  0.00     0.251 C 
ATOM     30  H   UNL A   1      31.924  34.144  27.123  1.00  0.00     0.163 HD
ATOM     31  O   UNL A   1      32.645  35.876  28.665  1.00  0.00    -0.269 OA
BRANCH  29  32
ATOM     32  C   UNL A   1      34.346  34.421  29.389  1.00  0.00     0.039 A 
ATOM     33  C   UNL A   1      34.132  33.824  30.633  1.00  0.00     0.014 A 
ATOM     34  C   UNL A   1      35.645  34.601  28.904  1.00  0.00     0.014 A 
ATOM     35  C   UNL A   1      35.219  33.319  31.351  1.00  0.00     0.010 A 
ATOM     36  C   UNL A   1      36.715  34.029  29.583  1.00  0.00     0.010 A 
ATOM     37  C   UNL A   1      36.512  33.371  30.806  1.00  0.00    -0.014 A 
BRANCH  37  38
ATOM     38  C   UNL A   1      37.668  32.728  31.488  1.00  0.00     0.031 A 
ATOM     39  C   UNL A   1      38.387  31.585  30.824  1.00  0.00     0.074 A 
ATOM     40  C   UNL A   1      38.006  33.111  32.737  1.00  0.00     0.049 A 
ATOM     41  N   UNL A   1      39.338  30.821  31.296  1.00  0.00    -0.248 NA
ATOM     42  C   UNL A   1      37.953  31.232  29.463  1.00  0.00     0.031 C 
ATOM     43  C   UNL A   1      37.345  34.169  33.507  1.00  0.00     0.029 A 
ATOM     44  N   UNL A   1      38.976  32.644  33.589  1.00  0.00    -0.354 N 
ATOM     45  C   UNL A   1      39.594  29.879  30.305  1.00  0.00     0.074 A 
ATOM     46  C   UNL A   1      38.669  30.143  29.224  1.00  0.00     0.031 C 
ATOM     47  C   UNL A   1      37.938  34.278  34.707  1.00  0.00     0.029 A 
ATOM     48  C   UNL A   1      38.990  33.273  34.814  1.00  0.00     0.049 A 
ATOM     49  H   UNL A   1      39.604  31.925  33.346  1.00  0.00     0.167 HD
ATOM     50  C   UNL A   1      40.525  28.895  30.294  1.00  0.00     0.034 A 
ATOM     51  C   UNL A   1      39.752  33.052  35.905  1.00  0.00     0.034 A 
ATOM     52  C   UNL A   1      41.471  28.673  31.359  1.00  0.00     0.049 A 
ATOM     53  C   UNL A   1      40.799  31.966  35.852  1.00  0.00     0.074 A 
ATOM     54  C   UNL A   1      42.518  27.769  31.404  1.00  0.00     0.029 A 
ATOM     55  N   UNL A   1      41.484  29.358  32.566  1.00  0.00    -0.354 N 
ATOM     56  N   UNL A   1      41.080  31.136  34.872  1.00  0.00    -0.248 NA
ATOM     57  C   UNL A   1      41.641  31.795  37.044  1.00  0.00     0.031 C 
ATOM     58  C   UNL A   1      43.126  27.866  32.659  1.00  0.00     0.029 A 
ATOM     59  C   UNL A   1      42.502  28.876  33.374  1.00  0.00     0.049 A 
ATOM     60  H   UNL A   1      40.860  30.078  32.813  1.00  0.00     0.167 HD
ATOM     61  C   UNL A   1      42.154  30.372  35.321  1.00  0.00     0.074 A 
ATOM     62  C   UNL A   1      42.480  30.849  36.648  1.00  0.00     0.031 C 
ATOM     63  C   UNL A   1      42.815  29.368  34.692  1.00  0.00     0.034 A 
BRANCH  50  64
ATOM     64  C   UNL A   1      40.556  27.970  29.103  1.00  0.00     0.023 A 
ATOM     65  C   UNL A   1      41.495  28.124  28.069  1.00  0.00     0.031 A 
ATOM     66  C   UNL A   1      39.635  26.912  29.009  1.00  0.00     0.131 A 
ATOM     67  C   UNL A   1      41.458  27.267  26.959  1.00  0.00     0.055 A 
ATOM     68  C   UNL A   1      39.648  26.020  27.934  1.00  0.00     0.041 A 
ATOM     69  F   UNL A   1      38.704  26.730  29.958  1.00  0.00    -0.206 F 
ATOM     70  C   UNL A   1      40.557  26.201  26.897  1.00  0.00     0.022 A 
BRANCH  67  71
ATOM     71  S   UNL A   1      42.541  27.624  25.549  1.00  0.00     0.124 S 
ATOM     72  O   UNL A   1      41.952  28.857  25.030  1.00  0.00    -0.237 OA
ATOM     73  O   UNL A   1      43.849  27.758  26.179  1.00  0.00    -0.237 OA
ATOM     74  O   UNL A   1      42.380  26.453  24.689  1.00  0.00    -0.744 OA
ENDBRANCH  67  71
ENDBRANCH  50  64
BRANCH  51  75
ATOM     75  C   UNL A   1      39.559  33.850  37.151  1.00  0.00     0.023 A 
ATOM     76  C   UNL A   1      40.360  34.973  37.422  1.00  0.00     0.031 A 
ATOM     77  C   UNL A   1      38.628  33.457  38.128  1.00  0.00     0.131 A 
ATOM     78  C   UNL A   1      40.263  35.620  38.663  1.00  0.00     0.055 A 
ATOM     79  C   UNL A   1      38.493  34.141  39.338  1.00  0.00     0.041 A 
ATOM     80  F   UNL A   1      37.833  32.395  37.921  1.00  0.00    -0.206 F 
ATOM     81  C   UNL A   1      39.328  35.219  39.619  1.00  0.00     0.022 A 
BRANCH  78  82
ATOM     82  S   UNL A   1      41.466  36.919  39.059  1.00  0.00     0.124 S 
ATOM     83  O   UNL A   1      42.289  36.265  40.070  1.00  0.00    -0.237 OA
ATOM     84  O   UNL A   1      42.099  37.148  37.764  1.00  0.00    -0.237 OA
ATOM     85  O   UNL A   1      40.633  38.017  39.547  1.00  0.00    -0.744 OA
ENDBRANCH  78  82
ENDBRANCH  51  75
BRANCH  63  86
ATOM     86  C   UNL A   1      43.992  28.764  35.415  1.00  0.00     0.023 A 
ATOM     87  C   UNL A   1      43.840  27.689  36.307  1.00  0.00     0.031 A 
ATOM     88  C   UNL A   1      45.283  29.283  35.214  1.00  0.00     0.131 A 
ATOM     89  C   UNL A   1      44.954  27.200  37.006  1.00  0.00     0.055 A 
ATOM     90  C   UNL A   1      46.396  28.756  35.869  1.00  0.00     0.041 A 
ATOM     91  F   UNL A   1      45.484  30.310  34.373  1.00  0.00    -0.206 F 
ATOM     92  C   UNL A   1      46.233  27.716  36.781  1.00  0.00     0.022 A 
BRANCH  89  93
ATOM     93  S   UNL A   1      44.697  25.931  38.276  1.00  0.00     0.124 S 
ATOM     94  O   UNL A   1      46.052  25.434  38.487  1.00  0.00    -0.237 OA
ATOM     95  O   UNL A   1      44.123  26.701  39.375  1.00  0.00    -0.237 OA
ATOM     96  O   UNL A   1      43.782  24.986  37.638  1.00  0.00    -0.744 OA
ENDBRANCH  89  93
ENDBRANCH  63  86
ENDBRANCH  37  38
ENDBRANCH  29  32
ENDBRANCH  27  28
ENDBRANCH  26  27
ENDBRANCH   1  26
TORSDOF 18
ENDMDL
MODEL 3
REMARK VINA RESULT:     -11.7      2.257      8.385
REMARK SMILES Cc1cccc(C[N@@H+](C)C[C@]2(C(=O)NCCCCNC(=O)c3ccc(-c4c5nc(c(-c6cc(S(=O)(=O)[O-])ccc6F)c6ccc([nH]6)c(-c6cc(S(=O)(=O)[O-])ccc6F)c6nc(c(-c7cc(S(=O)(=O)[O-])ccc7F)c7ccc4[nH]7)C=C6)C=C5)cc3)CCC[C@H](C)C2)n1
REMARK SMILES IDX 16 1 15 2 14 3 12 4 13 5 11 7 85 8 90 9 86 10 88 11 87 12
REMARK SMILES IDX 89 13 10 14 8 15 9 16 7 18 6 19 1 20 2 21 3 22 91 23 4 24
REMARK SMILES IDX 5 25 17 26 18 27 19 28 20 29 21 31 22 32 23 33 84 34 24 35
REMARK SMILES IDX 83 36 25 37 26 38 27 39 77 40 28 41 82 42 76 43 78 44 29 45
REMARK SMILES IDX 81 46 75 47 74 48 30 50 62 51 42 52 61 53 43 54 46 55 60 56
REMARK SMILES IDX 79 57 44 58 45 59 59 61 80 62 47 63 31 64 32 65 40 66 33 67
REMARK SMILES IDX 39 68 41 69 38 70 34 71 35 72 36 73 37 74 63 75 64 76 72 77
REMARK SMILES IDX 65 78 71 79 73 80 70 81 66 82 67 83 68 84 69 85 48 86 49 87
REMARK SMILES IDX 57 88 50 89 56 90 58 91 55 92 51 93 52 94 53 95 54 96
REMARK H PARENT 14 6 8 17 19 30 78 49 46 60
REMARK Flexibility Score: inf
ROOT
ATOM      1  C   UNL A   1      32.244  27.563  26.736  1.00  0.00     0.023 C 
ENDROOT
BRANCH   1   2
ATOM      2  C   UNL A   1      33.240  27.274  25.622  1.00  0.00     0.116 C 
BRANCH   2   3
ATOM      3  N   UNL A   1      34.132  26.174  25.922  1.00  0.00    -0.355 N 
ATOM      4  C   UNL A   1      34.423  25.045  25.220  1.00  0.00     0.231 C 
ATOM      5  O   UNL A   1      35.428  24.428  25.599  1.00  0.00    -0.274 OA
ATOM      6  H   UNL A   1      34.607  26.256  26.781  1.00  0.00     0.163 HD
BRANCH   4   7
ATOM      7  C   UNL A   1      33.558  24.515  24.039  1.00  0.00     0.098 C 
ATOM      8  C   UNL A   1      34.225  23.194  23.505  1.00  0.00     0.023 C 
ATOM      9  C   UNL A   1      32.119  24.122  24.460  1.00  0.00     0.026 C 
ATOM     10  C   UNL A   1      34.158  22.007  24.471  1.00  0.00     0.002 C 
ATOM     11  C   UNL A   1      32.087  22.997  25.510  1.00  0.00    -0.013 C 
ATOM     12  C   UNL A   1      32.740  21.732  24.950  1.00  0.00     0.003 C 
ATOM     13  C   UNL A   1      30.653  22.712  25.955  1.00  0.00     0.007 C 
BRANCH   7  14
ATOM     14  C   UNL A   1      33.632  25.521  22.829  1.00  0.00     0.279 C 
BRANCH  14  15
ATOM     15  N   UNL A   1      32.370  25.921  22.189  1.00  0.00    -0.331 N 
ATOM     16  C   UNL A   1      32.324  25.579  20.765  1.00  0.00     0.333 C 
ATOM     17  H   UNL A   1      31.677  25.375  22.701  1.00  0.00     0.348 HD
BRANCH  15  18
ATOM     18  C   UNL A   1      32.003  27.349  22.349  1.00  0.00     0.319 C 
BRANCH  18  19
ATOM     19  C   UNL A   1      30.547  27.672  22.665  1.00  0.00     0.095 A 
ATOM     20  C   UNL A   1      28.073  30.237  21.727  1.00  0.00     0.067 C 
ATOM     21  C   UNL A   1      28.679  29.029  22.376  1.00  0.00     0.038 A 
ATOM     22  C   UNL A   1      27.908  28.211  23.198  1.00  0.00     0.023 A 
ATOM     23  N   UNL A   1      29.988  28.781  22.116  1.00  0.00    -0.252 NA
ATOM     24  C   UNL A   1      28.498  27.093  23.773  1.00  0.00     0.004 A 
ATOM     25  C   UNL A   1      29.833  26.818  23.505  1.00  0.00     0.030 A 
ENDBRANCH  18  19
ENDBRANCH  15  18
ENDBRANCH  14  15
ENDBRANCH   7  14
ENDBRANCH   4   7
ENDBRANCH   2   3
ENDBRANCH   1   2
BRANCH   1  26
ATOM     26  C   UNL A   1      31.765  29.008  26.807  1.00  0.00     0.023 C 
BRANCH  26  27
ATOM     27  C   UNL A   1      32.606  30.016  26.030  1.00  0.00     0.116 C 
BRANCH  27  28
ATOM     28  N   UNL A   1      32.434  31.393  26.481  1.00  0.00    -0.352 N 
ATOM     29  C   UNL A   1      33.254  32.144  27.291  1.00  0.00     0.251 C 
ATOM     30  H   UNL A   1      31.622  31.847  26.161  1.00  0.00     0.163 HD
ATOM     31  O   UNL A   1      32.916  33.271  27.643  1.00  0.00    -0.269 OA
BRANCH  29  32
ATOM     32  C   UNL A   1      34.522  31.557  27.768  1.00  0.00     0.039 A 
ATOM     33  C   UNL A   1      35.614  32.396  28.001  1.00  0.00     0.014 A 
ATOM     34  C   UNL A   1      34.602  30.193  28.063  1.00  0.00     0.014 A 
ATOM     35  C   UNL A   1      36.755  31.884  28.622  1.00  0.00     0.010 A 
ATOM     36  C   UNL A   1      35.707  29.704  28.751  1.00  0.00     0.010 A 
ATOM     37  C   UNL A   1      36.790  30.546  29.049  1.00  0.00    -0.014 A 
BRANCH  37  38
ATOM     38  C   UNL A   1      37.939  30.008  29.825  1.00  0.00     0.031 A 
ATOM     39  C   UNL A   1      38.182  30.488  31.231  1.00  0.00     0.074 A 
ATOM     40  C   UNL A   1      38.811  29.166  29.233  1.00  0.00     0.049 A 
ATOM     41  N   UNL A   1      39.185  30.231  32.030  1.00  0.00    -0.248 NA
ATOM     42  C   UNL A   1      37.183  31.407  31.798  1.00  0.00     0.031 C 
ATOM     43  C   UNL A   1      38.713  28.675  27.855  1.00  0.00     0.029 A 
ATOM     44  N   UNL A   1      39.963  28.586  29.705  1.00  0.00    -0.354 N 
ATOM     45  C   UNL A   1      38.956  30.979  33.179  1.00  0.00     0.074 A 
ATOM     46  C   UNL A   1      37.740  31.731  32.956  1.00  0.00     0.031 C 
ATOM     47  C   UNL A   1      39.749  27.859  27.602  1.00  0.00     0.029 A 
ATOM     48  C   UNL A   1      40.611  27.801  28.777  1.00  0.00     0.049 A 
ATOM     49  H   UNL A   1      40.294  28.718  30.623  1.00  0.00     0.167 HD
ATOM     50  C   UNL A   1      39.685  31.021  34.321  1.00  0.00     0.034 A 
ATOM     51  C   UNL A   1      41.776  27.126  28.860  1.00  0.00     0.034 A 
ATOM     52  C   UNL A   1      40.868  30.230  34.546  1.00  0.00     0.049 A 
ATOM     53  C   UNL A   1      42.552  27.173  30.154  1.00  0.00     0.074 A 
ATOM     54  C   UNL A   1      41.624  30.124  35.701  1.00  0.00     0.029 A 
ATOM     55  N   UNL A   1      41.472  29.414  33.600  1.00  0.00    -0.354 N 
ATOM     56  N   UNL A   1      42.275  27.824  31.261  1.00  0.00    -0.248 NA
ATOM     57  C   UNL A   1      43.789  26.381  30.216  1.00  0.00     0.031 C 
ATOM     58  C   UNL A   1      42.715  29.291  35.436  1.00  0.00     0.029 A 
ATOM     59  C   UNL A   1      42.606  28.824  34.136  1.00  0.00     0.049 A 
ATOM     60  H   UNL A   1      41.144  29.276  32.682  1.00  0.00     0.167 HD
ATOM     61  C   UNL A   1      43.285  27.490  32.158  1.00  0.00     0.074 A 
ATOM     62  C   UNL A   1      44.166  26.570  31.472  1.00  0.00     0.031 C 
ATOM     63  C   UNL A   1      43.469  27.904  33.438  1.00  0.00     0.034 A 
BRANCH  50  64
ATOM     64  C   UNL A   1      39.236  31.966  35.407  1.00  0.00     0.023 A 
ATOM     65  C   UNL A   1      39.739  33.274  35.505  1.00  0.00     0.031 A 
ATOM     66  C   UNL A   1      38.283  31.552  36.352  1.00  0.00     0.131 A 
ATOM     67  C   UNL A   1      39.326  34.104  36.558  1.00  0.00     0.055 A 
ATOM     68  C   UNL A   1      37.823  32.405  37.357  1.00  0.00     0.041 A 
ATOM     69  F   UNL A   1      37.782  30.306  36.318  1.00  0.00    -0.206 F 
ATOM     70  C   UNL A   1      38.354  33.687  37.470  1.00  0.00     0.022 A 
BRANCH  67  71
ATOM     71  S   UNL A   1      40.150  35.704  36.779  1.00  0.00     0.124 S 
ATOM     72  O   UNL A   1      39.653  36.453  35.627  1.00  0.00    -0.237 OA
ATOM     73  O   UNL A   1      39.657  36.137  38.082  1.00  0.00    -0.237 OA
ATOM     74  O   UNL A   1      41.571  35.368  36.731  1.00  0.00    -0.744 OA
ENDBRANCH  67  71
ENDBRANCH  50  64
BRANCH  51  75
ATOM     75  C   UNL A   1      42.305  26.361  27.693  1.00  0.00     0.023 A 
ATOM     76  C   UNL A   1      41.913  25.032  27.463  1.00  0.00     0.031 A 
ATOM     77  C   UNL A   1      43.271  26.919  26.836  1.00  0.00     0.131 A 
ATOM     78  C   UNL A   1      42.532  24.284  26.449  1.00  0.00     0.055 A 
ATOM     79  C   UNL A   1      43.840  26.188  25.791  1.00  0.00     0.041 A 
ATOM     80  F   UNL A   1      43.679  28.187  27.006  1.00  0.00    -0.206 F 
ATOM     81  C   UNL A   1      43.485  24.856  25.605  1.00  0.00     0.022 A 
BRANCH  78  82
ATOM     82  S   UNL A   1      42.161  22.512  26.332  1.00  0.00     0.124 S 
ATOM     83  O   UNL A   1      42.764  21.999  27.557  1.00  0.00    -0.237 OA
ATOM     84  O   UNL A   1      40.702  22.511  26.284  1.00  0.00    -0.237 OA
ATOM     85  O   UNL A   1      42.824  22.107  25.093  1.00  0.00    -0.744 OA
ENDBRANCH  78  82
ENDBRANCH  51  75
BRANCH  63  86
ATOM     86  C   UNL A   1      44.635  27.313  34.188  1.00  0.00     0.023 A 
ATOM     87  C   UNL A   1      44.509  26.132  34.940  1.00  0.00     0.031 A 
ATOM     88  C   UNL A   1      45.887  27.951  34.158  1.00  0.00     0.131 A 
ATOM     89  C   UNL A   1      45.604  25.653  35.673  1.00  0.00     0.055 A 
ATOM     90  C   UNL A   1      46.988  27.439  34.844  1.00  0.00     0.041 A 
ATOM     91  F   UNL A   1      46.062  29.082  33.456  1.00  0.00    -0.206 F 
ATOM     92  C   UNL A   1      46.847  26.289  35.618  1.00  0.00     0.022 A 
BRANCH  89  93
ATOM     93  S   UNL A   1      45.363  24.228  36.768  1.00  0.00     0.124 S 
ATOM     94  O   UNL A   1      44.608  23.315  35.918  1.00  0.00    -0.237 OA
ATOM     95  O   UNL A   1      46.734  23.830  37.071  1.00  0.00    -0.237 OA
ATOM     96  O   UNL A   1      44.617  24.784  37.896  1.00  0.00    -0.744 OA
ENDBRANCH  89  93
ENDBRANCH  63  86
ENDBRANCH  37  38
ENDBRANCH  29  32
ENDBRANCH  27  28
ENDBRANCH  26  27
ENDBRANCH   1  26
TORSDOF 18
ENDMDL
