MODEL 1
REMARK VINA RESULT:     -11.5      0.000      0.000
REMARK SMILES O=C(Cn1c(=O)c2c3c(sc2n(Cc2ccc(Cl)cc2Cl)c1=O)CCCC3)NCCCCNC(=O)c1ccc(-c2c3nc(c(-c4cc(S(=O)(=O)[O-])ccc4F)c4ccc([nH]4)c(-c4cc(S(=O)(=O)[O-])ccc4F)c4nc(c(-c5cc(S(=O)(=O)[O-])ccc5F)c5ccc2[nH]5)C=C4)C=C3)cc1
REMARK SMILES IDX 30 1 29 2 28 3 1 4 2 5 3 7 4 8 5 9 22 10 6 11 7 12 12 13
REMARK SMILES IDX 23 14 8 15 11 16 9 17 27 18 10 19 24 20 26 21 25 22 13 23
REMARK SMILES IDX 14 24 15 25 20 26 16 27 19 28 21 29 17 30 18 31 31 32 32 33
REMARK SMILES IDX 33 34 34 35 35 37 36 38 37 39 98 40 38 41 97 42 39 43 40 44
REMARK SMILES IDX 41 45 91 46 42 47 96 48 90 49 92 50 43 51 95 52 89 53 88 54
REMARK SMILES IDX 44 56 76 57 56 58 75 59 57 60 60 61 74 62 93 63 58 64 59 65
REMARK SMILES IDX 73 67 94 68 61 69 45 70 46 71 54 72 47 73 53 74 55 75 52 76
REMARK SMILES IDX 48 77 49 78 50 79 51 80 77 81 78 82 86 83 79 84 85 85 87 86
REMARK SMILES IDX 84 87 80 88 81 89 82 90 83 91 62 92 63 93 71 94 64 95 70 96
REMARK SMILES IDX 72 97 69 98 65 99 66 100 67 101 68 102
REMARK H PARENT 28 6 33 36 92 55 60 66
REMARK Flexibility Score: inf
ROOT
ATOM      1  C   UNL A   1      47.536  23.934  38.320  1.00  0.00     0.023 C 
ENDROOT
BRANCH   1   2
ATOM      2  C   UNL A   1      47.750  23.304  39.696  1.00  0.00     0.116 C 
BRANCH   2   3
ATOM      3  N   UNL A   1      47.935  21.878  39.573  1.00  0.00    -0.355 N 
ATOM      4  O   UNL A   1      45.755  21.229  39.226  1.00  0.00    -0.273 OA
ATOM      5  C   UNL A   1      46.940  20.949  39.371  1.00  0.00     0.240 C 
ATOM      6  H   UNL A   1      48.858  21.539  39.640  1.00  0.00     0.163 HD
BRANCH   5   7
ATOM      7  C   UNL A   1      47.494  19.522  39.254  1.00  0.00     0.230 C 
BRANCH   7   8
ATOM      8  N   UNL A   1      46.946  18.636  40.277  1.00  0.00    -0.250 N 
ATOM      9  C   UNL A   1      45.833  17.879  39.921  1.00  0.00     0.265 A 
ATOM     10  C   UNL A   1      47.393  18.820  41.594  1.00  0.00     0.332 A 
ATOM     11  O   UNL A   1      45.274  17.946  38.822  1.00  0.00    -0.268 OA
ATOM     12  C   UNL A   1      45.326  17.036  40.975  1.00  0.00     0.079 A 
ATOM     13  N   UNL A   1      47.004  17.880  42.553  1.00  0.00    -0.280 N 
ATOM     14  O   UNL A   1      48.104  19.787  41.888  1.00  0.00    -0.247 OA
ATOM     15  C   UNL A   1      44.125  16.243  41.030  1.00  0.00    -0.019 A 
ATOM     16  C   UNL A   1      45.983  17.019  42.180  1.00  0.00     0.113 A 
ATOM     17  C   UNL A   1      43.997  15.640  42.268  1.00  0.00     0.011 A 
ATOM     18  C   UNL A   1      43.043  16.136  39.995  1.00  0.00     0.037 C 
ATOM     19  S   UNL A   1      45.383  15.835  43.217  1.00  0.00    -0.122 S 
ATOM     20  C   UNL A   1      42.811  14.878  42.762  1.00  0.00     0.047 C 
ATOM     21  C   UNL A   1      42.012  15.050  40.362  1.00  0.00     0.005 C 
ATOM     22  C   UNL A   1      41.609  15.122  41.841  1.00  0.00     0.006 C 
BRANCH  13  23
ATOM     23  C   UNL A   1      47.584  17.976  43.921  1.00  0.00     0.165 C 
BRANCH  23  24
ATOM     24  C   UNL A   1      46.985  19.118  44.725  1.00  0.00    -0.009 A 
ATOM     25  C   UNL A   1      45.597  19.342  44.645  1.00  0.00     0.008 A 
ATOM     26  C   UNL A   1      47.722  19.920  45.615  1.00  0.00     0.047 A 
ATOM     27  C   UNL A   1      44.953  20.195  45.539  1.00  0.00     0.021 A 
ATOM     28  C   UNL A   1      47.072  20.721  46.557  1.00  0.00     0.041 A 
ATOM     29  Cl  UNL A   1      49.443  20.044  45.557  1.00  0.00    -0.084 Cl
ATOM     30  C   UNL A   1      45.686  20.818  46.540  1.00  0.00     0.042 A 
ATOM     31  Cl  UNL A   1      44.869  21.671  47.786  1.00  0.00    -0.084 Cl
ENDBRANCH  23  24
ENDBRANCH  13  23
ENDBRANCH   7   8
ENDBRANCH   5   7
ENDBRANCH   2   3
ENDBRANCH   1   2
BRANCH   1  32
ATOM     32  C   UNL A   1      46.406  24.982  38.234  1.00  0.00     0.023 C 
BRANCH  32  33
ATOM     33  C   UNL A   1      45.154  24.546  37.462  1.00  0.00     0.116 C 
BRANCH  33  34
ATOM     34  N   UNL A   1      45.287  23.170  37.025  1.00  0.00    -0.352 N 
ATOM     35  C   UNL A   1      45.018  22.591  35.816  1.00  0.00     0.251 C 
ATOM     36  H   UNL A   1      45.627  22.552  37.711  1.00  0.00     0.163 HD
ATOM     37  O   UNL A   1      44.781  21.383  35.800  1.00  0.00    -0.269 OA
BRANCH  35  38
ATOM     38  C   UNL A   1      45.037  23.351  34.545  1.00  0.00     0.039 A 
ATOM     39  C   UNL A   1      46.238  23.975  34.190  1.00  0.00     0.014 A 
ATOM     40  C   UNL A   1      43.878  23.605  33.802  1.00  0.00     0.014 A 
ATOM     41  C   UNL A   1      46.281  24.843  33.103  1.00  0.00     0.010 A 
ATOM     42  C   UNL A   1      43.925  24.470  32.702  1.00  0.00     0.010 A 
ATOM     43  C   UNL A   1      45.125  25.098  32.350  1.00  0.00    -0.014 A 
BRANCH  43  44
ATOM     44  C   UNL A   1      45.266  26.037  31.218  1.00  0.00     0.031 A 
ATOM     45  C   UNL A   1      45.202  25.447  29.838  1.00  0.00     0.074 A 
ATOM     46  C   UNL A   1      44.738  27.269  31.365  1.00  0.00     0.049 A 
ATOM     47  N   UNL A   1      44.122  25.133  29.186  1.00  0.00    -0.248 NA
ATOM     48  C   UNL A   1      46.434  24.990  29.190  1.00  0.00     0.031 C 
ATOM     49  C   UNL A   1      43.362  27.534  31.790  1.00  0.00     0.029 A 
ATOM     50  N   UNL A   1      45.209  28.481  30.920  1.00  0.00    -0.354 N 
ATOM     51  C   UNL A   1      44.515  24.439  28.048  1.00  0.00     0.074 A 
ATOM     52  C   UNL A   1      45.957  24.357  28.108  1.00  0.00     0.031 C 
ATOM     53  C   UNL A   1      43.045  28.799  31.449  1.00  0.00     0.029 A 
ATOM     54  C   UNL A   1      44.212  29.449  30.857  1.00  0.00     0.049 A 
ATOM     55  H   UNL A   1      46.147  28.648  30.673  1.00  0.00     0.167 HD
ATOM     56  C   UNL A   1      43.653  23.984  27.098  1.00  0.00     0.034 A 
ATOM     57  C   UNL A   1      44.191  30.452  29.936  1.00  0.00     0.034 A 
ATOM     58  C   UNL A   1      42.288  24.370  27.284  1.00  0.00     0.049 A 
ATOM     59  C   UNL A   1      43.485  29.764  28.793  1.00  0.00     0.074 A 
ATOM     60  C   UNL A   1      41.163  23.850  27.883  1.00  0.00     0.029 A 
ATOM     61  N   UNL A   1      41.904  25.608  26.823  1.00  0.00    -0.354 N 
ATOM     62  N   UNL A   1      42.203  29.530  28.714  1.00  0.00    -0.248 NA
ATOM     63  C   UNL A   1      44.302  28.944  27.894  1.00  0.00     0.031 C 
ATOM     64  C   UNL A   1      40.322  24.976  28.148  1.00  0.00     0.029 A 
ATOM     65  C   UNL A   1      41.017  26.113  27.737  1.00  0.00     0.049 A 
ATOM     66  H   UNL A   1      42.208  26.047  25.996  1.00  0.00     0.167 HD
ATOM     67  C   UNL A   1      42.086  28.328  28.012  1.00  0.00     0.074 A 
ATOM     68  C   UNL A   1      43.407  28.058  27.477  1.00  0.00     0.031 C 
ATOM     69  C   UNL A   1      40.992  27.513  28.100  1.00  0.00     0.034 A 
BRANCH  56  70
ATOM     70  C   UNL A   1      44.038  23.250  25.868  1.00  0.00     0.023 A 
ATOM     71  C   UNL A   1      43.797  21.869  25.800  1.00  0.00     0.031 A 
ATOM     72  C   UNL A   1      44.810  23.837  24.858  1.00  0.00     0.131 A 
ATOM     73  C   UNL A   1      44.360  21.101  24.773  1.00  0.00     0.055 A 
ATOM     74  C   UNL A   1      45.358  23.066  23.826  1.00  0.00     0.041 A 
ATOM     75  F   UNL A   1      45.084  25.151  24.886  1.00  0.00    -0.206 F 
ATOM     76  C   UNL A   1      45.151  21.689  23.789  1.00  0.00     0.022 A 
BRANCH  73  77
ATOM     77  S   UNL A   1      44.097  19.309  24.801  1.00  0.00     0.124 S 
ATOM     78  O   UNL A   1      44.427  18.930  23.432  1.00  0.00    -0.237 OA
ATOM     79  O   UNL A   1      45.047  18.891  25.828  1.00  0.00    -0.237 OA
ATOM     80  O   UNL A   1      42.688  19.179  25.162  1.00  0.00    -0.744 OA
ENDBRANCH  73  77
ENDBRANCH  56  70
BRANCH  57  81
ATOM     81  C   UNL A   1      45.452  31.249  29.823  1.00  0.00     0.023 A 
ATOM     82  C   UNL A   1      46.383  30.841  28.841  1.00  0.00     0.031 A 
ATOM     83  C   UNL A   1      45.798  32.376  30.582  1.00  0.00     0.131 A 
ATOM     84  C   UNL A   1      47.525  31.601  28.557  1.00  0.00     0.055 A 
ATOM     85  C   UNL A   1      46.935  33.144  30.293  1.00  0.00     0.041 A 
ATOM     86  F   UNL A   1      45.038  32.789  31.606  1.00  0.00    -0.206 F 
ATOM     87  C   UNL A   1      47.794  32.771  29.262  1.00  0.00     0.022 A 
BRANCH  84  88
ATOM     88  S   UNL A   1      48.596  31.091  27.184  1.00  0.00     0.124 S 
ATOM     89  O   UNL A   1      48.922  32.369  26.560  1.00  0.00    -0.237 OA
ATOM     90  O   UNL A   1      49.690  30.415  27.874  1.00  0.00    -0.237 OA
ATOM     91  O   UNL A   1      47.735  30.211  26.395  1.00  0.00    -0.744 OA
ENDBRANCH  84  88
ENDBRANCH  57  81
BRANCH  69  92
ATOM     92  C   UNL A   1      39.831  28.056  28.870  1.00  0.00     0.023 A 
ATOM     93  C   UNL A   1      39.712  27.800  30.244  1.00  0.00     0.031 A 
ATOM     94  C   UNL A   1      38.853  28.858  28.254  1.00  0.00     0.131 A 
ATOM     95  C   UNL A   1      38.651  28.359  30.967  1.00  0.00     0.055 A 
ATOM     96  C   UNL A   1      37.818  29.440  28.983  1.00  0.00     0.041 A 
ATOM     97  F   UNL A   1      38.889  29.105  26.933  1.00  0.00    -0.206 F 
ATOM     98  C   UNL A   1      37.716  29.197  30.349  1.00  0.00     0.022 A 
BRANCH  95  99
ATOM     99  S   UNL A   1      38.523  28.020  32.741  1.00  0.00     0.124 S 
ATOM    100  O   UNL A   1      39.795  28.520  33.251  1.00  0.00    -0.237 OA
ATOM    101  O   UNL A   1      37.337  28.777  33.130  1.00  0.00    -0.237 OA
ATOM    102  O   UNL A   1      38.363  26.566  32.798  1.00  0.00    -0.744 OA
ENDBRANCH  95  99
ENDBRANCH  69  92
ENDBRANCH  43  44
ENDBRANCH  35  38
ENDBRANCH  33  34
ENDBRANCH  32  33
ENDBRANCH   1  32
TORSDOF 17
ENDMDL
MODEL 2
REMARK VINA RESULT:     -11.4     10.518     20.997
REMARK SMILES O=C(Cn1c(=O)c2c3c(sc2n(Cc2ccc(Cl)cc2Cl)c1=O)CCCC3)NCCCCNC(=O)c1ccc(-c2c3nc(c(-c4cc(S(=O)(=O)[O-])ccc4F)c4ccc([nH]4)c(-c4cc(S(=O)(=O)[O-])ccc4F)c4nc(c(-c5cc(S(=O)(=O)[O-])ccc5F)c5ccc2[nH]5)C=C4)C=C3)cc1
REMARK SMILES IDX 30 1 29 2 28 3 1 4 2 5 3 7 4 8 5 9 22 10 6 11 7 12 12 13
REMARK SMILES IDX 23 14 8 15 11 16 9 17 27 18 10 19 24 20 26 21 25 22 13 23
REMARK SMILES IDX 14 24 15 25 20 26 16 27 19 28 21 29 17 30 18 31 31 32 32 33
REMARK SMILES IDX 33 34 34 35 35 37 36 38 37 39 98 40 38 41 97 42 39 43 40 44
REMARK SMILES IDX 41 45 91 46 42 47 96 48 90 49 92 50 43 51 95 52 89 53 88 54
REMARK SMILES IDX 44 56 76 57 56 58 75 59 57 60 60 61 74 62 93 63 58 64 59 65
REMARK SMILES IDX 73 67 94 68 61 69 45 70 46 71 54 72 47 73 53 74 55 75 52 76
REMARK SMILES IDX 48 77 49 78 50 79 51 80 77 81 78 82 86 83 79 84 85 85 87 86
REMARK SMILES IDX 84 87 80 88 81 89 82 90 83 91 62 92 63 93 71 94 64 95 70 96
REMARK SMILES IDX 72 97 69 98 65 99 66 100 67 101 68 102
REMARK H PARENT 28 6 33 36 92 55 60 66
REMARK Flexibility Score: inf
ROOT
ATOM      1  C   UNL A   1      45.769  40.095  26.495  1.00  0.00     0.023 C 
ENDROOT
BRANCH   1   2
ATOM      2  C   UNL A   1      46.116  41.429  25.832  1.00  0.00     0.116 C 
BRANCH   2   3
ATOM      3  N   UNL A   1      46.158  41.281  24.397  1.00  0.00    -0.355 N 
ATOM      4  O   UNL A   1      47.056  43.321  23.820  1.00  0.00    -0.273 OA
ATOM      5  C   UNL A   1      46.598  42.229  23.501  1.00  0.00     0.240 C 
ATOM      6  H   UNL A   1      45.845  40.425  24.026  1.00  0.00     0.163 HD
BRANCH   5   7
ATOM      7  C   UNL A   1      46.539  41.727  22.051  1.00  0.00     0.230 C 
BRANCH   7   8
ATOM      8  N   UNL A   1      46.123  42.776  21.125  1.00  0.00    -0.250 N 
ATOM      9  C   UNL A   1      44.760  42.873  20.855  1.00  0.00     0.265 A 
ATOM     10  C   UNL A   1      47.127  43.409  20.376  1.00  0.00     0.332 A 
ATOM     11  O   UNL A   1      43.909  42.108  21.318  1.00  0.00    -0.268 OA
ATOM     12  C   UNL A   1      44.411  43.915  19.923  1.00  0.00     0.079 A 
ATOM     13  N   UNL A   1      46.767  44.521  19.608  1.00  0.00    -0.280 N 
ATOM     14  O   UNL A   1      48.287  42.985  20.396  1.00  0.00    -0.247 OA
ATOM     15  C   UNL A   1      43.148  44.213  19.297  1.00  0.00    -0.019 A 
ATOM     16  C   UNL A   1      45.407  44.722  19.432  1.00  0.00     0.113 A 
ATOM     17  C   UNL A   1      43.281  45.268  18.413  1.00  0.00     0.011 A 
ATOM     18  C   UNL A   1      41.857  43.458  19.421  1.00  0.00     0.037 C 
ATOM     19  S   UNL A   1      44.799  46.005  18.525  1.00  0.00    -0.122 S 
ATOM     20  C   UNL A   1      42.241  45.760  17.460  1.00  0.00     0.047 C 
ATOM     21  C   UNL A   1      40.697  44.200  18.729  1.00  0.00     0.005 C 
ATOM     22  C   UNL A   1      41.104  44.737  17.350  1.00  0.00     0.006 C 
BRANCH  13  23
ATOM     23  C   UNL A   1      47.841  45.291  18.923  1.00  0.00     0.165 C 
BRANCH  23  24
ATOM     24  C   UNL A   1      48.472  46.336  19.828  1.00  0.00    -0.009 A 
ATOM     25  C   UNL A   1      47.717  47.474  20.169  1.00  0.00     0.008 A 
ATOM     26  C   UNL A   1      49.740  46.197  20.419  1.00  0.00     0.047 A 
ATOM     27  C   UNL A   1      48.130  48.335  21.184  1.00  0.00     0.021 A 
ATOM     28  C   UNL A   1      50.124  47.017  21.483  1.00  0.00     0.041 A 
ATOM     29  Cl  UNL A   1      50.931  45.092  19.832  1.00  0.00    -0.084 Cl
ATOM     30  C   UNL A   1      49.293  48.054  21.888  1.00  0.00     0.042 A 
ATOM     31  Cl  UNL A   1      49.679  48.966  23.291  1.00  0.00    -0.084 Cl
ENDBRANCH  23  24
ENDBRANCH  13  23
ENDBRANCH   7   8
ENDBRANCH   5   7
ENDBRANCH   2   3
ENDBRANCH   1   2
BRANCH   1  32
ATOM     32  C   UNL A   1      44.795  40.177  27.689  1.00  0.00     0.023 C 
BRANCH  32  33
ATOM     33  C   UNL A   1      43.679  39.125  27.708  1.00  0.00     0.116 C 
BRANCH  33  34
ATOM     34  N   UNL A   1      43.967  38.069  26.757  1.00  0.00    -0.352 N 
ATOM     35  C   UNL A   1      44.120  36.723  26.943  1.00  0.00     0.251 C 
ATOM     36  H   UNL A   1      44.071  38.370  25.826  1.00  0.00     0.163 HD
ATOM     37  O   UNL A   1      44.781  36.102  26.111  1.00  0.00    -0.269 OA
BRANCH  35  38
ATOM     38  C   UNL A   1      43.494  35.997  28.073  1.00  0.00     0.039 A 
ATOM     39  C   UNL A   1      44.350  35.422  29.018  1.00  0.00     0.014 A 
ATOM     40  C   UNL A   1      42.121  35.725  28.125  1.00  0.00     0.014 A 
ATOM     41  C   UNL A   1      43.841  34.585  30.006  1.00  0.00     0.010 A 
ATOM     42  C   UNL A   1      41.608  34.891  29.127  1.00  0.00     0.010 A 
ATOM     43  C   UNL A   1      42.466  34.312  30.068  1.00  0.00    -0.014 A 
BRANCH  43  44
ATOM     44  C   UNL A   1      42.018  33.409  31.149  1.00  0.00     0.031 A 
ATOM     45  C   UNL A   1      40.556  33.435  31.490  1.00  0.00     0.074 A 
ATOM     46  C   UNL A   1      42.634  32.213  31.251  1.00  0.00     0.049 A 
ATOM     47  N   UNL A   1      39.606  32.819  30.851  1.00  0.00    -0.248 NA
ATOM     48  C   UNL A   1      40.070  34.366  32.512  1.00  0.00     0.031 C 
ATOM     49  C   UNL A   1      42.805  31.273  30.141  1.00  0.00     0.029 A 
ATOM     50  N   UNL A   1      42.973  31.497  32.374  1.00  0.00    -0.354 N 
ATOM     51  C   UNL A   1      38.400  33.271  31.371  1.00  0.00     0.074 A 
ATOM     52  C   UNL A   1      38.740  34.246  32.382  1.00  0.00     0.031 C 
ATOM     53  C   UNL A   1      43.077  30.055  30.649  1.00  0.00     0.029 A 
ATOM     54  C   UNL A   1      43.173  30.147  32.104  1.00  0.00     0.049 A 
ATOM     55  H   UNL A   1      43.065  31.894  33.270  1.00  0.00     0.167 HD
ATOM     56  C   UNL A   1      37.181  32.815  30.973  1.00  0.00     0.034 A 
ATOM     57  C   UNL A   1      42.897  29.152  32.992  1.00  0.00     0.034 A 
ATOM     58  C   UNL A   1      37.215  31.730  30.041  1.00  0.00     0.049 A 
ATOM     59  C   UNL A   1      41.437  28.913  32.695  1.00  0.00     0.074 A 
ATOM     60  C   UNL A   1      37.199  31.570  28.673  1.00  0.00     0.029 A 
ATOM     61  N   UNL A   1      37.358  30.458  30.545  1.00  0.00    -0.354 N 
ATOM     62  N   UNL A   1      40.959  28.264  31.667  1.00  0.00    -0.248 NA
ATOM     63  C   UNL A   1      40.464  29.786  33.359  1.00  0.00     0.031 C 
ATOM     64  C   UNL A   1      37.788  30.289  28.437  1.00  0.00     0.029 A 
ATOM     65  C   UNL A   1      38.169  29.777  29.676  1.00  0.00     0.049 A 
ATOM     66  H   UNL A   1      36.954  30.105  31.370  1.00  0.00     0.167 HD
ATOM     67  C   UNL A   1      39.748  28.888  31.363  1.00  0.00     0.074 A 
ATOM     68  C   UNL A   1      39.468  29.768  32.482  1.00  0.00     0.031 C 
ATOM     69  C   UNL A   1      39.164  28.828  30.127  1.00  0.00     0.034 A 
BRANCH  56  70
ATOM     70  C   UNL A   1      35.875  33.267  31.512  1.00  0.00     0.023 A 
ATOM     71  C   UNL A   1      35.138  34.220  30.792  1.00  0.00     0.031 A 
ATOM     72  C   UNL A   1      35.444  32.935  32.802  1.00  0.00     0.131 A 
ATOM     73  C   UNL A   1      34.033  34.852  31.377  1.00  0.00     0.055 A 
ATOM     74  C   UNL A   1      34.329  33.558  33.376  1.00  0.00     0.041 A 
ATOM     75  F   UNL A   1      36.123  32.042  33.539  1.00  0.00    -0.206 F 
ATOM     76  C   UNL A   1      33.629  34.535  32.671  1.00  0.00     0.022 A 
BRANCH  73  77
ATOM     77  S   UNL A   1      33.188  36.147  30.434  1.00  0.00     0.124 S 
ATOM     78  O   UNL A   1      34.109  36.370  29.326  1.00  0.00    -0.237 OA
ATOM     79  O   UNL A   1      31.929  35.488  30.097  1.00  0.00    -0.237 OA
ATOM     80  O   UNL A   1      33.082  37.247  31.389  1.00  0.00    -0.744 OA
ENDBRANCH  73  77
ENDBRANCH  56  70
BRANCH  57  81
ATOM     81  C   UNL A   1      43.489  29.322  34.355  1.00  0.00     0.023 A 
ATOM     82  C   UNL A   1      42.956  30.352  35.161  1.00  0.00     0.031 A 
ATOM     83  C   UNL A   1      44.510  28.548  34.924  1.00  0.00     0.131 A 
ATOM     84  C   UNL A   1      43.338  30.504  36.501  1.00  0.00     0.055 A 
ATOM     85  C   UNL A   1      44.887  28.691  36.267  1.00  0.00     0.041 A 
ATOM     86  F   UNL A   1      45.156  27.612  34.214  1.00  0.00    -0.206 F 
ATOM     87  C   UNL A   1      44.286  29.656  37.069  1.00  0.00     0.022 A 
BRANCH  84  88
ATOM     88  S   UNL A   1      42.503  31.755  37.513  1.00  0.00     0.124 S 
ATOM     89  O   UNL A   1      42.873  31.353  38.865  1.00  0.00    -0.237 OA
ATOM     90  O   UNL A   1      43.096  32.998  37.028  1.00  0.00    -0.237 OA
ATOM     91  O   UNL A   1      41.092  31.578  37.172  1.00  0.00    -0.744 OA
ENDBRANCH  84  88
ENDBRANCH  57  81
BRANCH  69  92
ATOM     92  C   UNL A   1      39.812  27.911  29.141  1.00  0.00     0.023 A 
ATOM     93  C   UNL A   1      40.754  28.406  28.228  1.00  0.00     0.031 A 
ATOM     94  C   UNL A   1      39.523  26.534  29.122  1.00  0.00     0.131 A 
ATOM     95  C   UNL A   1      41.395  27.528  27.345  1.00  0.00     0.055 A 
ATOM     96  C   UNL A   1      40.188  25.659  28.265  1.00  0.00     0.041 A 
ATOM     97  F   UNL A   1      38.599  26.007  29.944  1.00  0.00    -0.206 F 
ATOM     98  C   UNL A   1      41.135  26.154  27.374  1.00  0.00     0.022 A 
BRANCH  95  99
ATOM     99  S   UNL A   1      42.613  28.191  26.180  1.00  0.00     0.124 S 
ATOM    100  O   UNL A   1      41.905  28.118  24.907  1.00  0.00    -0.237 OA
ATOM    101  O   UNL A   1      42.860  29.533  26.699  1.00  0.00    -0.237 OA
ATOM    102  O   UNL A   1      43.744  27.271  26.312  1.00  0.00    -0.744 OA
ENDBRANCH  95  99
ENDBRANCH  69  92
ENDBRANCH  43  44
ENDBRANCH  35  38
ENDBRANCH  33  34
ENDBRANCH  32  33
ENDBRANCH   1  32
TORSDOF 17
ENDMDL
MODEL 3
REMARK VINA RESULT:     -11.3      7.623     13.760
REMARK SMILES O=C(Cn1c(=O)c2c3c(sc2n(Cc2ccc(Cl)cc2Cl)c1=O)CCCC3)NCCCCNC(=O)c1ccc(-c2c3nc(c(-c4cc(S(=O)(=O)[O-])ccc4F)c4ccc([nH]4)c(-c4cc(S(=O)(=O)[O-])ccc4F)c4nc(c(-c5cc(S(=O)(=O)[O-])ccc5F)c5ccc2[nH]5)C=C4)C=C3)cc1
REMARK SMILES IDX 30 1 29 2 28 3 1 4 2 5 3 7 4 8 5 9 22 10 6 11 7 12 12 13
REMARK SMILES IDX 23 14 8 15 11 16 9 17 27 18 10 19 24 20 26 21 25 22 13 23
REMARK SMILES IDX 14 24 15 25 20 26 16 27 19 28 21 29 17 30 18 31 31 32 32 33
REMARK SMILES IDX 33 34 34 35 35 37 36 38 37 39 98 40 38 41 97 42 39 43 40 44
REMARK SMILES IDX 41 45 91 46 42 47 96 48 90 49 92 50 43 51 95 52 89 53 88 54
REMARK SMILES IDX 44 56 76 57 56 58 75 59 57 60 60 61 74 62 93 63 58 64 59 65
REMARK SMILES IDX 73 67 94 68 61 69 45 70 46 71 54 72 47 73 53 74 55 75 52 76
REMARK SMILES IDX 48 77 49 78 50 79 51 80 77 81 78 82 86 83 79 84 85 85 87 86
REMARK SMILES IDX 84 87 80 88 81 89 82 90 83 91 62 92 63 93 71 94 64 95 70 96
REMARK SMILES IDX 72 97 69 98 65 99 66 100 67 101 68 102
REMARK H PARENT 28 6 33 36 92 55 60 66
REMARK Flexibility Score: inf
ROOT
ATOM      1  C   UNL A   1      40.218  21.808  27.271  1.00  0.00     0.023 C 
ENDROOT
BRANCH   1   2
ATOM      2  C   UNL A   1      39.493  23.122  26.979  1.00  0.00     0.116 C 
BRANCH   2   3
ATOM      3  N   UNL A   1      38.718  23.010  25.766  1.00  0.00    -0.355 N 
ATOM      4  O   UNL A   1      36.900  24.297  26.344  1.00  0.00    -0.273 OA
ATOM      5  C   UNL A   1      37.485  23.578  25.542  1.00  0.00     0.240 C 
ATOM      6  H   UNL A   1      39.107  22.479  25.034  1.00  0.00     0.163 HD
BRANCH   5   7
ATOM      7  C   UNL A   1      36.960  23.284  24.128  1.00  0.00     0.230 C 
BRANCH   7   8
ATOM      8  N   UNL A   1      35.732  22.496  24.153  1.00  0.00    -0.250 N 
ATOM      9  C   UNL A   1      35.856  21.149  24.485  1.00  0.00     0.265 A 
ATOM     10  C   UNL A   1      34.587  23.069  23.579  1.00  0.00     0.332 A 
ATOM     11  O   UNL A   1      36.934  20.592  24.716  1.00  0.00    -0.268 OA
ATOM     12  C   UNL A   1      34.615  20.417  24.478  1.00  0.00     0.079 A 
ATOM     13  N   UNL A   1      33.371  22.398  23.738  1.00  0.00    -0.280 N 
ATOM     14  O   UNL A   1      34.664  24.130  22.950  1.00  0.00    -0.247 OA
ATOM     15  C   UNL A   1      34.371  19.005  24.616  1.00  0.00    -0.019 A 
ATOM     16  C   UNL A   1      33.453  21.093  24.197  1.00  0.00     0.113 A 
ATOM     17  C   UNL A   1      33.022  18.729  24.481  1.00  0.00     0.011 A 
ATOM     18  C   UNL A   1      35.382  17.904  24.752  1.00  0.00     0.037 C 
ATOM     19  S   UNL A   1      32.087  20.136  24.433  1.00  0.00    -0.122 S 
ATOM     20  C   UNL A   1      32.401  17.372  24.400  1.00  0.00     0.047 C 
ATOM     21  C   UNL A   1      34.710  16.549  25.049  1.00  0.00     0.005 C 
ATOM     22  C   UNL A   1      33.483  16.313  24.156  1.00  0.00     0.006 C 
BRANCH  13  23
ATOM     23  C   UNL A   1      32.125  23.060  23.262  1.00  0.00     0.165 C 
BRANCH  23  24
ATOM     24  C   UNL A   1      31.708  24.218  24.154  1.00  0.00    -0.009 A 
ATOM     25  C   UNL A   1      31.466  23.963  25.517  1.00  0.00     0.008 A 
ATOM     26  C   UNL A   1      31.629  25.553  23.719  1.00  0.00     0.047 A 
ATOM     27  C   UNL A   1      31.331  25.006  26.432  1.00  0.00     0.021 A 
ATOM     28  C   UNL A   1      31.565  26.600  24.641  1.00  0.00     0.041 A 
ATOM     29  Cl  UNL A   1      31.517  25.989  22.052  1.00  0.00    -0.084 Cl
ATOM     30  C   UNL A   1      31.462  26.318  25.998  1.00  0.00     0.042 A 
ATOM     31  Cl  UNL A   1      31.541  27.590  27.148  1.00  0.00    -0.084 Cl
ENDBRANCH  23  24
ENDBRANCH  13  23
ENDBRANCH   7   8
ENDBRANCH   5   7
ENDBRANCH   2   3
ENDBRANCH   1   2
BRANCH   1  32
ATOM     32  C   UNL A   1      41.518  21.931  28.093  1.00  0.00     0.023 C 
BRANCH  32  33
ATOM     33  C   UNL A   1      42.673  21.024  27.649  1.00  0.00     0.116 C 
BRANCH  33  34
ATOM     34  N   UNL A   1      43.132  21.405  26.329  1.00  0.00    -0.352 N 
ATOM     35  C   UNL A   1      43.154  22.626  25.713  1.00  0.00     0.251 C 
ATOM     36  H   UNL A   1      43.486  20.664  25.786  1.00  0.00     0.163 HD
ATOM     37  O   UNL A   1      43.162  22.646  24.482  1.00  0.00    -0.269 OA
BRANCH  35  38
ATOM     38  C   UNL A   1      43.204  23.899  26.467  1.00  0.00     0.039 A 
ATOM     39  C   UNL A   1      42.185  24.828  26.227  1.00  0.00     0.014 A 
ATOM     40  C   UNL A   1      44.303  24.265  27.255  1.00  0.00     0.014 A 
ATOM     41  C   UNL A   1      42.262  26.107  26.770  1.00  0.00     0.010 A 
ATOM     42  C   UNL A   1      44.374  25.549  27.809  1.00  0.00     0.010 A 
ATOM     43  C   UNL A   1      43.357  26.479  27.565  1.00  0.00    -0.014 A 
BRANCH  43  44
ATOM     44  C   UNL A   1      43.353  27.859  28.092  1.00  0.00     0.031 A 
ATOM     45  C   UNL A   1      42.032  28.573  28.110  1.00  0.00     0.074 A 
ATOM     46  C   UNL A   1      44.195  28.136  29.109  1.00  0.00     0.049 A 
ATOM     47  N   UNL A   1      41.099  28.439  29.005  1.00  0.00    -0.248 NA
ATOM     48  C   UNL A   1      41.623  29.364  26.947  1.00  0.00     0.031 C 
ATOM     49  C   UNL A   1      44.286  27.354  30.344  1.00  0.00     0.029 A 
ATOM     50  N   UNL A   1      44.916  29.279  29.361  1.00  0.00    -0.354 N 
ATOM     51  C   UNL A   1      39.980  29.117  28.538  1.00  0.00     0.074 A 
ATOM     52  C   UNL A   1      40.348  29.654  27.247  1.00  0.00     0.031 C 
ATOM     53  C   UNL A   1      44.897  28.104  31.282  1.00  0.00     0.029 A 
ATOM     54  C   UNL A   1      45.306  29.378  30.693  1.00  0.00     0.049 A 
ATOM     55  H   UNL A   1      45.133  29.952  28.677  1.00  0.00     0.167 HD
ATOM     56  C   UNL A   1      38.814  29.231  29.231  1.00  0.00     0.034 A 
ATOM     57  C   UNL A   1      45.439  30.562  31.353  1.00  0.00     0.034 A 
ATOM     58  C   UNL A   1      38.842  28.695  30.556  1.00  0.00     0.049 A 
ATOM     59  C   UNL A   1      44.025  30.772  31.835  1.00  0.00     0.074 A 
ATOM     60  C   UNL A   1      38.544  27.499  31.170  1.00  0.00     0.029 A 
ATOM     61  N   UNL A   1      39.341  29.493  31.560  1.00  0.00    -0.354 N 
ATOM     62  N   UNL A   1      43.459  30.161  32.841  1.00  0.00    -0.248 NA
ATOM     63  C   UNL A   1      43.081  31.390  30.899  1.00  0.00     0.031 C 
ATOM     64  C   UNL A   1      39.299  27.499  32.384  1.00  0.00     0.029 A 
ATOM     65  C   UNL A   1      40.047  28.675  32.402  1.00  0.00     0.049 A 
ATOM     66  H   UNL A   1      39.214  30.465  31.654  1.00  0.00     0.167 HD
ATOM     67  C   UNL A   1      42.112  30.037  32.491  1.00  0.00     0.074 A 
ATOM     68  C   UNL A   1      41.933  30.874  31.321  1.00  0.00     0.031 C 
ATOM     69  C   UNL A   1      41.283  29.091  33.028  1.00  0.00     0.034 A 
BRANCH  56  70
ATOM     70  C   UNL A   1      37.605  29.955  28.767  1.00  0.00     0.023 A 
ATOM     71  C   UNL A   1      37.283  31.186  29.361  1.00  0.00     0.031 A 
ATOM     72  C   UNL A   1      36.666  29.370  27.910  1.00  0.00     0.131 A 
ATOM     73  C   UNL A   1      36.035  31.778  29.134  1.00  0.00     0.055 A 
ATOM     74  C   UNL A   1      35.425  29.974  27.674  1.00  0.00     0.041 A 
ATOM     75  F   UNL A   1      36.918  28.185  27.330  1.00  0.00    -0.206 F 
ATOM     76  C   UNL A   1      35.096  31.174  28.301  1.00  0.00     0.022 A 
BRANCH  73  77
ATOM     77  S   UNL A   1      35.641  33.313  30.011  1.00  0.00     0.124 S 
ATOM     78  O   UNL A   1      34.397  32.969  30.688  1.00  0.00    -0.237 OA
ATOM     79  O   UNL A   1      36.815  33.469  30.866  1.00  0.00    -0.237 OA
ATOM     80  O   UNL A   1      35.517  34.295  28.937  1.00  0.00    -0.744 OA
ENDBRANCH  73  77
ENDBRANCH  56  70
BRANCH  57  81
ATOM     81  C   UNL A   1      46.285  31.589  30.668  1.00  0.00     0.023 A 
ATOM     82  C   UNL A   1      46.245  31.614  29.256  1.00  0.00     0.031 A 
ATOM     83  C   UNL A   1      47.100  32.547  31.288  1.00  0.00     0.131 A 
ATOM     84  C   UNL A   1      46.885  32.624  28.525  1.00  0.00     0.055 A 
ATOM     85  C   UNL A   1      47.732  33.564  30.560  1.00  0.00     0.041 A 
ATOM     86  F   UNL A   1      47.291  32.549  32.614  1.00  0.00    -0.206 F 
ATOM     87  C   UNL A   1      47.609  33.621  29.174  1.00  0.00     0.022 A 
BRANCH  84  88
ATOM     88  S   UNL A   1      46.667  32.672  26.725  1.00  0.00     0.124 S 
ATOM     89  O   UNL A   1      47.974  32.235  26.247  1.00  0.00    -0.237 OA
ATOM     90  O   UNL A   1      45.563  31.741  26.518  1.00  0.00    -0.237 OA
ATOM     91  O   UNL A   1      46.342  34.073  26.463  1.00  0.00    -0.744 OA
ENDBRANCH  84  88
ENDBRANCH  57  81
BRANCH  69  92
ATOM     92  C   UNL A   1      41.852  28.282  34.150  1.00  0.00     0.023 A 
ATOM     93  C   UNL A   1      42.718  27.213  33.881  1.00  0.00     0.031 A 
ATOM     94  C   UNL A   1      41.565  28.588  35.492  1.00  0.00     0.131 A 
ATOM     95  C   UNL A   1      43.289  26.497  34.941  1.00  0.00     0.055 A 
ATOM     96  C   UNL A   1      42.161  27.895  36.545  1.00  0.00     0.041 A 
ATOM     97  F   UNL A   1      40.710  29.574  35.812  1.00  0.00    -0.206 F 
ATOM     98  C   UNL A   1      43.034  26.846  36.271  1.00  0.00     0.022 A 
BRANCH  95  99
ATOM     99  S   UNL A   1      44.410  25.123  34.569  1.00  0.00     0.124 S 
ATOM    100  O   UNL A   1      45.723  25.745  34.696  1.00  0.00    -0.237 OA
ATOM    101  O   UNL A   1      44.066  24.140  35.592  1.00  0.00    -0.237 OA
ATOM    102  O   UNL A   1      44.036  24.740  33.207  1.00  0.00    -0.744 OA
ENDBRANCH  95  99
ENDBRANCH  69  92
ENDBRANCH  43  44
ENDBRANCH  35  38
ENDBRANCH  33  34
ENDBRANCH  32  33
ENDBRANCH   1  32
TORSDOF 17
ENDMDL
