MODEL 1
REMARK VINA RESULT:     -11.1      0.000      0.000
REMARK SMILES CC(C)C[C@@H](CNc1ccc([N+](=O)[O-])nc1)C(=O)NCCCCNC(=O)c1ccc(-c2c3nc(c(-c4cc(S(=O)(=O)[O-])ccc4F)c4ccc([nH]4)c(-c4cc(S(=O)(=O)[O-])ccc4F)c4nc(c(-c5cc(S(=O)(=O)[O-])ccc5F)c5ccc2[nH]5)C=C4)C=C3)cc1
REMARK SMILES IDX 21 1 20 2 19 3 17 4 18 5 5 7 4 8 2 9 1 10 3 11 6 12 7 13
REMARK SMILES IDX 8 15 9 16 16 17 10 18 15 19 11 20 12 21 13 22 14 23 22 24
REMARK SMILES IDX 23 25 24 26 25 27 26 29 27 30 28 31 89 32 29 33 88 34 30 35
REMARK SMILES IDX 31 36 32 37 82 38 33 39 87 40 81 41 83 42 34 43 86 44 80 45
REMARK SMILES IDX 79 46 35 48 67 49 47 50 66 51 48 52 51 53 65 54 84 55 49 56
REMARK SMILES IDX 50 57 64 59 85 60 52 61 36 62 37 63 45 64 38 65 44 66 46 67
REMARK SMILES IDX 43 68 39 69 40 70 41 71 42 72 68 73 69 74 77 75 70 76 76 77
REMARK SMILES IDX 78 78 75 79 71 80 72 81 73 82 74 83 53 84 54 85 62 86 55 87
REMARK SMILES IDX 61 88 63 89 60 90 56 91 57 92 58 93 59 94
REMARK H PARENT 19 6 7 14 24 28 83 47 51 58
REMARK Flexibility Score: inf
ROOT
ATOM      1  C   UNL A   1      33.890  28.599  25.121  1.00  0.00     0.023 C 
ENDROOT
BRANCH   1   2
ATOM      2  C   UNL A   1      33.621  27.109  25.285  1.00  0.00     0.116 C 
BRANCH   2   3
ATOM      3  N   UNL A   1      34.001  26.322  24.133  1.00  0.00    -0.356 N 
ATOM      4  C   UNL A   1      33.263  25.904  23.070  1.00  0.00     0.224 C 
ATOM      5  O   UNL A   1      33.878  25.462  22.094  1.00  0.00    -0.275 OA
ATOM      6  H   UNL A   1      34.946  26.046  24.115  1.00  0.00     0.163 HD
BRANCH   4   7
ATOM      7  C   UNL A   1      31.734  25.940  23.039  1.00  0.00     0.098 C 
BRANCH   7   8
ATOM      8  C   UNL A   1      31.167  26.969  22.046  1.00  0.00     0.018 C 
BRANCH   8   9
ATOM      9  C   UNL A   1      30.094  27.930  22.590  1.00  0.00    -0.017 C 
ATOM     10  C   UNL A   1      29.830  27.739  24.083  1.00  0.00     0.007 C 
ATOM     11  C   UNL A   1      30.538  29.373  22.328  1.00  0.00     0.007 C 
ENDBRANCH   8   9
ENDBRANCH   7   8
BRANCH   7  12
ATOM     12  C   UNL A   1      31.106  24.538  23.104  1.00  0.00     0.126 C 
BRANCH  12  13
ATOM     13  N   UNL A   1      31.923  23.462  22.557  1.00  0.00    -0.381 N 
ATOM     14  H   UNL A   1      32.439  23.642  21.739  1.00  0.00     0.160 HD
BRANCH  13  15
ATOM     15  C   UNL A   1      32.016  22.202  23.123  1.00  0.00     0.079 A 
ATOM     16  C   UNL A   1      32.264  21.977  24.477  1.00  0.00     0.038 A 
ATOM     17  C   UNL A   1      31.981  21.053  22.328  1.00  0.00     0.280 A 
ATOM     18  C   UNL A   1      32.501  20.686  24.965  1.00  0.00     0.109 A 
ATOM     19  N   UNL A   1      32.228  19.789  22.750  1.00  0.00    -0.044 NA
ATOM     20  C   UNL A   1      32.504  19.616  24.071  1.00  0.00     0.363 A 
BRANCH  20  21
ATOM     21  N   UNL A   1      32.868  18.291  24.630  1.00  0.00    -0.024 N 
ATOM     22  O   UNL A   1      32.062  17.761  25.407  1.00  0.00    -0.358 OA
ATOM     23  O   UNL A   1      33.943  17.787  24.265  1.00  0.00    -0.358 OA
ENDBRANCH  20  21
ENDBRANCH  13  15
ENDBRANCH  12  13
ENDBRANCH   7  12
ENDBRANCH   4   7
ENDBRANCH   2   3
ENDBRANCH   1   2
BRANCH   1  24
ATOM     24  C   UNL A   1      32.681  29.495  25.386  1.00  0.00     0.023 C 
BRANCH  24  25
ATOM     25  C   UNL A   1      32.478  29.924  26.839  1.00  0.00     0.116 C 
BRANCH  25  26
ATOM     26  N   UNL A   1      32.472  31.367  27.034  1.00  0.00    -0.352 N 
ATOM     27  C   UNL A   1      33.481  32.166  27.522  1.00  0.00     0.251 C 
ATOM     28  H   UNL A   1      31.639  31.830  26.784  1.00  0.00     0.163 HD
ATOM     29  O   UNL A   1      33.291  33.364  27.690  1.00  0.00    -0.269 OA
BRANCH  27  30
ATOM     30  C   UNL A   1      34.762  31.535  27.908  1.00  0.00     0.039 A 
ATOM     31  C   UNL A   1      35.908  32.330  27.963  1.00  0.00     0.014 A 
ATOM     32  C   UNL A   1      34.802  30.198  28.311  1.00  0.00     0.014 A 
ATOM     33  C   UNL A   1      37.078  31.808  28.517  1.00  0.00     0.010 A 
ATOM     34  C   UNL A   1      35.950  29.702  28.922  1.00  0.00     0.010 A 
ATOM     35  C   UNL A   1      37.093  30.508  29.049  1.00  0.00    -0.014 A 
BRANCH  35  36
ATOM     36  C   UNL A   1      38.287  29.983  29.762  1.00  0.00     0.031 A 
ATOM     37  C   UNL A   1      38.626  30.488  31.136  1.00  0.00     0.074 A 
ATOM     38  C   UNL A   1      39.103  29.107  29.141  1.00  0.00     0.049 A 
ATOM     39  N   UNL A   1      39.667  30.222  31.882  1.00  0.00    -0.248 NA
ATOM     40  C   UNL A   1      37.682  31.443  31.735  1.00  0.00     0.031 C 
ATOM     41  C   UNL A   1      38.907  28.579  27.788  1.00  0.00     0.029 A 
ATOM     42  N   UNL A   1      40.270  28.517  29.558  1.00  0.00    -0.354 N 
ATOM     43  C   UNL A   1      39.512  30.985  33.033  1.00  0.00     0.074 A 
ATOM     44  C   UNL A   1      38.305  31.767  32.857  1.00  0.00     0.031 C 
ATOM     45  C   UNL A   1      39.910  27.735  27.495  1.00  0.00     0.029 A 
ATOM     46  C   UNL A   1      40.840  27.689  28.618  1.00  0.00     0.049 A 
ATOM     47  H   UNL A   1      40.663  28.671  30.448  1.00  0.00     0.167 HD
ATOM     48  C   UNL A   1      40.290  31.016  34.143  1.00  0.00     0.034 A 
ATOM     49  C   UNL A   1      41.988  26.985  28.651  1.00  0.00     0.034 A 
ATOM     50  C   UNL A   1      41.486  30.227  34.308  1.00  0.00     0.049 A 
ATOM     51  C   UNL A   1      42.842  27.038  29.891  1.00  0.00     0.074 A 
ATOM     52  C   UNL A   1      42.324  30.147  35.407  1.00  0.00     0.029 A 
ATOM     53  N   UNL A   1      42.020  29.382  33.343  1.00  0.00    -0.354 N 
ATOM     54  N   UNL A   1      42.656  27.732  30.991  1.00  0.00    -0.248 NA
ATOM     55  C   UNL A   1      44.052  26.206  29.899  1.00  0.00     0.031 C 
ATOM     56  C   UNL A   1      43.390  29.298  35.088  1.00  0.00     0.029 A 
ATOM     57  C   UNL A   1      43.186  28.796  33.814  1.00  0.00     0.049 A 
ATOM     58  H   UNL A   1      41.628  29.224  32.454  1.00  0.00     0.167 HD
ATOM     59  C   UNL A   1      43.714  27.398  31.831  1.00  0.00     0.074 A 
ATOM     60  C   UNL A   1      44.524  26.432  31.116  1.00  0.00     0.031 C 
ATOM     61  C   UNL A   1      43.988  27.844  33.083  1.00  0.00     0.034 A 
BRANCH  48  62
ATOM     62  C   UNL A   1      39.872  31.955  35.249  1.00  0.00     0.023 A 
ATOM     63  C   UNL A   1      39.111  31.509  36.344  1.00  0.00     0.031 A 
ATOM     64  C   UNL A   1      40.203  33.319  35.190  1.00  0.00     0.131 A 
ATOM     65  C   UNL A   1      38.638  32.429  37.290  1.00  0.00     0.055 A 
ATOM     66  C   UNL A   1      39.795  34.218  36.178  1.00  0.00     0.041 A 
ATOM     67  F   UNL A   1      40.914  33.808  34.161  1.00  0.00    -0.206 F 
ATOM     68  C   UNL A   1      38.993  33.778  37.227  1.00  0.00     0.022 A 
BRANCH  65  69
ATOM     69  S   UNL A   1      37.437  31.861  38.524  1.00  0.00     0.124 S 
ATOM     70  O   UNL A   1      37.156  30.504  38.063  1.00  0.00    -0.237 OA
ATOM     71  O   UNL A   1      38.190  31.969  39.769  1.00  0.00    -0.237 OA
ATOM     72  O   UNL A   1      36.327  32.803  38.383  1.00  0.00    -0.744 OA
ENDBRANCH  65  69
ENDBRANCH  48  62
BRANCH  49  73
ATOM     73  C   UNL A   1      42.412  26.177  27.472  1.00  0.00     0.023 A 
ATOM     74  C   UNL A   1      42.072  24.820  27.363  1.00  0.00     0.031 A 
ATOM     75  C   UNL A   1      43.200  26.744  26.455  1.00  0.00     0.131 A 
ATOM     76  C   UNL A   1      42.553  24.062  26.284  1.00  0.00     0.055 A 
ATOM     77  C   UNL A   1      43.639  25.998  25.360  1.00  0.00     0.041 A 
ATOM     78  F   UNL A   1      43.547  28.040  26.507  1.00  0.00    -0.206 F 
ATOM     79  C   UNL A   1      43.326  24.644  25.277  1.00  0.00     0.022 A 
BRANCH  76  80
ATOM     80  S   UNL A   1      42.215  22.280  26.253  1.00  0.00     0.124 S 
ATOM     81  O   UNL A   1      40.767  22.254  26.074  1.00  0.00    -0.237 OA
ATOM     82  O   UNL A   1      43.011  21.842  25.111  1.00  0.00    -0.237 OA
ATOM     83  O   UNL A   1      42.692  21.821  27.554  1.00  0.00    -0.744 OA
ENDBRANCH  76  80
ENDBRANCH  49  73
BRANCH  61  84
ATOM     84  C   UNL A   1      45.195  27.253  33.770  1.00  0.00     0.023 A 
ATOM     85  C   UNL A   1      45.127  26.032  34.463  1.00  0.00     0.031 A 
ATOM     86  C   UNL A   1      46.425  27.933  33.739  1.00  0.00     0.131 A 
ATOM     87  C   UNL A   1      46.258  25.552  35.141  1.00  0.00     0.055 A 
ATOM     88  C   UNL A   1      47.560  27.423  34.371  1.00  0.00     0.041 A 
ATOM     89  F   UNL A   1      46.542  29.103  33.092  1.00  0.00    -0.206 F 
ATOM     90  C   UNL A   1      47.478  26.233  35.087  1.00  0.00     0.022 A 
BRANCH  87  91
ATOM     91  S   UNL A   1      46.096  24.063  36.164  1.00  0.00     0.124 S 
ATOM     92  O   UNL A   1      46.750  24.473  37.403  1.00  0.00    -0.237 OA
ATOM     93  O   UNL A   1      44.649  23.889  36.236  1.00  0.00    -0.237 OA
ATOM     94  O   UNL A   1      46.806  23.041  35.399  1.00  0.00    -0.744 OA
ENDBRANCH  87  91
ENDBRANCH  61  84
ENDBRANCH  35  36
ENDBRANCH  27  30
ENDBRANCH  25  26
ENDBRANCH  24  25
ENDBRANCH   1  24
TORSDOF 20
ENDMDL
MODEL 2
REMARK VINA RESULT:     -11.0      1.784      2.328
REMARK SMILES CC(C)C[C@@H](CNc1ccc([N+](=O)[O-])nc1)C(=O)NCCCCNC(=O)c1ccc(-c2c3nc(c(-c4cc(S(=O)(=O)[O-])ccc4F)c4ccc([nH]4)c(-c4cc(S(=O)(=O)[O-])ccc4F)c4nc(c(-c5cc(S(=O)(=O)[O-])ccc5F)c5ccc2[nH]5)C=C4)C=C3)cc1
REMARK SMILES IDX 21 1 20 2 19 3 17 4 18 5 5 7 4 8 2 9 1 10 3 11 6 12 7 13
REMARK SMILES IDX 8 15 9 16 16 17 10 18 15 19 11 20 12 21 13 22 14 23 22 24
REMARK SMILES IDX 23 25 24 26 25 27 26 29 27 30 28 31 89 32 29 33 88 34 30 35
REMARK SMILES IDX 31 36 32 37 82 38 33 39 87 40 81 41 83 42 34 43 86 44 80 45
REMARK SMILES IDX 79 46 35 48 67 49 47 50 66 51 48 52 51 53 65 54 84 55 49 56
REMARK SMILES IDX 50 57 64 59 85 60 52 61 36 62 37 63 45 64 38 65 44 66 46 67
REMARK SMILES IDX 43 68 39 69 40 70 41 71 42 72 68 73 69 74 77 75 70 76 76 77
REMARK SMILES IDX 78 78 75 79 71 80 72 81 73 82 74 83 53 84 54 85 62 86 55 87
REMARK SMILES IDX 61 88 63 89 60 90 56 91 57 92 58 93 59 94
REMARK H PARENT 19 6 7 14 24 28 83 47 51 58
REMARK Flexibility Score: inf
ROOT
ATOM      1  C   UNL A   1      33.699  28.985  24.151  1.00  0.00     0.023 C 
ENDROOT
BRANCH   1   2
ATOM      2  C   UNL A   1      33.082  28.986  22.758  1.00  0.00     0.116 C 
BRANCH   2   3
ATOM      3  N   UNL A   1      33.465  27.844  21.956  1.00  0.00    -0.356 N 
ATOM      4  C   UNL A   1      33.138  26.530  22.083  1.00  0.00     0.224 C 
ATOM      5  O   UNL A   1      33.386  25.792  21.124  1.00  0.00    -0.275 OA
ATOM      6  H   UNL A   1      34.057  28.052  21.198  1.00  0.00     0.163 HD
BRANCH   4   7
ATOM      7  C   UNL A   1      32.504  25.936  23.342  1.00  0.00     0.098 C 
BRANCH   7   8
ATOM      8  C   UNL A   1      31.084  25.390  23.113  1.00  0.00     0.018 C 
BRANCH   8   9
ATOM      9  C   UNL A   1      29.951  26.074  23.898  1.00  0.00    -0.017 C 
ATOM     10  C   UNL A   1      30.238  26.164  25.396  1.00  0.00     0.007 C 
ATOM     11  C   UNL A   1      29.730  27.481  23.332  1.00  0.00     0.007 C 
ENDBRANCH   8   9
ENDBRANCH   7   8
BRANCH   7  12
ATOM     12  C   UNL A   1      33.499  25.109  24.173  1.00  0.00     0.126 C 
BRANCH  12  13
ATOM     13  N   UNL A   1      34.149  24.016  23.461  1.00  0.00    -0.381 N 
ATOM     14  H   UNL A   1      34.873  24.238  22.832  1.00  0.00     0.160 HD
BRANCH  13  15
ATOM     15  C   UNL A   1      33.807  22.683  23.618  1.00  0.00     0.079 A 
ATOM     16  C   UNL A   1      32.740  22.075  22.958  1.00  0.00     0.038 A 
ATOM     17  C   UNL A   1      34.458  21.880  24.559  1.00  0.00     0.280 A 
ATOM     18  C   UNL A   1      32.346  20.768  23.271  1.00  0.00     0.109 A 
ATOM     19  N   UNL A   1      34.097  20.623  24.913  1.00  0.00    -0.044 NA
ATOM     20  C   UNL A   1      33.027  20.079  24.273  1.00  0.00     0.363 A 
BRANCH  20  21
ATOM     21  N   UNL A   1      32.494  18.742  24.633  1.00  0.00    -0.024 N 
ATOM     22  O   UNL A   1      32.449  18.454  25.836  1.00  0.00    -0.358 OA
ATOM     23  O   UNL A   1      32.106  18.007  23.709  1.00  0.00    -0.358 OA
ENDBRANCH  20  21
ENDBRANCH  13  15
ENDBRANCH  12  13
ENDBRANCH   7  12
ENDBRANCH   4   7
ENDBRANCH   2   3
ENDBRANCH   1   2
BRANCH   1  24
ATOM     24  C   UNL A   1      32.753  29.439  25.263  1.00  0.00     0.023 C 
BRANCH  24  25
ATOM     25  C   UNL A   1      33.364  29.522  26.661  1.00  0.00     0.116 C 
BRANCH  25  26
ATOM     26  N   UNL A   1      33.459  30.877  27.186  1.00  0.00    -0.352 N 
ATOM     27  C   UNL A   1      34.469  31.430  27.941  1.00  0.00     0.251 C 
ATOM     28  H   UNL A   1      32.705  31.473  26.973  1.00  0.00     0.163 HD
ATOM     29  O   UNL A   1      34.364  32.575  28.364  1.00  0.00    -0.269 OA
BRANCH  27  30
ATOM     30  C   UNL A   1      35.636  30.591  28.289  1.00  0.00     0.039 A 
ATOM     31  C   UNL A   1      36.783  30.683  27.499  1.00  0.00     0.014 A 
ATOM     32  C   UNL A   1      35.627  29.806  29.445  1.00  0.00     0.014 A 
ATOM     33  C   UNL A   1      37.959  30.059  27.922  1.00  0.00     0.010 A 
ATOM     34  C   UNL A   1      36.816  29.242  29.897  1.00  0.00     0.010 A 
ATOM     35  C   UNL A   1      37.998  29.379  29.150  1.00  0.00    -0.014 A 
BRANCH  35  36
ATOM     36  C   UNL A   1      39.271  28.825  29.682  1.00  0.00     0.031 A 
ATOM     37  C   UNL A   1      39.954  29.489  30.843  1.00  0.00     0.074 A 
ATOM     38  C   UNL A   1      39.845  27.769  29.070  1.00  0.00     0.049 A 
ATOM     39  N   UNL A   1      41.110  29.214  31.391  1.00  0.00    -0.248 NA
ATOM     40  C   UNL A   1      39.259  30.636  31.445  1.00  0.00     0.031 C 
ATOM     41  C   UNL A   1      39.303  27.068  27.904  1.00  0.00     0.029 A 
ATOM     42  N   UNL A   1      41.020  27.109  29.334  1.00  0.00    -0.354 N 
ATOM     43  C   UNL A   1      41.286  30.159  32.395  1.00  0.00     0.074 A 
ATOM     44  C   UNL A   1      40.144  31.048  32.337  1.00  0.00     0.031 C 
ATOM     45  C   UNL A   1      40.135  26.070  27.563  1.00  0.00     0.029 A 
ATOM     46  C   UNL A   1      41.287  26.082  28.458  1.00  0.00     0.049 A 
ATOM     47  H   UNL A   1      41.615  27.349  30.080  1.00  0.00     0.167 HD
ATOM     48  C   UNL A   1      42.295  30.263  33.295  1.00  0.00     0.034 A 
ATOM     49  C   UNL A   1      42.346  25.253  28.376  1.00  0.00     0.034 A 
ATOM     50  C   UNL A   1      43.423  29.366  33.346  1.00  0.00     0.049 A 
ATOM     51  C   UNL A   1      43.460  25.390  29.382  1.00  0.00     0.074 A 
ATOM     52  C   UNL A   1      44.477  29.352  34.244  1.00  0.00     0.029 A 
ATOM     53  N   UNL A   1      43.649  28.322  32.457  1.00  0.00    -0.354 N 
ATOM     54  N   UNL A   1      43.589  26.263  30.356  1.00  0.00    -0.248 NA
ATOM     55  C   UNL A   1      44.562  24.424  29.287  1.00  0.00     0.031 C 
ATOM     56  C   UNL A   1      45.364  28.338  33.866  1.00  0.00     0.029 A 
ATOM     57  C   UNL A   1      44.834  27.675  32.772  1.00  0.00     0.049 A 
ATOM     58  H   UNL A   1      43.054  28.079  31.712  1.00  0.00     0.167 HD
ATOM     59  C   UNL A   1      44.776  25.932  31.004  1.00  0.00     0.074 A 
ATOM     60  C   UNL A   1      45.315  24.775  30.319  1.00  0.00     0.031 C 
ATOM     61  C   UNL A   1      45.364  26.529  32.072  1.00  0.00     0.034 A 
BRANCH  48  62
ATOM     62  C   UNL A   1      42.222  31.406  34.279  1.00  0.00     0.023 A 
ATOM     63  C   UNL A   1      41.310  31.398  35.349  1.00  0.00     0.031 A 
ATOM     64  C   UNL A   1      43.044  32.535  34.124  1.00  0.00     0.131 A 
ATOM     65  C   UNL A   1      41.185  32.526  36.172  1.00  0.00     0.055 A 
ATOM     66  C   UNL A   1      42.970  33.624  34.994  1.00  0.00     0.041 A 
ATOM     67  F   UNL A   1      43.923  32.608  33.111  1.00  0.00    -0.206 F 
ATOM     68  C   UNL A   1      42.024  33.632  36.016  1.00  0.00     0.022 A 
BRANCH  65  69
ATOM     69  S   UNL A   1      39.815  32.584  37.359  1.00  0.00     0.124 S 
ATOM     70  O   UNL A   1      39.174  33.848  37.010  1.00  0.00    -0.237 OA
ATOM     71  O   UNL A   1      39.065  31.376  37.034  1.00  0.00    -0.237 OA
ATOM     72  O   UNL A   1      40.485  32.570  38.659  1.00  0.00    -0.744 OA
ENDBRANCH  65  69
ENDBRANCH  48  62
BRANCH  49  73
ATOM     73  C   UNL A   1      42.420  24.226  27.298  1.00  0.00     0.023 A 
ATOM     74  C   UNL A   1      41.615  23.077  27.335  1.00  0.00     0.031 A 
ATOM     75  C   UNL A   1      43.329  24.362  26.234  1.00  0.00     0.131 A 
ATOM     76  C   UNL A   1      41.763  22.088  26.350  1.00  0.00     0.055 A 
ATOM     77  C   UNL A   1      43.441  23.397  25.232  1.00  0.00     0.041 A 
ATOM     78  F   UNL A   1      44.117  25.447  26.147  1.00  0.00    -0.206 F 
ATOM     79  C   UNL A   1      42.664  22.244  25.295  1.00  0.00     0.022 A 
BRANCH  76  80
ATOM     80  S   UNL A   1      40.812  20.552  26.511  1.00  0.00     0.124 S 
ATOM     81  O   UNL A   1      41.516  19.666  25.591  1.00  0.00    -0.237 OA
ATOM     82  O   UNL A   1      40.961  20.252  27.932  1.00  0.00    -0.237 OA
ATOM     83  O   UNL A   1      39.466  20.941  26.098  1.00  0.00    -0.744 OA
ENDBRANCH  76  80
ENDBRANCH  49  73
BRANCH  61  84
ATOM     84  C   UNL A   1      46.637  25.904  32.586  1.00  0.00     0.023 A 
ATOM     85  C   UNL A   1      46.626  24.920  33.589  1.00  0.00     0.031 A 
ATOM     86  C   UNL A   1      47.880  26.315  32.072  1.00  0.00     0.131 A 
ATOM     87  C   UNL A   1      47.838  24.414  34.083  1.00  0.00     0.055 A 
ATOM     88  C   UNL A   1      49.079  25.768  32.530  1.00  0.00     0.041 A 
ATOM     89  F   UNL A   1      47.946  27.253  31.113  1.00  0.00    -0.206 F 
ATOM     90  C   UNL A   1      49.064  24.821  33.549  1.00  0.00     0.022 A 
BRANCH  87  91
ATOM     91  S   UNL A   1      47.798  23.271  35.491  1.00  0.00     0.124 S 
ATOM     92  O   UNL A   1      47.025  22.155  34.954  1.00  0.00    -0.237 OA
ATOM     93  O   UNL A   1      49.215  23.010  35.723  1.00  0.00    -0.237 OA
ATOM     94  O   UNL A   1      47.130  24.039  36.539  1.00  0.00    -0.744 OA
ENDBRANCH  87  91
ENDBRANCH  61  84
ENDBRANCH  35  36
ENDBRANCH  27  30
ENDBRANCH  25  26
ENDBRANCH  24  25
ENDBRANCH   1  24
TORSDOF 20
ENDMDL
MODEL 3
REMARK VINA RESULT:     -10.9      2.734      3.208
REMARK SMILES CC(C)C[C@@H](CNc1ccc([N+](=O)[O-])nc1)C(=O)NCCCCNC(=O)c1ccc(-c2c3nc(c(-c4cc(S(=O)(=O)[O-])ccc4F)c4ccc([nH]4)c(-c4cc(S(=O)(=O)[O-])ccc4F)c4nc(c(-c5cc(S(=O)(=O)[O-])ccc5F)c5ccc2[nH]5)C=C4)C=C3)cc1
REMARK SMILES IDX 21 1 20 2 19 3 17 4 18 5 5 7 4 8 2 9 1 10 3 11 6 12 7 13
REMARK SMILES IDX 8 15 9 16 16 17 10 18 15 19 11 20 12 21 13 22 14 23 22 24
REMARK SMILES IDX 23 25 24 26 25 27 26 29 27 30 28 31 89 32 29 33 88 34 30 35
REMARK SMILES IDX 31 36 32 37 82 38 33 39 87 40 81 41 83 42 34 43 86 44 80 45
REMARK SMILES IDX 79 46 35 48 67 49 47 50 66 51 48 52 51 53 65 54 84 55 49 56
REMARK SMILES IDX 50 57 64 59 85 60 52 61 36 62 37 63 45 64 38 65 44 66 46 67
REMARK SMILES IDX 43 68 39 69 40 70 41 71 42 72 68 73 69 74 77 75 70 76 76 77
REMARK SMILES IDX 78 78 75 79 71 80 72 81 73 82 74 83 53 84 54 85 62 86 55 87
REMARK SMILES IDX 61 88 63 89 60 90 56 91 57 92 58 93 59 94
REMARK H PARENT 19 6 7 14 24 28 83 47 51 58
REMARK Flexibility Score: inf
ROOT
ATOM      1  C   UNL A   1      33.835  28.937  24.197  1.00  0.00     0.023 C 
ENDROOT
BRANCH   1   2
ATOM      2  C   UNL A   1      33.226  28.873  22.802  1.00  0.00     0.116 C 
BRANCH   2   3
ATOM      3  N   UNL A   1      33.600  27.687  22.063  1.00  0.00    -0.356 N 
ATOM      4  C   UNL A   1      33.209  26.393  22.217  1.00  0.00     0.224 C 
ATOM      5  O   UNL A   1      33.474  25.610  21.300  1.00  0.00    -0.275 OA
ATOM      6  H   UNL A   1      34.239  27.842  21.330  1.00  0.00     0.163 HD
BRANCH   4   7
ATOM      7  C   UNL A   1      32.486  25.874  23.462  1.00  0.00     0.098 C 
BRANCH   7   8
ATOM      8  C   UNL A   1      30.991  25.593  23.227  1.00  0.00     0.018 C 
BRANCH   8   9
ATOM      9  C   UNL A   1      30.000  26.348  24.131  1.00  0.00    -0.017 C 
ATOM     10  C   UNL A   1      30.563  26.627  25.524  1.00  0.00     0.007 C 
ATOM     11  C   UNL A   1      29.618  27.670  23.457  1.00  0.00     0.007 C 
ENDBRANCH   8   9
ENDBRANCH   7   8
BRANCH   7  12
ATOM     12  C   UNL A   1      33.323  24.857  24.253  1.00  0.00     0.126 C 
BRANCH  12  13
ATOM     13  N   UNL A   1      33.959  23.816  23.455  1.00  0.00    -0.381 N 
ATOM     14  H   UNL A   1      34.616  24.090  22.775  1.00  0.00     0.160 HD
BRANCH  13  15
ATOM     15  C   UNL A   1      33.693  22.465  23.598  1.00  0.00     0.079 A 
ATOM     16  C   UNL A   1      32.576  21.833  23.051  1.00  0.00     0.038 A 
ATOM     17  C   UNL A   1      34.488  21.659  24.418  1.00  0.00     0.280 A 
ATOM     18  C   UNL A   1      32.277  20.500  23.357  1.00  0.00     0.109 A 
ATOM     19  N   UNL A   1      34.225  20.374  24.762  1.00  0.00    -0.044 NA
ATOM     20  C   UNL A   1      33.106  19.806  24.237  1.00  0.00     0.363 A 
BRANCH  20  21
ATOM     21  N   UNL A   1      32.676  18.435  24.605  1.00  0.00    -0.024 N 
ATOM     22  O   UNL A   1      32.312  18.248  25.774  1.00  0.00    -0.358 OA
ATOM     23  O   UNL A   1      32.684  17.569  23.714  1.00  0.00    -0.358 OA
ENDBRANCH  20  21
ENDBRANCH  13  15
ENDBRANCH  12  13
ENDBRANCH   7  12
ENDBRANCH   4   7
ENDBRANCH   2   3
ENDBRANCH   1   2
BRANCH   1  24
ATOM     24  C   UNL A   1      32.920  29.543  25.261  1.00  0.00     0.023 C 
BRANCH  24  25
ATOM     25  C   UNL A   1      33.497  29.608  26.674  1.00  0.00     0.116 C 
BRANCH  25  26
ATOM     26  N   UNL A   1      33.626  30.960  27.199  1.00  0.00    -0.352 N 
ATOM     27  C   UNL A   1      34.652  31.490  27.949  1.00  0.00     0.251 C 
ATOM     28  H   UNL A   1      32.885  31.575  26.989  1.00  0.00     0.163 HD
ATOM     29  O   UNL A   1      34.576  32.637  28.373  1.00  0.00    -0.269 OA
BRANCH  27  30
ATOM     30  C   UNL A   1      35.800  30.624  28.292  1.00  0.00     0.039 A 
ATOM     31  C   UNL A   1      36.986  30.768  27.568  1.00  0.00     0.014 A 
ATOM     32  C   UNL A   1      35.734  29.756  29.386  1.00  0.00     0.014 A 
ATOM     33  C   UNL A   1      38.138  30.111  28.003  1.00  0.00     0.010 A 
ATOM     34  C   UNL A   1      36.900  29.156  29.854  1.00  0.00     0.010 A 
ATOM     35  C   UNL A   1      38.117  29.343  29.179  1.00  0.00    -0.014 A 
BRANCH  35  36
ATOM     36  C   UNL A   1      39.362  28.747  29.730  1.00  0.00     0.031 A 
ATOM     37  C   UNL A   1      40.001  29.338  30.955  1.00  0.00     0.074 A 
ATOM     38  C   UNL A   1      39.953  27.722  29.084  1.00  0.00     0.049 A 
ATOM     39  N   UNL A   1      41.130  29.021  31.534  1.00  0.00    -0.248 NA
ATOM     40  C   UNL A   1      39.289  30.456  31.591  1.00  0.00     0.031 C 
ATOM     41  C   UNL A   1      39.455  27.092  27.859  1.00  0.00     0.029 A 
ATOM     42  N   UNL A   1      41.111  27.036  29.359  1.00  0.00    -0.354 N 
ATOM     43  C   UNL A   1      41.271  29.906  32.597  1.00  0.00     0.074 A 
ATOM     44  C   UNL A   1      40.140  30.809  32.542  1.00  0.00     0.031 C 
ATOM     45  C   UNL A   1      40.293  26.107  27.497  1.00  0.00     0.029 A 
ATOM     46  C   UNL A   1      41.407  26.057  28.438  1.00  0.00     0.049 A 
ATOM     47  H   UNL A   1      41.676  27.227  30.142  1.00  0.00     0.167 HD
ATOM     48  C   UNL A   1      42.242  29.949  33.543  1.00  0.00     0.034 A 
ATOM     49  C   UNL A   1      42.462  25.223  28.354  1.00  0.00     0.034 A 
ATOM     50  C   UNL A   1      43.360  29.039  33.589  1.00  0.00     0.049 A 
ATOM     51  C   UNL A   1      43.533  25.292  29.412  1.00  0.00     0.074 A 
ATOM     52  C   UNL A   1      44.375  28.964  34.528  1.00  0.00     0.029 A 
ATOM     53  N   UNL A   1      43.615  28.045  32.653  1.00  0.00    -0.354 N 
ATOM     54  N   UNL A   1      43.628  26.107  30.438  1.00  0.00    -0.248 NA
ATOM     55  C   UNL A   1      44.631  24.322  29.308  1.00  0.00     0.031 C 
ATOM     56  C   UNL A   1      45.269  27.964  34.131  1.00  0.00     0.029 A 
ATOM     57  C   UNL A   1      44.781  27.368  32.980  1.00  0.00     0.049 A 
ATOM     58  H   UNL A   1      43.050  27.849  31.871  1.00  0.00     0.167 HD
ATOM     59  C   UNL A   1      44.783  25.729  31.115  1.00  0.00     0.074 A 
ATOM     60  C   UNL A   1      45.342  24.607  30.389  1.00  0.00     0.031 C 
ATOM     61  C   UNL A   1      45.331  26.258  32.239  1.00  0.00     0.034 A 
BRANCH  48  62
ATOM     62  C   UNL A   1      42.136  31.035  34.586  1.00  0.00     0.023 A 
ATOM     63  C   UNL A   1      42.798  32.266  34.434  1.00  0.00     0.031 A 
ATOM     64  C   UNL A   1      41.399  30.825  35.763  1.00  0.00     0.131 A 
ATOM     65  C   UNL A   1      42.778  33.206  35.475  1.00  0.00     0.055 A 
ATOM     66  C   UNL A   1      41.318  31.796  36.764  1.00  0.00     0.041 A 
ATOM     67  F   UNL A   1      40.759  29.663  35.972  1.00  0.00    -0.206 F 
ATOM     68  C   UNL A   1      42.024  32.988  36.631  1.00  0.00     0.022 A 
BRANCH  65  69
ATOM     69  S   UNL A   1      43.865  34.653  35.356  1.00  0.00     0.124 S 
ATOM     70  O   UNL A   1      44.746  34.457  36.504  1.00  0.00    -0.237 OA
ATOM     71  O   UNL A   1      44.477  34.480  34.044  1.00  0.00    -0.237 OA
ATOM     72  O   UNL A   1      42.945  35.784  35.471  1.00  0.00    -0.744 OA
ENDBRANCH  65  69
ENDBRANCH  48  62
BRANCH  49  73
ATOM     73  C   UNL A   1      42.573  24.258  27.223  1.00  0.00     0.023 A 
ATOM     74  C   UNL A   1      41.981  22.988  27.294  1.00  0.00     0.031 A 
ATOM     75  C   UNL A   1      43.310  24.581  26.070  1.00  0.00     0.131 A 
ATOM     76  C   UNL A   1      42.171  22.069  26.250  1.00  0.00     0.055 A 
ATOM     77  C   UNL A   1      43.458  23.680  25.014  1.00  0.00     0.041 A 
ATOM     78  F   UNL A   1      43.890  25.787  25.949  1.00  0.00    -0.206 F 
ATOM     79  C   UNL A   1      42.897  22.410  25.107  1.00  0.00     0.022 A 
BRANCH  76  80
ATOM     80  S   UNL A   1      41.515  20.389  26.440  1.00  0.00     0.124 S 
ATOM     81  O   UNL A   1      42.169  19.686  25.342  1.00  0.00    -0.237 OA
ATOM     82  O   UNL A   1      41.965  20.040  27.784  1.00  0.00    -0.237 OA
ATOM     83  O   UNL A   1      40.072  20.568  26.297  1.00  0.00    -0.744 OA
ENDBRANCH  76  80
ENDBRANCH  49  73
BRANCH  61  84
ATOM     84  C   UNL A   1      46.576  25.593  32.769  1.00  0.00     0.023 A 
ATOM     85  C   UNL A   1      47.832  25.789  32.169  1.00  0.00     0.031 A 
ATOM     86  C   UNL A   1      46.497  24.739  33.884  1.00  0.00     0.131 A 
ATOM     87  C   UNL A   1      48.952  25.099  32.657  1.00  0.00     0.055 A 
ATOM     88  C   UNL A   1      47.626  24.098  34.397  1.00  0.00     0.041 A 
ATOM     89  F   UNL A   1      45.322  24.518  34.492  1.00  0.00    -0.206 F 
ATOM     90  C   UNL A   1      48.860  24.266  33.776  1.00  0.00     0.022 A 
BRANCH  87  91
ATOM     91  S   UNL A   1      50.523  25.241  31.761  1.00  0.00     0.124 S 
ATOM     92  O   UNL A   1      50.089  25.758  30.466  1.00  0.00    -0.237 OA
ATOM     93  O   UNL A   1      51.277  26.170  32.596  1.00  0.00    -0.237 OA
ATOM     94  O   UNL A   1      51.033  23.872  31.741  1.00  0.00    -0.744 OA
ENDBRANCH  87  91
ENDBRANCH  61  84
ENDBRANCH  35  36
ENDBRANCH  27  30
ENDBRANCH  25  26
ENDBRANCH  24  25
ENDBRANCH   1  24
TORSDOF 20
ENDMDL
