MODEL 1
REMARK VINA RESULT:     -11.3      0.000      0.000
REMARK SMILES COc1ccc2c(c1)c(Cc1nc(-c3ccc(C(=O)NCCCCNC(=O)c4ccc(-c5c6nc(c(-c7cc(S(=O)(=O)[O-])ccc7F)c7ccc([nH]7)c(-c7cc(S(=O)(=O)[O-])ccc7F)c7nc(c(-c8cc(S(=O)(=O)[O-])ccc8F)c8ccc5[nH]8)C=C7)C=C6)cc4)cc3)cs1)c(C)n2C(=O)c1ccc(Cl)cc1
REMARK SMILES IDX 21 1 20 2 18 3 19 4 17 6 14 7 15 8 92 9 16 10 91 11 13 12
REMARK SMILES IDX 11 13 12 14 94 15 93 16 10 17 9 18 3 19 4 20 8 21 5 22 7 23
REMARK SMILES IDX 6 24 97 25 95 26 96 27 2 28 1 29 98 30 99 31 100 32 101 33
REMARK SMILES IDX 106 34 102 35 105 36 103 37 104 38 22 39 23 40 24 41 25 42
REMARK SMILES IDX 26 43 27 45 28 46 29 47 90 48 30 49 89 50 31 51 32 52 33 53
REMARK SMILES IDX 83 54 34 55 88 56 82 57 84 58 35 59 87 60 81 61 80 62 36 64
REMARK SMILES IDX 68 65 48 66 67 67 49 68 52 69 66 70 85 71 50 72 51 73 65 75
REMARK SMILES IDX 86 76 53 77 37 78 38 79 46 80 39 81 45 82 47 83 44 84 40 85
REMARK SMILES IDX 41 86 42 87 43 88 69 89 70 90 78 91 71 92 77 93 79 94 76 95
REMARK SMILES IDX 72 96 73 97 74 98 75 99 54 100 55 101 63 102 56 103 62 104
REMARK SMILES IDX 64 105 61 106 57 107 58 108 59 109 60 110
REMARK H PARENT 20 5 25 44 84 63 52 74
REMARK Flexibility Score: inf
ROOT
ATOM      1  C   UNL A   1      36.477  31.533  32.937  1.00  0.00     0.116 C 
ENDROOT
BRANCH   1   2
ATOM      2  N   UNL A   1      37.375  31.598  34.076  1.00  0.00    -0.352 N 
ATOM      3  C   UNL A   1      38.619  32.173  34.219  1.00  0.00     0.251 C 
ATOM      4  O   UNL A   1      39.164  32.125  35.323  1.00  0.00    -0.269 OA
ATOM      5  H   UNL A   1      37.037  31.155  34.888  1.00  0.00     0.163 HD
BRANCH   3   6
ATOM      6  C   UNL A   1      39.365  32.774  33.077  1.00  0.00     0.039 A 
ATOM      7  C   UNL A   1      40.785  34.220  31.115  1.00  0.00     0.001 A 
ATOM      8  C   UNL A   1      39.475  34.579  31.444  1.00  0.00     0.011 A 
ATOM      9  C   UNL A   1      41.323  33.055  31.682  1.00  0.00     0.011 A 
ATOM     10  C   UNL A   1      38.774  33.865  32.423  1.00  0.00     0.014 A 
ATOM     11  C   UNL A   1      40.604  32.318  32.629  1.00  0.00     0.014 A 
BRANCH   7  12
ATOM     12  C   UNL A   1      41.598  35.009  30.201  1.00  0.00     0.081 A 
ATOM     13  C   UNL A   1      43.349  36.264  29.663  1.00  0.00     0.098 A 
ATOM     14  N   UNL A   1      42.742  35.634  30.646  1.00  0.00    -0.241 NA
ATOM     15  S   UNL A   1      42.516  36.228  28.161  1.00  0.00    -0.126 S 
ATOM     16  C   UNL A   1      41.289  35.261  28.878  1.00  0.00     0.095 A 
BRANCH  13  17
ATOM     17  C   UNL A   1      44.648  36.999  29.822  1.00  0.00     0.105 C 
BRANCH  17  18
ATOM     18  C   UNL A   1      44.552  38.450  29.409  1.00  0.00    -0.012 A 
ATOM     19  C   UNL A   1      42.955  40.719  32.042  1.00  0.00     0.119 A 
ATOM     20  C   UNL A   1      42.926  41.858  31.261  1.00  0.00     0.048 A 
ATOM     21  C   UNL A   1      43.475  39.540  31.511  1.00  0.00     0.057 A 
ATOM     22  C   UNL A   1      43.413  41.837  29.948  1.00  0.00     0.031 A 
ATOM     23  C   UNL A   1      44.004  39.498  30.199  1.00  0.00     0.008 A 
ATOM     24  C   UNL A   1      44.011  40.665  29.431  1.00  0.00     0.057 A 
ATOM     25  N   UNL A   1      44.663  40.381  28.212  1.00  0.00    -0.280 N 
ATOM     26  C   UNL A   1      44.942  39.003  28.195  1.00  0.00     0.028 A 
ATOM     27  C   UNL A   1      45.573  38.249  27.066  1.00  0.00     0.065 C 
BRANCH  19  28
ATOM     28  O   UNL A   1      42.544  40.652  33.344  1.00  0.00    -0.497 OA
ATOM     29  C   UNL A   1      42.853  41.798  34.128  1.00  0.00     0.278 C 
ENDBRANCH  19  28
BRANCH  25  30
ATOM     30  C   UNL A   1      44.963  41.326  27.186  1.00  0.00     0.262 C 
ATOM     31  O   UNL A   1      46.091  41.819  27.125  1.00  0.00    -0.268 OA
BRANCH  30  32
ATOM     32  C   UNL A   1      44.041  41.757  26.122  1.00  0.00     0.040 A 
ATOM     33  C   UNL A   1      42.842  41.074  25.880  1.00  0.00     0.015 A 
ATOM     34  C   UNL A   1      44.413  42.851  25.330  1.00  0.00     0.015 A 
ATOM     35  C   UNL A   1      42.063  41.433  24.777  1.00  0.00     0.021 A 
ATOM     36  C   UNL A   1      43.625  43.210  24.237  1.00  0.00     0.021 A 
ATOM     37  C   UNL A   1      42.466  42.487  23.952  1.00  0.00     0.041 A 
ATOM     38  Cl  UNL A   1      41.539  42.884  22.558  1.00  0.00    -0.084 Cl
ENDBRANCH  30  32
ENDBRANCH  25  30
ENDBRANCH  17  18
ENDBRANCH  13  17
ENDBRANCH   7  12
ENDBRANCH   3   6
ENDBRANCH   1   2
BRANCH   1  39
ATOM     39  C   UNL A   1      35.478  32.682  32.843  1.00  0.00     0.023 C 
BRANCH  39  40
ATOM     40  C   UNL A   1      34.557  32.720  31.623  1.00  0.00     0.023 C 
BRANCH  40  41
ATOM     41  C   UNL A   1      34.840  33.806  30.586  1.00  0.00     0.116 C 
BRANCH  41  42
ATOM     42  N   UNL A   1      34.858  33.356  29.210  1.00  0.00    -0.352 N 
ATOM     43  C   UNL A   1      35.503  32.369  28.519  1.00  0.00     0.251 C 
ATOM     44  H   UNL A   1      34.262  33.889  28.634  1.00  0.00     0.163 HD
ATOM     45  O   UNL A   1      35.070  32.151  27.384  1.00  0.00    -0.269 OA
BRANCH  43  46
ATOM     46  C   UNL A   1      36.698  31.620  28.993  1.00  0.00     0.039 A 
ATOM     47  C   UNL A   1      37.926  32.187  29.334  1.00  0.00     0.014 A 
ATOM     48  C   UNL A   1      36.581  30.216  28.992  1.00  0.00     0.014 A 
ATOM     49  C   UNL A   1      39.039  31.376  29.537  1.00  0.00     0.010 A 
ATOM     50  C   UNL A   1      37.684  29.401  29.214  1.00  0.00     0.010 A 
ATOM     51  C   UNL A   1      38.927  29.989  29.421  1.00  0.00    -0.014 A 
BRANCH  51  52
ATOM     52  C   UNL A   1      40.140  29.191  29.565  1.00  0.00     0.031 A 
ATOM     53  C   UNL A   1      40.454  28.755  30.955  1.00  0.00     0.074 A 
ATOM     54  C   UNL A   1      40.876  28.786  28.512  1.00  0.00     0.049 A 
ATOM     55  N   UNL A   1      41.478  29.065  31.683  1.00  0.00    -0.248 NA
ATOM     56  C   UNL A   1      39.431  27.975  31.665  1.00  0.00     0.031 C 
ATOM     57  C   UNL A   1      40.529  28.848  27.089  1.00  0.00     0.029 A 
ATOM     58  N   UNL A   1      42.059  28.113  28.505  1.00  0.00    -0.354 N 
ATOM     59  C   UNL A   1      41.322  28.376  32.888  1.00  0.00     0.074 A 
ATOM     60  C   UNL A   1      39.981  27.847  32.873  1.00  0.00     0.031 C 
ATOM     61  C   UNL A   1      41.338  28.011  26.400  1.00  0.00     0.029 A 
ATOM     62  C   UNL A   1      42.344  27.478  27.305  1.00  0.00     0.049 A 
ATOM     63  H   UNL A   1      42.660  28.078  29.285  1.00  0.00     0.167 HD
ATOM     64  C   UNL A   1      42.366  28.143  33.736  1.00  0.00     0.034 A 
ATOM     65  C   UNL A   1      43.262  26.498  27.105  1.00  0.00     0.034 A 
ATOM     66  C   UNL A   1      43.498  28.965  33.409  1.00  0.00     0.049 A 
ATOM     67  C   UNL A   1      44.218  26.518  28.241  1.00  0.00     0.074 A 
ATOM     68  C   UNL A   1      43.732  30.324  33.386  1.00  0.00     0.029 A 
ATOM     69  N   UNL A   1      44.519  28.393  32.689  1.00  0.00    -0.354 N 
ATOM     70  N   UNL A   1      45.084  27.470  28.451  1.00  0.00    -0.248 NA
ATOM     71  C   UNL A   1      43.891  25.701  29.401  1.00  0.00     0.031 C 
ATOM     72  C   UNL A   1      44.569  30.528  32.255  1.00  0.00     0.029 A 
ATOM     73  C   UNL A   1      44.853  29.279  31.698  1.00  0.00     0.049 A 
ATOM     74  H   UNL A   1      44.933  27.515  32.853  1.00  0.00     0.167 HD
ATOM     75  C   UNL A   1      45.052  27.668  29.823  1.00  0.00     0.074 A 
ATOM     76  C   UNL A   1      44.372  26.491  30.365  1.00  0.00     0.031 C 
ATOM     77  C   UNL A   1      45.307  28.889  30.380  1.00  0.00     0.034 A 
BRANCH  64  78
ATOM     78  C   UNL A   1      42.478  26.957  34.666  1.00  0.00     0.023 A 
ATOM     79  C   UNL A   1      43.273  25.833  34.377  1.00  0.00     0.031 A 
ATOM     80  C   UNL A   1      41.969  27.025  35.981  1.00  0.00     0.131 A 
ATOM     81  C   UNL A   1      43.537  24.850  35.340  1.00  0.00     0.055 A 
ATOM     82  C   UNL A   1      42.288  26.079  36.965  1.00  0.00     0.041 A 
ATOM     83  F   UNL A   1      41.196  28.050  36.373  1.00  0.00    -0.206 F 
ATOM     84  C   UNL A   1      43.080  24.984  36.647  1.00  0.00     0.022 A 
BRANCH  81  85
ATOM     85  S   UNL A   1      44.505  23.380  34.905  1.00  0.00     0.124 S 
ATOM     86  O   UNL A   1      45.569  23.954  34.088  1.00  0.00    -0.237 OA
ATOM     87  O   UNL A   1      44.909  22.891  36.220  1.00  0.00    -0.237 OA
ATOM     88  O   UNL A   1      43.545  22.536  34.201  1.00  0.00    -0.744 OA
ENDBRANCH  81  85
ENDBRANCH  64  78
BRANCH  65  89
ATOM     89  C   UNL A   1      43.030  25.268  26.308  1.00  0.00     0.023 A 
ATOM     90  C   UNL A   1      42.028  24.362  26.704  1.00  0.00     0.031 A 
ATOM     91  C   UNL A   1      43.962  24.820  25.357  1.00  0.00     0.131 A 
ATOM     92  C   UNL A   1      42.000  23.057  26.199  1.00  0.00     0.055 A 
ATOM     93  C   UNL A   1      43.924  23.518  24.840  1.00  0.00     0.041 A 
ATOM     94  F   UNL A   1      44.970  25.615  24.964  1.00  0.00    -0.206 F 
ATOM     95  C   UNL A   1      42.946  22.624  25.271  1.00  0.00     0.022 A 
BRANCH  92  96
ATOM     96  S   UNL A   1      40.774  21.871  26.817  1.00  0.00     0.124 S 
ATOM     97  O   UNL A   1      39.513  22.531  26.487  1.00  0.00    -0.237 OA
ATOM     98  O   UNL A   1      41.087  20.683  26.031  1.00  0.00    -0.237 OA
ATOM     99  O   UNL A   1      41.068  21.784  28.244  1.00  0.00    -0.744 OA
ENDBRANCH  92  96
ENDBRANCH  65  89
BRANCH  77 100
ATOM    100  C   UNL A   1      45.850  30.007  29.519  1.00  0.00     0.023 A 
ATOM    101  C   UNL A   1      44.938  30.641  28.656  1.00  0.00     0.031 A 
ATOM    102  C   UNL A   1      47.219  30.272  29.323  1.00  0.00     0.131 A 
ATOM    103  C   UNL A   1      45.395  31.446  27.609  1.00  0.00     0.055 A 
ATOM    104  C   UNL A   1      47.668  31.141  28.324  1.00  0.00     0.041 A 
ATOM    105  F   UNL A   1      48.167  29.629  30.019  1.00  0.00    -0.206 F 
ATOM    106  C   UNL A   1      46.756  31.717  27.446  1.00  0.00     0.022 A 
BRANCH 103 107
ATOM    107  S   UNL A   1      44.245  32.003  26.324  1.00  0.00     0.124 S 
ATOM    108  O   UNL A   1      43.333  30.869  26.216  1.00  0.00    -0.237 OA
ATOM    109  O   UNL A   1      43.676  33.212  26.918  1.00  0.00    -0.237 OA
ATOM    110  O   UNL A   1      45.098  32.234  25.162  1.00  0.00    -0.744 OA
ENDBRANCH 103 107
ENDBRANCH  77 100
ENDBRANCH  51  52
ENDBRANCH  43  46
ENDBRANCH  41  42
ENDBRANCH  40  41
ENDBRANCH  39  40
ENDBRANCH   1  39
TORSDOF 20
ENDMDL
MODEL 2
REMARK VINA RESULT:     -11.1      2.067      2.913
REMARK SMILES COc1ccc2c(c1)c(Cc1nc(-c3ccc(C(=O)NCCCCNC(=O)c4ccc(-c5c6nc(c(-c7cc(S(=O)(=O)[O-])ccc7F)c7ccc([nH]7)c(-c7cc(S(=O)(=O)[O-])ccc7F)c7nc(c(-c8cc(S(=O)(=O)[O-])ccc8F)c8ccc5[nH]8)C=C7)C=C6)cc4)cc3)cs1)c(C)n2C(=O)c1ccc(Cl)cc1
REMARK SMILES IDX 21 1 20 2 18 3 19 4 17 6 14 7 15 8 92 9 16 10 91 11 13 12
REMARK SMILES IDX 11 13 12 14 94 15 93 16 10 17 9 18 3 19 4 20 8 21 5 22 7 23
REMARK SMILES IDX 6 24 97 25 95 26 96 27 2 28 1 29 98 30 99 31 100 32 101 33
REMARK SMILES IDX 106 34 102 35 105 36 103 37 104 38 22 39 23 40 24 41 25 42
REMARK SMILES IDX 26 43 27 45 28 46 29 47 90 48 30 49 89 50 31 51 32 52 33 53
REMARK SMILES IDX 83 54 34 55 88 56 82 57 84 58 35 59 87 60 81 61 80 62 36 64
REMARK SMILES IDX 68 65 48 66 67 67 49 68 52 69 66 70 85 71 50 72 51 73 65 75
REMARK SMILES IDX 86 76 53 77 37 78 38 79 46 80 39 81 45 82 47 83 44 84 40 85
REMARK SMILES IDX 41 86 42 87 43 88 69 89 70 90 78 91 71 92 77 93 79 94 76 95
REMARK SMILES IDX 72 96 73 97 74 98 75 99 54 100 55 101 63 102 56 103 62 104
REMARK SMILES IDX 64 105 61 106 57 107 58 108 59 109 60 110
REMARK H PARENT 20 5 25 44 84 63 52 74
REMARK Flexibility Score: inf
ROOT
ATOM      1  C   UNL A   1      37.507  32.739  34.319  1.00  0.00     0.116 C 
ENDROOT
BRANCH   1   2
ATOM      2  N   UNL A   1      38.552  31.899  34.877  1.00  0.00    -0.352 N 
ATOM      3  C   UNL A   1      39.912  31.879  34.660  1.00  0.00     0.251 C 
ATOM      4  O   UNL A   1      40.597  31.081  35.303  1.00  0.00    -0.269 OA
ATOM      5  H   UNL A   1      38.234  31.227  35.523  1.00  0.00     0.163 HD
BRANCH   3   6
ATOM      6  C   UNL A   1      40.575  32.720  33.624  1.00  0.00     0.039 A 
ATOM      7  C   UNL A   1      42.148  34.212  31.819  1.00  0.00     0.001 A 
ATOM      8  C   UNL A   1      42.111  34.558  33.173  1.00  0.00     0.011 A 
ATOM      9  C   UNL A   1      41.292  33.199  31.362  1.00  0.00     0.011 A 
ATOM     10  C   UNL A   1      41.336  33.812  34.068  1.00  0.00     0.014 A 
ATOM     11  C   UNL A   1      40.486  32.483  32.252  1.00  0.00     0.014 A 
BRANCH   7  12
ATOM     12  C   UNL A   1      43.037  34.874  30.874  1.00  0.00     0.081 A 
ATOM     13  C   UNL A   1      43.614  35.620  28.865  1.00  0.00     0.098 A 
ATOM     14  N   UNL A   1      42.700  34.959  29.541  1.00  0.00    -0.241 NA
ATOM     15  S   UNL A   1      44.991  36.088  29.780  1.00  0.00    -0.126 S 
ATOM     16  C   UNL A   1      44.278  35.395  31.182  1.00  0.00     0.095 A 
BRANCH  13  17
ATOM     17  C   UNL A   1      43.509  35.922  27.398  1.00  0.00     0.105 C 
BRANCH  17  18
ATOM     18  C   UNL A   1      44.053  37.287  27.042  1.00  0.00    -0.012 A 
ATOM     19  C   UNL A   1      47.682  37.253  25.834  1.00  0.00     0.119 A 
ATOM     20  C   UNL A   1      47.828  38.625  25.759  1.00  0.00     0.048 A 
ATOM     21  C   UNL A   1      46.465  36.718  26.252  1.00  0.00     0.057 A 
ATOM     22  C   UNL A   1      46.768  39.476  26.097  1.00  0.00     0.031 A 
ATOM     23  C   UNL A   1      45.367  37.553  26.568  1.00  0.00     0.008 A 
ATOM     24  C   UNL A   1      45.509  38.938  26.447  1.00  0.00     0.057 A 
ATOM     25  N   UNL A   1      44.261  39.531  26.732  1.00  0.00    -0.280 N 
ATOM     26  C   UNL A   1      43.392  38.505  27.146  1.00  0.00     0.028 A 
ATOM     27  C   UNL A   1      41.978  38.684  27.606  1.00  0.00     0.065 C 
BRANCH  19  28
ATOM     28  O   UNL A   1      48.641  36.344  25.486  1.00  0.00    -0.497 OA
ATOM     29  C   UNL A   1      48.189  34.998  25.406  1.00  0.00     0.278 C 
ENDBRANCH  19  28
BRANCH  25  30
ATOM     30  C   UNL A   1      43.954  40.921  26.630  1.00  0.00     0.262 C 
ATOM     31  O   UNL A   1      44.174  41.663  27.589  1.00  0.00    -0.268 OA
BRANCH  30  32
ATOM     32  C   UNL A   1      43.421  41.596  25.434  1.00  0.00     0.040 A 
ATOM     33  C   UNL A   1      42.100  41.394  25.015  1.00  0.00     0.015 A 
ATOM     34  C   UNL A   1      44.285  42.420  24.703  1.00  0.00     0.015 A 
ATOM     35  C   UNL A   1      41.677  41.946  23.803  1.00  0.00     0.021 A 
ATOM     36  C   UNL A   1      43.853  42.976  23.499  1.00  0.00     0.021 A 
ATOM     37  C   UNL A   1      42.558  42.720  23.044  1.00  0.00     0.041 A 
ATOM     38  Cl  UNL A   1      42.055  43.344  21.522  1.00  0.00    -0.084 Cl
ENDBRANCH  30  32
ENDBRANCH  25  30
ENDBRANCH  17  18
ENDBRANCH  13  17
ENDBRANCH   7  12
ENDBRANCH   3   6
ENDBRANCH   1   2
BRANCH   1  39
ATOM     39  C   UNL A   1      37.047  32.344  32.920  1.00  0.00     0.023 C 
BRANCH  39  40
ATOM     40  C   UNL A   1      35.914  33.157  32.293  1.00  0.00     0.023 C 
BRANCH  40  41
ATOM     41  C   UNL A   1      34.713  32.367  31.773  1.00  0.00     0.116 C 
BRANCH  41  42
ATOM     42  N   UNL A   1      34.412  32.555  30.369  1.00  0.00    -0.352 N 
ATOM     43  C   UNL A   1      34.880  32.031  29.197  1.00  0.00     0.251 C 
ATOM     44  H   UNL A   1      33.699  33.219  30.225  1.00  0.00     0.163 HD
ATOM     45  O   UNL A   1      34.197  32.278  28.199  1.00  0.00    -0.269 OA
BRANCH  43  46
ATOM     46  C   UNL A   1      36.152  31.277  29.032  1.00  0.00     0.039 A 
ATOM     47  C   UNL A   1      36.258  29.902  28.823  1.00  0.00     0.014 A 
ATOM     48  C   UNL A   1      37.334  32.025  29.203  1.00  0.00     0.014 A 
ATOM     49  C   UNL A   1      37.495  29.273  28.918  1.00  0.00     0.010 A 
ATOM     50  C   UNL A   1      38.575  31.405  29.279  1.00  0.00     0.010 A 
ATOM     51  C   UNL A   1      38.642  30.019  29.201  1.00  0.00    -0.014 A 
BRANCH  51  52
ATOM     52  C   UNL A   1      39.900  29.299  29.368  1.00  0.00     0.031 A 
ATOM     53  C   UNL A   1      40.232  28.915  30.770  1.00  0.00     0.074 A 
ATOM     54  C   UNL A   1      40.666  28.916  28.328  1.00  0.00     0.049 A 
ATOM     55  N   UNL A   1      41.232  29.302  31.494  1.00  0.00    -0.248 NA
ATOM     56  C   UNL A   1      39.255  28.090  31.493  1.00  0.00     0.031 C 
ATOM     57  C   UNL A   1      40.324  28.924  26.902  1.00  0.00     0.029 A 
ATOM     58  N   UNL A   1      41.888  28.315  28.342  1.00  0.00    -0.354 N 
ATOM     59  C   UNL A   1      41.111  28.632  32.715  1.00  0.00     0.074 A 
ATOM     60  C   UNL A   1      39.805  28.023  32.706  1.00  0.00     0.031 C 
ATOM     61  C   UNL A   1      41.186  28.123  26.236  1.00  0.00     0.029 A 
ATOM     62  C   UNL A   1      42.217  27.672  27.158  1.00  0.00     0.049 A 
ATOM     63  H   UNL A   1      42.485  28.335  29.124  1.00  0.00     0.167 HD
ATOM     64  C   UNL A   1      42.163  28.482  33.572  1.00  0.00     0.034 A 
ATOM     65  C   UNL A   1      43.194  26.745  26.984  1.00  0.00     0.034 A 
ATOM     66  C   UNL A   1      43.244  29.364  33.231  1.00  0.00     0.049 A 
ATOM     67  C   UNL A   1      44.140  26.849  28.123  1.00  0.00     0.074 A 
ATOM     68  C   UNL A   1      43.396  30.734  33.178  1.00  0.00     0.029 A 
ATOM     69  N   UNL A   1      44.302  28.839  32.528  1.00  0.00    -0.354 N 
ATOM     70  N   UNL A   1      44.946  27.856  28.315  1.00  0.00    -0.248 NA
ATOM     71  C   UNL A   1      43.857  26.040  29.300  1.00  0.00     0.031 C 
ATOM     72  C   UNL A   1      44.226  30.962  32.046  1.00  0.00     0.029 A 
ATOM     73  C   UNL A   1      44.588  29.721  31.519  1.00  0.00     0.049 A 
ATOM     74  H   UNL A   1      44.767  27.992  32.714  1.00  0.00     0.167 HD
ATOM     75  C   UNL A   1      44.894  28.083  29.683  1.00  0.00     0.074 A 
ATOM     76  C   UNL A   1      44.283  26.879  30.248  1.00  0.00     0.031 C 
ATOM     77  C   UNL A   1      45.072  29.329  30.212  1.00  0.00     0.034 A 
BRANCH  64  78
ATOM     78  C   UNL A   1      42.340  27.326  34.529  1.00  0.00     0.023 A 
ATOM     79  C   UNL A   1      43.156  26.217  34.242  1.00  0.00     0.031 A 
ATOM     80  C   UNL A   1      41.877  27.418  35.860  1.00  0.00     0.131 A 
ATOM     81  C   UNL A   1      43.482  25.269  35.222  1.00  0.00     0.055 A 
ATOM     82  C   UNL A   1      42.257  26.509  36.856  1.00  0.00     0.041 A 
ATOM     83  F   UNL A   1      41.090  28.432  36.251  1.00  0.00    -0.206 F 
ATOM     84  C   UNL A   1      43.067  25.428  36.540  1.00  0.00     0.022 A 
BRANCH  81  85
ATOM     85  S   UNL A   1      44.475  23.815  34.792  1.00  0.00     0.124 S 
ATOM     86  O   UNL A   1      44.713  24.026  33.368  1.00  0.00    -0.237 OA
ATOM     87  O   UNL A   1      45.636  23.982  35.662  1.00  0.00    -0.237 OA
ATOM     88  O   UNL A   1      43.604  22.694  35.134  1.00  0.00    -0.744 OA
ENDBRANCH  81  85
ENDBRANCH  64  78
BRANCH  65  89
ATOM     89  C   UNL A   1      43.041  25.485  26.214  1.00  0.00     0.023 A 
ATOM     90  C   UNL A   1      42.146  24.498  26.669  1.00  0.00     0.031 A 
ATOM     91  C   UNL A   1      43.966  25.109  25.227  1.00  0.00     0.131 A 
ATOM     92  C   UNL A   1      42.217  23.187  26.183  1.00  0.00     0.055 A 
ATOM     93  C   UNL A   1      44.025  23.801  24.729  1.00  0.00     0.041 A 
ATOM     94  F   UNL A   1      44.877  25.987  24.777  1.00  0.00    -0.206 F 
ATOM     95  C   UNL A   1      43.156  22.829  25.216  1.00  0.00     0.022 A 
BRANCH  92  96
ATOM     96  S   UNL A   1      41.136  21.904  26.871  1.00  0.00     0.124 S 
ATOM     97  O   UNL A   1      40.093  21.799  25.853  1.00  0.00    -0.237 OA
ATOM     98  O   UNL A   1      42.044  20.767  26.962  1.00  0.00    -0.237 OA
ATOM     99  O   UNL A   1      40.698  22.471  28.144  1.00  0.00    -0.744 OA
ENDBRANCH  92  96
ENDBRANCH  65  89
BRANCH  77 100
ATOM    100  C   UNL A   1      45.551  30.458  29.328  1.00  0.00     0.023 A 
ATOM    101  C   UNL A   1      46.902  30.828  29.453  1.00  0.00     0.031 A 
ATOM    102  C   UNL A   1      44.705  31.323  28.608  1.00  0.00     0.131 A 
ATOM    103  C   UNL A   1      47.355  32.045  28.932  1.00  0.00     0.055 A 
ATOM    104  C   UNL A   1      45.179  32.500  28.020  1.00  0.00     0.041 A 
ATOM    105  F   UNL A   1      43.384  31.114  28.532  1.00  0.00    -0.206 F 
ATOM    106  C   UNL A   1      46.506  32.878  28.199  1.00  0.00     0.022 A 
BRANCH 103 107
ATOM    107  S   UNL A   1      49.006  32.657  29.360  1.00  0.00     0.124 S 
ATOM    108  O   UNL A   1      48.863  32.958  30.780  1.00  0.00    -0.237 OA
ATOM    109  O   UNL A   1      49.855  31.509  29.044  1.00  0.00    -0.237 OA
ATOM    110  O   UNL A   1      49.190  33.815  28.490  1.00  0.00    -0.744 OA
ENDBRANCH 103 107
ENDBRANCH  77 100
ENDBRANCH  51  52
ENDBRANCH  43  46
ENDBRANCH  41  42
ENDBRANCH  40  41
ENDBRANCH  39  40
ENDBRANCH   1  39
TORSDOF 20
ENDMDL
MODEL 3
REMARK VINA RESULT:     -10.7      1.796      2.150
REMARK SMILES COc1ccc2c(c1)c(Cc1nc(-c3ccc(C(=O)NCCCCNC(=O)c4ccc(-c5c6nc(c(-c7cc(S(=O)(=O)[O-])ccc7F)c7ccc([nH]7)c(-c7cc(S(=O)(=O)[O-])ccc7F)c7nc(c(-c8cc(S(=O)(=O)[O-])ccc8F)c8ccc5[nH]8)C=C7)C=C6)cc4)cc3)cs1)c(C)n2C(=O)c1ccc(Cl)cc1
REMARK SMILES IDX 21 1 20 2 18 3 19 4 17 6 14 7 15 8 92 9 16 10 91 11 13 12
REMARK SMILES IDX 11 13 12 14 94 15 93 16 10 17 9 18 3 19 4 20 8 21 5 22 7 23
REMARK SMILES IDX 6 24 97 25 95 26 96 27 2 28 1 29 98 30 99 31 100 32 101 33
REMARK SMILES IDX 106 34 102 35 105 36 103 37 104 38 22 39 23 40 24 41 25 42
REMARK SMILES IDX 26 43 27 45 28 46 29 47 90 48 30 49 89 50 31 51 32 52 33 53
REMARK SMILES IDX 83 54 34 55 88 56 82 57 84 58 35 59 87 60 81 61 80 62 36 64
REMARK SMILES IDX 68 65 48 66 67 67 49 68 52 69 66 70 85 71 50 72 51 73 65 75
REMARK SMILES IDX 86 76 53 77 37 78 38 79 46 80 39 81 45 82 47 83 44 84 40 85
REMARK SMILES IDX 41 86 42 87 43 88 69 89 70 90 78 91 71 92 77 93 79 94 76 95
REMARK SMILES IDX 72 96 73 97 74 98 75 99 54 100 55 101 63 102 56 103 62 104
REMARK SMILES IDX 64 105 61 106 57 107 58 108 59 109 60 110
REMARK H PARENT 20 5 25 44 84 63 52 74
REMARK Flexibility Score: inf
ROOT
ATOM      1  C   UNL A   1      36.606  31.646  33.171  1.00  0.00     0.116 C 
ENDROOT
BRANCH   1   2
ATOM      2  N   UNL A   1      37.568  31.735  34.256  1.00  0.00    -0.352 N 
ATOM      3  C   UNL A   1      38.824  32.299  34.310  1.00  0.00     0.251 C 
ATOM      4  O   UNL A   1      39.429  32.279  35.383  1.00  0.00    -0.269 OA
ATOM      5  H   UNL A   1      37.271  31.323  35.099  1.00  0.00     0.163 HD
BRANCH   3   6
ATOM      6  C   UNL A   1      39.510  32.854  33.109  1.00  0.00     0.039 A 
ATOM      7  C   UNL A   1      40.830  34.220  31.023  1.00  0.00     0.001 A 
ATOM      8  C   UNL A   1      39.539  34.597  31.407  1.00  0.00     0.011 A 
ATOM      9  C   UNL A   1      41.394  33.075  31.605  1.00  0.00     0.011 A 
ATOM     10  C   UNL A   1      38.889  33.923  32.446  1.00  0.00     0.014 A 
ATOM     11  C   UNL A   1      40.724  32.377  32.614  1.00  0.00     0.014 A 
BRANCH   7  12
ATOM     12  C   UNL A   1      41.596  34.971  30.039  1.00  0.00     0.081 A 
ATOM     13  C   UNL A   1      43.341  36.161  29.353  1.00  0.00     0.098 A 
ATOM     14  N   UNL A   1      42.791  35.562  30.388  1.00  0.00    -0.241 NA
ATOM     15  S   UNL A   1      42.395  36.136  27.919  1.00  0.00    -0.126 S 
ATOM     16  C   UNL A   1      41.196  35.219  28.741  1.00  0.00     0.095 A 
BRANCH  13  17
ATOM     17  C   UNL A   1      44.671  36.853  29.403  1.00  0.00     0.105 C 
BRANCH  17  18
ATOM     18  C   UNL A   1      44.566  38.339  29.147  1.00  0.00    -0.012 A 
ATOM     19  C   UNL A   1      43.135  40.331  32.082  1.00  0.00     0.119 A 
ATOM     20  C   UNL A   1      43.074  41.545  31.425  1.00  0.00     0.048 A 
ATOM     21  C   UNL A   1      43.615  39.211  31.405  1.00  0.00     0.057 A 
ATOM     22  C   UNL A   1      43.489  41.656  30.091  1.00  0.00     0.031 A 
ATOM     23  C   UNL A   1      44.071  39.303  30.069  1.00  0.00     0.008 A 
ATOM     24  C   UNL A   1      44.047  40.542  29.424  1.00  0.00     0.057 A 
ATOM     25  N   UNL A   1      44.629  40.383  28.150  1.00  0.00    -0.280 N 
ATOM     26  C   UNL A   1      44.895  39.013  27.976  1.00  0.00     0.028 A 
ATOM     27  C   UNL A   1      45.457  38.377  26.743  1.00  0.00     0.065 C 
BRANCH  19  28
ATOM     28  O   UNL A   1      42.795  40.133  33.390  1.00  0.00    -0.497 OA
ATOM     29  C   UNL A   1      43.824  40.426  34.328  1.00  0.00     0.278 C 
ENDBRANCH  19  28
BRANCH  25  30
ATOM     30  C   UNL A   1      44.881  41.427  27.210  1.00  0.00     0.262 C 
ATOM     31  O   UNL A   1      45.891  42.123  27.332  1.00  0.00    -0.268 OA
BRANCH  30  32
ATOM     32  C   UNL A   1      44.048  41.745  26.037  1.00  0.00     0.040 A 
ATOM     33  C   UNL A   1      44.392  42.783  25.163  1.00  0.00     0.015 A 
ATOM     34  C   UNL A   1      42.879  41.000  25.839  1.00  0.00     0.015 A 
ATOM     35  C   UNL A   1      43.506  43.137  24.142  1.00  0.00     0.021 A 
ATOM     36  C   UNL A   1      42.004  41.353  24.812  1.00  0.00     0.021 A 
ATOM     37  C   UNL A   1      42.311  42.432  23.981  1.00  0.00     0.041 A 
ATOM     38  Cl  UNL A   1      41.192  42.911  22.765  1.00  0.00    -0.084 Cl
ENDBRANCH  30  32
ENDBRANCH  25  30
ENDBRANCH  17  18
ENDBRANCH  13  17
ENDBRANCH   7  12
ENDBRANCH   3   6
ENDBRANCH   1   2
BRANCH   1  39
ATOM     39  C   UNL A   1      35.548  32.744  33.162  1.00  0.00     0.023 C 
BRANCH  39  40
ATOM     40  C   UNL A   1      34.563  32.766  31.992  1.00  0.00     0.023 C 
BRANCH  40  41
ATOM     41  C   UNL A   1      34.957  33.613  30.782  1.00  0.00     0.116 C 
BRANCH  41  42
ATOM     42  N   UNL A   1      34.737  32.990  29.494  1.00  0.00    -0.352 N 
ATOM     43  C   UNL A   1      35.294  31.943  28.814  1.00  0.00     0.251 C 
ATOM     44  H   UNL A   1      34.012  33.423  28.988  1.00  0.00     0.163 HD
ATOM     45  O   UNL A   1      34.665  31.566  27.821  1.00  0.00    -0.269 OA
BRANCH  43  46
ATOM     46  C   UNL A   1      36.599  31.302  29.129  1.00  0.00     0.039 A 
ATOM     47  C   UNL A   1      37.772  31.976  29.468  1.00  0.00     0.014 A 
ATOM     48  C   UNL A   1      36.648  29.903  28.968  1.00  0.00     0.014 A 
ATOM     49  C   UNL A   1      38.984  31.294  29.512  1.00  0.00     0.010 A 
ATOM     50  C   UNL A   1      37.853  29.213  29.030  1.00  0.00     0.010 A 
ATOM     51  C   UNL A   1      39.029  29.925  29.237  1.00  0.00    -0.014 A 
BRANCH  51  52
ATOM     52  C   UNL A   1      40.334  29.275  29.219  1.00  0.00     0.031 A 
ATOM     53  C   UNL A   1      40.964  29.074  30.555  1.00  0.00     0.074 A 
ATOM     54  C   UNL A   1      40.895  28.796  28.091  1.00  0.00     0.049 A 
ATOM     55  N   UNL A   1      42.065  29.580  31.009  1.00  0.00    -0.248 NA
ATOM     56  C   UNL A   1      40.203  28.309  31.552  1.00  0.00     0.031 C 
ATOM     57  C   UNL A   1      40.273  28.621  26.776  1.00  0.00     0.029 A 
ATOM     58  N   UNL A   1      42.128  28.244  27.918  1.00  0.00    -0.354 N 
ATOM     59  C   UNL A   1      42.233  29.058  32.294  1.00  0.00     0.074 A 
ATOM     60  C   UNL A   1      40.989  28.408  32.624  1.00  0.00     0.031 C 
ATOM     61  C   UNL A   1      41.028  27.775  26.039  1.00  0.00     0.029 A 
ATOM     62  C   UNL A   1      42.248  27.475  26.770  1.00  0.00     0.049 A 
ATOM     63  H   UNL A   1      42.868  28.378  28.553  1.00  0.00     0.167 HD
ATOM     64  C   UNL A   1      43.443  29.049  32.926  1.00  0.00     0.034 A 
ATOM     65  C   UNL A   1      43.222  26.567  26.502  1.00  0.00     0.034 A 
ATOM     66  C   UNL A   1      44.380  29.919  32.273  1.00  0.00     0.049 A 
ATOM     67  C   UNL A   1      44.372  26.840  27.401  1.00  0.00     0.074 A 
ATOM     68  C   UNL A   1      44.438  31.277  32.038  1.00  0.00     0.029 A 
ATOM     69  N   UNL A   1      45.303  29.350  31.429  1.00  0.00    -0.354 N 
ATOM     70  N   UNL A   1      45.139  27.890  27.309  1.00  0.00    -0.248 NA
ATOM     71  C   UNL A   1      44.379  26.169  28.694  1.00  0.00     0.031 C 
ATOM     72  C   UNL A   1      45.007  31.396  30.740  1.00  0.00     0.029 A 
ATOM     73  C   UNL A   1      45.327  30.113  30.291  1.00  0.00     0.049 A 
ATOM     74  H   UNL A   1      45.845  28.548  31.607  1.00  0.00     0.167 HD
ATOM     75  C   UNL A   1      45.351  28.278  28.624  1.00  0.00     0.074 A 
ATOM     76  C   UNL A   1      44.939  27.130  29.433  1.00  0.00     0.031 C 
ATOM     77  C   UNL A   1      45.559  29.584  28.963  1.00  0.00     0.034 A 
BRANCH  64  78
ATOM     78  C   UNL A   1      43.877  28.023  33.948  1.00  0.00     0.023 A 
ATOM     79  C   UNL A   1      44.137  28.348  35.291  1.00  0.00     0.031 A 
ATOM     80  C   UNL A   1      43.817  26.644  33.652  1.00  0.00     0.131 A 
ATOM     81  C   UNL A   1      44.321  27.358  36.266  1.00  0.00     0.055 A 
ATOM     82  C   UNL A   1      43.934  25.654  34.636  1.00  0.00     0.041 A 
ATOM     83  F   UNL A   1      43.578  26.213  32.403  1.00  0.00    -0.206 F 
ATOM     84  C   UNL A   1      44.185  26.009  35.955  1.00  0.00     0.022 A 
BRANCH  81  85
ATOM     85  S   UNL A   1      44.727  27.819  37.972  1.00  0.00     0.124 S 
ATOM     86  O   UNL A   1      44.230  29.190  38.037  1.00  0.00    -0.237 OA
ATOM     87  O   UNL A   1      43.967  26.832  38.734  1.00  0.00    -0.237 OA
ATOM     88  O   UNL A   1      46.177  27.662  38.031  1.00  0.00    -0.744 OA
ENDBRANCH  81  85
ENDBRANCH  64  78
BRANCH  65  89
ATOM     89  C   UNL A   1      42.991  25.219  25.925  1.00  0.00     0.023 A 
ATOM     90  C   UNL A   1      41.936  24.426  26.414  1.00  0.00     0.031 A 
ATOM     91  C   UNL A   1      43.958  24.583  25.129  1.00  0.00     0.131 A 
ATOM     92  C   UNL A   1      41.889  23.052  26.150  1.00  0.00     0.055 A 
ATOM     93  C   UNL A   1      43.902  23.211  24.852  1.00  0.00     0.041 A 
ATOM     94  F   UNL A   1      45.014  25.268  24.663  1.00  0.00    -0.206 F 
ATOM     95  C   UNL A   1      42.870  22.435  25.374  1.00  0.00     0.022 A 
BRANCH  92  96
ATOM     96  S   UNL A   1      40.588  22.029  26.893  1.00  0.00     0.124 S 
ATOM     97  O   UNL A   1      41.126  21.764  28.225  1.00  0.00    -0.237 OA
ATOM     98  O   UNL A   1      39.440  22.927  26.845  1.00  0.00    -0.237 OA
ATOM     99  O   UNL A   1      40.523  20.865  26.013  1.00  0.00    -0.744 OA
ENDBRANCH  92  96
ENDBRANCH  65  89
BRANCH  77 100
ATOM    100  C   UNL A   1      45.784  30.615  27.880  1.00  0.00     0.023 A 
ATOM    101  C   UNL A   1      47.099  31.085  27.717  1.00  0.00     0.031 A 
ATOM    102  C   UNL A   1      44.757  31.319  27.223  1.00  0.00     0.131 A 
ATOM    103  C   UNL A   1      47.350  32.248  26.982  1.00  0.00     0.055 A 
ATOM    104  C   UNL A   1      45.021  32.436  26.424  1.00  0.00     0.041 A 
ATOM    105  F   UNL A   1      43.465  31.017  27.409  1.00  0.00    -0.206 F 
ATOM    106  C   UNL A   1      46.322  32.920  26.318  1.00  0.00     0.022 A 
BRANCH 103 107
ATOM    107  S   UNL A   1      48.991  33.017  27.034  1.00  0.00     0.124 S 
ATOM    108  O   UNL A   1      48.728  34.337  26.470  1.00  0.00    -0.237 OA
ATOM    109  O   UNL A   1      49.300  32.995  28.463  1.00  0.00    -0.237 OA
ATOM    110  O   UNL A   1      49.819  32.139  26.213  1.00  0.00    -0.744 OA
ENDBRANCH 103 107
ENDBRANCH  77 100
ENDBRANCH  51  52
ENDBRANCH  43  46
ENDBRANCH  41  42
ENDBRANCH  40  41
ENDBRANCH  39  40
ENDBRANCH   1  39
TORSDOF 20
ENDMDL
