MODEL 1
REMARK VINA RESULT:     -13.1      0.000      0.000
REMARK SMILES O=C1OC(c2ccc(Cl)cc2)=N/C1=C/Nc1ccc(O)c(C(=O)NCCCCNC(=O)c2ccc(-c3c4nc(c(-c5cc(S(=O)(=O)[O-])ccc5F)c5ccc([nH]5)c(-c5cc(S(=O)(=O)[O-])ccc5F)c5nc(c(-c6cc(S(=O)(=O)[O-])ccc6F)c6ccc3[nH]6)C=C5)C=C4)cc2)c1
REMARK SMILES IDX 26 1 25 2 24 3 22 4 23 5 21 7 16 8 17 9 95 10 18 11 19 12
REMARK SMILES IDX 15 13 14 15 1 16 2 17 3 18 13 19 4 20 12 21 5 22 6 23 11 24
REMARK SMILES IDX 7 25 10 26 8 27 9 28 20 29 27 31 28 32 29 33 30 34 31 36
REMARK SMILES IDX 32 37 33 38 94 39 34 40 93 41 35 42 36 43 37 44 87 45 38 46
REMARK SMILES IDX 92 47 86 48 88 49 39 50 91 51 85 52 84 53 40 55 72 56 52 57
REMARK SMILES IDX 71 58 53 59 56 60 70 61 89 62 54 63 55 64 69 66 90 67 57 68
REMARK SMILES IDX 41 69 42 70 50 71 43 72 49 73 51 74 48 75 44 76 45 77 46 78
REMARK SMILES IDX 47 79 73 80 74 81 82 82 75 83 81 84 83 85 80 86 76 87 77 88
REMARK SMILES IDX 78 89 79 90 58 91 59 92 67 93 60 94 66 95 68 96 65 97 61 98
REMARK SMILES IDX 62 99 63 100 64 101
REMARK H PARENT 24 6 15 14 20 30 29 35 88 54 56 65
REMARK Flexibility Score: inf
ROOT
ATOM      1  C   UNL A   1      31.729  30.266  26.896  1.00  0.00     0.023 C 
ENDROOT
BRANCH   1   2
ATOM      2  C   UNL A   1      32.963  29.398  26.632  1.00  0.00     0.116 C 
BRANCH   2   3
ATOM      3  N   UNL A   1      33.371  29.541  25.255  1.00  0.00    -0.352 N 
ATOM      4  C   UNL A   1      32.797  29.137  24.080  1.00  0.00     0.255 C 
ATOM      5  O   UNL A   1      33.481  29.306  23.065  1.00  0.00    -0.269 OA
ATOM      6  H   UNL A   1      34.224  30.020  25.138  1.00  0.00     0.163 HD
BRANCH   4   7
ATOM      7  C   UNL A   1      31.402  28.612  23.918  1.00  0.00     0.083 A 
ATOM      8  C   UNL A   1      30.067  26.550  24.118  1.00  0.00     0.039 A 
ATOM      9  C   UNL A   1      28.961  27.227  23.609  1.00  0.00     0.030 A 
ATOM     10  C   UNL A   1      31.276  27.243  24.238  1.00  0.00     0.043 A 
ATOM     11  C   UNL A   1      29.036  28.588  23.336  1.00  0.00     0.049 A 
ATOM     12  C   UNL A   1      30.238  29.283  23.523  1.00  0.00     0.128 A 
BRANCH   8  13
ATOM     13  N   UNL A   1      30.023  25.192  24.450  1.00  0.00    -0.360 N 
ATOM     14  H   UNL A   1      29.512  24.948  25.256  1.00  0.00     0.166 HD
BRANCH  13  15
ATOM     15  C   UNL A   1      30.618  24.169  23.764  1.00  0.00     0.119 C 
ATOM     16  O   UNL A   1      30.578  23.133  26.606  1.00  0.00    -0.244 OA
ATOM     17  C   UNL A   1      31.034  22.566  25.635  1.00  0.00     0.365 C 
ATOM     18  O   UNL A   1      31.592  21.321  25.583  1.00  0.00    -0.402 OA
ATOM     19  C   UNL A   1      31.123  23.022  24.222  1.00  0.00     0.168 C 
ATOM     20  C   UNL A   1      31.985  21.146  24.302  1.00  0.00     0.231 C 
ATOM     21  N   UNL A   1      31.755  22.087  23.450  1.00  0.00    -0.204 NA
BRANCH  20  22
ATOM     22  C   UNL A   1      32.698  19.904  24.036  1.00  0.00     0.037 A 
ATOM     23  C   UNL A   1      33.835  19.565  24.773  1.00  0.00     0.015 A 
ATOM     24  C   UNL A   1      32.192  19.042  23.058  1.00  0.00     0.015 A 
ATOM     25  C   UNL A   1      34.467  18.345  24.528  1.00  0.00     0.021 A 
ATOM     26  C   UNL A   1      32.838  17.834  22.803  1.00  0.00     0.021 A 
ATOM     27  C   UNL A   1      33.970  17.488  23.543  1.00  0.00     0.041 A 
ATOM     28  Cl  UNL A   1      34.755  15.987  23.242  1.00  0.00    -0.084 Cl
ENDBRANCH  20  22
ENDBRANCH  13  15
ENDBRANCH   8  13
BRANCH  12  29
ATOM     29  O   UNL A   1      30.174  30.633  23.365  1.00  0.00    -0.507 OA
ATOM     30  H   UNL A   1      29.344  31.054  23.260  1.00  0.00     0.293 HD
ENDBRANCH  12  29
ENDBRANCH   4   7
ENDBRANCH   2   3
ENDBRANCH   1   2
BRANCH   1  31
ATOM     31  C   UNL A   1      31.917  31.742  26.551  1.00  0.00     0.023 C 
BRANCH  31  32
ATOM     32  C   UNL A   1      32.971  32.451  27.390  1.00  0.00     0.116 C 
BRANCH  32  33
ATOM     33  N   UNL A   1      32.638  33.840  27.667  1.00  0.00    -0.352 N 
ATOM     34  C   UNL A   1      33.166  34.673  28.622  1.00  0.00     0.251 C 
ATOM     35  H   UNL A   1      31.943  34.236  27.093  1.00  0.00     0.163 HD
ATOM     36  O   UNL A   1      32.676  35.782  28.807  1.00  0.00    -0.269 OA
BRANCH  34  37
ATOM     37  C   UNL A   1      34.294  34.194  29.448  1.00  0.00     0.039 A 
ATOM     38  C   UNL A   1      34.014  33.420  30.574  1.00  0.00     0.014 A 
ATOM     39  C   UNL A   1      35.616  34.466  29.083  1.00  0.00     0.014 A 
ATOM     40  C   UNL A   1      35.069  32.867  31.299  1.00  0.00     0.010 A 
ATOM     41  C   UNL A   1      36.660  33.838  29.754  1.00  0.00     0.010 A 
ATOM     42  C   UNL A   1      36.397  33.034  30.872  1.00  0.00    -0.014 A 
BRANCH  42  43
ATOM     43  C   UNL A   1      37.507  32.354  31.588  1.00  0.00     0.031 A 
ATOM     44  C   UNL A   1      38.251  31.217  30.942  1.00  0.00     0.074 A 
ATOM     45  C   UNL A   1      37.829  32.759  32.832  1.00  0.00     0.049 A 
ATOM     46  N   UNL A   1      39.271  30.537  31.397  1.00  0.00    -0.248 NA
ATOM     47  C   UNL A   1      37.769  30.768  29.628  1.00  0.00     0.031 C 
ATOM     48  C   UNL A   1      37.135  33.810  33.582  1.00  0.00     0.029 A 
ATOM     49  N   UNL A   1      38.825  32.351  33.682  1.00  0.00    -0.354 N 
ATOM     50  C   UNL A   1      39.556  29.584  30.425  1.00  0.00     0.074 A 
ATOM     51  C   UNL A   1      38.551  29.726  29.394  1.00  0.00     0.031 C 
ATOM     52  C   UNL A   1      37.761  34.001  34.753  1.00  0.00     0.029 A 
ATOM     53  C   UNL A   1      38.866  33.055  34.864  1.00  0.00     0.049 A 
ATOM     54  H   UNL A   1      39.451  31.623  33.468  1.00  0.00     0.167 HD
ATOM     55  C   UNL A   1      40.578  28.693  30.383  1.00  0.00     0.034 A 
ATOM     56  C   UNL A   1      39.701  32.953  35.916  1.00  0.00     0.034 A 
ATOM     57  C   UNL A   1      41.568  28.565  31.427  1.00  0.00     0.049 A 
ATOM     58  C   UNL A   1      40.814  31.937  35.856  1.00  0.00     0.074 A 
ATOM     59  C   UNL A   1      42.674  27.734  31.466  1.00  0.00     0.029 A 
ATOM     60  N   UNL A   1      41.566  29.276  32.621  1.00  0.00    -0.354 N 
ATOM     61  N   UNL A   1      41.115  31.094  34.894  1.00  0.00    -0.248 NA
ATOM     62  C   UNL A   1      41.708  31.874  37.017  1.00  0.00     0.031 C 
ATOM     63  C   UNL A   1      43.288  27.880  32.715  1.00  0.00     0.029 A 
ATOM     64  C   UNL A   1      42.626  28.872  33.420  1.00  0.00     0.049 A 
ATOM     65  H   UNL A   1      40.908  29.966  32.865  1.00  0.00     0.167 HD
ATOM     66  C   UNL A   1      42.251  30.416  35.329  1.00  0.00     0.074 A 
ATOM     67  C   UNL A   1      42.597  30.978  36.619  1.00  0.00     0.031 C 
ATOM     68  C   UNL A   1      42.945  29.420  34.719  1.00  0.00     0.034 A 
BRANCH  55  69
ATOM     69  C   UNL A   1      40.654  27.775  29.184  1.00  0.00     0.023 A 
ATOM     70  C   UNL A   1      41.592  27.978  28.155  1.00  0.00     0.031 A 
ATOM     71  C   UNL A   1      39.763  26.695  29.055  1.00  0.00     0.131 A 
ATOM     72  C   UNL A   1      41.567  27.165  27.011  1.00  0.00     0.055 A 
ATOM     73  C   UNL A   1      39.802  25.835  27.955  1.00  0.00     0.041 A 
ATOM     74  F   UNL A   1      38.828  26.463  29.989  1.00  0.00    -0.206 F 
ATOM     75  C   UNL A   1      40.698  26.077  26.917  1.00  0.00     0.022 A 
BRANCH  72  76
ATOM     76  S   UNL A   1      42.581  27.644  25.586  1.00  0.00     0.124 S 
ATOM     77  O   UNL A   1      43.874  27.899  26.215  1.00  0.00    -0.237 OA
ATOM     78  O   UNL A   1      42.505  26.464  24.733  1.00  0.00    -0.237 OA
ATOM     79  O   UNL A   1      41.904  28.832  25.069  1.00  0.00    -0.744 OA
ENDBRANCH  72  76
ENDBRANCH  55  69
BRANCH  56  80
ATOM     80  C   UNL A   1      39.522  33.823  37.116  1.00  0.00     0.023 A 
ATOM     81  C   UNL A   1      38.907  33.339  38.281  1.00  0.00     0.031 A 
ATOM     82  C   UNL A   1      39.922  35.172  37.095  1.00  0.00     0.131 A 
ATOM     83  C   UNL A   1      38.661  34.208  39.356  1.00  0.00     0.055 A 
ATOM     84  C   UNL A   1      39.733  36.016  38.190  1.00  0.00     0.041 A 
ATOM     85  F   UNL A   1      40.516  35.688  36.007  1.00  0.00    -0.206 F 
ATOM     86  C   UNL A   1      39.084  35.539  39.325  1.00  0.00     0.022 A 
BRANCH  83  87
ATOM     87  S   UNL A   1      37.687  33.600  40.760  1.00  0.00     0.124 S 
ATOM     88  O   UNL A   1      37.336  34.843  41.438  1.00  0.00    -0.237 OA
ATOM     89  O   UNL A   1      36.594  32.902  40.093  1.00  0.00    -0.237 OA
ATOM     90  O   UNL A   1      38.626  32.742  41.479  1.00  0.00    -0.744 OA
ENDBRANCH  83  87
ENDBRANCH  56  80
BRANCH  68  91
ATOM     91  C   UNL A   1      44.165  28.898  35.445  1.00  0.00     0.023 A 
ATOM     92  C   UNL A   1      44.086  27.808  36.331  1.00  0.00     0.031 A 
ATOM     93  C   UNL A   1      45.411  29.532  35.290  1.00  0.00     0.131 A 
ATOM     94  C   UNL A   1      45.206  27.445  37.094  1.00  0.00     0.055 A 
ATOM     95  C   UNL A   1      46.542  29.110  35.990  1.00  0.00     0.041 A 
ATOM     96  F   UNL A   1      45.549  30.580  34.463  1.00  0.00    -0.206 F 
ATOM     97  C   UNL A   1      46.439  28.075  36.914  1.00  0.00     0.022 A 
BRANCH  94  98
ATOM     98  S   UNL A   1      44.986  26.240  38.432  1.00  0.00     0.124 S 
ATOM     99  O   UNL A   1      44.591  27.095  39.547  1.00  0.00    -0.237 OA
ATOM    100  O   UNL A   1      43.944  25.367  37.899  1.00  0.00    -0.237 OA
ATOM    101  O   UNL A   1      46.306  25.625  38.558  1.00  0.00    -0.744 OA
ENDBRANCH  94  98
ENDBRANCH  68  91
ENDBRANCH  42  43
ENDBRANCH  34  37
ENDBRANCH  32  33
ENDBRANCH  31  32
ENDBRANCH   1  31
TORSDOF 18
ENDMDL
MODEL 2
REMARK VINA RESULT:     -12.8      1.884      7.816
REMARK SMILES O=C1OC(c2ccc(Cl)cc2)=N/C1=C/Nc1ccc(O)c(C(=O)NCCCCNC(=O)c2ccc(-c3c4nc(c(-c5cc(S(=O)(=O)[O-])ccc5F)c5ccc([nH]5)c(-c5cc(S(=O)(=O)[O-])ccc5F)c5nc(c(-c6cc(S(=O)(=O)[O-])ccc6F)c6ccc3[nH]6)C=C5)C=C4)cc2)c1
REMARK SMILES IDX 26 1 25 2 24 3 22 4 23 5 21 7 16 8 17 9 95 10 18 11 19 12
REMARK SMILES IDX 15 13 14 15 1 16 2 17 3 18 13 19 4 20 12 21 5 22 6 23 11 24
REMARK SMILES IDX 7 25 10 26 8 27 9 28 20 29 27 31 28 32 29 33 30 34 31 36
REMARK SMILES IDX 32 37 33 38 94 39 34 40 93 41 35 42 36 43 37 44 87 45 38 46
REMARK SMILES IDX 92 47 86 48 88 49 39 50 91 51 85 52 84 53 40 55 72 56 52 57
REMARK SMILES IDX 71 58 53 59 56 60 70 61 89 62 54 63 55 64 69 66 90 67 57 68
REMARK SMILES IDX 41 69 42 70 50 71 43 72 49 73 51 74 48 75 44 76 45 77 46 78
REMARK SMILES IDX 47 79 73 80 74 81 82 82 75 83 81 84 83 85 80 86 76 87 77 88
REMARK SMILES IDX 78 89 79 90 58 91 59 92 67 93 60 94 66 95 68 96 65 97 61 98
REMARK SMILES IDX 62 99 63 100 64 101
REMARK H PARENT 24 6 15 14 20 30 29 35 88 54 56 65
REMARK Flexibility Score: inf
ROOT
ATOM      1  C   UNL A   1      35.102  30.991  28.138  1.00  0.00     0.023 C 
ENDROOT
BRANCH   1   2
ATOM      2  C   UNL A   1      35.073  29.635  27.428  1.00  0.00     0.116 C 
BRANCH   2   3
ATOM      3  N   UNL A   1      33.849  28.943  27.755  1.00  0.00    -0.352 N 
ATOM      4  C   UNL A   1      32.904  28.329  26.978  1.00  0.00     0.255 C 
ATOM      5  O   UNL A   1      31.895  27.938  27.573  1.00  0.00    -0.269 OA
ATOM      6  H   UNL A   1      33.658  28.905  28.721  1.00  0.00     0.163 HD
BRANCH   4   7
ATOM      7  C   UNL A   1      33.038  28.011  25.519  1.00  0.00     0.083 A 
ATOM      8  C   UNL A   1      33.766  26.229  23.979  1.00  0.00     0.039 A 
ATOM      9  C   UNL A   1      33.558  27.088  22.902  1.00  0.00     0.030 A 
ATOM     10  C   UNL A   1      33.530  26.711  25.271  1.00  0.00     0.043 A 
ATOM     11  C   UNL A   1      33.023  28.355  23.107  1.00  0.00     0.049 A 
ATOM     12  C   UNL A   1      32.733  28.799  24.402  1.00  0.00     0.128 A 
BRANCH   8  13
ATOM     13  N   UNL A   1      34.258  24.930  23.814  1.00  0.00    -0.360 N 
ATOM     14  H   UNL A   1      35.185  24.844  23.492  1.00  0.00     0.166 HD
BRANCH  13  15
ATOM     15  C   UNL A   1      33.580  23.768  24.057  1.00  0.00     0.119 C 
ATOM     16  O   UNL A   1      36.472  22.904  24.246  1.00  0.00    -0.244 OA
ATOM     17  C   UNL A   1      35.495  22.195  24.376  1.00  0.00     0.365 C 
ATOM     18  O   UNL A   1      35.465  20.865  24.678  1.00  0.00    -0.402 OA
ATOM     19  C   UNL A   1      34.052  22.537  24.262  1.00  0.00     0.168 C 
ATOM     20  C   UNL A   1      34.160  20.515  24.676  1.00  0.00     0.231 C 
ATOM     21  N   UNL A   1      33.276  21.426  24.438  1.00  0.00    -0.204 NA
BRANCH  20  22
ATOM     22  C   UNL A   1      33.896  19.099  24.889  1.00  0.00     0.037 A 
ATOM     23  C   UNL A   1      32.711  18.681  25.500  1.00  0.00     0.015 A 
ATOM     24  C   UNL A   1      34.833  18.170  24.427  1.00  0.00     0.015 A 
ATOM     25  C   UNL A   1      32.465  17.315  25.645  1.00  0.00     0.021 A 
ATOM     26  C   UNL A   1      34.592  16.808  24.592  1.00  0.00     0.021 A 
ATOM     27  C   UNL A   1      33.406  16.385  25.195  1.00  0.00     0.041 A 
ATOM     28  Cl  UNL A   1      33.099  14.703  25.379  1.00  0.00    -0.084 Cl
ENDBRANCH  20  22
ENDBRANCH  13  15
ENDBRANCH   8  13
BRANCH  12  29
ATOM     29  O   UNL A   1      32.082  29.991  24.490  1.00  0.00    -0.507 OA
ATOM     30  H   UNL A   1      31.486  30.149  25.195  1.00  0.00     0.293 HD
ENDBRANCH  12  29
ENDBRANCH   4   7
ENDBRANCH   2   3
ENDBRANCH   1   2
BRANCH   1  31
ATOM     31  C   UNL A   1      33.902  31.885  27.831  1.00  0.00     0.023 C 
BRANCH  31  32
ATOM     32  C   UNL A   1      34.233  33.367  27.737  1.00  0.00     0.116 C 
BRANCH  32  33
ATOM     33  N   UNL A   1      33.466  34.182  28.667  1.00  0.00    -0.352 N 
ATOM     34  C   UNL A   1      33.689  34.393  30.005  1.00  0.00     0.251 C 
ATOM     35  H   UNL A   1      32.683  34.643  28.287  1.00  0.00     0.163 HD
ATOM     36  O   UNL A   1      32.864  35.007  30.674  1.00  0.00    -0.269 OA
BRANCH  34  37
ATOM     37  C   UNL A   1      34.905  33.832  30.628  1.00  0.00     0.039 A 
ATOM     38  C   UNL A   1      34.784  32.687  31.414  1.00  0.00     0.014 A 
ATOM     39  C   UNL A   1      36.159  34.404  30.394  1.00  0.00     0.014 A 
ATOM     40  C   UNL A   1      35.934  32.080  31.916  1.00  0.00     0.010 A 
ATOM     41  C   UNL A   1      37.309  33.745  30.819  1.00  0.00     0.010 A 
ATOM     42  C   UNL A   1      37.208  32.577  31.588  1.00  0.00    -0.014 A 
BRANCH  42  43
ATOM     43  C   UNL A   1      38.431  31.864  32.038  1.00  0.00     0.031 A 
ATOM     44  C   UNL A   1      39.057  32.182  33.367  1.00  0.00     0.074 A 
ATOM     45  C   UNL A   1      38.982  30.936  31.230  1.00  0.00     0.049 A 
ATOM     46  N   UNL A   1      40.096  31.632  33.942  1.00  0.00    -0.248 NA
ATOM     47  C   UNL A   1      38.456  33.279  34.140  1.00  0.00     0.031 C 
ATOM     48  C   UNL A   1      38.496  30.589  29.891  1.00  0.00     0.029 A 
ATOM     49  N   UNL A   1      40.057  30.106  31.415  1.00  0.00    -0.354 N 
ATOM     50  C   UNL A   1      40.270  32.312  35.143  1.00  0.00     0.074 A 
ATOM     51  C   UNL A   1      39.277  33.364  35.176  1.00  0.00     0.031 C 
ATOM     52  C   UNL A   1      39.236  29.582  29.402  1.00  0.00     0.029 A 
ATOM     53  C   UNL A   1      40.279  29.245  30.365  1.00  0.00     0.049 A 
ATOM     54  H   UNL A   1      40.620  30.125  32.223  1.00  0.00     0.167 HD
ATOM     55  C   UNL A   1      41.157  32.062  36.138  1.00  0.00     0.034 A 
ATOM     56  C   UNL A   1      41.214  28.290  30.197  1.00  0.00     0.034 A 
ATOM     57  C   UNL A   1      42.143  31.009  36.083  1.00  0.00     0.049 A 
ATOM     58  C   UNL A   1      42.204  28.049  31.308  1.00  0.00     0.074 A 
ATOM     59  C   UNL A   1      43.057  30.633  37.052  1.00  0.00     0.029 A 
ATOM     60  N   UNL A   1      42.356  30.171  34.994  1.00  0.00    -0.354 N 
ATOM     61  N   UNL A   1      42.307  28.651  32.471  1.00  0.00    -0.248 NA
ATOM     62  C   UNL A   1      43.192  26.987  31.087  1.00  0.00     0.031 C 
ATOM     63  C   UNL A   1      43.875  29.631  36.519  1.00  0.00     0.029 A 
ATOM     64  C   UNL A   1      43.413  29.310  35.253  1.00  0.00     0.049 A 
ATOM     65  H   UNL A   1      41.833  30.187  34.160  1.00  0.00     0.167 HD
ATOM     66  C   UNL A   1      43.360  28.021  33.131  1.00  0.00     0.074 A 
ATOM     67  C   UNL A   1      43.829  26.972  32.248  1.00  0.00     0.031 C 
ATOM     68  C   UNL A   1      43.892  28.286  34.352  1.00  0.00     0.034 A 
BRANCH  55  69
ATOM     69  C   UNL A   1      41.113  32.961  37.353  1.00  0.00     0.023 A 
ATOM     70  C   UNL A   1      40.341  32.640  38.484  1.00  0.00     0.031 A 
ATOM     71  C   UNL A   1      41.834  34.169  37.373  1.00  0.00     0.131 A 
ATOM     72  C   UNL A   1      40.247  33.546  39.552  1.00  0.00     0.055 A 
ATOM     73  C   UNL A   1      41.806  35.024  38.477  1.00  0.00     0.041 A 
ATOM     74  F   UNL A   1      42.569  34.545  36.316  1.00  0.00    -0.206 F 
ATOM     75  C   UNL A   1      40.997  34.723  39.568  1.00  0.00     0.022 A 
BRANCH  72  76
ATOM     76  S   UNL A   1      39.013  33.236  40.845  1.00  0.00     0.124 S 
ATOM     77  O   UNL A   1      39.360  31.881  41.265  1.00  0.00    -0.237 OA
ATOM     78  O   UNL A   1      39.291  34.296  41.807  1.00  0.00    -0.237 OA
ATOM     79  O   UNL A   1      37.739  33.353  40.137  1.00  0.00    -0.744 OA
ENDBRANCH  72  76
ENDBRANCH  55  69
BRANCH  56  80
ATOM     80  C   UNL A   1      41.268  27.493  28.936  1.00  0.00     0.023 A 
ATOM     81  C   UNL A   1      42.258  27.728  27.969  1.00  0.00     0.031 A 
ATOM     82  C   UNL A   1      40.297  26.514  28.658  1.00  0.00     0.131 A 
ATOM     83  C   UNL A   1      42.224  27.034  26.748  1.00  0.00     0.055 A 
ATOM     84  C   UNL A   1      40.304  25.781  27.470  1.00  0.00     0.041 A 
ATOM     85  F   UNL A   1      39.327  26.248  29.547  1.00  0.00    -0.206 F 
ATOM     86  C   UNL A   1      41.265  26.051  26.499  1.00  0.00     0.022 A 
BRANCH  83  87
ATOM     87  S   UNL A   1      43.396  27.506  25.447  1.00  0.00     0.124 S 
ATOM     88  O   UNL A   1      44.112  28.609  26.078  1.00  0.00    -0.237 OA
ATOM     89  O   UNL A   1      44.154  26.274  25.259  1.00  0.00    -0.237 OA
ATOM     90  O   UNL A   1      42.532  27.881  24.330  1.00  0.00    -0.744 OA
ENDBRANCH  83  87
ENDBRANCH  56  80
BRANCH  68  91
ATOM     91  C   UNL A   1      45.030  27.398  34.804  1.00  0.00     0.023 A 
ATOM     92  C   UNL A   1      44.802  26.235  35.562  1.00  0.00     0.031 A 
ATOM     93  C   UNL A   1      46.362  27.747  34.519  1.00  0.00     0.131 A 
ATOM     94  C   UNL A   1      45.887  25.517  36.084  1.00  0.00     0.055 A 
ATOM     95  C   UNL A   1      47.436  26.979  34.971  1.00  0.00     0.041 A 
ATOM     96  F   UNL A   1      46.644  28.848  33.804  1.00  0.00    -0.206 F 
ATOM     97  C   UNL A   1      47.203  25.869  35.777  1.00  0.00     0.022 A 
BRANCH  94  98
ATOM     98  S   UNL A   1      45.556  24.207  37.295  1.00  0.00     0.124 S 
ATOM     99  O   UNL A   1      46.783  24.210  38.087  1.00  0.00    -0.237 OA
ATOM    100  O   UNL A   1      44.361  24.703  37.972  1.00  0.00    -0.237 OA
ATOM    101  O   UNL A   1      45.353  23.020  36.468  1.00  0.00    -0.744 OA
ENDBRANCH  94  98
ENDBRANCH  68  91
ENDBRANCH  42  43
ENDBRANCH  34  37
ENDBRANCH  32  33
ENDBRANCH  31  32
ENDBRANCH   1  31
TORSDOF 18
ENDMDL
MODEL 3
REMARK VINA RESULT:     -12.7      1.859      7.477
REMARK SMILES O=C1OC(c2ccc(Cl)cc2)=N/C1=C/Nc1ccc(O)c(C(=O)NCCCCNC(=O)c2ccc(-c3c4nc(c(-c5cc(S(=O)(=O)[O-])ccc5F)c5ccc([nH]5)c(-c5cc(S(=O)(=O)[O-])ccc5F)c5nc(c(-c6cc(S(=O)(=O)[O-])ccc6F)c6ccc3[nH]6)C=C5)C=C4)cc2)c1
REMARK SMILES IDX 26 1 25 2 24 3 22 4 23 5 21 7 16 8 17 9 95 10 18 11 19 12
REMARK SMILES IDX 15 13 14 15 1 16 2 17 3 18 13 19 4 20 12 21 5 22 6 23 11 24
REMARK SMILES IDX 7 25 10 26 8 27 9 28 20 29 27 31 28 32 29 33 30 34 31 36
REMARK SMILES IDX 32 37 33 38 94 39 34 40 93 41 35 42 36 43 37 44 87 45 38 46
REMARK SMILES IDX 92 47 86 48 88 49 39 50 91 51 85 52 84 53 40 55 72 56 52 57
REMARK SMILES IDX 71 58 53 59 56 60 70 61 89 62 54 63 55 64 69 66 90 67 57 68
REMARK SMILES IDX 41 69 42 70 50 71 43 72 49 73 51 74 48 75 44 76 45 77 46 78
REMARK SMILES IDX 47 79 73 80 74 81 82 82 75 83 81 84 83 85 80 86 76 87 77 88
REMARK SMILES IDX 78 89 79 90 58 91 59 92 67 93 60 94 66 95 68 96 65 97 61 98
REMARK SMILES IDX 62 99 63 100 64 101
REMARK H PARENT 24 6 15 14 20 30 29 35 88 54 56 65
REMARK Flexibility Score: inf
ROOT
ATOM      1  C   UNL A   1      34.647  30.735  27.729  1.00  0.00     0.023 C 
ENDROOT
BRANCH   1   2
ATOM      2  C   UNL A   1      34.292  29.446  26.981  1.00  0.00     0.116 C 
BRANCH   2   3
ATOM      3  N   UNL A   1      33.249  28.745  27.691  1.00  0.00    -0.352 N 
ATOM      4  C   UNL A   1      32.008  28.312  27.310  1.00  0.00     0.255 C 
ATOM      5  O   UNL A   1      31.301  27.852  28.213  1.00  0.00    -0.269 OA
ATOM      6  H   UNL A   1      33.473  28.540  28.629  1.00  0.00     0.163 HD
BRANCH   4   7
ATOM      7  C   UNL A   1      31.490  28.259  25.904  1.00  0.00     0.083 A 
ATOM      8  C   UNL A   1      30.428  26.736  24.282  1.00  0.00     0.039 A 
ATOM      9  C   UNL A   1      30.534  27.721  23.302  1.00  0.00     0.030 A 
ATOM     10  C   UNL A   1      30.932  27.009  25.558  1.00  0.00     0.043 A 
ATOM     11  C   UNL A   1      31.028  28.980  23.623  1.00  0.00     0.049 A 
ATOM     12  C   UNL A   1      31.470  29.257  24.922  1.00  0.00     0.128 A 
BRANCH   8  13
ATOM     13  N   UNL A   1      29.894  25.472  24.015  1.00  0.00    -0.360 N 
ATOM     14  H   UNL A   1      28.952  25.325  24.264  1.00  0.00     0.166 HD
BRANCH  13  15
ATOM     15  C   UNL A   1      30.550  24.419  23.438  1.00  0.00     0.119 C 
ATOM     16  O   UNL A   1      30.326  23.562  26.330  1.00  0.00    -0.244 OA
ATOM     17  C   UNL A   1      30.857  22.944  25.432  1.00  0.00     0.365 C 
ATOM     18  O   UNL A   1      31.435  21.709  25.498  1.00  0.00    -0.402 OA
ATOM     19  C   UNL A   1      31.038  23.313  24.002  1.00  0.00     0.168 C 
ATOM     20  C   UNL A   1      31.919  21.461  24.261  1.00  0.00     0.231 C 
ATOM     21  N   UNL A   1      31.736  22.344  23.336  1.00  0.00    -0.204 NA
BRANCH  20  22
ATOM     22  C   UNL A   1      32.667  20.219  24.124  1.00  0.00     0.037 A 
ATOM     23  C   UNL A   1      33.858  20.026  24.827  1.00  0.00     0.015 A 
ATOM     24  C   UNL A   1      32.140  19.212  23.309  1.00  0.00     0.015 A 
ATOM     25  C   UNL A   1      34.526  18.804  24.712  1.00  0.00     0.021 A 
ATOM     26  C   UNL A   1      32.820  18.002  23.183  1.00  0.00     0.021 A 
ATOM     27  C   UNL A   1      34.007  17.802  23.889  1.00  0.00     0.041 A 
ATOM     28  Cl  UNL A   1      34.836  16.300  23.749  1.00  0.00    -0.084 Cl
ENDBRANCH  20  22
ENDBRANCH  13  15
ENDBRANCH   8  13
BRANCH  12  29
ATOM     29  O   UNL A   1      31.802  30.554  25.173  1.00  0.00    -0.507 OA
ATOM     30  H   UNL A   1      31.130  31.202  25.255  1.00  0.00     0.293 HD
ENDBRANCH  12  29
ENDBRANCH   4   7
ENDBRANCH   2   3
ENDBRANCH   1   2
BRANCH   1  31
ATOM     31  C   UNL A   1      33.475  31.698  27.906  1.00  0.00     0.023 C 
BRANCH  31  32
ATOM     32  C   UNL A   1      33.687  33.065  27.270  1.00  0.00     0.116 C 
BRANCH  32  33
ATOM     33  N   UNL A   1      33.044  34.142  28.008  1.00  0.00    -0.352 N 
ATOM     34  C   UNL A   1      33.388  34.668  29.228  1.00  0.00     0.251 C 
ATOM     35  H   UNL A   1      32.258  34.547  27.574  1.00  0.00     0.163 HD
ATOM     36  O   UNL A   1      32.655  35.489  29.769  1.00  0.00    -0.269 OA
BRANCH  34  37
ATOM     37  C   UNL A   1      34.620  34.197  29.892  1.00  0.00     0.039 A 
ATOM     38  C   UNL A   1      34.502  33.355  30.998  1.00  0.00     0.014 A 
ATOM     39  C   UNL A   1      35.880  34.542  29.394  1.00  0.00     0.014 A 
ATOM     40  C   UNL A   1      35.652  32.811  31.567  1.00  0.00     0.010 A 
ATOM     41  C   UNL A   1      37.018  33.926  29.906  1.00  0.00     0.010 A 
ATOM     42  C   UNL A   1      36.916  33.056  31.000  1.00  0.00    -0.014 A 
BRANCH  42  43
ATOM     43  C   UNL A   1      38.125  32.388  31.546  1.00  0.00     0.031 A 
ATOM     44  C   UNL A   1      38.732  32.845  32.844  1.00  0.00     0.074 A 
ATOM     45  C   UNL A   1      38.681  31.374  30.854  1.00  0.00     0.049 A 
ATOM     46  N   UNL A   1      39.756  32.354  33.492  1.00  0.00    -0.248 NA
ATOM     47  C   UNL A   1      38.127  34.023  33.482  1.00  0.00     0.031 C 
ATOM     48  C   UNL A   1      38.215  30.887  29.553  1.00  0.00     0.029 A 
ATOM     49  N   UNL A   1      39.747  30.562  31.147  1.00  0.00    -0.354 N 
ATOM     50  C   UNL A   1      39.916  33.159  34.616  1.00  0.00     0.074 A 
ATOM     51  C   UNL A   1      38.932  34.215  34.516  1.00  0.00     0.031 C 
ATOM     52  C   UNL A   1      38.954  29.828  29.188  1.00  0.00     0.029 A 
ATOM     53  C   UNL A   1      39.978  29.591  30.200  1.00  0.00     0.049 A 
ATOM     54  H   UNL A   1      40.296  30.665  31.957  1.00  0.00     0.167 HD
ATOM     55  C   UNL A   1      40.785  33.014  35.647  1.00  0.00     0.034 A 
ATOM     56  C   UNL A   1      40.908  28.617  30.154  1.00  0.00     0.034 A 
ATOM     57  C   UNL A   1      41.763  31.954  35.724  1.00  0.00     0.049 A 
ATOM     58  C   UNL A   1      41.878  28.492  31.301  1.00  0.00     0.074 A 
ATOM     59  C   UNL A   1      42.657  31.680  36.744  1.00  0.00     0.029 A 
ATOM     60  N   UNL A   1      41.987  31.001  34.737  1.00  0.00    -0.354 N 
ATOM     61  N   UNL A   1      41.966  29.216  32.393  1.00  0.00    -0.248 NA
ATOM     62  C   UNL A   1      42.860  27.405  31.215  1.00  0.00     0.031 C 
ATOM     63  C   UNL A   1      43.476  30.620  36.337  1.00  0.00     0.029 A 
ATOM     64  C   UNL A   1      43.032  30.166  35.106  1.00  0.00     0.049 A 
ATOM     65  H   UNL A   1      41.478  30.929  33.897  1.00  0.00     0.167 HD
ATOM     66  C   UNL A   1      43.003  28.655  33.136  1.00  0.00     0.074 A 
ATOM     67  C   UNL A   1      43.478  27.513  32.381  1.00  0.00     0.031 C 
ATOM     68  C   UNL A   1      43.517  29.047  34.330  1.00  0.00     0.034 A 
BRANCH  55  69
ATOM     69  C   UNL A   1      40.728  34.039  36.756  1.00  0.00     0.023 A 
ATOM     70  C   UNL A   1      41.673  35.076  36.856  1.00  0.00     0.031 A 
ATOM     71  C   UNL A   1      39.728  33.968  37.743  1.00  0.00     0.131 A 
ATOM     72  C   UNL A   1      41.646  35.950  37.954  1.00  0.00     0.055 A 
ATOM     73  C   UNL A   1      39.654  34.895  38.785  1.00  0.00     0.041 A 
ATOM     74  F   UNL A   1      38.812  32.988  37.719  1.00  0.00    -0.206 F 
ATOM     75  C   UNL A   1      40.625  35.884  38.904  1.00  0.00     0.022 A 
BRANCH  72  76
ATOM     76  S   UNL A   1      43.050  37.071  38.204  1.00  0.00     0.124 S 
ATOM     77  O   UNL A   1      42.465  38.087  39.075  1.00  0.00    -0.237 OA
ATOM     78  O   UNL A   1      44.046  36.199  38.815  1.00  0.00    -0.237 OA
ATOM     79  O   UNL A   1      43.367  37.529  36.852  1.00  0.00    -0.744 OA
ENDBRANCH  72  76
ENDBRANCH  55  69
BRANCH  56  80
ATOM     80  C   UNL A   1      40.976  27.687  28.987  1.00  0.00     0.023 A 
ATOM     81  C   UNL A   1      41.955  27.838  27.993  1.00  0.00     0.031 A 
ATOM     82  C   UNL A   1      40.029  26.660  28.827  1.00  0.00     0.131 A 
ATOM     83  C   UNL A   1      41.933  27.013  26.857  1.00  0.00     0.055 A 
ATOM     84  C   UNL A   1      40.050  25.800  27.727  1.00  0.00     0.041 A 
ATOM     85  F   UNL A   1      39.071  26.469  29.748  1.00  0.00    -0.206 F 
ATOM     86  C   UNL A   1      40.998  25.985  26.725  1.00  0.00     0.022 A 
BRANCH  83  87
ATOM     87  S   UNL A   1      43.086  27.367  25.502  1.00  0.00     0.124 S 
ATOM     88  O   UNL A   1      43.388  26.027  25.012  1.00  0.00    -0.237 OA
ATOM     89  O   UNL A   1      42.276  28.204  24.625  1.00  0.00    -0.237 OA
ATOM     90  O   UNL A   1      44.192  28.052  26.167  1.00  0.00    -0.744 OA
ENDBRANCH  83  87
ENDBRANCH  56  80
BRANCH  68  91
ATOM     91  C   UNL A   1      44.640  28.207  34.896  1.00  0.00     0.023 A 
ATOM     92  C   UNL A   1      44.389  27.128  35.764  1.00  0.00     0.031 A 
ATOM     93  C   UNL A   1      45.979  28.520  34.605  1.00  0.00     0.131 A 
ATOM     94  C   UNL A   1      45.459  26.464  36.380  1.00  0.00     0.055 A 
ATOM     95  C   UNL A   1      47.040  27.799  35.157  1.00  0.00     0.041 A 
ATOM     96  F   UNL A   1      46.283  29.540  33.787  1.00  0.00    -0.206 F 
ATOM     97  C   UNL A   1      46.783  26.778  36.068  1.00  0.00     0.022 A 
BRANCH  94  98
ATOM     98  S   UNL A   1      45.093  25.287  37.712  1.00  0.00     0.124 S 
ATOM     99  O   UNL A   1      46.400  25.130  38.343  1.00  0.00    -0.237 OA
ATOM    100  O   UNL A   1      44.090  26.002  38.495  1.00  0.00    -0.237 OA
ATOM    101  O   UNL A   1      44.601  24.108  37.001  1.00  0.00    -0.744 OA
ENDBRANCH  94  98
ENDBRANCH  68  91
ENDBRANCH  42  43
ENDBRANCH  34  37
ENDBRANCH  32  33
ENDBRANCH  31  32
ENDBRANCH   1  31
TORSDOF 18
ENDMDL
