MODEL 1
REMARK VINA RESULT:     -10.9      0.000      0.000
REMARK SMILES CC(C)[C@@](C)(CC(=O)N[C@H]1CCCC1(C)C)C(=O)NCCCCNC(=O)c1ccc(-c2c3nc(c(-c4cc(S(=O)(=O)[O-])ccc4F)c4ccc([nH]4)c(-c4cc(S(=O)(=O)[O-])ccc4F)c4nc(c(-c5cc(S(=O)(=O)[O-])ccc5F)c5ccc2[nH]5)C=C4)C=C3)cc1
REMARK SMILES IDX 21 1 20 2 19 3 17 4 18 5 4 7 5 8 2 9 1 10 3 11 6 12 7 13
REMARK SMILES IDX 8 14 9 15 10 17 11 18 14 19 12 20 13 21 15 22 16 23 22 24
REMARK SMILES IDX 23 25 24 26 25 27 26 29 27 30 28 31 89 32 29 33 88 34 30 35
REMARK SMILES IDX 31 36 32 37 82 38 33 39 87 40 81 41 83 42 34 43 86 44 80 45
REMARK SMILES IDX 79 46 35 48 67 49 47 50 66 51 48 52 51 53 65 54 84 55 49 56
REMARK SMILES IDX 50 57 64 59 85 60 52 61 36 62 37 63 45 64 38 65 44 66 46 67
REMARK SMILES IDX 43 68 39 69 40 70 41 71 42 72 68 73 69 74 77 75 70 76 76 77
REMARK SMILES IDX 78 78 75 79 71 80 72 81 73 82 74 83 53 84 54 85 62 86 55 87
REMARK SMILES IDX 61 88 63 89 60 90 56 91 57 92 58 93 59 94
REMARK H PARENT 19 6 9 16 24 28 83 47 51 58
REMARK Flexibility Score: inf
ROOT
ATOM      1  C   UNL A   1      32.067  27.749  27.197  1.00  0.00     0.023 C 
ENDROOT
BRANCH   1   2
ATOM      2  C   UNL A   1      31.175  27.298  26.043  1.00  0.00     0.116 C 
BRANCH   2   3
ATOM      3  N   UNL A   1      30.461  26.095  26.378  1.00  0.00    -0.356 N 
ATOM      4  C   UNL A   1      30.714  24.782  26.309  1.00  0.00     0.226 C 
ATOM      5  O   UNL A   1      29.821  24.099  26.829  1.00  0.00    -0.274 OA
ATOM      6  H   UNL A   1      29.567  26.284  26.749  1.00  0.00     0.163 HD
BRANCH   4   7
ATOM      7  C   UNL A   1      32.021  24.134  25.799  1.00  0.00     0.057 C 
ATOM      8  C   UNL A   1      31.759  22.606  25.845  1.00  0.00     0.022 C 
BRANCH   7   9
ATOM      9  C   UNL A   1      32.231  24.625  24.328  1.00  0.00    -0.002 C 
ATOM     10  C   UNL A   1      33.596  25.210  23.949  1.00  0.00     0.008 C 
ATOM     11  C   UNL A   1      31.815  23.558  23.275  1.00  0.00     0.008 C 
ENDBRANCH   7   9
BRANCH   7  12
ATOM     12  C   UNL A   1      33.352  24.369  26.601  1.00  0.00     0.116 C 
BRANCH  12  13
ATOM     13  C   UNL A   1      34.136  23.168  27.126  1.00  0.00     0.221 C 
ATOM     14  O   UNL A   1      33.657  22.486  28.037  1.00  0.00    -0.275 OA
ATOM     15  N   UNL A   1      35.351  22.776  26.631  1.00  0.00    -0.353 N 
ATOM     16  H   UNL A   1      35.743  22.025  27.132  1.00  0.00     0.163 HD
BRANCH  15  17
ATOM     17  C   UNL A   1      36.205  23.227  25.514  1.00  0.00     0.087 C 
ATOM     18  C   UNL A   1      37.712  23.241  25.862  1.00  0.00     0.025 C 
ATOM     19  C   UNL A   1      36.220  22.219  24.322  1.00  0.00    -0.015 C 
ATOM     20  C   UNL A   1      38.215  21.818  25.687  1.00  0.00     0.003 C 
ATOM     21  C   UNL A   1      37.191  21.119  24.801  1.00  0.00     0.008 C 
ATOM     22  C   UNL A   1      34.855  21.620  23.972  1.00  0.00     0.013 C 
ATOM     23  C   UNL A   1      36.785  22.894  23.049  1.00  0.00     0.013 C 
ENDBRANCH  15  17
ENDBRANCH  12  13
ENDBRANCH   7  12
ENDBRANCH   4   7
ENDBRANCH   2   3
ENDBRANCH   1   2
BRANCH   1  24
ATOM     24  C   UNL A   1      33.555  27.920  26.855  1.00  0.00     0.023 C 
BRANCH  24  25
ATOM     25  C   UNL A   1      33.912  29.098  25.952  1.00  0.00     0.116 C 
BRANCH  25  26
ATOM     26  N   UNL A   1      33.717  30.383  26.595  1.00  0.00    -0.352 N 
ATOM     27  C   UNL A   1      34.450  30.983  27.588  1.00  0.00     0.251 C 
ATOM     28  H   UNL A   1      32.944  30.901  26.272  1.00  0.00     0.163 HD
ATOM     29  O   UNL A   1      34.051  32.032  28.077  1.00  0.00    -0.269 OA
BRANCH  27  30
ATOM     30  C   UNL A   1      35.682  30.338  28.091  1.00  0.00     0.039 A 
ATOM     31  C   UNL A   1      36.839  30.448  27.320  1.00  0.00     0.014 A 
ATOM     32  C   UNL A   1      35.707  29.643  29.304  1.00  0.00     0.014 A 
ATOM     33  C   UNL A   1      38.033  29.904  27.790  1.00  0.00     0.010 A 
ATOM     34  C   UNL A   1      36.918  29.168  29.807  1.00  0.00     0.010 A 
ATOM     35  C   UNL A   1      38.093  29.292  29.054  1.00  0.00    -0.014 A 
BRANCH  35  36
ATOM     36  C   UNL A   1      39.395  28.802  29.579  1.00  0.00     0.031 A 
ATOM     37  C   UNL A   1      40.035  29.455  30.774  1.00  0.00     0.074 A 
ATOM     38  C   UNL A   1      39.994  27.758  28.971  1.00  0.00     0.049 A 
ATOM     39  N   UNL A   1      41.140  29.132  31.397  1.00  0.00    -0.248 NA
ATOM     40  C   UNL A   1      39.359  30.637  31.328  1.00  0.00     0.031 C 
ATOM     41  C   UNL A   1      39.494  27.083  27.769  1.00  0.00     0.029 A 
ATOM     42  N   UNL A   1      41.141  27.072  29.280  1.00  0.00    -0.354 N 
ATOM     43  C   UNL A   1      41.284  30.058  32.422  1.00  0.00     0.074 A 
ATOM     44  C   UNL A   1      40.195  31.004  32.287  1.00  0.00     0.031 C 
ATOM     45  C   UNL A   1      40.304  26.057  27.471  1.00  0.00     0.029 A 
ATOM     46  C   UNL A   1      41.405  26.023  28.428  1.00  0.00     0.049 A 
ATOM     47  H   UNL A   1      41.721  27.306  30.040  1.00  0.00     0.167 HD
ATOM     48  C   UNL A   1      42.219  30.100  33.405  1.00  0.00     0.034 A 
ATOM     49  C   UNL A   1      42.421  25.138  28.416  1.00  0.00     0.034 A 
ATOM     50  C   UNL A   1      43.304  29.154  33.518  1.00  0.00     0.049 A 
ATOM     51  C   UNL A   1      43.459  25.220  29.507  1.00  0.00     0.074 A 
ATOM     52  C   UNL A   1      44.292  29.086  34.485  1.00  0.00     0.029 A 
ATOM     53  N   UNL A   1      43.549  28.112  32.631  1.00  0.00    -0.354 N 
ATOM     54  N   UNL A   1      43.545  26.070  30.505  1.00  0.00    -0.248 NA
ATOM     55  C   UNL A   1      44.523  24.210  29.482  1.00  0.00     0.031 C 
ATOM     56  C   UNL A   1      45.170  28.051  34.145  1.00  0.00     0.029 A 
ATOM     57  C   UNL A   1      44.686  27.415  33.014  1.00  0.00     0.049 A 
ATOM     58  H   UNL A   1      42.995  27.899  31.845  1.00  0.00     0.167 HD
ATOM     59  C   UNL A   1      44.662  25.680  31.238  1.00  0.00     0.074 A 
ATOM     60  C   UNL A   1      45.188  24.496  30.589  1.00  0.00     0.031 C 
ATOM     61  C   UNL A   1      45.212  26.250  32.342  1.00  0.00     0.034 A 
BRANCH  48  62
ATOM     62  C   UNL A   1      42.111  31.211  34.423  1.00  0.00     0.023 A 
ATOM     63  C   UNL A   1      42.755  32.448  34.232  1.00  0.00     0.031 A 
ATOM     64  C   UNL A   1      41.361  31.037  35.599  1.00  0.00     0.131 A 
ATOM     65  C   UNL A   1      42.690  33.434  35.227  1.00  0.00     0.055 A 
ATOM     66  C   UNL A   1      41.234  32.053  36.549  1.00  0.00     0.041 A 
ATOM     67  F   UNL A   1      40.743  29.872  35.849  1.00  0.00    -0.206 F 
ATOM     68  C   UNL A   1      41.911  33.256  36.371  1.00  0.00     0.022 A 
BRANCH  65  69
ATOM     69  S   UNL A   1      43.741  34.903  35.062  1.00  0.00     0.124 S 
ATOM     70  O   UNL A   1      42.753  35.941  34.774  1.00  0.00    -0.237 OA
ATOM     71  O   UNL A   1      44.385  34.980  36.367  1.00  0.00    -0.237 OA
ATOM     72  O   UNL A   1      44.625  34.569  33.947  1.00  0.00    -0.744 OA
ENDBRANCH  65  69
ENDBRANCH  48  62
BRANCH  49  73
ATOM     73  C   UNL A   1      42.524  24.111  27.336  1.00  0.00     0.023 A 
ATOM     74  C   UNL A   1      41.936  22.843  27.475  1.00  0.00     0.031 A 
ATOM     75  C   UNL A   1      43.269  24.365  26.170  1.00  0.00     0.131 A 
ATOM     76  C   UNL A   1      42.157  21.858  26.499  1.00  0.00     0.055 A 
ATOM     77  C   UNL A   1      43.429  23.405  25.171  1.00  0.00     0.041 A 
ATOM     78  F   UNL A   1      43.850  25.561  25.983  1.00  0.00    -0.206 F 
ATOM     79  C   UNL A   1      42.887  22.136  25.341  1.00  0.00     0.022 A 
BRANCH  76  80
ATOM     80  S   UNL A   1      41.577  20.170  26.820  1.00  0.00     0.124 S 
ATOM     81  O   UNL A   1      40.669  20.376  27.943  1.00  0.00    -0.237 OA
ATOM     82  O   UNL A   1      40.955  19.817  25.549  1.00  0.00    -0.237 OA
ATOM     83  O   UNL A   1      42.805  19.442  27.135  1.00  0.00    -0.744 OA
ENDBRANCH  76  80
ENDBRANCH  49  73
BRANCH  61  84
ATOM     84  C   UNL A   1      46.432  25.569  32.919  1.00  0.00     0.023 A 
ATOM     85  C   UNL A   1      47.730  25.893  32.487  1.00  0.00     0.031 A 
ATOM     86  C   UNL A   1      46.292  24.547  33.874  1.00  0.00     0.131 A 
ATOM     87  C   UNL A   1      48.826  25.142  32.936  1.00  0.00     0.055 A 
ATOM     88  C   UNL A   1      47.396  23.857  34.380  1.00  0.00     0.041 A 
ATOM     89  F   UNL A   1      45.080  24.191  34.326  1.00  0.00    -0.206 F 
ATOM     90  C   UNL A   1      48.670  24.138  33.893  1.00  0.00     0.022 A 
BRANCH  87  91
ATOM     91  S   UNL A   1      50.435  25.397  32.138  1.00  0.00     0.124 S 
ATOM     92  O   UNL A   1      50.627  24.134  31.432  1.00  0.00    -0.237 OA
ATOM     93  O   UNL A   1      50.186  26.564  31.300  1.00  0.00    -0.237 OA
ATOM     94  O   UNL A   1      51.341  25.624  33.263  1.00  0.00    -0.744 OA
ENDBRANCH  87  91
ENDBRANCH  61  84
ENDBRANCH  35  36
ENDBRANCH  27  30
ENDBRANCH  25  26
ENDBRANCH  24  25
ENDBRANCH   1  24
TORSDOF 18
ENDMDL
MODEL 2
REMARK VINA RESULT:     -10.8      4.152      9.254
REMARK SMILES CC(C)[C@@](C)(CC(=O)N[C@H]1CCCC1(C)C)C(=O)NCCCCNC(=O)c1ccc(-c2c3nc(c(-c4cc(S(=O)(=O)[O-])ccc4F)c4ccc([nH]4)c(-c4cc(S(=O)(=O)[O-])ccc4F)c4nc(c(-c5cc(S(=O)(=O)[O-])ccc5F)c5ccc2[nH]5)C=C4)C=C3)cc1
REMARK SMILES IDX 21 1 20 2 19 3 17 4 18 5 4 7 5 8 2 9 1 10 3 11 6 12 7 13
REMARK SMILES IDX 8 14 9 15 10 17 11 18 14 19 12 20 13 21 15 22 16 23 22 24
REMARK SMILES IDX 23 25 24 26 25 27 26 29 27 30 28 31 89 32 29 33 88 34 30 35
REMARK SMILES IDX 31 36 32 37 82 38 33 39 87 40 81 41 83 42 34 43 86 44 80 45
REMARK SMILES IDX 79 46 35 48 67 49 47 50 66 51 48 52 51 53 65 54 84 55 49 56
REMARK SMILES IDX 50 57 64 59 85 60 52 61 36 62 37 63 45 64 38 65 44 66 46 67
REMARK SMILES IDX 43 68 39 69 40 70 41 71 42 72 68 73 69 74 77 75 70 76 76 77
REMARK SMILES IDX 78 78 75 79 71 80 72 81 73 82 74 83 53 84 54 85 62 86 55 87
REMARK SMILES IDX 61 88 63 89 60 90 56 91 57 92 58 93 59 94
REMARK H PARENT 19 6 9 16 24 28 83 47 51 58
REMARK Flexibility Score: inf
ROOT
ATOM      1  C   UNL A   1      31.770  29.977  26.604  1.00  0.00     0.023 C 
ENDROOT
BRANCH   1   2
ATOM      2  C   UNL A   1      33.138  29.341  26.375  1.00  0.00     0.116 C 
BRANCH   2   3
ATOM      3  N   UNL A   1      33.533  29.441  24.995  1.00  0.00    -0.356 N 
ATOM      4  C   UNL A   1      33.476  28.638  23.924  1.00  0.00     0.226 C 
ATOM      5  O   UNL A   1      33.848  29.205  22.887  1.00  0.00    -0.274 OA
ATOM      6  H   UNL A   1      33.945  30.311  24.787  1.00  0.00     0.163 HD
BRANCH   4   7
ATOM      7  C   UNL A   1      32.877  27.214  23.885  1.00  0.00     0.057 C 
ATOM      8  C   UNL A   1      32.699  26.891  22.379  1.00  0.00     0.022 C 
BRANCH   7   9
ATOM      9  C   UNL A   1      33.925  26.259  24.546  1.00  0.00    -0.002 C 
ATOM     10  C   UNL A   1      33.652  25.759  25.969  1.00  0.00     0.008 C 
ATOM     11  C   UNL A   1      34.294  25.052  23.636  1.00  0.00     0.008 C 
ENDBRANCH   7   9
BRANCH   7  12
ATOM     12  C   UNL A   1      31.476  26.958  24.552  1.00  0.00     0.116 C 
BRANCH  12  13
ATOM     13  C   UNL A   1      30.253  26.729  23.666  1.00  0.00     0.221 C 
ATOM     14  O   UNL A   1      29.978  25.582  23.302  1.00  0.00    -0.275 OA
ATOM     15  N   UNL A   1      29.411  27.728  23.258  1.00  0.00    -0.353 N 
ATOM     16  H   UNL A   1      28.715  27.412  22.637  1.00  0.00     0.163 HD
BRANCH  15  17
ATOM     17  C   UNL A   1      29.312  29.175  23.538  1.00  0.00     0.087 C 
ATOM     18  C   UNL A   1      30.262  30.033  22.671  1.00  0.00     0.025 C 
ATOM     19  C   UNL A   1      27.940  29.780  23.103  1.00  0.00    -0.015 C 
ATOM     20  C   UNL A   1      29.571  30.234  21.332  1.00  0.00     0.003 C 
ATOM     21  C   UNL A   1      28.096  29.947  21.576  1.00  0.00     0.008 C 
ATOM     22  C   UNL A   1      26.724  28.911  23.432  1.00  0.00     0.013 C 
ATOM     23  C   UNL A   1      27.728  31.166  23.760  1.00  0.00     0.013 C 
ENDBRANCH  15  17
ENDBRANCH  12  13
ENDBRANCH   7  12
ENDBRANCH   4   7
ENDBRANCH   2   3
ENDBRANCH   1   2
BRANCH   1  24
ATOM     24  C   UNL A   1      31.734  31.512  26.527  1.00  0.00     0.023 C 
BRANCH  24  25
ATOM     25  C   UNL A   1      32.938  32.248  27.109  1.00  0.00     0.116 C 
BRANCH  25  26
ATOM     26  N   UNL A   1      32.626  33.604  27.520  1.00  0.00    -0.352 N 
ATOM     27  C   UNL A   1      33.187  34.365  28.515  1.00  0.00     0.251 C 
ATOM     28  H   UNL A   1      31.907  34.042  27.010  1.00  0.00     0.163 HD
ATOM     29  O   UNL A   1      32.701  35.459  28.778  1.00  0.00    -0.269 OA
BRANCH  27  30
ATOM     30  C   UNL A   1      34.334  33.845  29.289  1.00  0.00     0.039 A 
ATOM     31  C   UNL A   1      34.070  32.949  30.325  1.00  0.00     0.014 A 
ATOM     32  C   UNL A   1      35.650  34.221  29.001  1.00  0.00     0.014 A 
ATOM     33  C   UNL A   1      35.130  32.391  31.039  1.00  0.00     0.010 A 
ATOM     34  C   UNL A   1      36.710  33.604  29.664  1.00  0.00     0.010 A 
ATOM     35  C   UNL A   1      36.460  32.684  30.691  1.00  0.00    -0.014 A 
BRANCH  35  36
ATOM     36  C   UNL A   1      37.578  32.007  31.401  1.00  0.00     0.031 A 
ATOM     37  C   UNL A   1      38.328  30.877  30.751  1.00  0.00     0.074 A 
ATOM     38  C   UNL A   1      37.915  32.425  32.639  1.00  0.00     0.049 A 
ATOM     39  N   UNL A   1      39.357  30.204  31.200  1.00  0.00    -0.248 NA
ATOM     40  C   UNL A   1      37.846  30.428  29.436  1.00  0.00     0.031 C 
ATOM     41  C   UNL A   1      37.220  33.474  33.391  1.00  0.00     0.029 A 
ATOM     42  N   UNL A   1      38.927  32.034  33.478  1.00  0.00    -0.354 N 
ATOM     43  C   UNL A   1      39.655  29.265  30.220  1.00  0.00     0.074 A 
ATOM     44  C   UNL A   1      38.647  29.403  29.189  1.00  0.00     0.031 C 
ATOM     45  C   UNL A   1      37.852  33.672  34.557  1.00  0.00     0.029 A 
ATOM     46  C   UNL A   1      38.968  32.737  34.660  1.00  0.00     0.049 A 
ATOM     47  H   UNL A   1      39.565  31.319  33.255  1.00  0.00     0.167 HD
ATOM     48  C   UNL A   1      40.691  28.390  30.168  1.00  0.00     0.034 A 
ATOM     49  C   UNL A   1      39.807  32.638  35.710  1.00  0.00     0.034 A 
ATOM     50  C   UNL A   1      41.681  28.259  31.210  1.00  0.00     0.049 A 
ATOM     51  C   UNL A   1      40.936  31.642  35.637  1.00  0.00     0.074 A 
ATOM     52  C   UNL A   1      42.785  27.425  31.252  1.00  0.00     0.029 A 
ATOM     53  N   UNL A   1      41.685  28.979  32.400  1.00  0.00    -0.354 N 
ATOM     54  N   UNL A   1      41.237  30.802  34.672  1.00  0.00    -0.248 NA
ATOM     55  C   UNL A   1      41.851  31.597  36.783  1.00  0.00     0.031 C 
ATOM     56  C   UNL A   1      43.414  27.589  32.491  1.00  0.00     0.029 A 
ATOM     57  C   UNL A   1      42.756  28.587  33.191  1.00  0.00     0.049 A 
ATOM     58  H   UNL A   1      41.025  29.667  32.646  1.00  0.00     0.167 HD
ATOM     59  C   UNL A   1      42.391  30.145  35.091  1.00  0.00     0.074 A 
ATOM     60  C   UNL A   1      42.750  30.719  36.372  1.00  0.00     0.031 C 
ATOM     61  C   UNL A   1      43.088  29.152  34.478  1.00  0.00     0.034 A 
BRANCH  48  62
ATOM     62  C   UNL A   1      40.793  27.502  28.950  1.00  0.00     0.023 A 
ATOM     63  C   UNL A   1      41.740  27.747  27.939  1.00  0.00     0.031 A 
ATOM     64  C   UNL A   1      39.934  26.400  28.791  1.00  0.00     0.131 A 
ATOM     65  C   UNL A   1      41.764  26.944  26.789  1.00  0.00     0.055 A 
ATOM     66  C   UNL A   1      40.017  25.556  27.681  1.00  0.00     0.041 A 
ATOM     67  F   UNL A   1      38.994  26.128  29.710  1.00  0.00    -0.206 F 
ATOM     68  C   UNL A   1      40.928  25.833  26.666  1.00  0.00     0.022 A 
BRANCH  65  69
ATOM     69  S   UNL A   1      42.816  27.447  25.401  1.00  0.00     0.124 S 
ATOM     70  O   UNL A   1      42.840  26.230  24.592  1.00  0.00    -0.237 OA
ATOM     71  O   UNL A   1      42.080  28.573  24.838  1.00  0.00    -0.237 OA
ATOM     72  O   UNL A   1      44.087  27.787  26.039  1.00  0.00    -0.744 OA
ENDBRANCH  65  69
ENDBRANCH  48  62
BRANCH  49  73
ATOM     73  C   UNL A   1      39.609  33.484  36.926  1.00  0.00     0.023 A 
ATOM     74  C   UNL A   1      38.992  32.974  38.079  1.00  0.00     0.031 A 
ATOM     75  C   UNL A   1      39.982  34.841  36.927  1.00  0.00     0.131 A 
ATOM     76  C   UNL A   1      38.707  33.827  39.157  1.00  0.00     0.055 A 
ATOM     77  C   UNL A   1      39.758  35.669  38.027  1.00  0.00     0.041 A 
ATOM     78  F   UNL A   1      40.578  35.382  35.852  1.00  0.00    -0.206 F 
ATOM     79  C   UNL A   1      39.100  35.167  39.144  1.00  0.00     0.022 A 
BRANCH  76  80
ATOM     80  S   UNL A   1      37.708  33.189  40.530  1.00  0.00     0.124 S 
ATOM     81  O   UNL A   1      38.434  31.976  40.888  1.00  0.00    -0.237 OA
ATOM     82  O   UNL A   1      37.779  34.286  41.490  1.00  0.00    -0.237 OA
ATOM     83  O   UNL A   1      36.394  32.977  39.926  1.00  0.00    -0.744 OA
ENDBRANCH  76  80
ENDBRANCH  49  73
BRANCH  61  84
ATOM     84  C   UNL A   1      44.324  28.654  35.192  1.00  0.00     0.023 A 
ATOM     85  C   UNL A   1      44.254  27.643  36.167  1.00  0.00     0.031 A 
ATOM     86  C   UNL A   1      45.579  29.233  34.933  1.00  0.00     0.131 A 
ATOM     87  C   UNL A   1      45.395  27.308  36.911  1.00  0.00     0.055 A 
ATOM     88  C   UNL A   1      46.728  28.837  35.621  1.00  0.00     0.041 A 
ATOM     89  F   UNL A   1      45.710  30.204  34.015  1.00  0.00    -0.206 F 
ATOM     90  C   UNL A   1      46.635  27.886  36.632  1.00  0.00     0.022 A 
BRANCH  87  91
ATOM     91  S   UNL A   1      45.201  26.217  38.348  1.00  0.00     0.124 S 
ATOM     92  O   UNL A   1      46.249  26.702  39.240  1.00  0.00    -0.237 OA
ATOM     93  O   UNL A   1      43.831  26.491  38.765  1.00  0.00    -0.237 OA
ATOM     94  O   UNL A   1      45.426  24.882  37.794  1.00  0.00    -0.744 OA
ENDBRANCH  87  91
ENDBRANCH  61  84
ENDBRANCH  35  36
ENDBRANCH  27  30
ENDBRANCH  25  26
ENDBRANCH  24  25
ENDBRANCH   1  24
TORSDOF 18
ENDMDL
MODEL 3
REMARK VINA RESULT:     -10.7      4.020      8.656
REMARK SMILES CC(C)[C@@](C)(CC(=O)N[C@H]1CCCC1(C)C)C(=O)NCCCCNC(=O)c1ccc(-c2c3nc(c(-c4cc(S(=O)(=O)[O-])ccc4F)c4ccc([nH]4)c(-c4cc(S(=O)(=O)[O-])ccc4F)c4nc(c(-c5cc(S(=O)(=O)[O-])ccc5F)c5ccc2[nH]5)C=C4)C=C3)cc1
REMARK SMILES IDX 21 1 20 2 19 3 17 4 18 5 4 7 5 8 2 9 1 10 3 11 6 12 7 13
REMARK SMILES IDX 8 14 9 15 10 17 11 18 14 19 12 20 13 21 15 22 16 23 22 24
REMARK SMILES IDX 23 25 24 26 25 27 26 29 27 30 28 31 89 32 29 33 88 34 30 35
REMARK SMILES IDX 31 36 32 37 82 38 33 39 87 40 81 41 83 42 34 43 86 44 80 45
REMARK SMILES IDX 79 46 35 48 67 49 47 50 66 51 48 52 51 53 65 54 84 55 49 56
REMARK SMILES IDX 50 57 64 59 85 60 52 61 36 62 37 63 45 64 38 65 44 66 46 67
REMARK SMILES IDX 43 68 39 69 40 70 41 71 42 72 68 73 69 74 77 75 70 76 76 77
REMARK SMILES IDX 78 78 75 79 71 80 72 81 73 82 74 83 53 84 54 85 62 86 55 87
REMARK SMILES IDX 61 88 63 89 60 90 56 91 57 92 58 93 59 94
REMARK H PARENT 19 6 9 16 24 28 83 47 51 58
REMARK Flexibility Score: inf
ROOT
ATOM      1  C   UNL A   1      31.471  30.569  26.713  1.00  0.00     0.023 C 
ENDROOT
BRANCH   1   2
ATOM      2  C   UNL A   1      32.471  30.046  25.685  1.00  0.00     0.116 C 
BRANCH   2   3
ATOM      3  N   UNL A   1      31.851  29.877  24.398  1.00  0.00    -0.356 N 
ATOM      4  C   UNL A   1      31.577  28.838  23.598  1.00  0.00     0.226 C 
ATOM      5  O   UNL A   1      30.915  29.167  22.604  1.00  0.00    -0.274 OA
ATOM      6  H   UNL A   1      31.558  30.733  24.010  1.00  0.00     0.163 HD
BRANCH   4   7
ATOM      7  C   UNL A   1      31.879  27.353  23.900  1.00  0.00     0.057 C 
ATOM      8  C   UNL A   1      33.361  27.326  24.357  1.00  0.00     0.022 C 
BRANCH   7   9
ATOM      9  C   UNL A   1      30.924  26.919  25.061  1.00  0.00    -0.002 C 
ATOM     10  C   UNL A   1      29.827  25.895  24.750  1.00  0.00     0.008 C 
ATOM     11  C   UNL A   1      31.696  26.478  26.339  1.00  0.00     0.008 C 
ENDBRANCH   7   9
BRANCH   7  12
ATOM     12  C   UNL A   1      31.765  26.300  22.738  1.00  0.00     0.116 C 
BRANCH  12  13
ATOM     13  C   UNL A   1      32.962  25.409  22.412  1.00  0.00     0.221 C 
ATOM     14  O   UNL A   1      33.705  25.716  21.474  1.00  0.00    -0.275 OA
ATOM     15  N   UNL A   1      33.286  24.280  23.115  1.00  0.00    -0.353 N 
ATOM     16  H   UNL A   1      34.045  23.791  22.726  1.00  0.00     0.163 HD
BRANCH  15  17
ATOM     17  C   UNL A   1      32.749  23.630  24.329  1.00  0.00     0.087 C 
ATOM     18  C   UNL A   1      32.081  22.264  24.047  1.00  0.00     0.025 C 
ATOM     19  C   UNL A   1      33.871  23.176  25.314  1.00  0.00    -0.015 C 
ATOM     20  C   UNL A   1      33.199  21.236  23.977  1.00  0.00     0.003 C 
ATOM     21  C   UNL A   1      34.393  21.869  24.679  1.00  0.00     0.008 C 
ATOM     22  C   UNL A   1      35.010  24.182  25.495  1.00  0.00     0.013 C 
ATOM     23  C   UNL A   1      33.275  22.874  26.710  1.00  0.00     0.013 C 
ENDBRANCH  15  17
ENDBRANCH  12  13
ENDBRANCH   7  12
ENDBRANCH   4   7
ENDBRANCH   2   3
ENDBRANCH   1   2
BRANCH   1  24
ATOM     24  C   UNL A   1      31.428  32.097  26.875  1.00  0.00     0.023 C 
BRANCH  24  25
ATOM     25  C   UNL A   1      32.776  32.805  26.990  1.00  0.00     0.116 C 
BRANCH  25  26
ATOM     26  N   UNL A   1      32.678  34.108  27.619  1.00  0.00    -0.352 N 
ATOM     27  C   UNL A   1      33.371  34.615  28.690  1.00  0.00     0.251 C 
ATOM     28  H   UNL A   1      32.017  34.718  27.219  1.00  0.00     0.163 HD
ATOM     29  O   UNL A   1      33.058  35.709  29.142  1.00  0.00    -0.269 OA
BRANCH  27  30
ATOM     30  C   UNL A   1      34.449  33.821  29.317  1.00  0.00     0.039 A 
ATOM     31  C   UNL A   1      35.769  34.191  29.056  1.00  0.00     0.014 A 
ATOM     32  C   UNL A   1      34.174  32.735  30.155  1.00  0.00     0.014 A 
ATOM     33  C   UNL A   1      36.811  33.503  29.676  1.00  0.00     0.010 A 
ATOM     34  C   UNL A   1      35.214  32.100  30.832  1.00  0.00     0.010 A 
ATOM     35  C   UNL A   1      36.544  32.477  30.598  1.00  0.00    -0.014 A 
BRANCH  35  36
ATOM     36  C   UNL A   1      37.664  31.819  31.320  1.00  0.00     0.031 A 
ATOM     37  C   UNL A   1      38.441  30.702  30.678  1.00  0.00     0.074 A 
ATOM     38  C   UNL A   1      37.981  32.241  32.562  1.00  0.00     0.049 A 
ATOM     39  N   UNL A   1      39.476  30.046  31.137  1.00  0.00    -0.248 NA
ATOM     40  C   UNL A   1      37.981  30.247  29.357  1.00  0.00     0.031 C 
ATOM     41  C   UNL A   1      37.260  33.278  33.307  1.00  0.00     0.029 A 
ATOM     42  N   UNL A   1      38.990  31.867  33.412  1.00  0.00    -0.354 N 
ATOM     43  C   UNL A   1      39.801  29.114  30.160  1.00  0.00     0.074 A 
ATOM     44  C   UNL A   1      38.803  29.236  29.118  1.00  0.00     0.031 C 
ATOM     45  C   UNL A   1      37.875  33.485  34.481  1.00  0.00     0.029 A 
ATOM     46  C   UNL A   1      39.006  32.569  34.596  1.00  0.00     0.049 A 
ATOM     47  H   UNL A   1      39.642  31.162  33.196  1.00  0.00     0.167 HD
ATOM     48  C   UNL A   1      40.852  28.256  30.119  1.00  0.00     0.034 A 
ATOM     49  C   UNL A   1      39.834  32.483  35.655  1.00  0.00     0.034 A 
ATOM     50  C   UNL A   1      41.833  28.142  31.172  1.00  0.00     0.049 A 
ATOM     51  C   UNL A   1      40.981  31.506  35.593  1.00  0.00     0.074 A 
ATOM     52  C   UNL A   1      42.950  27.326  31.225  1.00  0.00     0.029 A 
ATOM     53  N   UNL A   1      41.811  28.860  32.363  1.00  0.00    -0.354 N 
ATOM     54  N   UNL A   1      41.307  30.673  34.631  1.00  0.00    -0.248 NA
ATOM     55  C   UNL A   1      41.884  31.476  36.749  1.00  0.00     0.031 C 
ATOM     56  C   UNL A   1      43.562  27.499  32.472  1.00  0.00     0.029 A 
ATOM     57  C   UNL A   1      42.880  28.485  33.165  1.00  0.00     0.049 A 
ATOM     58  H   UNL A   1      41.137  29.536  32.601  1.00  0.00     0.167 HD
ATOM     59  C   UNL A   1      42.467  30.035  35.062  1.00  0.00     0.074 A 
ATOM     60  C   UNL A   1      42.802  30.613  36.347  1.00  0.00     0.031 C 
ATOM     61  C   UNL A   1      43.188  29.054  34.456  1.00  0.00     0.034 A 
BRANCH  48  62
ATOM     62  C   UNL A   1      40.982  27.372  28.901  1.00  0.00     0.023 A 
ATOM     63  C   UNL A   1      41.988  27.586  27.941  1.00  0.00     0.031 A 
ATOM     64  C   UNL A   1      40.092  26.304  28.691  1.00  0.00     0.131 A 
ATOM     65  C   UNL A   1      42.041  26.789  26.788  1.00  0.00     0.055 A 
ATOM     66  C   UNL A   1      40.200  25.463  27.581  1.00  0.00     0.041 A 
ATOM     67  F   UNL A   1      39.098  26.062  29.560  1.00  0.00    -0.206 F 
ATOM     68  C   UNL A   1      41.171  25.711  26.615  1.00  0.00     0.022 A 
BRANCH  65  69
ATOM     69  S   UNL A   1      43.180  27.260  25.458  1.00  0.00     0.124 S 
ATOM     70  O   UNL A   1      44.212  27.985  26.197  1.00  0.00    -0.237 OA
ATOM     71  O   UNL A   1      43.577  25.969  24.910  1.00  0.00    -0.237 OA
ATOM     72  O   UNL A   1      42.357  28.087  24.578  1.00  0.00    -0.744 OA
ENDBRANCH  65  69
ENDBRANCH  48  62
BRANCH  49  73
ATOM     73  C   UNL A   1      39.608  33.324  36.868  1.00  0.00     0.023 A 
ATOM     74  C   UNL A   1      38.961  32.811  38.003  1.00  0.00     0.031 A 
ATOM     75  C   UNL A   1      39.985  34.679  36.885  1.00  0.00     0.131 A 
ATOM     76  C   UNL A   1      38.652  33.659  39.078  1.00  0.00     0.055 A 
ATOM     77  C   UNL A   1      39.736  35.504  37.983  1.00  0.00     0.041 A 
ATOM     78  F   UNL A   1      40.609  35.223  35.828  1.00  0.00    -0.206 F 
ATOM     79  C   UNL A   1      39.049  34.999  39.081  1.00  0.00     0.022 A 
BRANCH  76  80
ATOM     80  S   UNL A   1      37.617  33.019  40.423  1.00  0.00     0.124 S 
ATOM     81  O   UNL A   1      38.336  31.807  40.800  1.00  0.00    -0.237 OA
ATOM     82  O   UNL A   1      37.659  34.115  41.385  1.00  0.00    -0.237 OA
ATOM     83  O   UNL A   1      36.321  32.803  39.783  1.00  0.00    -0.744 OA
ENDBRANCH  76  80
ENDBRANCH  49  73
BRANCH  61  84
ATOM     84  C   UNL A   1      44.424  28.576  35.183  1.00  0.00     0.023 A 
ATOM     85  C   UNL A   1      44.360  27.565  36.158  1.00  0.00     0.031 A 
ATOM     86  C   UNL A   1      45.672  29.176  34.938  1.00  0.00     0.131 A 
ATOM     87  C   UNL A   1      45.498  27.248  36.915  1.00  0.00     0.055 A 
ATOM     88  C   UNL A   1      46.819  28.799  35.638  1.00  0.00     0.041 A 
ATOM     89  F   UNL A   1      45.797  30.148  34.021  1.00  0.00    -0.206 F 
ATOM     90  C   UNL A   1      46.731  27.846  36.648  1.00  0.00     0.022 A 
BRANCH  87  91
ATOM     91  S   UNL A   1      45.307  26.154  38.349  1.00  0.00     0.124 S 
ATOM     92  O   UNL A   1      46.579  26.336  39.040  1.00  0.00    -0.237 OA
ATOM     93  O   UNL A   1      44.134  26.712  39.013  1.00  0.00    -0.237 OA
ATOM     94  O   UNL A   1      45.110  24.835  37.748  1.00  0.00    -0.744 OA
ENDBRANCH  87  91
ENDBRANCH  61  84
ENDBRANCH  35  36
ENDBRANCH  27  30
ENDBRANCH  25  26
ENDBRANCH  24  25
ENDBRANCH   1  24
TORSDOF 18
ENDMDL
