MODEL 1
REMARK VINA RESULT:     -12.4      0.000      0.000
REMARK SMILES CC[C@@H]1SC[C@@H](C(=O)NCCCCNC(=O)c2ccc(-c3c4nc(c(-c5cc(S(=O)(=O)[O-])ccc5F)c5ccc([nH]5)c(-c5cc(S(=O)(=O)[O-])ccc5F)c5nc(c(-c6cc(S(=O)(=O)[O-])ccc6F)c6ccc3[nH]6)C=C5)C=C4)cc2)N1C(=O)NC1C(C)(C)C1(C)C
REMARK SMILES IDX 12 1 11 2 10 3 9 4 7 5 8 6 6 8 3 9 4 10 80 11 5 12 2 13 1 14
REMARK SMILES IDX 81 15 82 16 83 17 84 19 85 20 88 21 86 22 87 23 89 24 90 25
REMARK SMILES IDX 13 26 14 27 15 28 16 30 17 31 18 32 79 33 19 34 78 35 20 36
REMARK SMILES IDX 21 37 22 38 72 39 23 40 77 41 71 42 73 43 24 44 76 45 70 46
REMARK SMILES IDX 69 47 25 49 57 50 37 51 56 52 38 53 41 54 55 55 74 56 39 57
REMARK SMILES IDX 40 58 54 60 75 61 42 62 26 63 27 64 35 65 28 66 34 67 36 68
REMARK SMILES IDX 33 69 29 70 30 71 31 72 32 73 58 74 59 75 67 76 60 77 66 78
REMARK SMILES IDX 68 79 65 80 61 81 62 82 63 83 64 84 43 85 44 86 52 87 45 88
REMARK SMILES IDX 51 89 53 90 50 91 46 92 47 93 48 94 49 95
REMARK H PARENT 9 7 83 18 14 29 73 48 41 59
REMARK Flexibility Score: inf
ROOT
ATOM      1  C   UNL A   1      36.298  21.466  24.301  1.00  0.00     0.023 C 
ENDROOT
BRANCH   1   2
ATOM      2  C   UNL A   1      35.538  20.348  25.005  1.00  0.00     0.023 C 
BRANCH   2   3
ATOM      3  C   UNL A   1      34.060  20.617  25.273  1.00  0.00     0.116 C 
BRANCH   3   4
ATOM      4  N   UNL A   1      33.829  21.108  26.615  1.00  0.00    -0.354 N 
ATOM      5  C   UNL A   1      33.204  22.211  27.112  1.00  0.00     0.243 C 
ATOM      6  O   UNL A   1      32.974  22.171  28.329  1.00  0.00    -0.273 OA
ATOM      7  H   UNL A   1      34.202  20.523  27.315  1.00  0.00     0.163 HD
BRANCH   5   8
ATOM      8  C   UNL A   1      32.612  23.375  26.264  1.00  0.00     0.187 C 
ATOM      9  C   UNL A   1      32.799  23.457  23.860  1.00  0.00     0.145 C 
ATOM     10  S   UNL A   1      31.013  23.637  24.124  1.00  0.00    -0.134 SA
ATOM     11  N   UNL A   1      33.384  23.927  25.105  1.00  0.00    -0.300 N 
ATOM     12  C   UNL A   1      31.162  23.077  25.844  1.00  0.00     0.107 C 
BRANCH   9  13
ATOM     13  C   UNL A   1      33.255  23.770  22.452  1.00  0.00     0.033 C 
ATOM     14  C   UNL A   1      33.002  25.201  21.993  1.00  0.00     0.007 C 
ENDBRANCH   9  13
BRANCH  11  15
ATOM     15  C   UNL A   1      34.266  24.903  25.464  1.00  0.00     0.319 C 
ATOM     16  O   UNL A   1      35.477  24.643  25.529  1.00  0.00    -0.249 OA
ATOM     17  N   UNL A   1      33.988  26.164  25.840  1.00  0.00    -0.334 N 
ATOM     18  H   UNL A   1      34.805  26.627  26.134  1.00  0.00     0.165 HD
BRANCH  17  19
ATOM     19  C   UNL A   1      32.863  27.025  25.935  1.00  0.00     0.096 C 
ATOM     20  C   UNL A   1      32.886  28.474  26.397  1.00  0.00    -0.007 C 
ATOM     21  C   UNL A   1      32.658  28.156  24.917  1.00  0.00    -0.007 C 
ATOM     22  C   UNL A   1      31.705  29.060  27.153  1.00  0.00     0.014 C 
ATOM     23  C   UNL A   1      34.206  29.020  26.896  1.00  0.00     0.014 C 
ATOM     24  C   UNL A   1      33.716  28.613  23.944  1.00  0.00     0.014 C 
ATOM     25  C   UNL A   1      31.257  28.265  24.333  1.00  0.00     0.014 C 
ENDBRANCH  17  19
ENDBRANCH  11  15
ENDBRANCH   5   8
ENDBRANCH   3   4
ENDBRANCH   2   3
ENDBRANCH   1   2
BRANCH   1  26
ATOM     26  C   UNL A   1      37.506  21.969  25.084  1.00  0.00     0.116 C 
BRANCH  26  27
ATOM     27  N   UNL A   1      38.462  20.927  25.442  1.00  0.00    -0.352 N 
ATOM     28  C   UNL A   1      39.585  21.036  26.236  1.00  0.00     0.251 C 
ATOM     29  H   UNL A   1      38.284  20.033  25.070  1.00  0.00     0.163 HD
ATOM     30  O   UNL A   1      40.330  20.080  26.388  1.00  0.00    -0.269 OA
BRANCH  28  31
ATOM     31  C   UNL A   1      39.900  22.352  26.837  1.00  0.00     0.039 A 
ATOM     32  C   UNL A   1      40.916  22.427  27.790  1.00  0.00     0.014 A 
ATOM     33  C   UNL A   1      39.270  23.510  26.378  1.00  0.00     0.014 A 
ATOM     34  C   UNL A   1      41.364  23.678  28.212  1.00  0.00     0.010 A 
ATOM     35  C   UNL A   1      39.784  24.754  26.724  1.00  0.00     0.010 A 
ATOM     36  C   UNL A   1      40.840  24.851  27.641  1.00  0.00    -0.014 A 
BRANCH  36  37
ATOM     37  C   UNL A   1      41.407  26.181  27.983  1.00  0.00     0.031 A 
ATOM     38  C   UNL A   1      42.802  26.545  27.553  1.00  0.00     0.074 A 
ATOM     39  C   UNL A   1      40.676  27.039  28.723  1.00  0.00     0.049 A 
ATOM     40  N   UNL A   1      43.461  27.659  27.743  1.00  0.00    -0.248 NA
ATOM     41  C   UNL A   1      43.570  25.507  26.850  1.00  0.00     0.031 C 
ATOM     42  C   UNL A   1      39.343  26.762  29.267  1.00  0.00     0.029 A 
ATOM     43  N   UNL A   1      40.941  28.317  29.140  1.00  0.00    -0.354 N 
ATOM     44  C   UNL A   1      44.719  27.455  27.187  1.00  0.00     0.074 A 
ATOM     45  C   UNL A   1      44.755  26.083  26.728  1.00  0.00     0.031 C 
ATOM     46  C   UNL A   1      38.889  27.854  29.902  1.00  0.00     0.029 A 
ATOM     47  C   UNL A   1      39.908  28.897  29.841  1.00  0.00     0.049 A 
ATOM     48  H   UNL A   1      41.791  28.779  28.956  1.00  0.00     0.167 HD
ATOM     49  C   UNL A   1      45.737  28.339  27.040  1.00  0.00     0.034 A 
ATOM     50  C   UNL A   1      39.792  30.133  30.364  1.00  0.00     0.034 A 
ATOM     51  C   UNL A   1      45.676  29.706  27.497  1.00  0.00     0.049 A 
ATOM     52  C   UNL A   1      40.927  31.106  30.171  1.00  0.00     0.074 A 
ATOM     53  C   UNL A   1      46.621  30.707  27.358  1.00  0.00     0.029 A 
ATOM     54  N   UNL A   1      44.608  30.265  28.191  1.00  0.00    -0.354 N 
ATOM     55  N   UNL A   1      42.082  30.921  29.572  1.00  0.00    -0.248 NA
ATOM     56  C   UNL A   1      40.731  32.458  30.703  1.00  0.00     0.031 C 
ATOM     57  C   UNL A   1      46.154  31.849  28.020  1.00  0.00     0.029 A 
ATOM     58  C   UNL A   1      44.883  31.588  28.507  1.00  0.00     0.049 A 
ATOM     59  H   UNL A   1      43.777  29.792  28.423  1.00  0.00     0.167 HD
ATOM     60  C   UNL A   1      42.741  32.145  29.638  1.00  0.00     0.074 A 
ATOM     61  C   UNL A   1      41.838  33.064  30.302  1.00  0.00     0.031 C 
ATOM     62  C   UNL A   1      43.980  32.482  29.194  1.00  0.00     0.034 A 
BRANCH  49  63
ATOM     63  C   UNL A   1      46.997  27.838  26.373  1.00  0.00     0.023 A 
ATOM     64  C   UNL A   1      47.244  28.059  25.004  1.00  0.00     0.031 A 
ATOM     65  C   UNL A   1      47.945  27.096  27.098  1.00  0.00     0.131 A 
ATOM     66  C   UNL A   1      48.360  27.474  24.389  1.00  0.00     0.055 A 
ATOM     67  C   UNL A   1      49.100  26.591  26.498  1.00  0.00     0.041 A 
ATOM     68  F   UNL A   1      47.756  26.833  28.401  1.00  0.00    -0.206 F 
ATOM     69  C   UNL A   1      49.305  26.763  25.132  1.00  0.00     0.022 A 
BRANCH  66  70
ATOM     70  S   UNL A   1      48.478  27.525  22.579  1.00  0.00     0.124 S 
ATOM     71  O   UNL A   1      47.260  28.251  22.227  1.00  0.00    -0.237 OA
ATOM     72  O   UNL A   1      49.731  28.239  22.365  1.00  0.00    -0.237 OA
ATOM     73  O   UNL A   1      48.488  26.115  22.196  1.00  0.00    -0.744 OA
ENDBRANCH  66  70
ENDBRANCH  49  63
BRANCH  50  74
ATOM     74  C   UNL A   1      38.557  30.535  31.098  1.00  0.00     0.023 A 
ATOM     75  C   UNL A   1      37.507  31.199  30.442  1.00  0.00     0.031 A 
ATOM     76  C   UNL A   1      38.425  30.300  32.477  1.00  0.00     0.131 A 
ATOM     77  C   UNL A   1      36.397  31.651  31.172  1.00  0.00     0.055 A 
ATOM     78  C   UNL A   1      37.295  30.704  33.190  1.00  0.00     0.041 A 
ATOM     79  F   UNL A   1      39.394  29.661  33.153  1.00  0.00    -0.206 F 
ATOM     80  C   UNL A   1      36.279  31.396  32.540  1.00  0.00     0.022 A 
BRANCH  77  81
ATOM     81  S   UNL A   1      35.145  32.650  30.322  1.00  0.00     0.124 S 
ATOM     82  O   UNL A   1      34.128  32.798  31.357  1.00  0.00    -0.237 OA
ATOM     83  O   UNL A   1      35.897  33.854  29.984  1.00  0.00    -0.237 OA
ATOM     84  O   UNL A   1      34.761  31.818  29.184  1.00  0.00    -0.744 OA
ENDBRANCH  77  81
ENDBRANCH  50  74
BRANCH  62  85
ATOM     85  C   UNL A   1      44.403  33.917  29.401  1.00  0.00     0.023 A 
ATOM     86  C   UNL A   1      43.944  34.947  28.561  1.00  0.00     0.031 A 
ATOM     87  C   UNL A   1      45.320  34.250  30.413  1.00  0.00     0.131 A 
ATOM     88  C   UNL A   1      44.468  36.242  28.692  1.00  0.00     0.055 A 
ATOM     89  C   UNL A   1      45.781  35.556  30.587  1.00  0.00     0.041 A 
ATOM     90  F   UNL A   1      45.794  33.308  31.245  1.00  0.00    -0.206 F 
ATOM     91  C   UNL A   1      45.370  36.556  29.710  1.00  0.00     0.022 A 
BRANCH  88  92
ATOM     92  S   UNL A   1      44.059  37.473  27.424  1.00  0.00     0.124 S 
ATOM     93  O   UNL A   1      45.372  37.776  26.862  1.00  0.00    -0.237 OA
ATOM     94  O   UNL A   1      43.148  36.735  26.555  1.00  0.00    -0.237 OA
ATOM     95  O   UNL A   1      43.446  38.559  28.187  1.00  0.00    -0.744 OA
ENDBRANCH  88  92
ENDBRANCH  62  85
ENDBRANCH  36  37
ENDBRANCH  28  31
ENDBRANCH  26  27
ENDBRANCH   1  26
TORSDOF 17
ENDMDL
MODEL 2
REMARK VINA RESULT:     -12.3      2.014      2.716
REMARK SMILES CC[C@@H]1SC[C@@H](C(=O)NCCCCNC(=O)c2ccc(-c3c4nc(c(-c5cc(S(=O)(=O)[O-])ccc5F)c5ccc([nH]5)c(-c5cc(S(=O)(=O)[O-])ccc5F)c5nc(c(-c6cc(S(=O)(=O)[O-])ccc6F)c6ccc3[nH]6)C=C5)C=C4)cc2)N1C(=O)NC1C(C)(C)C1(C)C
REMARK SMILES IDX 12 1 11 2 10 3 9 4 7 5 8 6 6 8 3 9 4 10 80 11 5 12 2 13 1 14
REMARK SMILES IDX 81 15 82 16 83 17 84 19 85 20 88 21 86 22 87 23 89 24 90 25
REMARK SMILES IDX 13 26 14 27 15 28 16 30 17 31 18 32 79 33 19 34 78 35 20 36
REMARK SMILES IDX 21 37 22 38 72 39 23 40 77 41 71 42 73 43 24 44 76 45 70 46
REMARK SMILES IDX 69 47 25 49 57 50 37 51 56 52 38 53 41 54 55 55 74 56 39 57
REMARK SMILES IDX 40 58 54 60 75 61 42 62 26 63 27 64 35 65 28 66 34 67 36 68
REMARK SMILES IDX 33 69 29 70 30 71 31 72 32 73 58 74 59 75 67 76 60 77 66 78
REMARK SMILES IDX 68 79 65 80 61 81 62 82 63 83 64 84 43 85 44 86 52 87 45 88
REMARK SMILES IDX 51 89 53 90 50 91 46 92 47 93 48 94 49 95
REMARK H PARENT 9 7 83 18 14 29 73 48 41 59
REMARK Flexibility Score: inf
ROOT
ATOM      1  C   UNL A   1      35.593  21.735  24.950  1.00  0.00     0.023 C 
ENDROOT
BRANCH   1   2
ATOM      2  C   UNL A   1      34.732  22.237  23.797  1.00  0.00     0.023 C 
BRANCH   2   3
ATOM      3  C   UNL A   1      34.253  23.681  23.904  1.00  0.00     0.116 C 
BRANCH   3   4
ATOM      4  N   UNL A   1      33.859  24.223  22.620  1.00  0.00    -0.354 N 
ATOM      5  C   UNL A   1      33.150  25.324  22.249  1.00  0.00     0.243 C 
ATOM      6  O   UNL A   1      33.231  25.610  21.046  1.00  0.00    -0.273 OA
ATOM      7  H   UNL A   1      34.168  23.683  21.857  1.00  0.00     0.163 HD
BRANCH   5   8
ATOM      8  C   UNL A   1      32.439  26.312  23.219  1.00  0.00     0.187 C 
ATOM      9  C   UNL A   1      30.901  28.006  22.451  1.00  0.00     0.145 C 
ATOM     10  S   UNL A   1      29.928  27.128  23.706  1.00  0.00    -0.134 SA
ATOM     11  N   UNL A   1      32.279  27.753  22.839  1.00  0.00    -0.300 N 
ATOM     12  C   UNL A   1      31.098  25.740  23.712  1.00  0.00     0.107 C 
BRANCH   9  13
ATOM     13  C   UNL A   1      30.297  29.317  21.999  1.00  0.00     0.033 C 
ATOM     14  C   UNL A   1      28.829  29.512  22.363  1.00  0.00     0.007 C 
ENDBRANCH   9  13
BRANCH  11  15
ATOM     15  C   UNL A   1      33.358  28.518  23.171  1.00  0.00     0.319 C 
ATOM     16  O   UNL A   1      34.312  28.609  22.384  1.00  0.00    -0.249 OA
ATOM     17  N   UNL A   1      33.575  29.176  24.323  1.00  0.00    -0.334 N 
ATOM     18  H   UNL A   1      34.476  29.573  24.332  1.00  0.00     0.165 HD
BRANCH  17  19
ATOM     19  C   UNL A   1      32.887  29.470  25.530  1.00  0.00     0.096 C 
ATOM     20  C   UNL A   1      32.712  28.525  26.709  1.00  0.00    -0.007 C 
ATOM     21  C   UNL A   1      33.665  29.718  26.831  1.00  0.00    -0.007 C 
ATOM     22  C   UNL A   1      31.452  28.578  27.557  1.00  0.00     0.014 C 
ATOM     23  C   UNL A   1      33.227  27.113  26.546  1.00  0.00     0.014 C 
ATOM     24  C   UNL A   1      35.132  29.412  27.004  1.00  0.00     0.014 C 
ATOM     25  C   UNL A   1      33.237  30.943  27.626  1.00  0.00     0.014 C 
ENDBRANCH  17  19
ENDBRANCH  11  15
ENDBRANCH   5   8
ENDBRANCH   3   4
ENDBRANCH   2   3
ENDBRANCH   1   2
BRANCH   1  26
ATOM     26  C   UNL A   1      37.078  22.027  24.773  1.00  0.00     0.116 C 
BRANCH  26  27
ATOM     27  N   UNL A   1      37.951  20.905  25.103  1.00  0.00    -0.352 N 
ATOM     28  C   UNL A   1      39.080  20.908  25.896  1.00  0.00     0.251 C 
ATOM     29  H   UNL A   1      37.703  20.037  24.711  1.00  0.00     0.163 HD
ATOM     30  O   UNL A   1      39.749  19.893  26.022  1.00  0.00    -0.269 OA
BRANCH  28  31
ATOM     31  C   UNL A   1      39.498  22.180  26.526  1.00  0.00     0.039 A 
ATOM     32  C   UNL A   1      40.546  22.159  27.446  1.00  0.00     0.014 A 
ATOM     33  C   UNL A   1      38.930  23.391  26.123  1.00  0.00     0.014 A 
ATOM     34  C   UNL A   1      41.087  23.366  27.891  1.00  0.00     0.010 A 
ATOM     35  C   UNL A   1      39.534  24.588  26.491  1.00  0.00     0.010 A 
ATOM     36  C   UNL A   1      40.622  24.587  27.374  1.00  0.00    -0.014 A 
BRANCH  36  37
ATOM     37  C   UNL A   1      41.284  25.867  27.738  1.00  0.00     0.031 A 
ATOM     38  C   UNL A   1      42.695  26.144  27.297  1.00  0.00     0.074 A 
ATOM     39  C   UNL A   1      40.623  26.755  28.507  1.00  0.00     0.049 A 
ATOM     40  N   UNL A   1      43.432  27.204  27.503  1.00  0.00    -0.248 NA
ATOM     41  C   UNL A   1      43.380  25.071  26.560  1.00  0.00     0.031 C 
ATOM     42  C   UNL A   1      39.281  26.558  29.064  1.00  0.00     0.029 A 
ATOM     43  N   UNL A   1      40.981  28.003  28.949  1.00  0.00    -0.354 N 
ATOM     44  C   UNL A   1      44.666  26.927  26.925  1.00  0.00     0.074 A 
ATOM     45  C   UNL A   1      44.601  25.567  26.435  1.00  0.00     0.031 C 
ATOM     46  C   UNL A   1      38.912  27.664  29.729  1.00  0.00     0.029 A 
ATOM     47  C   UNL A   1      39.999  28.636  29.677  1.00  0.00     0.049 A 
ATOM     48  H   UNL A   1      41.859  28.408  28.764  1.00  0.00     0.167 HD
ATOM     49  C   UNL A   1      45.741  27.743  26.784  1.00  0.00     0.034 A 
ATOM     50  C   UNL A   1      39.976  29.864  30.230  1.00  0.00     0.034 A 
ATOM     51  C   UNL A   1      45.780  29.100  27.272  1.00  0.00     0.049 A 
ATOM     52  C   UNL A   1      41.173  30.761  30.043  1.00  0.00     0.074 A 
ATOM     53  C   UNL A   1      46.791  30.036  27.143  1.00  0.00     0.029 A 
ATOM     54  N   UNL A   1      44.762  29.715  27.993  1.00  0.00    -0.354 N 
ATOM     55  N   UNL A   1      42.305  30.511  29.424  1.00  0.00    -0.248 NA
ATOM     56  C   UNL A   1      41.077  32.110  30.608  1.00  0.00     0.031 C 
ATOM     57  C   UNL A   1      46.412  31.192  27.837  1.00  0.00     0.029 A 
ATOM     58  C   UNL A   1      45.132  31.007  28.335  1.00  0.00     0.049 A 
ATOM     59  H   UNL A   1      43.904  29.294  28.226  1.00  0.00     0.167 HD
ATOM     60  C   UNL A   1      43.048  31.684  29.508  1.00  0.00     0.074 A 
ATOM     61  C   UNL A   1      42.219  32.647  30.205  1.00  0.00     0.031 C 
ATOM     62  C   UNL A   1      44.302  31.945  29.055  1.00  0.00     0.034 A 
BRANCH  49  63
ATOM     63  C   UNL A   1      46.955  27.172  26.088  1.00  0.00     0.023 A 
ATOM     64  C   UNL A   1      47.933  26.444  26.790  1.00  0.00     0.031 A 
ATOM     65  C   UNL A   1      47.161  27.390  24.715  1.00  0.00     0.131 A 
ATOM     66  C   UNL A   1      49.107  26.036  26.140  1.00  0.00     0.055 A 
ATOM     67  C   UNL A   1      48.292  26.905  24.053  1.00  0.00     0.041 A 
ATOM     68  F   UNL A   1      46.276  28.097  23.994  1.00  0.00    -0.206 F 
ATOM     69  C   UNL A   1      49.282  26.239  24.770  1.00  0.00     0.022 A 
BRANCH  66  70
ATOM     70  S   UNL A   1      50.468  25.376  27.142  1.00  0.00     0.124 S 
ATOM     71  O   UNL A   1      49.774  24.383  27.960  1.00  0.00    -0.237 OA
ATOM     72  O   UNL A   1      51.377  24.848  26.131  1.00  0.00    -0.237 OA
ATOM     73  O   UNL A   1      50.955  26.544  27.873  1.00  0.00    -0.744 OA
ENDBRANCH  66  70
ENDBRANCH  49  63
BRANCH  50  74
ATOM     74  C   UNL A   1      38.780  30.333  30.990  1.00  0.00     0.023 A 
ATOM     75  C   UNL A   1      37.833  31.183  30.397  1.00  0.00     0.031 A 
ATOM     76  C   UNL A   1      38.591  29.973  32.335  1.00  0.00     0.131 A 
ATOM     77  C   UNL A   1      36.767  31.687  31.160  1.00  0.00     0.055 A 
ATOM     78  C   UNL A   1      37.500  30.433  33.075  1.00  0.00     0.041 A 
ATOM     79  F   UNL A   1      39.461  29.155  32.948  1.00  0.00    -0.206 F 
ATOM     80  C   UNL A   1      36.588  31.307  32.491  1.00  0.00     0.022 A 
BRANCH  77  81
ATOM     81  S   UNL A   1      35.662  32.912  30.408  1.00  0.00     0.124 S 
ATOM     82  O   UNL A   1      34.403  32.637  31.091  1.00  0.00    -0.237 OA
ATOM     83  O   UNL A   1      36.320  34.167  30.756  1.00  0.00    -0.237 OA
ATOM     84  O   UNL A   1      35.691  32.570  28.988  1.00  0.00    -0.744 OA
ENDBRANCH  77  81
ENDBRANCH  50  74
BRANCH  62  85
ATOM     85  C   UNL A   1      44.826  33.343  29.288  1.00  0.00     0.023 A 
ATOM     86  C   UNL A   1      44.535  34.394  28.400  1.00  0.00     0.031 A 
ATOM     87  C   UNL A   1      45.672  33.613  30.377  1.00  0.00     0.131 A 
ATOM     88  C   UNL A   1      45.154  35.642  28.568  1.00  0.00     0.055 A 
ATOM     89  C   UNL A   1      46.225  34.878  30.582  1.00  0.00     0.041 A 
ATOM     90  F   UNL A   1      45.985  32.648  31.257  1.00  0.00    -0.206 F 
ATOM     91  C   UNL A   1      45.984  35.895  29.662  1.00  0.00     0.022 A 
BRANCH  88  92
ATOM     92  S   UNL A   1      44.970  36.883  27.258  1.00  0.00     0.124 S 
ATOM     93  O   UNL A   1      43.617  36.617  26.777  1.00  0.00    -0.237 OA
ATOM     94  O   UNL A   1      45.154  38.134  27.986  1.00  0.00    -0.237 OA
ATOM     95  O   UNL A   1      46.038  36.548  26.318  1.00  0.00    -0.744 OA
ENDBRANCH  88  92
ENDBRANCH  62  85
ENDBRANCH  36  37
ENDBRANCH  28  31
ENDBRANCH  26  27
ENDBRANCH   1  26
TORSDOF 17
ENDMDL
MODEL 3
REMARK VINA RESULT:     -12.2      4.784     10.151
REMARK SMILES CC[C@@H]1SC[C@@H](C(=O)NCCCCNC(=O)c2ccc(-c3c4nc(c(-c5cc(S(=O)(=O)[O-])ccc5F)c5ccc([nH]5)c(-c5cc(S(=O)(=O)[O-])ccc5F)c5nc(c(-c6cc(S(=O)(=O)[O-])ccc6F)c6ccc3[nH]6)C=C5)C=C4)cc2)N1C(=O)NC1C(C)(C)C1(C)C
REMARK SMILES IDX 12 1 11 2 10 3 9 4 7 5 8 6 6 8 3 9 4 10 80 11 5 12 2 13 1 14
REMARK SMILES IDX 81 15 82 16 83 17 84 19 85 20 88 21 86 22 87 23 89 24 90 25
REMARK SMILES IDX 13 26 14 27 15 28 16 30 17 31 18 32 79 33 19 34 78 35 20 36
REMARK SMILES IDX 21 37 22 38 72 39 23 40 77 41 71 42 73 43 24 44 76 45 70 46
REMARK SMILES IDX 69 47 25 49 57 50 37 51 56 52 38 53 41 54 55 55 74 56 39 57
REMARK SMILES IDX 40 58 54 60 75 61 42 62 26 63 27 64 35 65 28 66 34 67 36 68
REMARK SMILES IDX 33 69 29 70 30 71 31 72 32 73 58 74 59 75 67 76 60 77 66 78
REMARK SMILES IDX 68 79 65 80 61 81 62 82 63 83 64 84 43 85 44 86 52 87 45 88
REMARK SMILES IDX 51 89 53 90 50 91 46 92 47 93 48 94 49 95
REMARK H PARENT 9 7 83 18 14 29 73 48 41 59
REMARK Flexibility Score: inf
ROOT
ATOM      1  C   UNL A   1      32.522  29.717  25.015  1.00  0.00     0.023 C 
ENDROOT
BRANCH   1   2
ATOM      2  C   UNL A   1      33.406  28.792  24.187  1.00  0.00     0.023 C 
BRANCH   2   3
ATOM      3  C   UNL A   1      33.307  28.957  22.674  1.00  0.00     0.116 C 
BRANCH   3   4
ATOM      4  N   UNL A   1      33.655  27.742  21.968  1.00  0.00    -0.354 N 
ATOM      5  C   UNL A   1      32.986  26.583  21.716  1.00  0.00     0.243 C 
ATOM      6  O   UNL A   1      33.509  25.860  20.855  1.00  0.00    -0.273 OA
ATOM      7  H   UNL A   1      34.566  27.755  21.593  1.00  0.00     0.163 HD
BRANCH   5   8
ATOM      8  C   UNL A   1      31.577  26.213  22.266  1.00  0.00     0.187 C 
ATOM      9  C   UNL A   1      30.951  26.554  24.571  1.00  0.00     0.145 C 
ATOM     10  S   UNL A   1      29.634  27.418  23.672  1.00  0.00    -0.134 SA
ATOM     11  N   UNL A   1      31.441  25.575  23.614  1.00  0.00    -0.300 N 
ATOM     12  C   UNL A   1      30.600  27.395  22.136  1.00  0.00     0.107 C 
BRANCH   9  13
ATOM     13  C   UNL A   1      30.667  26.342  26.042  1.00  0.00     0.033 C 
ATOM     14  C   UNL A   1      31.898  26.311  26.940  1.00  0.00     0.007 C 
ENDBRANCH   9  13
BRANCH  11  15
ATOM     15  C   UNL A   1      31.564  24.217  23.580  1.00  0.00     0.319 C 
ATOM     16  O   UNL A   1      30.560  23.515  23.383  1.00  0.00    -0.249 OA
ATOM     17  N   UNL A   1      32.671  23.486  23.801  1.00  0.00    -0.334 N 
ATOM     18  H   UNL A   1      32.457  22.525  23.803  1.00  0.00     0.165 HD
BRANCH  17  19
ATOM     19  C   UNL A   1      34.056  23.691  24.030  1.00  0.00     0.096 C 
ATOM     20  C   UNL A   1      34.777  23.511  25.357  1.00  0.00    -0.007 C 
ATOM     21  C   UNL A   1      34.999  22.496  24.231  1.00  0.00    -0.007 C 
ATOM     22  C   UNL A   1      35.962  24.392  25.715  1.00  0.00     0.014 C 
ATOM     23  C   UNL A   1      33.930  23.181  26.565  1.00  0.00     0.014 C 
ATOM     24  C   UNL A   1      34.527  21.084  24.474  1.00  0.00     0.014 C 
ATOM     25  C   UNL A   1      36.290  22.538  23.426  1.00  0.00     0.014 C 
ENDBRANCH  17  19
ENDBRANCH  11  15
ENDBRANCH   5   8
ENDBRANCH   3   4
ENDBRANCH   2   3
ENDBRANCH   1   2
BRANCH   1  26
ATOM     26  C   UNL A   1      33.005  29.899  26.449  1.00  0.00     0.116 C 
BRANCH  26  27
ATOM     27  N   UNL A   1      32.859  31.258  26.961  1.00  0.00    -0.352 N 
ATOM     28  C   UNL A   1      33.766  31.996  27.692  1.00  0.00     0.251 C 
ATOM     29  H   UNL A   1      32.004  31.704  26.759  1.00  0.00     0.163 HD
ATOM     30  O   UNL A   1      33.466  33.105  28.109  1.00  0.00    -0.269 OA
BRANCH  28  31
ATOM     31  C   UNL A   1      35.075  31.387  28.016  1.00  0.00     0.039 A 
ATOM     32  C   UNL A   1      36.205  32.204  28.044  1.00  0.00     0.014 A 
ATOM     33  C   UNL A   1      35.158  30.045  28.395  1.00  0.00     0.014 A 
ATOM     34  C   UNL A   1      37.403  31.694  28.546  1.00  0.00     0.010 A 
ATOM     35  C   UNL A   1      36.323  29.570  28.985  1.00  0.00     0.010 A 
ATOM     36  C   UNL A   1      37.456  30.391  29.072  1.00  0.00    -0.014 A 
BRANCH  36  37
ATOM     37  C   UNL A   1      38.689  29.889  29.732  1.00  0.00     0.031 A 
ATOM     38  C   UNL A   1      39.072  30.383  31.100  1.00  0.00     0.074 A 
ATOM     39  C   UNL A   1      39.484  29.023  29.072  1.00  0.00     0.049 A 
ATOM     40  N   UNL A   1      40.097  30.051  31.841  1.00  0.00    -0.248 NA
ATOM     41  C   UNL A   1      38.209  31.414  31.697  1.00  0.00     0.031 C 
ATOM     42  C   UNL A   1      39.257  28.538  27.707  1.00  0.00     0.029 A 
ATOM     43  N   UNL A   1      40.637  28.389  29.458  1.00  0.00    -0.354 N 
ATOM     44  C   UNL A   1      40.005  30.832  32.988  1.00  0.00     0.074 A 
ATOM     45  C   UNL A   1      38.870  31.711  32.804  1.00  0.00     0.031 C 
ATOM     46  C   UNL A   1      40.211  27.647  27.391  1.00  0.00     0.029 A 
ATOM     47  C   UNL A   1      41.135  27.521  28.513  1.00  0.00     0.049 A 
ATOM     48  H   UNL A   1      41.069  28.540  30.329  1.00  0.00     0.167 HD
ATOM     49  C   UNL A   1      40.773  30.795  34.106  1.00  0.00     0.034 A 
ATOM     50  C   UNL A   1      42.208  26.708  28.552  1.00  0.00     0.034 A 
ATOM     51  C   UNL A   1      41.894  29.903  34.272  1.00  0.00     0.049 A 
ATOM     52  C   UNL A   1      43.035  26.668  29.812  1.00  0.00     0.074 A 
ATOM     53  C   UNL A   1      42.712  29.739  35.376  1.00  0.00     0.029 A 
ATOM     54  N   UNL A   1      42.363  29.026  33.300  1.00  0.00    -0.354 N 
ATOM     55  N   UNL A   1      42.888  27.358  30.921  1.00  0.00    -0.248 NA
ATOM     56  C   UNL A   1      44.156  25.723  29.831  1.00  0.00     0.031 C 
ATOM     57  C   UNL A   1      43.710  28.812  35.051  1.00  0.00     0.029 A 
ATOM     58  C   UNL A   1      43.471  28.338  33.770  1.00  0.00     0.049 A 
ATOM     59  H   UNL A   1      41.965  28.910  32.407  1.00  0.00     0.167 HD
ATOM     60  C   UNL A   1      43.887  26.911  31.779  1.00  0.00     0.074 A 
ATOM     61  C   UNL A   1      44.604  25.870  31.069  1.00  0.00     0.031 C 
ATOM     62  C   UNL A   1      44.191  27.322  33.037  1.00  0.00     0.034 A 
BRANCH  49  63
ATOM     63  C   UNL A   1      40.424  31.759  35.216  1.00  0.00     0.023 A 
ATOM     64  C   UNL A   1      39.472  31.435  36.201  1.00  0.00     0.031 A 
ATOM     65  C   UNL A   1      41.016  33.032  35.272  1.00  0.00     0.131 A 
ATOM     66  C   UNL A   1      39.080  32.398  37.143  1.00  0.00     0.055 A 
ATOM     67  C   UNL A   1      40.686  33.956  36.266  1.00  0.00     0.041 A 
ATOM     68  F   UNL A   1      41.914  33.409  34.348  1.00  0.00    -0.206 F 
ATOM     69  C   UNL A   1      39.700  33.648  37.199  1.00  0.00     0.022 A 
BRANCH  66  70
ATOM     70  S   UNL A   1      37.643  32.048  38.194  1.00  0.00     0.124 S 
ATOM     71  O   UNL A   1      37.346  30.663  37.832  1.00  0.00    -0.237 OA
ATOM     72  O   UNL A   1      38.175  32.257  39.536  1.00  0.00    -0.237 OA
ATOM     73  O   UNL A   1      36.650  33.026  37.755  1.00  0.00    -0.744 OA
ENDBRANCH  66  70
ENDBRANCH  49  63
BRANCH  50  74
ATOM     74  C   UNL A   1      42.555  25.850  27.382  1.00  0.00     0.023 A 
ATOM     75  C   UNL A   1      42.125  24.515  27.308  1.00  0.00     0.031 A 
ATOM     76  C   UNL A   1      43.360  26.340  26.339  1.00  0.00     0.131 A 
ATOM     77  C   UNL A   1      42.543  23.701  26.244  1.00  0.00     0.055 A 
ATOM     78  C   UNL A   1      43.729  25.541  25.254  1.00  0.00     0.041 A 
ATOM     79  F   UNL A   1      43.791  27.611  26.352  1.00  0.00    -0.206 F 
ATOM     80  C   UNL A   1      43.331  24.209  25.210  1.00  0.00     0.022 A 
BRANCH  77  81
ATOM     81  S   UNL A   1      42.106  21.941  26.273  1.00  0.00     0.124 S 
ATOM     82  O   UNL A   1      40.674  21.984  25.998  1.00  0.00    -0.237 OA
ATOM     83  O   UNL A   1      42.947  21.403  25.209  1.00  0.00    -0.237 OA
ATOM     84  O   UNL A   1      42.471  21.522  27.624  1.00  0.00    -0.744 OA
ENDBRANCH  77  81
ENDBRANCH  50  74
BRANCH  62  85
ATOM     85  C   UNL A   1      45.338  26.615  33.720  1.00  0.00     0.023 A 
ATOM     86  C   UNL A   1      45.121  25.522  34.578  1.00  0.00     0.031 A 
ATOM     87  C   UNL A   1      46.656  27.074  33.556  1.00  0.00     0.131 A 
ATOM     88  C   UNL A   1      46.191  24.981  35.306  1.00  0.00     0.055 A 
ATOM     89  C   UNL A   1      47.729  26.483  34.225  1.00  0.00     0.041 A 
ATOM     90  F   UNL A   1      46.924  28.114  32.750  1.00  0.00    -0.206 F 
ATOM     91  C   UNL A   1      47.496  25.443  35.122  1.00  0.00     0.022 A 
BRANCH  88  92
ATOM     92  S   UNL A   1      45.831  23.761  36.599  1.00  0.00     0.124 S 
ATOM     93  O   UNL A   1      45.480  22.581  35.813  1.00  0.00    -0.237 OA
ATOM     94  O   UNL A   1      47.096  23.691  37.323  1.00  0.00    -0.237 OA
ATOM     95  O   UNL A   1      44.724  24.364  37.339  1.00  0.00    -0.744 OA
ENDBRANCH  88  92
ENDBRANCH  62  85
ENDBRANCH  36  37
ENDBRANCH  28  31
ENDBRANCH  26  27
ENDBRANCH   1  26
TORSDOF 17
ENDMDL
