MODEL 1
REMARK VINA RESULT:      -9.0      0.000      0.000
REMARK SMILES COc1ccc(N2C(=O)/C(=C\c3ccc(-c4ccc(Cl)c(C(=O)NCCCCNC(=O)c5ccc(-c6c7nc(c(-c8cc(S(=O)(=O)[O-])ccc8F)c8ccc([nH]8)c(-c8cc(S(=O)(=O)[O-])ccc8F)c8nc(c(-c9cc(S(=O)(=O)[O-])ccc9F)c9ccc6[nH]9)C=C8)C=C7)cc5)c4)o3)SC2=S)cc1
REMARK SMILES IDX 26 1 25 2 24 3 22 4 23 5 21 7 16 8 17 9 95 10 18 11 19 12
REMARK SMILES IDX 20 13 15 14 12 15 13 16 96 17 14 18 11 19 7 20 8 21 98 22
REMARK SMILES IDX 9 23 10 24 97 25 99 26 6 27 3 28 4 29 101 30 5 31 100 32
REMARK SMILES IDX 2 33 1 34 27 35 28 36 29 37 30 38 31 40 32 41 33 42 94 43
REMARK SMILES IDX 34 44 93 45 35 46 36 47 37 48 87 49 38 50 92 51 86 52 88 53
REMARK SMILES IDX 39 54 91 55 85 56 84 57 40 59 72 60 52 61 71 62 53 63 56 64
REMARK SMILES IDX 70 65 89 66 54 67 55 68 69 70 90 71 57 72 41 73 42 74 50 75
REMARK SMILES IDX 43 76 49 77 51 78 48 79 44 80 45 81 46 82 47 83 73 84 74 85
REMARK SMILES IDX 82 86 75 87 81 88 83 89 80 90 76 91 77 92 78 93 79 94 58 95
REMARK SMILES IDX 59 96 67 97 60 98 66 99 68 100 65 101 61 102 62 103 63 104
REMARK SMILES IDX 64 105
REMARK H PARENT 24 6 29 39 88 58 56 69
REMARK Flexibility Score: inf
ROOT
ATOM      1  C   UNL A   1      38.656  34.568  33.311  1.00  0.00     0.023 C 
ENDROOT
BRANCH   1   2
ATOM      2  C   UNL A   1      37.545  34.561  32.270  1.00  0.00     0.116 C 
BRANCH   2   3
ATOM      3  N   UNL A   1      37.987  34.567  30.880  1.00  0.00    -0.352 N 
ATOM      4  C   UNL A   1      38.127  33.545  29.955  1.00  0.00     0.252 C 
ATOM      5  O   UNL A   1      38.406  33.842  28.797  1.00  0.00    -0.269 OA
ATOM      6  H   UNL A   1      38.230  35.457  30.538  1.00  0.00     0.163 HD
BRANCH   4   7
ATOM      7  C   UNL A   1      37.960  32.118  30.342  1.00  0.00     0.059 A 
ATOM      8  C   UNL A   1      39.055  29.959  30.585  1.00  0.00     0.018 A 
ATOM      9  C   UNL A   1      37.812  29.329  30.611  1.00  0.00     0.013 A 
ATOM     10  C   UNL A   1      39.105  31.357  30.595  1.00  0.00     0.027 A 
ATOM     11  C   UNL A   1      36.643  30.094  30.570  1.00  0.00     0.022 A 
ATOM     12  C   UNL A   1      36.711  31.484  30.392  1.00  0.00     0.053 A 
ATOM     13  Cl  UNL A   1      35.208  32.307  30.181  1.00  0.00    -0.083 Cl
BRANCH   8  14
ATOM     14  C   UNL A   1      40.296  29.234  30.366  1.00  0.00     0.134 A 
ATOM     15  C   UNL A   1      42.319  29.065  29.469  1.00  0.00     0.128 A 
ATOM     16  C   UNL A   1      42.225  28.128  30.491  1.00  0.00     0.051 A 
ATOM     17  O   UNL A   1      41.131  29.751  29.418  1.00  0.00    -0.457 OA
ATOM     18  C   UNL A   1      40.931  28.216  31.042  1.00  0.00     0.051 A 
BRANCH  15  19
ATOM     19  C   UNL A   1      43.419  29.330  28.613  1.00  0.00     0.068 C 
ATOM     20  N   UNL A   1      44.162  26.297  26.731  1.00  0.00    -0.261 N 
ATOM     21  C   UNL A   1      43.278  27.080  27.466  1.00  0.00     0.270 C 
ATOM     22  C   UNL A   1      45.325  26.917  26.301  1.00  0.00     0.152 C 
ATOM     23  O   UNL A   1      42.157  26.755  27.840  1.00  0.00    -0.268 OA
ATOM     24  C   UNL A   1      43.885  28.409  27.757  1.00  0.00     0.084 C 
ATOM     25  S   UNL A   1      45.351  28.589  26.876  1.00  0.00    -0.054 SA
ATOM     26  S   UNL A   1      46.539  26.343  25.305  1.00  0.00    -0.051 S 
BRANCH  20  27
ATOM     27  C   UNL A   1      43.810  24.941  26.463  1.00  0.00     0.051 A 
ATOM     28  C   UNL A   1      42.931  22.308  25.990  1.00  0.00     0.119 A 
ATOM     29  C   UNL A   1      42.713  23.303  25.041  1.00  0.00     0.048 A 
ATOM     30  C   UNL A   1      43.605  22.622  27.170  1.00  0.00     0.048 A 
ATOM     31  C   UNL A   1      43.130  24.612  25.282  1.00  0.00     0.030 A 
ATOM     32  C   UNL A   1      44.047  23.932  27.403  1.00  0.00     0.030 A 
BRANCH  28  33
ATOM     33  O   UNL A   1      42.475  21.066  25.645  1.00  0.00    -0.497 OA
ATOM     34  C   UNL A   1      43.442  20.022  25.691  1.00  0.00     0.278 C 
ENDBRANCH  28  33
ENDBRANCH  20  27
ENDBRANCH  15  19
ENDBRANCH   8  14
ENDBRANCH   4   7
ENDBRANCH   2   3
ENDBRANCH   1   2
BRANCH   1  35
ATOM     35  C   UNL A   1      38.237  34.378  34.761  1.00  0.00     0.023 C 
BRANCH  35  36
ATOM     36  C   UNL A   1      36.924  33.640  34.996  1.00  0.00     0.116 C 
BRANCH  36  37
ATOM     37  N   UNL A   1      36.870  32.914  36.255  1.00  0.00    -0.352 N 
ATOM     38  C   UNL A   1      37.705  31.933  36.739  1.00  0.00     0.251 C 
ATOM     39  H   UNL A   1      36.126  33.161  36.850  1.00  0.00     0.163 HD
ATOM     40  O   UNL A   1      37.431  31.384  37.803  1.00  0.00    -0.269 OA
BRANCH  38  41
ATOM     41  C   UNL A   1      38.898  31.510  35.967  1.00  0.00     0.039 A 
ATOM     42  C   UNL A   1      40.164  31.907  36.409  1.00  0.00     0.014 A 
ATOM     43  C   UNL A   1      38.781  30.727  34.817  1.00  0.00     0.014 A 
ATOM     44  C   UNL A   1      41.308  31.469  35.735  1.00  0.00     0.010 A 
ATOM     45  C   UNL A   1      39.921  30.213  34.204  1.00  0.00     0.010 A 
ATOM     46  C   UNL A   1      41.198  30.593  34.642  1.00  0.00    -0.014 A 
BRANCH  46  47
ATOM     47  C   UNL A   1      42.406  30.105  33.924  1.00  0.00     0.031 A 
ATOM     48  C   UNL A   1      43.015  30.939  32.826  1.00  0.00     0.074 A 
ATOM     49  C   UNL A   1      42.921  28.895  34.215  1.00  0.00     0.049 A 
ATOM     50  N   UNL A   1      44.043  30.681  32.058  1.00  0.00    -0.248 NA
ATOM     51  C   UNL A   1      42.350  32.215  32.524  1.00  0.00     0.031 C 
ATOM     52  C   UNL A   1      42.380  27.962  35.206  1.00  0.00     0.029 A 
ATOM     53  N   UNL A   1      44.011  28.237  33.703  1.00  0.00    -0.354 N 
ATOM     54  C   UNL A   1      44.133  31.750  31.172  1.00  0.00     0.074 A 
ATOM     55  C   UNL A   1      43.006  32.614  31.448  1.00  0.00     0.031 C 
ATOM     56  C   UNL A   1      43.155  26.867  35.248  1.00  0.00     0.029 A 
ATOM     57  C   UNL A   1      44.228  27.001  34.268  1.00  0.00     0.049 A 
ATOM     58  H   UNL A   1      44.585  28.613  32.997  1.00  0.00     0.167 HD
ATOM     59  C   UNL A   1      45.082  32.004  30.235  1.00  0.00     0.034 A 
ATOM     60  C   UNL A   1      45.184  26.082  34.026  1.00  0.00     0.034 A 
ATOM     61  C   UNL A   1      46.209  31.136  29.988  1.00  0.00     0.049 A 
ATOM     62  C   UNL A   1      46.249  26.394  33.007  1.00  0.00     0.074 A 
ATOM     63  C   UNL A   1      47.268  31.322  29.117  1.00  0.00     0.029 A 
ATOM     64  N   UNL A   1      46.420  29.910  30.611  1.00  0.00    -0.354 N 
ATOM     65  N   UNL A   1      46.368  27.445  32.229  1.00  0.00    -0.248 NA
ATOM     66  C   UNL A   1      47.324  25.408  32.855  1.00  0.00     0.031 C 
ATOM     67  C   UNL A   1      48.079  30.181  29.162  1.00  0.00     0.029 A 
ATOM     68  C   UNL A   1      47.575  29.318  30.123  1.00  0.00     0.049 A 
ATOM     69  H   UNL A   1      45.833  29.520  31.298  1.00  0.00     0.167 HD
ATOM     70  C   UNL A   1      47.549  27.260  31.516  1.00  0.00     0.074 A 
ATOM     71  C   UNL A   1      48.112  26.005  31.973  1.00  0.00     0.031 C 
ATOM     72  C   UNL A   1      48.120  28.057  30.575  1.00  0.00     0.034 A 
BRANCH  59  73
ATOM     73  C   UNL A   1      44.912  33.256  29.401  1.00  0.00     0.023 A 
ATOM     74  C   UNL A   1      44.366  33.215  28.105  1.00  0.00     0.031 A 
ATOM     75  C   UNL A   1      45.365  34.498  29.879  1.00  0.00     0.131 A 
ATOM     76  C   UNL A   1      44.385  34.361  27.296  1.00  0.00     0.055 A 
ATOM     77  C   UNL A   1      45.289  35.659  29.104  1.00  0.00     0.041 A 
ATOM     78  F   UNL A   1      45.914  34.605  31.098  1.00  0.00    -0.206 F 
ATOM     79  C   UNL A   1      44.818  35.590  27.795  1.00  0.00     0.022 A 
BRANCH  76  80
ATOM     80  S   UNL A   1      44.019  34.177  25.529  1.00  0.00     0.124 S 
ATOM     81  O   UNL A   1      42.777  34.937  25.404  1.00  0.00    -0.237 OA
ATOM     82  O   UNL A   1      45.194  34.765  24.898  1.00  0.00    -0.237 OA
ATOM     83  O   UNL A   1      43.874  32.732  25.357  1.00  0.00    -0.744 OA
ENDBRANCH  76  80
ENDBRANCH  59  73
BRANCH  60  84
ATOM     84  C   UNL A   1      45.185  24.790  34.769  1.00  0.00     0.023 A 
ATOM     85  C   UNL A   1      45.772  24.679  36.040  1.00  0.00     0.031 A 
ATOM     86  C   UNL A   1      44.604  23.638  34.208  1.00  0.00     0.131 A 
ATOM     87  C   UNL A   1      45.799  23.437  36.693  1.00  0.00     0.055 A 
ATOM     88  C   UNL A   1      44.592  22.415  34.882  1.00  0.00     0.041 A 
ATOM     89  F   UNL A   1      44.020  23.692  33.001  1.00  0.00    -0.206 F 
ATOM     90  C   UNL A   1      45.202  22.307  36.128  1.00  0.00     0.022 A 
BRANCH  87  91
ATOM     91  S   UNL A   1      46.676  23.302  38.275  1.00  0.00     0.124 S 
ATOM     92  O   UNL A   1      45.832  22.363  39.004  1.00  0.00    -0.237 OA
ATOM     93  O   UNL A   1      47.982  22.802  37.857  1.00  0.00    -0.237 OA
ATOM     94  O   UNL A   1      46.671  24.672  38.784  1.00  0.00    -0.744 OA
ENDBRANCH  87  91
ENDBRANCH  60  84
BRANCH  72  95
ATOM     95  C   UNL A   1      49.450  27.610  30.015  1.00  0.00     0.023 A 
ATOM     96  C   UNL A   1      49.555  26.967  28.769  1.00  0.00     0.031 A 
ATOM     97  C   UNL A   1      50.629  27.806  30.757  1.00  0.00     0.131 A 
ATOM     98  C   UNL A   1      50.797  26.477  28.337  1.00  0.00     0.055 A 
ATOM     99  C   UNL A   1      51.873  27.380  30.288  1.00  0.00     0.041 A 
ATOM    100  F   UNL A   1      50.592  28.411  31.954  1.00  0.00    -0.206 F 
ATOM    101  C   UNL A   1      51.959  26.696  29.080  1.00  0.00     0.022 A 
BRANCH  98 102
ATOM    102  S   UNL A   1      50.854  25.441  26.849  1.00  0.00     0.124 S 
ATOM    103  O   UNL A   1      49.906  24.382  27.180  1.00  0.00    -0.237 OA
ATOM    104  O   UNL A   1      50.434  26.370  25.806  1.00  0.00    -0.237 OA
ATOM    105  O   UNL A   1      52.252  25.020  26.778  1.00  0.00    -0.744 OA
ENDBRANCH  98 102
ENDBRANCH  72  95
ENDBRANCH  46  47
ENDBRANCH  38  41
ENDBRANCH  36  37
ENDBRANCH  35  36
ENDBRANCH   1  35
TORSDOF 18
ENDMDL
MODEL 2
REMARK VINA RESULT:      -8.8      2.973      7.853
REMARK SMILES COc1ccc(N2C(=O)/C(=C\c3ccc(-c4ccc(Cl)c(C(=O)NCCCCNC(=O)c5ccc(-c6c7nc(c(-c8cc(S(=O)(=O)[O-])ccc8F)c8ccc([nH]8)c(-c8cc(S(=O)(=O)[O-])ccc8F)c8nc(c(-c9cc(S(=O)(=O)[O-])ccc9F)c9ccc6[nH]9)C=C8)C=C7)cc5)c4)o3)SC2=S)cc1
REMARK SMILES IDX 26 1 25 2 24 3 22 4 23 5 21 7 16 8 17 9 95 10 18 11 19 12
REMARK SMILES IDX 20 13 15 14 12 15 13 16 96 17 14 18 11 19 7 20 8 21 98 22
REMARK SMILES IDX 9 23 10 24 97 25 99 26 6 27 3 28 4 29 101 30 5 31 100 32
REMARK SMILES IDX 2 33 1 34 27 35 28 36 29 37 30 38 31 40 32 41 33 42 94 43
REMARK SMILES IDX 34 44 93 45 35 46 36 47 37 48 87 49 38 50 92 51 86 52 88 53
REMARK SMILES IDX 39 54 91 55 85 56 84 57 40 59 72 60 52 61 71 62 53 63 56 64
REMARK SMILES IDX 70 65 89 66 54 67 55 68 69 70 90 71 57 72 41 73 42 74 50 75
REMARK SMILES IDX 43 76 49 77 51 78 48 79 44 80 45 81 46 82 47 83 73 84 74 85
REMARK SMILES IDX 82 86 75 87 81 88 83 89 80 90 76 91 77 92 78 93 79 94 58 95
REMARK SMILES IDX 59 96 67 97 60 98 66 99 68 100 65 101 61 102 62 103 63 104
REMARK SMILES IDX 64 105
REMARK H PARENT 24 6 29 39 88 58 56 69
REMARK Flexibility Score: inf
ROOT
ATOM      1  C   UNL A   1      36.777  33.342  32.329  1.00  0.00     0.023 C 
ENDROOT
BRANCH   1   2
ATOM      2  C   UNL A   1      38.005  33.371  31.431  1.00  0.00     0.116 C 
BRANCH   2   3
ATOM      3  N   UNL A   1      37.744  33.204  30.005  1.00  0.00    -0.352 N 
ATOM      4  C   UNL A   1      37.728  32.077  29.199  1.00  0.00     0.252 C 
ATOM      5  O   UNL A   1      37.354  32.197  28.036  1.00  0.00    -0.269 OA
ATOM      6  H   UNL A   1      37.546  34.042  29.531  1.00  0.00     0.163 HD
BRANCH   4   7
ATOM      7  C   UNL A   1      38.162  30.748  29.712  1.00  0.00     0.059 A 
ATOM      8  C   UNL A   1      39.790  28.951  29.516  1.00  0.00     0.018 A 
ATOM      9  C   UNL A   1      38.931  28.095  30.203  1.00  0.00     0.013 A 
ATOM     10  C   UNL A   1      39.451  30.304  29.407  1.00  0.00     0.027 A 
ATOM     11  C   UNL A   1      37.719  28.579  30.702  1.00  0.00     0.022 A 
ATOM     12  C   UNL A   1      37.310  29.892  30.422  1.00  0.00     0.053 A 
ATOM     13  Cl  UNL A   1      35.721  30.329  30.939  1.00  0.00    -0.083 Cl
BRANCH   8  14
ATOM     14  C   UNL A   1      40.930  28.470  28.752  1.00  0.00     0.134 A 
ATOM     15  C   UNL A   1      42.284  26.839  28.096  1.00  0.00     0.128 A 
ATOM     16  C   UNL A   1      42.446  27.906  27.220  1.00  0.00     0.051 A 
ATOM     17  O   UNL A   1      41.333  27.194  29.021  1.00  0.00    -0.457 OA
ATOM     18  C   UNL A   1      41.606  28.952  27.654  1.00  0.00     0.051 A 
BRANCH  15  19
ATOM     19  C   UNL A   1      42.935  25.578  28.080  1.00  0.00     0.068 C 
ATOM     20  N   UNL A   1      40.566  23.083  26.873  1.00  0.00    -0.261 N 
ATOM     21  C   UNL A   1      40.987  24.404  26.971  1.00  0.00     0.270 C 
ATOM     22  C   UNL A   1      41.481  22.114  27.253  1.00  0.00     0.152 C 
ATOM     23  O   UNL A   1      40.374  25.393  26.586  1.00  0.00    -0.268 OA
ATOM     24  C   UNL A   1      42.322  24.474  27.629  1.00  0.00     0.084 C 
ATOM     25  S   UNL A   1      42.970  22.891  27.807  1.00  0.00    -0.054 SA
ATOM     26  S   UNL A   1      41.380  20.447  27.152  1.00  0.00    -0.051 S 
BRANCH  20  27
ATOM     27  C   UNL A   1      39.252  22.822  26.385  1.00  0.00     0.051 A 
ATOM     28  C   UNL A   1      36.723  22.348  25.240  1.00  0.00     0.119 A 
ATOM     29  C   UNL A   1      37.707  21.364  25.201  1.00  0.00     0.048 A 
ATOM     30  C   UNL A   1      36.993  23.564  25.867  1.00  0.00     0.048 A 
ATOM     31  C   UNL A   1      38.967  21.604  25.750  1.00  0.00     0.030 A 
ATOM     32  C   UNL A   1      38.250  23.798  26.442  1.00  0.00     0.030 A 
BRANCH  28  33
ATOM     33  O   UNL A   1      35.531  21.999  24.668  1.00  0.00    -0.497 OA
ATOM     34  C   UNL A   1      34.709  23.083  24.251  1.00  0.00     0.278 C 
ENDBRANCH  28  33
ENDBRANCH  20  27
ENDBRANCH  15  19
ENDBRANCH   8  14
ENDBRANCH   4   7
ENDBRANCH   2   3
ENDBRANCH   1   2
BRANCH   1  35
ATOM     35  C   UNL A   1      36.700  34.403  33.418  1.00  0.00     0.023 C 
BRANCH  35  36
ATOM     36  C   UNL A   1      37.802  34.376  34.470  1.00  0.00     0.116 C 
BRANCH  36  37
ATOM     37  N   UNL A   1      37.556  33.446  35.561  1.00  0.00    -0.352 N 
ATOM     38  C   UNL A   1      38.109  32.208  35.801  1.00  0.00     0.251 C 
ATOM     39  H   UNL A   1      36.897  33.747  36.227  1.00  0.00     0.163 HD
ATOM     40  O   UNL A   1      37.697  31.542  36.747  1.00  0.00    -0.269 OA
BRANCH  38  41
ATOM     41  C   UNL A   1      39.157  31.665  34.904  1.00  0.00     0.039 A 
ATOM     42  C   UNL A   1      38.792  30.742  33.920  1.00  0.00     0.014 A 
ATOM     43  C   UNL A   1      40.492  32.059  35.023  1.00  0.00     0.014 A 
ATOM     44  C   UNL A   1      39.751  30.264  33.022  1.00  0.00     0.010 A 
ATOM     45  C   UNL A   1      41.424  31.658  34.070  1.00  0.00     0.010 A 
ATOM     46  C   UNL A   1      41.072  30.740  33.070  1.00  0.00    -0.014 A 
BRANCH  46  47
ATOM     47  C   UNL A   1      42.100  30.253  32.111  1.00  0.00     0.031 A 
ATOM     48  C   UNL A   1      42.721  28.893  32.303  1.00  0.00     0.074 A 
ATOM     49  C   UNL A   1      42.517  31.048  31.107  1.00  0.00     0.049 A 
ATOM     50  N   UNL A   1      43.653  28.298  31.603  1.00  0.00    -0.248 NA
ATOM     51  C   UNL A   1      42.260  28.118  33.463  1.00  0.00     0.031 C 
ATOM     52  C   UNL A   1      42.046  32.412  30.859  1.00  0.00     0.029 A 
ATOM     53  N   UNL A   1      43.434  30.829  30.111  1.00  0.00    -0.354 N 
ATOM     54  C   UNL A   1      43.904  27.092  32.250  1.00  0.00     0.074 A 
ATOM     55  C   UNL A   1      43.082  27.083  33.442  1.00  0.00     0.031 C 
ATOM     56  C   UNL A   1      42.656  32.897  29.765  1.00  0.00     0.029 A 
ATOM     57  C   UNL A   1      43.585  31.894  29.253  1.00  0.00     0.049 A 
ATOM     58  H   UNL A   1      43.938  29.988  30.018  1.00  0.00     0.167 HD
ATOM     59  C   UNL A   1      44.719  26.075  31.873  1.00  0.00     0.034 A 
ATOM     60  C   UNL A   1      44.380  32.045  28.175  1.00  0.00     0.034 A 
ATOM     61  C   UNL A   1      45.516  26.098  30.671  1.00  0.00     0.049 A 
ATOM     62  C   UNL A   1      45.254  30.894  27.750  1.00  0.00     0.074 A 
ATOM     63  C   UNL A   1      46.325  25.102  30.151  1.00  0.00     0.029 A 
ATOM     64  N   UNL A   1      45.613  27.179  29.802  1.00  0.00    -0.354 N 
ATOM     65  N   UNL A   1      45.424  29.727  28.328  1.00  0.00    -0.248 NA
ATOM     66  C   UNL A   1      46.021  31.070  26.512  1.00  0.00     0.031 C 
ATOM     67  C   UNL A   1      46.961  25.605  29.009  1.00  0.00     0.029 A 
ATOM     68  C   UNL A   1      46.487  26.884  28.766  1.00  0.00     0.049 A 
ATOM     69  H   UNL A   1      45.130  28.030  29.907  1.00  0.00     0.167 HD
ATOM     70  C   UNL A   1      46.295  29.017  27.505  1.00  0.00     0.074 A 
ATOM     71  C   UNL A   1      46.598  29.884  26.384  1.00  0.00     0.031 C 
ATOM     72  C   UNL A   1      46.794  27.763  27.659  1.00  0.00     0.034 A 
BRANCH  59  73
ATOM     73  C   UNL A   1      44.797  24.875  32.794  1.00  0.00     0.023 A 
ATOM     74  C   UNL A   1      45.556  24.898  33.979  1.00  0.00     0.031 A 
ATOM     75  C   UNL A   1      44.161  23.669  32.450  1.00  0.00     0.131 A 
ATOM     76  C   UNL A   1      45.749  23.718  34.714  1.00  0.00     0.055 A 
ATOM     77  C   UNL A   1      44.275  22.523  33.242  1.00  0.00     0.041 A 
ATOM     78  F   UNL A   1      43.438  23.572  31.324  1.00  0.00    -0.206 F 
ATOM     79  C   UNL A   1      45.092  22.536  34.369  1.00  0.00     0.022 A 
BRANCH  76  80
ATOM     80  S   UNL A   1      47.020  23.707  36.009  1.00  0.00     0.124 S 
ATOM     81  O   UNL A   1      46.299  23.098  37.125  1.00  0.00    -0.237 OA
ATOM     82  O   UNL A   1      48.074  22.896  35.411  1.00  0.00    -0.237 OA
ATOM     83  O   UNL A   1      47.343  25.122  36.186  1.00  0.00    -0.744 OA
ENDBRANCH  76  80
ENDBRANCH  59  73
BRANCH  60  84
ATOM     84  C   UNL A   1      44.376  33.328  27.416  1.00  0.00     0.023 A 
ATOM     85  C   UNL A   1      44.871  34.513  27.984  1.00  0.00     0.031 A 
ATOM     86  C   UNL A   1      43.863  33.388  26.108  1.00  0.00     0.131 A 
ATOM     87  C   UNL A   1      44.809  35.716  27.262  1.00  0.00     0.055 A 
ATOM     88  C   UNL A   1      43.845  34.577  25.376  1.00  0.00     0.041 A 
ATOM     89  F   UNL A   1      43.387  32.283  25.515  1.00  0.00    -0.206 F 
ATOM     90  C   UNL A   1      44.311  35.752  25.957  1.00  0.00     0.022 A 
BRANCH  87  91
ATOM     91  S   UNL A   1      45.341  37.249  28.073  1.00  0.00     0.124 S 
ATOM     92  O   UNL A   1      44.321  37.411  29.101  1.00  0.00    -0.237 OA
ATOM     93  O   UNL A   1      46.677  36.896  28.543  1.00  0.00    -0.237 OA
ATOM     94  O   UNL A   1      45.304  38.234  26.994  1.00  0.00    -0.744 OA
ENDBRANCH  87  91
ENDBRANCH  60  84
BRANCH  72  95
ATOM     95  C   UNL A   1      47.683  27.240  26.555  1.00  0.00     0.023 A 
ATOM     96  C   UNL A   1      49.047  27.572  26.479  1.00  0.00     0.031 A 
ATOM     97  C   UNL A   1      47.147  26.420  25.546  1.00  0.00     0.131 A 
ATOM     98  C   UNL A   1      49.810  27.147  25.380  1.00  0.00     0.055 A 
ATOM     99  C   UNL A   1      47.928  25.941  24.493  1.00  0.00     0.041 A 
ATOM    100  F   UNL A   1      45.851  26.072  25.564  1.00  0.00    -0.206 F 
ATOM    101  C   UNL A   1      49.264  26.320  24.397  1.00  0.00     0.022 A 
BRANCH  98 102
ATOM    102  S   UNL A   1      51.494  27.795  25.187  1.00  0.00     0.124 S 
ATOM    103  O   UNL A   1      52.156  26.711  24.469  1.00  0.00    -0.237 OA
ATOM    104  O   UNL A   1      51.271  29.021  24.428  1.00  0.00    -0.237 OA
ATOM    105  O   UNL A   1      51.945  27.992  26.563  1.00  0.00    -0.744 OA
ENDBRANCH  98 102
ENDBRANCH  72  95
ENDBRANCH  46  47
ENDBRANCH  38  41
ENDBRANCH  36  37
ENDBRANCH  35  36
ENDBRANCH   1  35
TORSDOF 18
ENDMDL
MODEL 3
REMARK VINA RESULT:      -8.7      7.654     14.201
REMARK SMILES COc1ccc(N2C(=O)/C(=C\c3ccc(-c4ccc(Cl)c(C(=O)NCCCCNC(=O)c5ccc(-c6c7nc(c(-c8cc(S(=O)(=O)[O-])ccc8F)c8ccc([nH]8)c(-c8cc(S(=O)(=O)[O-])ccc8F)c8nc(c(-c9cc(S(=O)(=O)[O-])ccc9F)c9ccc6[nH]9)C=C8)C=C7)cc5)c4)o3)SC2=S)cc1
REMARK SMILES IDX 26 1 25 2 24 3 22 4 23 5 21 7 16 8 17 9 95 10 18 11 19 12
REMARK SMILES IDX 20 13 15 14 12 15 13 16 96 17 14 18 11 19 7 20 8 21 98 22
REMARK SMILES IDX 9 23 10 24 97 25 99 26 6 27 3 28 4 29 101 30 5 31 100 32
REMARK SMILES IDX 2 33 1 34 27 35 28 36 29 37 30 38 31 40 32 41 33 42 94 43
REMARK SMILES IDX 34 44 93 45 35 46 36 47 37 48 87 49 38 50 92 51 86 52 88 53
REMARK SMILES IDX 39 54 91 55 85 56 84 57 40 59 72 60 52 61 71 62 53 63 56 64
REMARK SMILES IDX 70 65 89 66 54 67 55 68 69 70 90 71 57 72 41 73 42 74 50 75
REMARK SMILES IDX 43 76 49 77 51 78 48 79 44 80 45 81 46 82 47 83 73 84 74 85
REMARK SMILES IDX 82 86 75 87 81 88 83 89 80 90 76 91 77 92 78 93 79 94 58 95
REMARK SMILES IDX 59 96 67 97 60 98 66 99 68 100 65 101 61 102 62 103 63 104
REMARK SMILES IDX 64 105
REMARK H PARENT 24 6 29 39 88 58 56 69
REMARK Flexibility Score: inf
ROOT
ATOM      1  C   UNL A   1      49.069  41.328  34.180  1.00  0.00     0.023 C 
ENDROOT
BRANCH   1   2
ATOM      2  C   UNL A   1      47.770  42.087  33.946  1.00  0.00     0.116 C 
BRANCH   2   3
ATOM      3  N   UNL A   1      47.010  42.415  35.146  1.00  0.00    -0.352 N 
ATOM      4  C   UNL A   1      45.710  42.864  35.319  1.00  0.00     0.252 C 
ATOM      5  O   UNL A   1      45.269  42.949  36.461  1.00  0.00    -0.269 OA
ATOM      6  H   UNL A   1      47.511  42.299  35.985  1.00  0.00     0.163 HD
BRANCH   4   7
ATOM      7  C   UNL A   1      44.861  43.249  34.158  1.00  0.00     0.059 A 
ATOM      8  C   UNL A   1      43.674  42.462  32.186  1.00  0.00     0.018 A 
ATOM      9  C   UNL A   1      43.622  43.766  31.695  1.00  0.00     0.013 A 
ATOM     10  C   UNL A   1      44.167  42.246  33.477  1.00  0.00     0.027 A 
ATOM     11  C   UNL A   1      44.126  44.819  32.462  1.00  0.00     0.022 A 
ATOM     12  C   UNL A   1      44.786  44.562  33.673  1.00  0.00     0.053 A 
ATOM     13  Cl  UNL A   1      45.521  45.916  34.451  1.00  0.00    -0.083 Cl
BRANCH   8  14
ATOM     14  C   UNL A   1      43.412  41.300  31.352  1.00  0.00     0.134 A 
ATOM     15  C   UNL A   1      42.558  40.365  29.529  1.00  0.00     0.128 A 
ATOM     16  C   UNL A   1      43.470  39.472  30.080  1.00  0.00     0.051 A 
ATOM     17  O   UNL A   1      42.549  41.493  30.312  1.00  0.00    -0.457 OA
ATOM     18  C   UNL A   1      43.991  40.055  31.252  1.00  0.00     0.051 A 
BRANCH  15  19
ATOM     19  C   UNL A   1      41.766  40.210  28.362  1.00  0.00     0.068 C 
ATOM     20  N   UNL A   1      43.465  41.870  25.596  1.00  0.00    -0.261 N 
ATOM     21  C   UNL A   1      43.495  41.269  26.850  1.00  0.00     0.270 C 
ATOM     22  C   UNL A   1      42.310  41.688  24.853  1.00  0.00     0.152 C 
ATOM     23  O   UNL A   1      44.455  41.219  27.610  1.00  0.00    -0.268 OA
ATOM     24  C   UNL A   1      42.167  40.675  27.171  1.00  0.00     0.084 C 
ATOM     25  S   UNL A   1      41.152  40.728  25.783  1.00  0.00    -0.054 SA
ATOM     26  S   UNL A   1      41.966  42.143  23.280  1.00  0.00    -0.051 S 
BRANCH  20  27
ATOM     27  C   UNL A   1      44.609  42.604  25.166  1.00  0.00     0.051 A 
ATOM     28  C   UNL A   1      46.760  44.123  24.167  1.00  0.00     0.119 A 
ATOM     29  C   UNL A   1      45.777  44.725  24.949  1.00  0.00     0.048 A 
ATOM     30  C   UNL A   1      46.680  42.757  23.898  1.00  0.00     0.048 A 
ATOM     31  C   UNL A   1      44.701  43.978  25.428  1.00  0.00     0.030 A 
ATOM     32  C   UNL A   1      45.612  42.000  24.400  1.00  0.00     0.030 A 
BRANCH  28  33
ATOM     33  O   UNL A   1      47.762  44.955  23.753  1.00  0.00    -0.497 OA
ATOM     34  C   UNL A   1      48.557  44.472  22.676  1.00  0.00     0.278 C 
ENDBRANCH  28  33
ENDBRANCH  20  27
ENDBRANCH  15  19
ENDBRANCH   8  14
ENDBRANCH   4   7
ENDBRANCH   2   3
ENDBRANCH   1   2
BRANCH   1  35
ATOM     35  C   UNL A   1      49.231  40.006  33.444  1.00  0.00     0.023 C 
BRANCH  35  36
ATOM     36  C   UNL A   1      50.033  38.925  34.159  1.00  0.00     0.116 C 
BRANCH  36  37
ATOM     37  N   UNL A   1      50.066  39.072  35.605  1.00  0.00    -0.352 N 
ATOM     38  C   UNL A   1      49.095  38.788  36.539  1.00  0.00     0.251 C 
ATOM     39  H   UNL A   1      50.908  39.425  35.971  1.00  0.00     0.163 HD
ATOM     40  O   UNL A   1      49.299  39.067  37.718  1.00  0.00    -0.269 OA
BRANCH  38  41
ATOM     41  C   UNL A   1      47.801  38.195  36.124  1.00  0.00     0.039 A 
ATOM     42  C   UNL A   1      46.715  39.042  35.888  1.00  0.00     0.014 A 
ATOM     43  C   UNL A   1      47.652  36.816  35.964  1.00  0.00     0.014 A 
ATOM     44  C   UNL A   1      45.503  38.512  35.435  1.00  0.00     0.010 A 
ATOM     45  C   UNL A   1      46.478  36.300  35.422  1.00  0.00     0.010 A 
ATOM     46  C   UNL A   1      45.382  37.138  35.169  1.00  0.00    -0.014 A 
BRANCH  46  47
ATOM     47  C   UNL A   1      44.103  36.562  34.671  1.00  0.00     0.031 A 
ATOM     48  C   UNL A   1      43.001  36.228  35.644  1.00  0.00     0.074 A 
ATOM     49  C   UNL A   1      43.953  36.285  33.361  1.00  0.00     0.049 A 
ATOM     50  N   UNL A   1      41.829  35.691  35.420  1.00  0.00    -0.248 NA
ATOM     51  C   UNL A   1      43.273  36.497  37.063  1.00  0.00     0.031 C 
ATOM     52  C   UNL A   1      44.972  36.494  32.332  1.00  0.00     0.029 A 
ATOM     53  N   UNL A   1      42.888  35.764  32.671  1.00  0.00    -0.354 N 
ATOM     54  C   UNL A   1      41.236  35.538  36.669  1.00  0.00     0.074 A 
ATOM     55  C   UNL A   1      42.213  35.965  37.647  1.00  0.00     0.031 C 
ATOM     56  C   UNL A   1      44.473  36.131  31.139  1.00  0.00     0.029 A 
ATOM     57  C   UNL A   1      43.114  35.633  31.320  1.00  0.00     0.049 A 
ATOM     58  H   UNL A   1      42.041  35.506  33.102  1.00  0.00     0.167 HD
ATOM     59  C   UNL A   1      39.984  35.110  36.973  1.00  0.00     0.034 A 
ATOM     60  C   UNL A   1      42.315  35.168  30.339  1.00  0.00     0.034 A 
ATOM     61  C   UNL A   1      39.019  34.706  35.980  1.00  0.00     0.049 A 
ATOM     62  C   UNL A   1      40.917  34.729  30.688  1.00  0.00     0.074 A 
ATOM     63  C   UNL A   1      37.701  34.321  36.161  1.00  0.00     0.029 A 
ATOM     64  N   UNL A   1      39.269  34.626  34.614  1.00  0.00    -0.354 N 
ATOM     65  N   UNL A   1      40.340  34.662  31.866  1.00  0.00    -0.248 NA
ATOM     66  C   UNL A   1      40.053  34.329  29.571  1.00  0.00     0.031 C 
ATOM     67  C   UNL A   1      37.179  33.944  34.918  1.00  0.00     0.029 A 
ATOM     68  C   UNL A   1      38.141  34.173  33.946  1.00  0.00     0.049 A 
ATOM     69  H   UNL A   1      40.123  34.858  34.184  1.00  0.00     0.167 HD
ATOM     70  C   UNL A   1      39.034  34.242  31.628  1.00  0.00     0.074 A 
ATOM     71  C   UNL A   1      38.907  34.089  30.192  1.00  0.00     0.031 C 
ATOM     72  C   UNL A   1      38.029  34.010  32.513  1.00  0.00     0.034 A 
BRANCH  59  73
ATOM     73  C   UNL A   1      39.615  35.039  38.439  1.00  0.00     0.023 A 
ATOM     74  C   UNL A   1      39.510  33.810  39.119  1.00  0.00     0.031 A 
ATOM     75  C   UNL A   1      39.298  36.207  39.154  1.00  0.00     0.131 A 
ATOM     76  C   UNL A   1      38.997  33.769  40.424  1.00  0.00     0.055 A 
ATOM     77  C   UNL A   1      38.883  36.167  40.488  1.00  0.00     0.041 A 
ATOM     78  F   UNL A   1      39.358  37.410  38.562  1.00  0.00    -0.206 F 
ATOM     79  C   UNL A   1      38.708  34.941  41.124  1.00  0.00     0.022 A 
BRANCH  76  80
ATOM     80  S   UNL A   1      38.533  32.158  41.118  1.00  0.00     0.124 S 
ATOM     81  O   UNL A   1      37.852  31.534  39.986  1.00  0.00    -0.237 OA
ATOM     82  O   UNL A   1      39.823  31.586  41.482  1.00  0.00    -0.237 OA
ATOM     83  O   UNL A   1      37.664  32.505  42.242  1.00  0.00    -0.744 OA
ENDBRANCH  76  80
ENDBRANCH  59  73
BRANCH  60  84
ATOM     84  C   UNL A   1      42.813  35.106  28.936  1.00  0.00     0.023 A 
ATOM     85  C   UNL A   1      43.581  34.021  28.481  1.00  0.00     0.031 A 
ATOM     86  C   UNL A   1      42.534  36.142  28.028  1.00  0.00     0.131 A 
ATOM     87  C   UNL A   1      44.076  34.015  27.167  1.00  0.00     0.055 A 
ATOM     88  C   UNL A   1      42.989  36.110  26.708  1.00  0.00     0.041 A 
ATOM     89  F   UNL A   1      41.795  37.196  28.407  1.00  0.00    -0.206 F 
ATOM     90  C   UNL A   1      43.774  35.046  26.275  1.00  0.00     0.022 A 
BRANCH  87  91
ATOM     91  S   UNL A   1      45.169  32.662  26.653  1.00  0.00     0.124 S 
ATOM     92  O   UNL A   1      44.212  31.676  26.164  1.00  0.00    -0.237 OA
ATOM     93  O   UNL A   1      45.998  33.308  25.642  1.00  0.00    -0.237 OA
ATOM     94  O   UNL A   1      45.865  32.300  27.886  1.00  0.00    -0.744 OA
ENDBRANCH  87  91
ENDBRANCH  60  84
BRANCH  72  95
ATOM     95  C   UNL A   1      36.690  33.612  31.939  1.00  0.00     0.023 A 
ATOM     96  C   UNL A   1      35.683  34.557  31.675  1.00  0.00     0.031 A 
ATOM     97  C   UNL A   1      36.408  32.259  31.680  1.00  0.00     0.131 A 
ATOM     98  C   UNL A   1      34.420  34.130  31.239  1.00  0.00     0.055 A 
ATOM     99  C   UNL A   1      35.172  31.847  31.178  1.00  0.00     0.041 A 
ATOM    100  F   UNL A   1      37.328  31.310  31.915  1.00  0.00    -0.206 F 
ATOM    101  C   UNL A   1      34.164  32.783  30.972  1.00  0.00     0.022 A 
BRANCH  98 102
ATOM    102  S   UNL A   1      33.075  35.344  31.145  1.00  0.00     0.124 S 
ATOM    103  O   UNL A   1      33.787  36.602  31.339  1.00  0.00    -0.237 OA
ATOM    104  O   UNL A   1      32.540  35.113  29.807  1.00  0.00    -0.237 OA
ATOM    105  O   UNL A   1      32.188  34.959  32.242  1.00  0.00    -0.744 OA
ENDBRANCH  98 102
ENDBRANCH  72  95
ENDBRANCH  46  47
ENDBRANCH  38  41
ENDBRANCH  36  37
ENDBRANCH  35  36
ENDBRANCH   1  35
TORSDOF 18
ENDMDL
