MODEL 1
REMARK VINA RESULT:     -12.3      0.000      0.000
REMARK SMILES Cc1cc(C)c2c(C(=O)NCCCCNC(=O)c3ccc(-c4c5nc(c(-c6cc(S(=O)(=O)[O-])ccc6F)c6ccc([nH]6)c(-c6cc(S(=O)(=O)[O-])ccc6F)c6nc(c(-c7cc(S(=O)(=O)[O-])ccc7F)c7ccc4[nH]7)C=C6)C=C5)cc3)cc(-c3ccco3)nc2c1
REMARK SMILES IDX 13 1 12 2 11 3 10 4 8 5 9 6 7 8 1 9 2 10 3 11 90 12 4 13
REMARK SMILES IDX 89 14 5 15 6 16 88 17 82 18 81 19 83 20 84 21 87 22 85 23
REMARK SMILES IDX 86 24 14 25 15 26 16 27 17 29 18 30 19 31 80 32 20 33 79 34
REMARK SMILES IDX 21 35 22 36 23 37 73 38 24 39 78 40 72 41 74 42 25 43 77 44
REMARK SMILES IDX 71 45 70 46 26 48 58 49 38 50 57 51 39 52 42 53 56 54 75 55
REMARK SMILES IDX 40 56 41 57 55 59 76 60 43 61 27 62 28 63 36 64 29 65 35 66
REMARK SMILES IDX 37 67 34 68 30 69 31 70 32 71 33 72 59 73 60 74 68 75 61 76
REMARK SMILES IDX 67 77 69 78 66 79 62 80 63 81 64 82 65 83 44 84 45 85 53 86
REMARK SMILES IDX 46 87 52 88 54 89 51 90 47 91 48 92 49 93 50 94
REMARK H PARENT 10 7 15 28 74 47 42 58
REMARK Flexibility Score: inf
ROOT
ATOM      1  C   UNL A   1      31.081  32.069  26.276  1.00  0.00     0.023 C 
ENDROOT
BRANCH   1   2
ATOM      2  C   UNL A   1      30.998  30.732  25.529  1.00  0.00     0.023 C 
BRANCH   2   3
ATOM      3  C   UNL A   1      32.155  29.760  25.744  1.00  0.00     0.116 C 
BRANCH   3   4
ATOM      4  N   UNL A   1      33.111  29.681  24.651  1.00  0.00    -0.352 N 
ATOM      5  C   UNL A   1      33.162  28.813  23.579  1.00  0.00     0.252 C 
ATOM      6  O   UNL A   1      34.048  28.949  22.738  1.00  0.00    -0.269 OA
ATOM      7  H   UNL A   1      33.834  30.349  24.680  1.00  0.00     0.163 HD
BRANCH   5   8
ATOM      8  C   UNL A   1      32.243  27.649  23.462  1.00  0.00     0.051 A 
ATOM      9  C   UNL A   1      26.599  28.052  23.781  1.00  0.00     0.044 C 
ATOM     10  C   UNL A   1      28.046  27.889  23.426  1.00  0.00    -0.049 A 
ATOM     11  C   UNL A   1      28.740  28.901  22.773  1.00  0.00     0.007 A 
ATOM     12  C   UNL A   1      28.739  26.727  23.778  1.00  0.00     0.032 A 
ATOM     13  C   UNL A   1      30.131  28.817  22.609  1.00  0.00    -0.041 A 
ATOM     14  C   UNL A   1      30.113  26.612  23.628  1.00  0.00     0.072 A 
ATOM     15  C   UNL A   1      30.772  29.807  21.667  1.00  0.00     0.045 C 
ATOM     16  C   UNL A   1      30.849  27.737  23.212  1.00  0.00     0.016 A 
ATOM     17  N   UNL A   1      30.675  25.425  23.910  1.00  0.00    -0.244 NA
ATOM     18  C   UNL A   1      32.019  25.318  23.858  1.00  0.00     0.107 A 
ATOM     19  C   UNL A   1      32.840  26.414  23.732  1.00  0.00     0.046 A 
BRANCH  18  20
ATOM     20  C   UNL A   1      32.548  23.969  23.920  1.00  0.00     0.152 A 
ATOM     21  C   UNL A   1      33.805  23.419  24.080  1.00  0.00     0.052 A 
ATOM     22  O   UNL A   1      31.639  22.971  23.692  1.00  0.00    -0.463 OA
ATOM     23  C   UNL A   1      33.653  22.016  23.944  1.00  0.00     0.043 A 
ATOM     24  C   UNL A   1      32.319  21.796  23.699  1.00  0.00     0.196 A 
ENDBRANCH  18  20
ENDBRANCH   5   8
ENDBRANCH   3   4
ENDBRANCH   2   3
ENDBRANCH   1   2
BRANCH   1  25
ATOM     25  C   UNL A   1      32.396  32.377  26.992  1.00  0.00     0.116 C 
BRANCH  25  26
ATOM     26  N   UNL A   1      32.502  33.753  27.454  1.00  0.00    -0.352 N 
ATOM     27  C   UNL A   1      33.436  34.335  28.284  1.00  0.00     0.251 C 
ATOM     28  H   UNL A   1      31.802  34.360  27.122  1.00  0.00     0.163 HD
ATOM     29  O   UNL A   1      33.305  35.503  28.629  1.00  0.00    -0.269 OA
BRANCH  27  30
ATOM     30  C   UNL A   1      34.574  33.536  28.788  1.00  0.00     0.039 A 
ATOM     31  C   UNL A   1      35.869  33.891  28.399  1.00  0.00     0.014 A 
ATOM     32  C   UNL A   1      34.370  32.458  29.652  1.00  0.00     0.014 A 
ATOM     33  C   UNL A   1      36.965  33.222  28.951  1.00  0.00     0.010 A 
ATOM     34  C   UNL A   1      35.464  31.831  30.246  1.00  0.00     0.010 A 
ATOM     35  C   UNL A   1      36.772  32.215  29.909  1.00  0.00    -0.014 A 
BRANCH  35  36
ATOM     36  C   UNL A   1      37.924  31.568  30.589  1.00  0.00     0.031 A 
ATOM     37  C   UNL A   1      38.705  30.488  29.897  1.00  0.00     0.074 A 
ATOM     38  C   UNL A   1      38.224  31.908  31.859  1.00  0.00     0.049 A 
ATOM     39  N   UNL A   1      39.708  29.782  30.346  1.00  0.00    -0.248 NA
ATOM     40  C   UNL A   1      38.290  30.143  28.528  1.00  0.00     0.031 C 
ATOM     41  C   UNL A   1      37.507  32.906  32.654  1.00  0.00     0.029 A 
ATOM     42  N   UNL A   1      39.197  31.442  32.709  1.00  0.00    -0.354 N 
ATOM     43  C   UNL A   1      40.043  28.906  29.321  1.00  0.00     0.074 A 
ATOM     44  C   UNL A   1      39.102  29.133  28.248  1.00  0.00     0.031 C 
ATOM     45  C   UNL A   1      38.073  32.988  33.870  1.00  0.00     0.029 A 
ATOM     46  C   UNL A   1      39.173  32.029  33.953  1.00  0.00     0.049 A 
ATOM     47  H   UNL A   1      39.852  30.754  32.452  1.00  0.00     0.167 HD
ATOM     48  C   UNL A   1      41.060  28.013  29.271  1.00  0.00     0.034 A 
ATOM     49  C   UNL A   1      39.945  31.821  35.039  1.00  0.00     0.034 A 
ATOM     50  C   UNL A   1      42.005  27.808  30.336  1.00  0.00     0.049 A 
ATOM     51  C   UNL A   1      41.071  30.821  34.961  1.00  0.00     0.074 A 
ATOM     52  C   UNL A   1      43.108  26.972  30.348  1.00  0.00     0.029 A 
ATOM     53  N   UNL A   1      41.967  28.439  31.569  1.00  0.00    -0.354 N 
ATOM     54  N   UNL A   1      41.437  30.073  33.946  1.00  0.00    -0.248 NA
ATOM     55  C   UNL A   1      41.897  30.641  36.163  1.00  0.00     0.031 C 
ATOM     56  C   UNL A   1      43.711  27.065  31.605  1.00  0.00     0.029 A 
ATOM     57  C   UNL A   1      43.013  27.996  32.359  1.00  0.00     0.049 A 
ATOM     58  H   UNL A   1      41.294  29.104  31.843  1.00  0.00     0.167 HD
ATOM     59  C   UNL A   1      42.545  29.353  34.381  1.00  0.00     0.074 A 
ATOM     60  C   UNL A   1      42.803  29.768  35.744  1.00  0.00     0.031 C 
ATOM     61  C   UNL A   1      43.278  28.428  33.710  1.00  0.00     0.034 A 
BRANCH  48  62
ATOM     62  C   UNL A   1      41.237  27.209  28.011  1.00  0.00     0.023 A 
ATOM     63  C   UNL A   1      40.931  25.837  27.996  1.00  0.00     0.031 A 
ATOM     64  C   UNL A   1      41.805  27.781  26.858  1.00  0.00     0.131 A 
ATOM     65  C   UNL A   1      41.214  25.076  26.855  1.00  0.00     0.055 A 
ATOM     66  C   UNL A   1      42.053  27.026  25.713  1.00  0.00     0.041 A 
ATOM     67  F   UNL A   1      42.110  29.089  26.827  1.00  0.00    -0.206 F 
ATOM     68  C   UNL A   1      41.766  25.665  25.712  1.00  0.00     0.022 A 
BRANCH  65  69
ATOM     69  S   UNL A   1      40.902  23.290  26.816  1.00  0.00     0.124 S 
ATOM     70  O   UNL A   1      39.484  23.239  26.468  1.00  0.00    -0.237 OA
ATOM     71  O   UNL A   1      41.818  22.844  25.772  1.00  0.00    -0.237 OA
ATOM     72  O   UNL A   1      41.221  22.851  28.170  1.00  0.00    -0.744 OA
ENDBRANCH  65  69
ENDBRANCH  48  62
BRANCH  49  73
ATOM     73  C   UNL A   1      39.710  32.632  36.268  1.00  0.00     0.023 A 
ATOM     74  C   UNL A   1      38.831  32.195  37.273  1.00  0.00     0.031 A 
ATOM     75  C   UNL A   1      40.296  33.902  36.404  1.00  0.00     0.131 A 
ATOM     76  C   UNL A   1      38.526  33.043  38.347  1.00  0.00     0.055 A 
ATOM     77  C   UNL A   1      40.035  34.719  37.504  1.00  0.00     0.041 A 
ATOM     78  F   UNL A   1      41.132  34.365  35.462  1.00  0.00    -0.206 F 
ATOM     79  C   UNL A   1      39.135  34.295  38.478  1.00  0.00     0.022 A 
BRANCH  76  80
ATOM     80  S   UNL A   1      37.262  32.586  39.566  1.00  0.00     0.124 S 
ATOM     81  O   UNL A   1      37.370  33.665  40.542  1.00  0.00    -0.237 OA
ATOM     82  O   UNL A   1      36.050  32.594  38.749  1.00  0.00    -0.237 OA
ATOM     83  O   UNL A   1      37.690  31.271  40.030  1.00  0.00    -0.744 OA
ENDBRANCH  76  80
ENDBRANCH  49  73
BRANCH  61  84
ATOM     84  C   UNL A   1      44.445  27.784  34.413  1.00  0.00     0.023 A 
ATOM     85  C   UNL A   1      44.256  26.604  35.156  1.00  0.00     0.031 A 
ATOM     86  C   UNL A   1      45.696  28.421  34.478  1.00  0.00     0.131 A 
ATOM     87  C   UNL A   1      45.290  26.119  35.967  1.00  0.00     0.055 A 
ATOM     88  C   UNL A   1      46.737  27.910  35.256  1.00  0.00     0.041 A 
ATOM     89  F   UNL A   1      45.920  29.553  33.793  1.00  0.00    -0.206 F 
ATOM     90  C   UNL A   1      46.531  26.762  36.015  1.00  0.00     0.022 A 
BRANCH  87  91
ATOM     91  S   UNL A   1      45.040  24.678  37.041  1.00  0.00     0.124 S 
ATOM     92  O   UNL A   1      44.374  23.740  36.141  1.00  0.00    -0.237 OA
ATOM     93  O   UNL A   1      46.410  24.328  37.406  1.00  0.00    -0.237 OA
ATOM     94  O   UNL A   1      44.211  25.188  38.128  1.00  0.00    -0.744 OA
ENDBRANCH  87  91
ENDBRANCH  61  84
ENDBRANCH  35  36
ENDBRANCH  27  30
ENDBRANCH  25  26
ENDBRANCH   1  25
TORSDOF 15
ENDMDL
MODEL 2
REMARK VINA RESULT:     -12.3      1.674      7.748
REMARK SMILES Cc1cc(C)c2c(C(=O)NCCCCNC(=O)c3ccc(-c4c5nc(c(-c6cc(S(=O)(=O)[O-])ccc6F)c6ccc([nH]6)c(-c6cc(S(=O)(=O)[O-])ccc6F)c6nc(c(-c7cc(S(=O)(=O)[O-])ccc7F)c7ccc4[nH]7)C=C6)C=C5)cc3)cc(-c3ccco3)nc2c1
REMARK SMILES IDX 13 1 12 2 11 3 10 4 8 5 9 6 7 8 1 9 2 10 3 11 90 12 4 13
REMARK SMILES IDX 89 14 5 15 6 16 88 17 82 18 81 19 83 20 84 21 87 22 85 23
REMARK SMILES IDX 86 24 14 25 15 26 16 27 17 29 18 30 19 31 80 32 20 33 79 34
REMARK SMILES IDX 21 35 22 36 23 37 73 38 24 39 78 40 72 41 74 42 25 43 77 44
REMARK SMILES IDX 71 45 70 46 26 48 58 49 38 50 57 51 39 52 42 53 56 54 75 55
REMARK SMILES IDX 40 56 41 57 55 59 76 60 43 61 27 62 28 63 36 64 29 65 35 66
REMARK SMILES IDX 37 67 34 68 30 69 31 70 32 71 33 72 59 73 60 74 68 75 61 76
REMARK SMILES IDX 67 77 69 78 66 79 62 80 63 81 64 82 65 83 44 84 45 85 53 86
REMARK SMILES IDX 46 87 52 88 54 89 51 90 47 91 48 92 49 93 50 94
REMARK H PARENT 10 7 15 28 74 47 42 58
REMARK Flexibility Score: inf
ROOT
ATOM      1  C   UNL A   1      31.792  32.045  26.909  1.00  0.00     0.023 C 
ENDROOT
BRANCH   1   2
ATOM      2  C   UNL A   1      32.032  30.531  26.935  1.00  0.00     0.023 C 
BRANCH   2   3
ATOM      3  C   UNL A   1      31.640  29.760  25.678  1.00  0.00     0.116 C 
BRANCH   3   4
ATOM      4  N   UNL A   1      32.649  29.723  24.632  1.00  0.00    -0.352 N 
ATOM      5  C   UNL A   1      32.787  28.862  23.563  1.00  0.00     0.252 C 
ATOM      6  O   UNL A   1      33.707  29.036  22.765  1.00  0.00    -0.269 OA
ATOM      7  H   UNL A   1      33.342  30.420  24.697  1.00  0.00     0.163 HD
BRANCH   5   8
ATOM      8  C   UNL A   1      31.923  27.663  23.399  1.00  0.00     0.051 A 
ATOM      9  C   UNL A   1      26.284  27.747  23.960  1.00  0.00     0.044 C 
ATOM     10  C   UNL A   1      27.721  27.684  23.540  1.00  0.00    -0.049 A 
ATOM     11  C   UNL A   1      28.337  28.774  22.933  1.00  0.00     0.007 A 
ATOM     12  C   UNL A   1      28.485  26.539  23.782  1.00  0.00     0.032 A 
ATOM     13  C   UNL A   1      29.722  28.773  22.712  1.00  0.00    -0.041 A 
ATOM     14  C   UNL A   1      29.856  26.506  23.573  1.00  0.00     0.072 A 
ATOM     15  C   UNL A   1      30.273  29.858  21.817  1.00  0.00     0.045 C 
ATOM     16  C   UNL A   1      30.517  27.694  23.209  1.00  0.00     0.016 A 
ATOM     17  N   UNL A   1      30.487  25.334  23.749  1.00  0.00    -0.244 NA
ATOM     18  C   UNL A   1      31.832  25.301  23.639  1.00  0.00     0.107 A 
ATOM     19  C   UNL A   1      32.592  26.445  23.558  1.00  0.00     0.046 A 
BRANCH  18  20
ATOM     20  C   UNL A   1      32.429  23.980  23.586  1.00  0.00     0.152 A 
ATOM     21  C   UNL A   1      31.955  22.688  23.694  1.00  0.00     0.052 A 
ATOM     22  O   UNL A   1      33.794  23.958  23.485  1.00  0.00    -0.463 OA
ATOM     23  C   UNL A   1      33.088  21.836  23.655  1.00  0.00     0.043 A 
ATOM     24  C   UNL A   1      34.182  22.658  23.537  1.00  0.00     0.196 A 
ENDBRANCH  18  20
ENDBRANCH   5   8
ENDBRANCH   3   4
ENDBRANCH   2   3
ENDBRANCH   1   2
BRANCH   1  25
ATOM     25  C   UNL A   1      32.974  32.938  27.287  1.00  0.00     0.116 C 
BRANCH  25  26
ATOM     26  N   UNL A   1      32.583  34.249  27.783  1.00  0.00    -0.352 N 
ATOM     27  C   UNL A   1      33.092  34.982  28.832  1.00  0.00     0.251 C 
ATOM     28  H   UNL A   1      31.844  34.677  27.294  1.00  0.00     0.163 HD
ATOM     29  O   UNL A   1      32.566  36.041  29.152  1.00  0.00    -0.269 OA
BRANCH  27  30
ATOM     30  C   UNL A   1      34.250  34.469  29.597  1.00  0.00     0.039 A 
ATOM     31  C   UNL A   1      34.014  33.735  30.763  1.00  0.00     0.014 A 
ATOM     32  C   UNL A   1      35.557  34.695  29.160  1.00  0.00     0.014 A 
ATOM     33  C   UNL A   1      35.087  33.147  31.439  1.00  0.00     0.010 A 
ATOM     34  C   UNL A   1      36.620  34.060  29.802  1.00  0.00     0.010 A 
ATOM     35  C   UNL A   1      36.393  33.271  30.941  1.00  0.00    -0.014 A 
BRANCH  35  36
ATOM     36  C   UNL A   1      37.531  32.563  31.581  1.00  0.00     0.031 A 
ATOM     37  C   UNL A   1      38.070  33.031  32.902  1.00  0.00     0.074 A 
ATOM     38  C   UNL A   1      38.125  31.538  30.937  1.00  0.00     0.049 A 
ATOM     39  N   UNL A   1      39.080  32.569  33.590  1.00  0.00    -0.248 NA
ATOM     40  C   UNL A   1      37.396  34.183  33.523  1.00  0.00     0.031 C 
ATOM     41  C   UNL A   1      37.726  31.024  29.626  1.00  0.00     0.029 A 
ATOM     42  N   UNL A   1      39.199  30.755  31.288  1.00  0.00    -0.354 N 
ATOM     43  C   UNL A   1      39.169  33.373  34.719  1.00  0.00     0.074 A 
ATOM     44  C   UNL A   1      38.144  34.385  34.599  1.00  0.00     0.031 C 
ATOM     45  C   UNL A   1      38.533  30.004  29.290  1.00  0.00     0.029 A 
ATOM     46  C   UNL A   1      39.526  29.809  30.345  1.00  0.00     0.049 A 
ATOM     47  H   UNL A   1      39.687  30.861  32.136  1.00  0.00     0.167 HD
ATOM     48  C   UNL A   1      40.012  33.260  35.773  1.00  0.00     0.034 A 
ATOM     49  C   UNL A   1      40.512  28.889  30.327  1.00  0.00     0.034 A 
ATOM     50  C   UNL A   1      41.017  32.237  35.895  1.00  0.00     0.049 A 
ATOM     51  C   UNL A   1      41.439  28.781  31.511  1.00  0.00     0.074 A 
ATOM     52  C   UNL A   1      41.873  32.005  36.957  1.00  0.00     0.029 A 
ATOM     53  N   UNL A   1      41.301  31.280  34.934  1.00  0.00    -0.354 N 
ATOM     54  N   UNL A   1      41.444  29.487  32.618  1.00  0.00    -0.248 NA
ATOM     55  C   UNL A   1      42.487  27.752  31.454  1.00  0.00     0.031 C 
ATOM     56  C   UNL A   1      42.704  30.933  36.621  1.00  0.00     0.029 A 
ATOM     57  C   UNL A   1      42.334  30.467  35.369  1.00  0.00     0.049 A 
ATOM     58  H   UNL A   1      40.838  31.191  34.070  1.00  0.00     0.167 HD
ATOM     59  C   UNL A   1      42.477  28.971  33.395  1.00  0.00     0.074 A 
ATOM     60  C   UNL A   1      43.063  27.883  32.642  1.00  0.00     0.031 C 
ATOM     61  C   UNL A   1      42.901  29.370  34.622  1.00  0.00     0.034 A 
BRANCH  48  62
ATOM     62  C   UNL A   1      39.869  34.242  36.905  1.00  0.00     0.023 A 
ATOM     63  C   UNL A   1      39.295  33.842  38.124  1.00  0.00     0.031 A 
ATOM     64  C   UNL A   1      40.208  35.597  36.736  1.00  0.00     0.131 A 
ATOM     65  C   UNL A   1      39.058  34.793  39.123  1.00  0.00     0.055 A 
ATOM     66  C   UNL A   1      40.000  36.534  37.747  1.00  0.00     0.041 A 
ATOM     67  F   UNL A   1      40.761  36.023  35.589  1.00  0.00    -0.206 F 
ATOM     68  C   UNL A   1      39.414  36.135  38.945  1.00  0.00     0.022 A 
BRANCH  65  69
ATOM     69  S   UNL A   1      38.255  34.335  40.684  1.00  0.00     0.124 S 
ATOM     70  O   UNL A   1      37.903  35.642  41.236  1.00  0.00    -0.237 OA
ATOM     71  O   UNL A   1      37.131  33.529  40.221  1.00  0.00    -0.237 OA
ATOM     72  O   UNL A   1      39.294  33.616  41.413  1.00  0.00    -0.744 OA
ENDBRANCH  65  69
ENDBRANCH  48  62
BRANCH  49  73
ATOM     73  C   UNL A   1      40.618  27.956  29.168  1.00  0.00     0.023 A 
ATOM     74  C   UNL A   1      41.532  28.189  28.126  1.00  0.00     0.031 A 
ATOM     75  C   UNL A   1      39.738  26.867  29.049  1.00  0.00     0.131 A 
ATOM     76  C   UNL A   1      41.511  27.372  26.988  1.00  0.00     0.055 A 
ATOM     77  C   UNL A   1      39.759  26.022  27.940  1.00  0.00     0.041 A 
ATOM     78  F   UNL A   1      38.841  26.615  30.014  1.00  0.00    -0.206 F 
ATOM     79  C   UNL A   1      40.642  26.280  26.896  1.00  0.00     0.022 A 
BRANCH  76  80
ATOM     80  S   UNL A   1      42.549  27.751  25.549  1.00  0.00     0.124 S 
ATOM     81  O   UNL A   1      41.928  28.966  25.032  1.00  0.00    -0.237 OA
ATOM     82  O   UNL A   1      43.859  27.928  26.172  1.00  0.00    -0.237 OA
ATOM     83  O   UNL A   1      42.416  26.567  24.708  1.00  0.00    -0.744 OA
ENDBRANCH  76  80
ENDBRANCH  49  73
BRANCH  61  84
ATOM     84  C   UNL A   1      44.055  28.640  35.259  1.00  0.00     0.023 A 
ATOM     85  C   UNL A   1      43.811  27.627  36.205  1.00  0.00     0.031 A 
ATOM     86  C   UNL A   1      45.382  29.055  35.050  1.00  0.00     0.131 A 
ATOM     87  C   UNL A   1      44.877  27.091  36.939  1.00  0.00     0.055 A 
ATOM     88  C   UNL A   1      46.444  28.488  35.755  1.00  0.00     0.041 A 
ATOM     89  F   UNL A   1      45.661  30.024  34.164  1.00  0.00    -0.206 F 
ATOM     90  C   UNL A   1      46.192  27.511  36.715  1.00  0.00     0.022 A 
BRANCH  87  91
ATOM     91  S   UNL A   1      44.588  25.880  38.259  1.00  0.00     0.124 S 
ATOM     92  O   UNL A   1      45.845  25.934  39.002  1.00  0.00    -0.237 OA
ATOM     93  O   UNL A   1      43.432  26.449  38.947  1.00  0.00    -0.237 OA
ATOM     94  O   UNL A   1      44.343  24.632  37.546  1.00  0.00    -0.744 OA
ENDBRANCH  87  91
ENDBRANCH  61  84
ENDBRANCH  35  36
ENDBRANCH  27  30
ENDBRANCH  25  26
ENDBRANCH   1  25
TORSDOF 15
ENDMDL
MODEL 3
REMARK VINA RESULT:     -12.2      0.489      7.483
REMARK SMILES Cc1cc(C)c2c(C(=O)NCCCCNC(=O)c3ccc(-c4c5nc(c(-c6cc(S(=O)(=O)[O-])ccc6F)c6ccc([nH]6)c(-c6cc(S(=O)(=O)[O-])ccc6F)c6nc(c(-c7cc(S(=O)(=O)[O-])ccc7F)c7ccc4[nH]7)C=C6)C=C5)cc3)cc(-c3ccco3)nc2c1
REMARK SMILES IDX 13 1 12 2 11 3 10 4 8 5 9 6 7 8 1 9 2 10 3 11 90 12 4 13
REMARK SMILES IDX 89 14 5 15 6 16 88 17 82 18 81 19 83 20 84 21 87 22 85 23
REMARK SMILES IDX 86 24 14 25 15 26 16 27 17 29 18 30 19 31 80 32 20 33 79 34
REMARK SMILES IDX 21 35 22 36 23 37 73 38 24 39 78 40 72 41 74 42 25 43 77 44
REMARK SMILES IDX 71 45 70 46 26 48 58 49 38 50 57 51 39 52 42 53 56 54 75 55
REMARK SMILES IDX 40 56 41 57 55 59 76 60 43 61 27 62 28 63 36 64 29 65 35 66
REMARK SMILES IDX 37 67 34 68 30 69 31 70 32 71 33 72 59 73 60 74 68 75 61 76
REMARK SMILES IDX 67 77 69 78 66 79 62 80 63 81 64 82 65 83 44 84 45 85 53 86
REMARK SMILES IDX 46 87 52 88 54 89 51 90 47 91 48 92 49 93 50 94
REMARK H PARENT 10 7 15 28 74 47 42 58
REMARK Flexibility Score: inf
ROOT
ATOM      1  C   UNL A   1      31.104  32.053  26.229  1.00  0.00     0.023 C 
ENDROOT
BRANCH   1   2
ATOM      2  C   UNL A   1      31.018  30.708  25.500  1.00  0.00     0.023 C 
BRANCH   2   3
ATOM      3  C   UNL A   1      32.176  29.739  25.722  1.00  0.00     0.116 C 
BRANCH   3   4
ATOM      4  N   UNL A   1      33.120  29.636  24.621  1.00  0.00    -0.352 N 
ATOM      5  C   UNL A   1      33.152  28.757  23.559  1.00  0.00     0.252 C 
ATOM      6  O   UNL A   1      34.032  28.873  22.708  1.00  0.00    -0.269 OA
ATOM      7  H   UNL A   1      33.851  30.296  24.637  1.00  0.00     0.163 HD
BRANCH   5   8
ATOM      8  C   UNL A   1      32.219  27.603  23.463  1.00  0.00     0.051 A 
ATOM      9  C   UNL A   1      26.581  28.078  23.804  1.00  0.00     0.044 C 
ATOM     10  C   UNL A   1      28.024  27.892  23.444  1.00  0.00    -0.049 A 
ATOM     11  C   UNL A   1      28.727  28.887  22.773  1.00  0.00     0.007 A 
ATOM     12  C   UNL A   1      28.705  26.727  23.808  1.00  0.00     0.032 A 
ATOM     13  C   UNL A   1      30.116  28.784  22.604  1.00  0.00    -0.041 A 
ATOM     14  C   UNL A   1      30.077  26.594  23.653  1.00  0.00     0.072 A 
ATOM     15  C   UNL A   1      30.764  29.753  21.645  1.00  0.00     0.045 C 
ATOM     16  C   UNL A   1      30.824  27.704  23.218  1.00  0.00     0.016 A 
ATOM     17  N   UNL A   1      30.626  25.404  23.949  1.00  0.00    -0.244 NA
ATOM     18  C   UNL A   1      31.969  25.280  23.892  1.00  0.00     0.107 A 
ATOM     19  C   UNL A   1      32.802  26.364  23.746  1.00  0.00     0.046 A 
BRANCH  18  20
ATOM     20  C   UNL A   1      32.482  23.925  23.970  1.00  0.00     0.152 A 
ATOM     21  C   UNL A   1      33.262  23.227  24.870  1.00  0.00     0.052 A 
ATOM     22  O   UNL A   1      32.228  23.139  22.879  1.00  0.00    -0.463 OA
ATOM     23  C   UNL A   1      33.493  21.949  24.299  1.00  0.00     0.043 A 
ATOM     24  C   UNL A   1      32.851  21.950  23.085  1.00  0.00     0.196 A 
ENDBRANCH  18  20
ENDBRANCH   5   8
ENDBRANCH   3   4
ENDBRANCH   2   3
ENDBRANCH   1   2
BRANCH   1  25
ATOM     25  C   UNL A   1      32.302  32.260  27.156  1.00  0.00     0.116 C 
BRANCH  25  26
ATOM     26  N   UNL A   1      32.567  33.656  27.468  1.00  0.00    -0.352 N 
ATOM     27  C   UNL A   1      33.618  34.221  28.156  1.00  0.00     0.251 C 
ATOM     28  H   UNL A   1      31.895  34.293  27.135  1.00  0.00     0.163 HD
ATOM     29  O   UNL A   1      33.620  35.423  28.393  1.00  0.00    -0.269 OA
BRANCH  27  30
ATOM     30  C   UNL A   1      34.725  33.368  28.644  1.00  0.00     0.039 A 
ATOM     31  C   UNL A   1      36.029  33.660  28.233  1.00  0.00     0.014 A 
ATOM     32  C   UNL A   1      34.482  32.302  29.512  1.00  0.00     0.014 A 
ATOM     33  C   UNL A   1      37.100  32.938  28.768  1.00  0.00     0.010 A 
ATOM     34  C   UNL A   1      35.554  31.623  30.089  1.00  0.00     0.010 A 
ATOM     35  C   UNL A   1      36.874  31.942  29.730  1.00  0.00    -0.014 A 
BRANCH  35  36
ATOM     36  C   UNL A   1      38.004  31.242  30.392  1.00  0.00     0.031 A 
ATOM     37  C   UNL A   1      38.384  31.580  31.806  1.00  0.00     0.074 A 
ATOM     38  C   UNL A   1      38.733  30.347  29.695  1.00  0.00     0.049 A 
ATOM     39  N   UNL A   1      39.363  31.108  32.530  1.00  0.00    -0.248 NA
ATOM     40  C   UNL A   1      37.568  32.598  32.486  1.00  0.00     0.031 C 
ATOM     41  C   UNL A   1      38.494  29.972  28.301  1.00  0.00     0.029 A 
ATOM     42  N   UNL A   1      39.830  29.603  30.056  1.00  0.00    -0.354 N 
ATOM     43  C   UNL A   1      39.287  31.771  33.748  1.00  0.00     0.074 A 
ATOM     44  C   UNL A   1      38.198  32.717  33.646  1.00  0.00     0.031 C 
ATOM     45  C   UNL A   1      39.407  29.058  27.930  1.00  0.00     0.029 A 
ATOM     46  C   UNL A   1      40.315  28.804  29.046  1.00  0.00     0.049 A 
ATOM     47  H   UNL A   1      40.231  29.637  30.955  1.00  0.00     0.167 HD
ATOM     48  C   UNL A   1      40.040  31.589  34.859  1.00  0.00     0.034 A 
ATOM     49  C   UNL A   1      41.369  27.964  29.018  1.00  0.00     0.034 A 
ATOM     50  C   UNL A   1      41.108  30.631  34.959  1.00  0.00     0.049 A 
ATOM     51  C   UNL A   1      42.193  27.776  30.267  1.00  0.00     0.074 A 
ATOM     52  C   UNL A   1      41.883  30.330  36.065  1.00  0.00     0.029 A 
ATOM     53  N   UNL A   1      41.553  29.821  33.926  1.00  0.00    -0.354 N 
ATOM     54  N   UNL A   1      42.043  28.339  31.444  1.00  0.00    -0.248 NA
ATOM     55  C   UNL A   1      43.321  26.837  30.194  1.00  0.00     0.031 C 
ATOM     56  C   UNL A   1      42.824  29.367  35.690  1.00  0.00     0.029 A 
ATOM     57  C   UNL A   1      42.605  29.034  34.362  1.00  0.00     0.049 A 
ATOM     58  H   UNL A   1      41.176  29.807  33.017  1.00  0.00     0.167 HD
ATOM     59  C   UNL A   1      43.041  27.805  32.253  1.00  0.00     0.074 A 
ATOM     60  C   UNL A   1      43.777  26.861  31.439  1.00  0.00     0.031 C 
ATOM     61  C   UNL A   1      43.322  28.079  33.553  1.00  0.00     0.034 A 
BRANCH  48  62
ATOM     62  C   UNL A   1      39.719  32.412  36.077  1.00  0.00     0.023 A 
ATOM     63  C   UNL A   1      38.749  31.974  36.995  1.00  0.00     0.031 A 
ATOM     64  C   UNL A   1      40.300  33.679  36.270  1.00  0.00     0.131 A 
ATOM     65  C   UNL A   1      38.375  32.805  38.058  1.00  0.00     0.055 A 
ATOM     66  C   UNL A   1      39.947  34.489  37.348  1.00  0.00     0.041 A 
ATOM     67  F   UNL A   1      41.233  34.137  35.419  1.00  0.00    -0.206 F 
ATOM     68  C   UNL A   1      38.974  34.056  38.243  1.00  0.00     0.022 A 
BRANCH  65  69
ATOM     69  S   UNL A   1      37.079  32.310  39.226  1.00  0.00     0.124 S 
ATOM     70  O   UNL A   1      37.256  30.860  39.276  1.00  0.00    -0.237 OA
ATOM     71  O   UNL A   1      37.468  33.029  40.434  1.00  0.00    -0.237 OA
ATOM     72  O   UNL A   1      35.846  32.759  38.590  1.00  0.00    -0.744 OA
ENDBRANCH  65  69
ENDBRANCH  48  62
BRANCH  49  73
ATOM     73  C   UNL A   1      41.652  27.190  27.776  1.00  0.00     0.023 A 
ATOM     74  C   UNL A   1      41.381  25.813  27.697  1.00  0.00     0.031 A 
ATOM     75  C   UNL A   1      42.283  27.806  26.682  1.00  0.00     0.131 A 
ATOM     76  C   UNL A   1      41.786  25.088  26.568  1.00  0.00     0.055 A 
ATOM     77  C   UNL A   1      42.632  27.093  25.535  1.00  0.00     0.041 A 
ATOM     78  F   UNL A   1      42.571  29.116  26.719  1.00  0.00    -0.206 F 
ATOM     79  C   UNL A   1      42.394  25.723  25.479  1.00  0.00     0.022 A 
BRANCH  76  80
ATOM     80  S   UNL A   1      41.616  23.283  26.508  1.00  0.00     0.124 S 
ATOM     81  O   UNL A   1      42.383  22.941  25.314  1.00  0.00    -0.237 OA
ATOM     82  O   UNL A   1      42.219  22.890  27.780  1.00  0.00    -0.237 OA
ATOM     83  O   UNL A   1      40.175  23.076  26.412  1.00  0.00    -0.744 OA
ENDBRANCH  76  80
ENDBRANCH  49  73
BRANCH  61  84
ATOM     84  C   UNL A   1      44.470  27.357  34.210  1.00  0.00     0.023 A 
ATOM     85  C   UNL A   1      44.272  26.081  34.769  1.00  0.00     0.031 A 
ATOM     86  C   UNL A   1      45.704  27.996  34.423  1.00  0.00     0.131 A 
ATOM     87  C   UNL A   1      45.280  25.501  35.551  1.00  0.00     0.055 A 
ATOM     88  C   UNL A   1      46.719  27.395  35.168  1.00  0.00     0.041 A 
ATOM     89  F   UNL A   1      45.934  29.218  33.916  1.00  0.00    -0.206 F 
ATOM     90  C   UNL A   1      46.504  26.147  35.747  1.00  0.00     0.022 A 
BRANCH  87  91
ATOM     91  S   UNL A   1      45.013  23.918  36.397  1.00  0.00     0.124 S 
ATOM     92  O   UNL A   1      46.290  23.241  36.185  1.00  0.00    -0.237 OA
ATOM     93  O   UNL A   1      44.753  24.345  37.769  1.00  0.00    -0.237 OA
ATOM     94  O   UNL A   1      43.876  23.331  35.695  1.00  0.00    -0.744 OA
ENDBRANCH  87  91
ENDBRANCH  61  84
ENDBRANCH  35  36
ENDBRANCH  27  30
ENDBRANCH  25  26
ENDBRANCH   1  25
TORSDOF 15
ENDMDL
