MODEL 1
REMARK VINA RESULT:     -11.0      0.000      0.000
REMARK SMILES CC[C@@H](C(=O)NC[C@@H]1CC[C@H](C(=O)NCCCCNC(=O)c2ccc(-c3c4nc(c(-c5cc(S(=O)(=O)[O-])ccc5F)c5ccc([nH]5)c(-c5cc(S(=O)(=O)[O-])ccc5F)c5nc(c(-c6cc(S(=O)(=O)[O-])ccc6F)c6ccc3[nH]6)C=C5)C=C4)cc2)O1)c1ccccc1
REMARK SMILES IDX 16 1 15 2 14 3 12 4 13 5 11 7 8 8 9 9 85 10 10 11 7 12 6 13
REMARK SMILES IDX 4 14 5 15 3 17 2 18 1 19 86 20 87 21 91 22 88 23 90 24 89 25
REMARK SMILES IDX 17 26 18 27 19 28 20 29 21 31 22 32 23 33 84 34 24 35 83 36
REMARK SMILES IDX 25 37 26 38 27 39 77 40 28 41 82 42 76 43 78 44 29 45 81 46
REMARK SMILES IDX 75 47 74 48 30 50 62 51 42 52 61 53 43 54 46 55 60 56 79 57
REMARK SMILES IDX 44 58 45 59 59 61 80 62 47 63 31 64 32 65 40 66 33 67 39 68
REMARK SMILES IDX 41 69 38 70 34 71 35 72 36 73 37 74 63 75 64 76 72 77 65 78
REMARK SMILES IDX 71 79 73 80 70 81 66 82 67 83 68 84 69 85 48 86 49 87 57 88
REMARK SMILES IDX 50 89 56 90 58 91 55 92 51 93 52 94 53 95 54 96
REMARK H PARENT 14 6 6 16 19 30 78 49 46 60
REMARK Flexibility Score: inf
ROOT
ATOM      1  C   UNL A   1      37.903  23.090  25.023  1.00  0.00     0.023 C 
ENDROOT
BRANCH   1   2
ATOM      2  C   UNL A   1      36.533  23.341  24.398  1.00  0.00     0.116 C 
BRANCH   2   3
ATOM      3  N   UNL A   1      35.634  23.993  25.324  1.00  0.00    -0.354 N 
ATOM      4  C   UNL A   1      34.282  24.162  25.246  1.00  0.00     0.249 C 
ATOM      5  O   UNL A   1      33.726  24.789  26.153  1.00  0.00    -0.272 OA
ATOM      6  H   UNL A   1      36.060  24.371  26.127  1.00  0.00     0.163 HD
BRANCH   4   7
ATOM      7  C   UNL A   1      33.469  23.630  24.048  1.00  0.00     0.207 C 
ATOM      8  C   UNL A   1      32.403  24.466  22.151  1.00  0.00     0.138 C 
ATOM      9  C   UNL A   1      31.340  24.416  23.228  1.00  0.00     0.037 C 
ATOM     10  O   UNL A   1      33.665  24.362  22.839  1.00  0.00    -0.363 OA
ATOM     11  C   UNL A   1      31.968  23.545  24.299  1.00  0.00     0.045 C 
BRANCH   8  12
ATOM     12  C   UNL A   1      32.424  25.748  21.298  1.00  0.00     0.147 C 
BRANCH  12  13
ATOM     13  N   UNL A   1      33.194  26.751  22.016  1.00  0.00    -0.353 N 
ATOM     14  C   UNL A   1      32.831  27.906  22.629  1.00  0.00     0.227 C 
ATOM     15  O   UNL A   1      33.721  28.749  22.779  1.00  0.00    -0.274 OA
ATOM     16  H   UNL A   1      34.158  26.555  22.066  1.00  0.00     0.163 HD
BRANCH  14  17
ATOM     17  C   UNL A   1      31.396  28.118  23.155  1.00  0.00     0.108 C 
BRANCH  17  18
ATOM     18  C   UNL A   1      30.661  29.275  22.435  1.00  0.00     0.015 C 
ATOM     19  C   UNL A   1      29.167  29.398  22.680  1.00  0.00     0.005 C 
ENDBRANCH  17  18
BRANCH  17  20
ATOM     20  C   UNL A   1      31.466  28.364  24.679  1.00  0.00    -0.036 A 
ATOM     21  C   UNL A   1      31.364  27.278  25.565  1.00  0.00     0.004 A 
ATOM     22  C   UNL A   1      31.723  29.636  25.225  1.00  0.00     0.004 A 
ATOM     23  C   UNL A   1      31.496  27.466  26.946  1.00  0.00     0.000 A 
ATOM     24  C   UNL A   1      31.834  29.825  26.604  1.00  0.00     0.000 A 
ATOM     25  C   UNL A   1      31.723  28.739  27.465  1.00  0.00     0.000 A 
ENDBRANCH  17  20
ENDBRANCH  14  17
ENDBRANCH  12  13
ENDBRANCH   8  12
ENDBRANCH   4   7
ENDBRANCH   2   3
ENDBRANCH   1   2
BRANCH   1  26
ATOM     26  C   UNL A   1      38.147  21.631  25.396  1.00  0.00     0.023 C 
BRANCH  26  27
ATOM     27  C   UNL A   1      39.262  21.421  26.414  1.00  0.00     0.116 C 
BRANCH  27  28
ATOM     28  N   UNL A   1      40.028  20.200  26.205  1.00  0.00    -0.352 N 
ATOM     29  C   UNL A   1      41.399  20.068  26.182  1.00  0.00     0.251 C 
ATOM     30  H   UNL A   1      39.507  19.376  26.065  1.00  0.00     0.163 HD
ATOM     31  O   UNL A   1      41.920  18.991  25.913  1.00  0.00    -0.269 OA
BRANCH  29  32
ATOM     32  C   UNL A   1      42.216  21.274  26.430  1.00  0.00     0.039 A 
ATOM     33  C   UNL A   1      42.495  22.133  25.366  1.00  0.00     0.014 A 
ATOM     34  C   UNL A   1      42.584  21.608  27.736  1.00  0.00     0.014 A 
ATOM     35  C   UNL A   1      43.071  23.377  25.626  1.00  0.00     0.010 A 
ATOM     36  C   UNL A   1      43.085  22.877  27.999  1.00  0.00     0.010 A 
ATOM     37  C   UNL A   1      43.325  23.778  26.949  1.00  0.00    -0.014 A 
BRANCH  37  38
ATOM     38  C   UNL A   1      43.837  25.138  27.260  1.00  0.00     0.031 A 
ATOM     39  C   UNL A   1      42.910  26.169  27.840  1.00  0.00     0.074 A 
ATOM     40  C   UNL A   1      45.106  25.464  26.947  1.00  0.00     0.049 A 
ATOM     41  N   UNL A   1      43.129  27.434  28.089  1.00  0.00    -0.248 NA
ATOM     42  C   UNL A   1      41.543  25.722  28.147  1.00  0.00     0.031 C 
ATOM     43  C   UNL A   1      46.085  24.566  26.329  1.00  0.00     0.029 A 
ATOM     44  N   UNL A   1      45.790  26.645  27.092  1.00  0.00    -0.354 N 
ATOM     45  C   UNL A   1      41.924  27.938  28.568  1.00  0.00     0.074 A 
ATOM     46  C   UNL A   1      40.964  26.857  28.505  1.00  0.00     0.031 C 
ATOM     47  C   UNL A   1      47.246  25.221  26.171  1.00  0.00     0.029 A 
ATOM     48  C   UNL A   1      47.087  26.596  26.635  1.00  0.00     0.049 A 
ATOM     49  H   UNL A   1      45.390  27.454  27.487  1.00  0.00     0.167 HD
ATOM     50  C   UNL A   1      41.652  29.179  29.042  1.00  0.00     0.034 A 
ATOM     51  C   UNL A   1      48.036  27.551  26.587  1.00  0.00     0.034 A 
ATOM     52  C   UNL A   1      42.625  30.241  29.109  1.00  0.00     0.049 A 
ATOM     53  C   UNL A   1      47.712  28.925  27.115  1.00  0.00     0.074 A 
ATOM     54  C   UNL A   1      42.472  31.522  29.610  1.00  0.00     0.029 A 
ATOM     55  N   UNL A   1      43.936  30.147  28.659  1.00  0.00    -0.354 N 
ATOM     56  N   UNL A   1      46.579  29.376  27.605  1.00  0.00    -0.248 NA
ATOM     57  C   UNL A   1      48.796  29.916  27.096  1.00  0.00     0.031 C 
ATOM     58  C   UNL A   1      43.671  32.217  29.414  1.00  0.00     0.029 A 
ATOM     59  C   UNL A   1      44.595  31.351  28.852  1.00  0.00     0.049 A 
ATOM     60  H   UNL A   1      44.338  29.342  28.259  1.00  0.00     0.167 HD
ATOM     61  C   UNL A   1      46.824  30.694  27.976  1.00  0.00     0.074 A 
ATOM     62  C   UNL A   1      48.215  30.960  27.667  1.00  0.00     0.031 C 
ATOM     63  C   UNL A   1      45.980  31.602  28.527  1.00  0.00     0.034 A 
BRANCH  50  64
ATOM     64  C   UNL A   1      40.239  29.443  29.503  1.00  0.00     0.023 A 
ATOM     65  C   UNL A   1      39.917  29.532  30.869  1.00  0.00     0.031 A 
ATOM     66  C   UNL A   1      39.192  29.561  28.573  1.00  0.00     0.131 A 
ATOM     67  C   UNL A   1      38.578  29.641  31.270  1.00  0.00     0.055 A 
ATOM     68  C   UNL A   1      37.869  29.759  28.976  1.00  0.00     0.041 A 
ATOM     69  F   UNL A   1      39.432  29.466  27.256  1.00  0.00    -0.206 F 
ATOM     70  C   UNL A   1      37.553  29.781  30.332  1.00  0.00     0.022 A 
BRANCH  67  71
ATOM     71  S   UNL A   1      38.183  29.441  33.028  1.00  0.00     0.124 S 
ATOM     72  O   UNL A   1      39.514  29.299  33.613  1.00  0.00    -0.237 OA
ATOM     73  O   UNL A   1      37.479  30.681  33.336  1.00  0.00    -0.237 OA
ATOM     74  O   UNL A   1      37.364  28.232  33.060  1.00  0.00    -0.744 OA
ENDBRANCH  67  71
ENDBRANCH  50  64
BRANCH  51  75
ATOM     75  C   UNL A   1      49.380  27.252  26.017  1.00  0.00     0.023 A 
ATOM     76  C   UNL A   1      49.689  27.577  24.686  1.00  0.00     0.031 A 
ATOM     77  C   UNL A   1      50.364  26.605  26.784  1.00  0.00     0.131 A 
ATOM     78  C   UNL A   1      50.935  27.217  24.150  1.00  0.00     0.055 A 
ATOM     79  C   UNL A   1      51.619  26.290  26.260  1.00  0.00     0.041 A 
ATOM     80  F   UNL A   1      50.122  26.281  28.064  1.00  0.00    -0.206 F 
ATOM     81  C   UNL A   1      51.906  26.585  24.931  1.00  0.00     0.022 A 
BRANCH  78  82
ATOM     82  S   UNL A   1      51.245  27.526  22.389  1.00  0.00     0.124 S 
ATOM     83  O   UNL A   1      51.225  28.984  22.335  1.00  0.00    -0.237 OA
ATOM     84  O   UNL A   1      52.546  26.895  22.196  1.00  0.00    -0.237 OA
ATOM     85  O   UNL A   1      50.127  26.860  21.725  1.00  0.00    -0.744 OA
ENDBRANCH  78  82
ENDBRANCH  51  75
BRANCH  63  86
ATOM     86  C   UNL A   1      46.556  32.953  28.869  1.00  0.00     0.023 A 
ATOM     87  C   UNL A   1      46.477  34.037  27.980  1.00  0.00     0.031 A 
ATOM     88  C   UNL A   1      47.200  33.152  30.103  1.00  0.00     0.131 A 
ATOM     89  C   UNL A   1      47.078  35.260  28.315  1.00  0.00     0.055 A 
ATOM     90  C   UNL A   1      47.749  34.386  30.454  1.00  0.00     0.041 A 
ATOM     91  F   UNL A   1      47.305  32.148  30.990  1.00  0.00    -0.206 F 
ATOM     92  C   UNL A   1      47.700  35.445  29.553  1.00  0.00     0.022 A 
BRANCH  89  93
ATOM     93  S   UNL A   1      47.110  36.585  27.076  1.00  0.00     0.124 S 
ATOM     94  O   UNL A   1      45.700  36.695  26.714  1.00  0.00    -0.237 OA
ATOM     95  O   UNL A   1      47.663  37.704  27.830  1.00  0.00    -0.237 OA
ATOM     96  O   UNL A   1      47.979  36.053  26.028  1.00  0.00    -0.744 OA
ENDBRANCH  89  93
ENDBRANCH  63  86
ENDBRANCH  37  38
ENDBRANCH  29  32
ENDBRANCH  27  28
ENDBRANCH  26  27
ENDBRANCH   1  26
TORSDOF 19
ENDMDL
MODEL 2
REMARK VINA RESULT:     -10.9      1.902      2.646
REMARK SMILES CC[C@@H](C(=O)NC[C@@H]1CC[C@H](C(=O)NCCCCNC(=O)c2ccc(-c3c4nc(c(-c5cc(S(=O)(=O)[O-])ccc5F)c5ccc([nH]5)c(-c5cc(S(=O)(=O)[O-])ccc5F)c5nc(c(-c6cc(S(=O)(=O)[O-])ccc6F)c6ccc3[nH]6)C=C5)C=C4)cc2)O1)c1ccccc1
REMARK SMILES IDX 16 1 15 2 14 3 12 4 13 5 11 7 8 8 9 9 85 10 10 11 7 12 6 13
REMARK SMILES IDX 4 14 5 15 3 17 2 18 1 19 86 20 87 21 91 22 88 23 90 24 89 25
REMARK SMILES IDX 17 26 18 27 19 28 20 29 21 31 22 32 23 33 84 34 24 35 83 36
REMARK SMILES IDX 25 37 26 38 27 39 77 40 28 41 82 42 76 43 78 44 29 45 81 46
REMARK SMILES IDX 75 47 74 48 30 50 62 51 42 52 61 53 43 54 46 55 60 56 79 57
REMARK SMILES IDX 44 58 45 59 59 61 80 62 47 63 31 64 32 65 40 66 33 67 39 68
REMARK SMILES IDX 41 69 38 70 34 71 35 72 36 73 37 74 63 75 64 76 72 77 65 78
REMARK SMILES IDX 71 79 73 80 70 81 66 82 67 83 68 84 69 85 48 86 49 87 57 88
REMARK SMILES IDX 50 89 56 90 58 91 55 92 51 93 52 94 53 95 54 96
REMARK H PARENT 14 6 6 16 19 30 78 49 46 60
REMARK Flexibility Score: inf
ROOT
ATOM      1  C   UNL A   1      36.119  21.083  24.615  1.00  0.00     0.023 C 
ENDROOT
BRANCH   1   2
ATOM      2  C   UNL A   1      36.146  22.402  25.384  1.00  0.00     0.116 C 
BRANCH   2   3
ATOM      3  N   UNL A   1      35.377  22.323  26.606  1.00  0.00    -0.354 N 
ATOM      4  C   UNL A   1      34.047  22.555  26.811  1.00  0.00     0.249 C 
ATOM      5  O   UNL A   1      33.616  22.455  27.964  1.00  0.00    -0.272 OA
ATOM      6  H   UNL A   1      35.887  22.064  27.407  1.00  0.00     0.163 HD
BRANCH   4   7
ATOM      7  C   UNL A   1      33.113  22.971  25.657  1.00  0.00     0.207 C 
ATOM      8  C   UNL A   1      31.221  24.294  25.330  1.00  0.00     0.138 C 
ATOM      9  C   UNL A   1      30.701  22.895  25.593  1.00  0.00     0.037 C 
ATOM     10  O   UNL A   1      32.592  24.294  25.776  1.00  0.00    -0.363 OA
ATOM     11  C   UNL A   1      31.936  22.029  25.434  1.00  0.00     0.045 C 
BRANCH   8  12
ATOM     12  C   UNL A   1      30.478  25.427  26.061  1.00  0.00     0.147 C 
BRANCH  12  13
ATOM     13  N   UNL A   1      31.111  26.685  25.698  1.00  0.00    -0.353 N 
ATOM     14  C   UNL A   1      31.399  27.241  24.494  1.00  0.00     0.227 C 
ATOM     15  O   UNL A   1      32.297  28.089  24.483  1.00  0.00    -0.274 OA
ATOM     16  H   UNL A   1      31.381  27.234  26.469  1.00  0.00     0.163 HD
BRANCH  14  17
ATOM     17  C   UNL A   1      30.601  26.868  23.226  1.00  0.00     0.108 C 
BRANCH  17  18
ATOM     18  C   UNL A   1      31.513  26.615  22.000  1.00  0.00     0.015 C 
ATOM     19  C   UNL A   1      32.374  25.365  22.031  1.00  0.00     0.005 C 
ENDBRANCH  17  18
BRANCH  17  20
ATOM     20  C   UNL A   1      29.582  27.993  22.941  1.00  0.00    -0.036 A 
ATOM     21  C   UNL A   1      28.236  27.824  23.310  1.00  0.00     0.004 A 
ATOM     22  C   UNL A   1      29.964  29.237  22.403  1.00  0.00     0.004 A 
ATOM     23  C   UNL A   1      27.308  28.857  23.127  1.00  0.00     0.000 A 
ATOM     24  C   UNL A   1      29.034  30.258  22.204  1.00  0.00     0.000 A 
ATOM     25  C   UNL A   1      27.706  30.069  22.567  1.00  0.00     0.000 A 
ENDBRANCH  17  20
ENDBRANCH  14  17
ENDBRANCH  12  13
ENDBRANCH   8  12
ENDBRANCH   4   7
ENDBRANCH   2   3
ENDBRANCH   1   2
BRANCH   1  26
ATOM     26  C   UNL A   1      37.213  20.107  25.039  1.00  0.00     0.023 C 
BRANCH  26  27
ATOM     27  C   UNL A   1      38.492  20.773  25.532  1.00  0.00     0.116 C 
BRANCH  27  28
ATOM     28  N   UNL A   1      39.556  19.833  25.859  1.00  0.00    -0.352 N 
ATOM     29  C   UNL A   1      40.769  20.119  26.446  1.00  0.00     0.251 C 
ATOM     30  H   UNL A   1      39.391  18.889  25.634  1.00  0.00     0.163 HD
ATOM     31  O   UNL A   1      41.615  19.243  26.592  1.00  0.00    -0.269 OA
BRANCH  29  32
ATOM     32  C   UNL A   1      41.040  21.518  26.837  1.00  0.00     0.039 A 
ATOM     33  C   UNL A   1      41.649  21.770  28.067  1.00  0.00     0.014 A 
ATOM     34  C   UNL A   1      40.808  22.552  25.927  1.00  0.00     0.014 A 
ATOM     35  C   UNL A   1      42.108  23.057  28.350  1.00  0.00     0.010 A 
ATOM     36  C   UNL A   1      41.334  23.813  26.179  1.00  0.00     0.010 A 
ATOM     37  C   UNL A   1      41.999  24.077  27.388  1.00  0.00    -0.014 A 
BRANCH  37  38
ATOM     38  C   UNL A   1      42.575  25.426  27.623  1.00  0.00     0.031 A 
ATOM     39  C   UNL A   1      41.733  26.496  28.260  1.00  0.00     0.074 A 
ATOM     40  C   UNL A   1      43.820  25.707  27.192  1.00  0.00     0.049 A 
ATOM     41  N   UNL A   1      42.010  27.758  28.460  1.00  0.00    -0.248 NA
ATOM     42  C   UNL A   1      40.386  26.098  28.695  1.00  0.00     0.031 C 
ATOM     43  C   UNL A   1      44.715  24.767  26.511  1.00  0.00     0.029 A 
ATOM     44  N   UNL A   1      44.548  26.868  27.250  1.00  0.00    -0.354 N 
ATOM     45  C   UNL A   1      40.868  28.308  29.032  1.00  0.00     0.074 A 
ATOM     46  C   UNL A   1      39.875  27.256  29.078  1.00  0.00     0.031 C 
ATOM     47  C   UNL A   1      45.875  25.382  26.236  1.00  0.00     0.029 A 
ATOM     48  C   UNL A   1      45.797  26.771  26.681  1.00  0.00     0.049 A 
ATOM     49  H   UNL A   1      44.208  27.697  27.660  1.00  0.00     0.167 HD
ATOM     50  C   UNL A   1      40.674  29.566  29.500  1.00  0.00     0.034 A 
ATOM     51  C   UNL A   1      46.766  27.696  26.529  1.00  0.00     0.034 A 
ATOM     52  C   UNL A   1      41.680  30.599  29.458  1.00  0.00     0.049 A 
ATOM     53  C   UNL A   1      46.529  29.089  27.052  1.00  0.00     0.074 A 
ATOM     54  C   UNL A   1      41.609  31.893  29.942  1.00  0.00     0.029 A 
ATOM     55  N   UNL A   1      42.943  30.456  28.896  1.00  0.00    -0.354 N 
ATOM     56  N   UNL A   1      45.458  29.583  27.630  1.00  0.00    -0.248 NA
ATOM     57  C   UNL A   1      47.635  30.045  26.916  1.00  0.00     0.031 C 
ATOM     58  C   UNL A   1      42.805  32.547  29.625  1.00  0.00     0.029 A 
ATOM     59  C   UNL A   1      43.650  31.642  29.004  1.00  0.00     0.049 A 
ATOM     60  H   UNL A   1      43.283  29.631  28.480  1.00  0.00     0.167 HD
ATOM     61  C   UNL A   1      45.773  30.900  27.949  1.00  0.00     0.074 A 
ATOM     62  C   UNL A   1      47.138  31.117  27.513  1.00  0.00     0.031 C 
ATOM     63  C   UNL A   1      45.007  31.844  28.552  1.00  0.00     0.034 A 
BRANCH  50  64
ATOM     64  C   UNL A   1      39.316  29.883  30.078  1.00  0.00     0.023 A 
ATOM     65  C   UNL A   1      38.317  30.504  29.308  1.00  0.00     0.031 A 
ATOM     66  C   UNL A   1      39.028  29.605  31.426  1.00  0.00     0.131 A 
ATOM     67  C   UNL A   1      37.116  30.908  29.908  1.00  0.00     0.055 A 
ATOM     68  C   UNL A   1      37.796  29.931  31.997  1.00  0.00     0.041 A 
ATOM     69  F   UNL A   1      39.948  29.031  32.218  1.00  0.00    -0.206 F 
ATOM     70  C   UNL A   1      36.838  30.603  31.243  1.00  0.00     0.022 A 
BRANCH  67  71
ATOM     71  S   UNL A   1      35.993  31.973  28.964  1.00  0.00     0.124 S 
ATOM     72  O   UNL A   1      34.804  31.970  29.813  1.00  0.00    -0.237 OA
ATOM     73  O   UNL A   1      36.730  33.231  28.902  1.00  0.00    -0.237 OA
ATOM     74  O   UNL A   1      35.843  31.272  27.692  1.00  0.00    -0.744 OA
ENDBRANCH  67  71
ENDBRANCH  50  64
BRANCH  51  75
ATOM     75  C   UNL A   1      48.044  27.344  25.849  1.00  0.00     0.023 A 
ATOM     76  C   UNL A   1      48.201  27.526  24.466  1.00  0.00     0.031 A 
ATOM     77  C   UNL A   1      49.117  26.788  26.568  1.00  0.00     0.131 A 
ATOM     78  C   UNL A   1      49.388  27.117  23.836  1.00  0.00     0.055 A 
ATOM     79  C   UNL A   1      50.313  26.426  25.945  1.00  0.00     0.041 A 
ATOM     80  F   UNL A   1      49.022  26.602  27.893  1.00  0.00    -0.206 F 
ATOM     81  C   UNL A   1      50.448  26.578  24.569  1.00  0.00     0.022 A 
BRANCH  78  82
ATOM     82  S   UNL A   1      49.499  27.238  22.030  1.00  0.00     0.124 S 
ATOM     83  O   UNL A   1      50.930  27.062  21.807  1.00  0.00    -0.237 OA
ATOM     84  O   UNL A   1      48.642  26.138  21.601  1.00  0.00    -0.237 OA
ATOM     85  O   UNL A   1      48.982  28.575  21.746  1.00  0.00    -0.744 OA
ENDBRANCH  78  82
ENDBRANCH  51  75
BRANCH  63  86
ATOM     86  C   UNL A   1      45.650  33.183  28.812  1.00  0.00     0.023 A 
ATOM     87  C   UNL A   1      45.472  34.271  27.941  1.00  0.00     0.031 A 
ATOM     88  C   UNL A   1      46.460  33.368  29.947  1.00  0.00     0.131 A 
ATOM     89  C   UNL A   1      46.137  35.481  28.191  1.00  0.00     0.055 A 
ATOM     90  C   UNL A   1      47.075  34.590  30.219  1.00  0.00     0.041 A 
ATOM     91  F   UNL A   1      46.665  32.360  30.812  1.00  0.00    -0.206 F 
ATOM     92  C   UNL A   1      46.924  35.652  29.333  1.00  0.00     0.022 A 
BRANCH  89  93
ATOM     93  S   UNL A   1      46.025  36.808  26.958  1.00  0.00     0.124 S 
ATOM     94  O   UNL A   1      46.802  37.871  27.585  1.00  0.00    -0.237 OA
ATOM     95  O   UNL A   1      46.625  36.190  25.780  1.00  0.00    -0.237 OA
ATOM     96  O   UNL A   1      44.589  37.063  26.859  1.00  0.00    -0.744 OA
ENDBRANCH  89  93
ENDBRANCH  63  86
ENDBRANCH  37  38
ENDBRANCH  29  32
ENDBRANCH  27  28
ENDBRANCH  26  27
ENDBRANCH   1  26
TORSDOF 19
ENDMDL
MODEL 3
REMARK VINA RESULT:     -10.8      2.524      7.938
REMARK SMILES CC[C@@H](C(=O)NC[C@@H]1CC[C@H](C(=O)NCCCCNC(=O)c2ccc(-c3c4nc(c(-c5cc(S(=O)(=O)[O-])ccc5F)c5ccc([nH]5)c(-c5cc(S(=O)(=O)[O-])ccc5F)c5nc(c(-c6cc(S(=O)(=O)[O-])ccc6F)c6ccc3[nH]6)C=C5)C=C4)cc2)O1)c1ccccc1
REMARK SMILES IDX 16 1 15 2 14 3 12 4 13 5 11 7 8 8 9 9 85 10 10 11 7 12 6 13
REMARK SMILES IDX 4 14 5 15 3 17 2 18 1 19 86 20 87 21 91 22 88 23 90 24 89 25
REMARK SMILES IDX 17 26 18 27 19 28 20 29 21 31 22 32 23 33 84 34 24 35 83 36
REMARK SMILES IDX 25 37 26 38 27 39 77 40 28 41 82 42 76 43 78 44 29 45 81 46
REMARK SMILES IDX 75 47 74 48 30 50 62 51 42 52 61 53 43 54 46 55 60 56 79 57
REMARK SMILES IDX 44 58 45 59 59 61 80 62 47 63 31 64 32 65 40 66 33 67 39 68
REMARK SMILES IDX 41 69 38 70 34 71 35 72 36 73 37 74 63 75 64 76 72 77 65 78
REMARK SMILES IDX 71 79 73 80 70 81 66 82 67 83 68 84 69 85 48 86 49 87 57 88
REMARK SMILES IDX 50 89 56 90 58 91 55 92 51 93 52 94 53 95 54 96
REMARK H PARENT 14 6 6 16 19 30 78 49 46 60
REMARK Flexibility Score: inf
ROOT
ATOM      1  C   UNL A   1      38.767  21.772  25.870  1.00  0.00     0.023 C 
ENDROOT
BRANCH   1   2
ATOM      2  C   UNL A   1      37.447  22.104  25.179  1.00  0.00     0.116 C 
BRANCH   2   3
ATOM      3  N   UNL A   1      36.429  22.490  26.131  1.00  0.00    -0.354 N 
ATOM      4  C   UNL A   1      35.075  22.568  25.970  1.00  0.00     0.249 C 
ATOM      5  O   UNL A   1      34.402  22.959  26.928  1.00  0.00    -0.272 OA
ATOM      6  H   UNL A   1      36.761  22.734  27.026  1.00  0.00     0.163 HD
BRANCH   4   7
ATOM      7  C   UNL A   1      34.401  22.221  24.627  1.00  0.00     0.207 C 
ATOM      8  C   UNL A   1      32.351  22.548  23.566  1.00  0.00     0.138 C 
ATOM      9  C   UNL A   1      32.240  21.209  24.264  1.00  0.00     0.037 C 
ATOM     10  O   UNL A   1      33.483  23.211  24.163  1.00  0.00    -0.363 OA
ATOM     11  C   UNL A   1      33.678  20.880  24.617  1.00  0.00     0.045 C 
BRANCH   8  12
ATOM     12  C   UNL A   1      31.126  23.471  23.703  1.00  0.00     0.147 C 
BRANCH  12  13
ATOM     13  N   UNL A   1      30.652  23.386  25.074  1.00  0.00    -0.353 N 
ATOM     14  C   UNL A   1      30.451  24.333  26.026  1.00  0.00     0.227 C 
ATOM     15  O   UNL A   1      30.455  23.941  27.197  1.00  0.00    -0.274 OA
ATOM     16  H   UNL A   1      30.437  22.470  25.367  1.00  0.00     0.163 HD
BRANCH  14  17
ATOM     17  C   UNL A   1      30.178  25.804  25.648  1.00  0.00     0.108 C 
BRANCH  17  18
ATOM     18  C   UNL A   1      29.818  25.979  24.152  1.00  0.00     0.015 C 
ATOM     19  C   UNL A   1      29.554  27.395  23.671  1.00  0.00     0.005 C 
ENDBRANCH  17  18
BRANCH  17  20
ATOM     20  C   UNL A   1      31.419  26.644  26.026  1.00  0.00    -0.036 A 
ATOM     21  C   UNL A   1      31.310  27.647  27.003  1.00  0.00     0.004 A 
ATOM     22  C   UNL A   1      32.696  26.383  25.491  1.00  0.00     0.004 A 
ATOM     23  C   UNL A   1      32.436  28.373  27.413  1.00  0.00     0.000 A 
ATOM     24  C   UNL A   1      33.813  27.120  25.887  1.00  0.00     0.000 A 
ATOM     25  C   UNL A   1      33.683  28.114  26.850  1.00  0.00     0.000 A 
ENDBRANCH  17  20
ENDBRANCH  14  17
ENDBRANCH  12  13
ENDBRANCH   8  12
ENDBRANCH   4   7
ENDBRANCH   2   3
ENDBRANCH   1   2
BRANCH   1  26
ATOM     26  C   UNL A   1      39.374  20.445  25.422  1.00  0.00     0.023 C 
BRANCH  26  27
ATOM     27  C   UNL A   1      40.137  19.704  26.515  1.00  0.00     0.116 C 
BRANCH  27  28
ATOM     28  N   UNL A   1      41.464  19.261  26.109  1.00  0.00    -0.352 N 
ATOM     29  C   UNL A   1      42.610  20.021  26.037  1.00  0.00     0.251 C 
ATOM     30  H   UNL A   1      41.551  18.313  25.857  1.00  0.00     0.163 HD
ATOM     31  O   UNL A   1      43.651  19.544  25.599  1.00  0.00    -0.269 OA
BRANCH  29  32
ATOM     32  C   UNL A   1      42.531  21.439  26.446  1.00  0.00     0.039 A 
ATOM     33  C   UNL A   1      42.633  21.758  27.800  1.00  0.00     0.014 A 
ATOM     34  C   UNL A   1      42.490  22.442  25.475  1.00  0.00     0.014 A 
ATOM     35  C   UNL A   1      42.781  23.093  28.178  1.00  0.00     0.010 A 
ATOM     36  C   UNL A   1      42.715  23.762  25.848  1.00  0.00     0.010 A 
ATOM     37  C   UNL A   1      42.873  24.100  27.202  1.00  0.00    -0.014 A 
BRANCH  37  38
ATOM     38  C   UNL A   1      43.139  25.514  27.572  1.00  0.00     0.031 A 
ATOM     39  C   UNL A   1      44.538  26.058  27.484  1.00  0.00     0.074 A 
ATOM     40  C   UNL A   1      42.142  26.278  28.059  1.00  0.00     0.049 A 
ATOM     41  N   UNL A   1      44.998  27.225  27.852  1.00  0.00    -0.248 NA
ATOM     42  C   UNL A   1      45.560  25.150  26.942  1.00  0.00     0.031 C 
ATOM     43  C   UNL A   1      40.754  25.846  28.243  1.00  0.00     0.029 A 
ATOM     44  N   UNL A   1      42.143  27.577  28.503  1.00  0.00    -0.354 N 
ATOM     45  C   UNL A   1      46.365  27.187  27.599  1.00  0.00     0.074 A 
ATOM     46  C   UNL A   1      46.665  25.857  27.115  1.00  0.00     0.031 C 
ATOM     47  C   UNL A   1      40.037  26.867  28.739  1.00  0.00     0.029 A 
ATOM     48  C   UNL A   1      40.916  28.013  28.948  1.00  0.00     0.049 A 
ATOM     49  H   UNL A   1      42.948  28.145  28.503  1.00  0.00     0.167 HD
ATOM     50  C   UNL A   1      47.280  28.179  27.734  1.00  0.00     0.034 A 
ATOM     51  C   UNL A   1      40.545  29.197  29.473  1.00  0.00     0.034 A 
ATOM     52  C   UNL A   1      46.962  29.504  28.205  1.00  0.00     0.049 A 
ATOM     53  C   UNL A   1      41.578  30.285  29.617  1.00  0.00     0.074 A 
ATOM     54  C   UNL A   1      47.798  30.598  28.339  1.00  0.00     0.029 A 
ATOM     55  N   UNL A   1      45.702  29.916  28.625  1.00  0.00    -0.354 N 
ATOM     56  N   UNL A   1      42.861  30.248  29.334  1.00  0.00    -0.248 NA
ATOM     57  C   UNL A   1      41.113  31.577  30.139  1.00  0.00     0.031 C 
ATOM     58  C   UNL A   1      47.060  31.652  28.888  1.00  0.00     0.029 A 
ATOM     59  C   UNL A   1      45.745  31.239  29.035  1.00  0.00     0.049 A 
ATOM     60  H   UNL A   1      44.898  29.349  28.631  1.00  0.00     0.167 HD
ATOM     61  C   UNL A   1      43.348  31.520  29.619  1.00  0.00     0.074 A 
ATOM     62  C   UNL A   1      42.219  32.303  30.081  1.00  0.00     0.031 C 
ATOM     63  C   UNL A   1      44.611  32.001  29.505  1.00  0.00     0.034 A 
BRANCH  50  64
ATOM     64  C   UNL A   1      48.710  27.848  27.377  1.00  0.00     0.023 A 
ATOM     65  C   UNL A   1      49.202  28.027  26.072  1.00  0.00     0.031 A 
ATOM     66  C   UNL A   1      49.579  27.302  28.337  1.00  0.00     0.131 A 
ATOM     67  C   UNL A   1      50.489  27.584  25.740  1.00  0.00     0.055 A 
ATOM     68  C   UNL A   1      50.892  26.942  28.021  1.00  0.00     0.041 A 
ATOM     69  F   UNL A   1      49.163  27.088  29.595  1.00  0.00    -0.206 F 
ATOM     70  C   UNL A   1      51.348  27.065  26.711  1.00  0.00     0.022 A 
BRANCH  67  71
ATOM     71  S   UNL A   1      50.967  27.550  23.991  1.00  0.00     0.124 S 
ATOM     72  O   UNL A   1      49.784  26.951  23.376  1.00  0.00    -0.237 OA
ATOM     73  O   UNL A   1      51.194  28.960  23.698  1.00  0.00    -0.237 OA
ATOM     74  O   UNL A   1      52.160  26.708  23.977  1.00  0.00    -0.744 OA
ENDBRANCH  67  71
ENDBRANCH  50  64
BRANCH  51  75
ATOM     75  C   UNL A   1      39.137  29.422  29.907  1.00  0.00     0.023 A 
ATOM     76  C   UNL A   1      38.272  30.236  29.159  1.00  0.00     0.031 A 
ATOM     77  C   UNL A   1      38.646  28.853  31.095  1.00  0.00     0.131 A 
ATOM     78  C   UNL A   1      36.973  30.494  29.627  1.00  0.00     0.055 A 
ATOM     79  C   UNL A   1      37.339  29.075  31.534  1.00  0.00     0.041 A 
ATOM     80  F   UNL A   1      39.430  28.061  31.842  1.00  0.00    -0.206 F 
ATOM     81  C   UNL A   1      36.499  29.910  30.804  1.00  0.00     0.022 A 
BRANCH  78  82
ATOM     82  S   UNL A   1      35.934  31.662  28.708  1.00  0.00     0.124 S 
ATOM     83  O   UNL A   1      36.860  32.763  28.473  1.00  0.00    -0.237 OA
ATOM     84  O   UNL A   1      35.559  30.876  27.538  1.00  0.00    -0.237 OA
ATOM     85  O   UNL A   1      34.844  31.950  29.638  1.00  0.00    -0.744 OA
ENDBRANCH  78  82
ENDBRANCH  51  75
BRANCH  63  86
ATOM     86  C   UNL A   1      44.825  33.454  29.846  1.00  0.00     0.023 A 
ATOM     87  C   UNL A   1      45.182  33.865  31.141  1.00  0.00     0.031 A 
ATOM     88  C   UNL A   1      44.658  34.442  28.858  1.00  0.00     0.131 A 
ATOM     89  C   UNL A   1      45.312  35.232  31.428  1.00  0.00     0.055 A 
ATOM     90  C   UNL A   1      44.843  35.796  29.136  1.00  0.00     0.041 A 
ATOM     91  F   UNL A   1      44.316  34.103  27.604  1.00  0.00    -0.206 F 
ATOM     92  C   UNL A   1      45.161  36.199  30.430  1.00  0.00     0.022 A 
BRANCH  89  93
ATOM     93  S   UNL A   1      45.603  35.738  33.146  1.00  0.00     0.124 S 
ATOM     94  O   UNL A   1      44.524  36.695  33.368  1.00  0.00    -0.237 OA
ATOM     95  O   UNL A   1      45.492  34.474  33.866  1.00  0.00    -0.237 OA
ATOM     96  O   UNL A   1      46.946  36.314  33.111  1.00  0.00    -0.744 OA
ENDBRANCH  89  93
ENDBRANCH  63  86
ENDBRANCH  37  38
ENDBRANCH  29  32
ENDBRANCH  27  28
ENDBRANCH  26  27
ENDBRANCH   1  26
TORSDOF 19
ENDMDL
