MODEL 1
REMARK VINA RESULT:     -11.7      0.000      0.000
REMARK SMILES COCC(=O)N1[C@@H](C(=O)NCCCCNC(=O)c2ccc(-c3c4nc(c(-c5cc(S(=O)(=O)[O-])ccc5F)c5ccc([nH]5)c(-c5cc(S(=O)(=O)[O-])ccc5F)c5nc(c(-c6cc(S(=O)(=O)[O-])ccc6F)c6ccc3[nH]6)C=C5)C=C4)cc2)CC[C@@H]2CCCC[C@H]21
REMARK SMILES IDX 12 1 11 2 10 3 8 4 9 5 7 7 6 8 88 9 81 10 83 11 87 12 82 13
REMARK SMILES IDX 84 14 86 15 85 16 4 17 5 18 3 19 2 20 1 21 13 22 14 23 15 24
REMARK SMILES IDX 16 25 17 27 18 28 19 29 80 30 20 31 79 32 21 33 22 34 23 35
REMARK SMILES IDX 73 36 24 37 78 38 72 39 74 40 25 41 77 42 71 43 70 44 26 46
REMARK SMILES IDX 58 47 38 48 57 49 39 50 42 51 56 52 75 53 40 54 41 55 55 57
REMARK SMILES IDX 76 58 43 59 27 60 28 61 36 62 29 63 35 64 37 65 34 66 30 67
REMARK SMILES IDX 31 68 32 69 33 70 59 71 60 72 68 73 61 74 67 75 69 76 66 77
REMARK SMILES IDX 62 78 63 79 64 80 65 81 44 82 45 83 53 84 46 85 52 86 54 87
REMARK SMILES IDX 51 88 47 89 48 90 49 91 50 92
REMARK H PARENT 10 6 15 26 74 45 42 56
REMARK Flexibility Score: inf
ROOT
ATOM      1  C   UNL A   1      35.328  21.635  25.589  1.00  0.00     0.023 C 
ENDROOT
BRANCH   1   2
ATOM      2  C   UNL A   1      34.931  22.721  24.594  1.00  0.00     0.116 C 
BRANCH   2   3
ATOM      3  N   UNL A   1      33.715  22.363  23.886  1.00  0.00    -0.354 N 
ATOM      4  C   UNL A   1      32.768  23.160  23.313  1.00  0.00     0.242 C 
ATOM      5  O   UNL A   1      31.728  22.625  22.915  1.00  0.00    -0.273 OA
ATOM      6  H   UNL A   1      33.548  21.395  23.808  1.00  0.00     0.163 HD
BRANCH   4   7
ATOM      7  C   UNL A   1      32.877  24.699  23.363  1.00  0.00     0.174 C 
ATOM      8  N   UNL A   1      32.104  25.420  24.405  1.00  0.00    -0.325 N 
ATOM      9  C   UNL A   1      31.992  26.886  24.196  1.00  0.00     0.089 C 
ATOM     10  C   UNL A   1      32.453  25.114  21.927  1.00  0.00     0.036 C 
ATOM     11  C   UNL A   1      31.320  27.184  22.842  1.00  0.00     0.012 C 
ATOM     12  C   UNL A   1      31.367  27.710  25.338  1.00  0.00     0.025 C 
ATOM     13  C   UNL A   1      32.177  26.592  21.719  1.00  0.00     0.008 C 
ATOM     14  C   UNL A   1      31.121  28.683  22.570  1.00  0.00     0.006 C 
ATOM     15  C   UNL A   1      31.313  29.199  25.008  1.00  0.00     0.002 C 
ATOM     16  C   UNL A   1      30.502  29.428  23.743  1.00  0.00     0.000 C 
BRANCH   8  17
ATOM     17  C   UNL A   1      31.924  24.913  25.696  1.00  0.00     0.249 C 
ATOM     18  O   UNL A   1      32.865  24.833  26.492  1.00  0.00    -0.272 OA
BRANCH  17  19
ATOM     19  C   UNL A   1      30.541  24.382  26.121  1.00  0.00     0.259 C 
BRANCH  19  20
ATOM     20  O   UNL A   1      30.448  23.641  27.318  1.00  0.00    -0.375 OA
ATOM     21  C   UNL A   1      29.397  22.686  27.315  1.00  0.00     0.195 C 
ENDBRANCH  19  20
ENDBRANCH  17  19
ENDBRANCH   8  17
ENDBRANCH   4   7
ENDBRANCH   2   3
ENDBRANCH   1   2
BRANCH   1  22
ATOM     22  C   UNL A   1      36.227  20.543  25.005  1.00  0.00     0.023 C 
BRANCH  22  23
ATOM     23  C   UNL A   1      37.696  20.926  24.868  1.00  0.00     0.116 C 
BRANCH  23  24
ATOM     24  N   UNL A   1      38.584  19.918  25.424  1.00  0.00    -0.352 N 
ATOM     25  C   UNL A   1      39.763  20.089  26.108  1.00  0.00     0.251 C 
ATOM     26  H   UNL A   1      38.301  18.984  25.293  1.00  0.00     0.163 HD
ATOM     27  O   UNL A   1      40.491  19.124  26.326  1.00  0.00    -0.269 OA
BRANCH  25  28
ATOM     28  C   UNL A   1      40.162  21.444  26.548  1.00  0.00     0.039 A 
ATOM     29  C   UNL A   1      41.305  21.591  27.337  1.00  0.00     0.014 A 
ATOM     30  C   UNL A   1      39.421  22.566  26.164  1.00  0.00     0.014 A 
ATOM     31  C   UNL A   1      41.744  22.871  27.680  1.00  0.00     0.010 A 
ATOM     32  C   UNL A   1      39.905  23.841  26.441  1.00  0.00     0.010 A 
ATOM     33  C   UNL A   1      41.073  24.009  27.201  1.00  0.00    -0.014 A 
BRANCH  33  34
ATOM     34  C   UNL A   1      41.585  25.378  27.479  1.00  0.00     0.031 A 
ATOM     35  C   UNL A   1      42.965  25.776  27.031  1.00  0.00     0.074 A 
ATOM     36  C   UNL A   1      40.825  26.243  28.182  1.00  0.00     0.049 A 
ATOM     37  N   UNL A   1      43.608  26.897  27.232  1.00  0.00    -0.248 NA
ATOM     38  C   UNL A   1      43.732  24.771  26.281  1.00  0.00     0.031 C 
ATOM     39  C   UNL A   1      39.486  25.959  28.705  1.00  0.00     0.029 A 
ATOM     40  N   UNL A   1      41.069  27.533  28.587  1.00  0.00    -0.354 N 
ATOM     41  C   UNL A   1      44.857  26.731  26.645  1.00  0.00     0.074 A 
ATOM     42  C   UNL A   1      44.901  25.377  26.134  1.00  0.00     0.031 C 
ATOM     43  C   UNL A   1      39.020  27.049  29.335  1.00  0.00     0.029 A 
ATOM     44  C   UNL A   1      40.040  28.091  29.311  1.00  0.00     0.049 A 
ATOM     45  H   UNL A   1      41.903  28.013  28.378  1.00  0.00     0.167 HD
ATOM     46  C   UNL A   1      45.865  27.629  26.524  1.00  0.00     0.034 A 
ATOM     47  C   UNL A   1      39.937  29.297  29.905  1.00  0.00     0.034 A 
ATOM     48  C   UNL A   1      45.802  28.979  27.032  1.00  0.00     0.049 A 
ATOM     49  C   UNL A   1      41.085  30.269  29.785  1.00  0.00     0.074 A 
ATOM     50  C   UNL A   1      46.742  29.988  26.913  1.00  0.00     0.029 A 
ATOM     51  N   UNL A   1      44.746  29.507  27.766  1.00  0.00    -0.354 N 
ATOM     52  N   UNL A   1      42.239  30.113  29.175  1.00  0.00    -0.248 NA
ATOM     53  C   UNL A   1      40.915  31.580  30.421  1.00  0.00     0.031 C 
ATOM     54  C   UNL A   1      46.294  31.094  27.641  1.00  0.00     0.029 A 
ATOM     55  C   UNL A   1      45.031  30.812  28.138  1.00  0.00     0.049 A 
ATOM     56  H   UNL A   1      43.918  29.025  27.989  1.00  0.00     0.167 HD
ATOM     57  C   UNL A   1      42.914  31.321  29.328  1.00  0.00     0.074 A 
ATOM     58  C   UNL A   1      42.033  32.198  30.071  1.00  0.00     0.031 C 
ATOM     59  C   UNL A   1      44.149  31.676  28.888  1.00  0.00     0.034 A 
BRANCH  46  60
ATOM     60  C   UNL A   1      47.134  27.172  25.842  1.00  0.00     0.023 A 
ATOM     61  C   UNL A   1      48.140  26.476  26.536  1.00  0.00     0.031 A 
ATOM     62  C   UNL A   1      47.345  27.444  24.479  1.00  0.00     0.131 A 
ATOM     63  C   UNL A   1      49.336  26.138  25.883  1.00  0.00     0.055 A 
ATOM     64  C   UNL A   1      48.501  27.030  23.814  1.00  0.00     0.041 A 
ATOM     65  F   UNL A   1      46.431  28.125  23.768  1.00  0.00    -0.206 F 
ATOM     66  C   UNL A   1      49.512  26.386  24.519  1.00  0.00     0.022 A 
BRANCH  63  67
ATOM     67  S   UNL A   1      50.713  25.498  26.874  1.00  0.00     0.124 S 
ATOM     68  O   UNL A   1      51.062  26.664  27.682  1.00  0.00    -0.237 OA
ATOM     69  O   UNL A   1      50.097  24.386  27.589  1.00  0.00    -0.237 OA
ATOM     70  O   UNL A   1      51.709  25.122  25.874  1.00  0.00    -0.744 OA
ENDBRANCH  63  67
ENDBRANCH  46  60
BRANCH  47  71
ATOM     71  C   UNL A   1      38.715  29.657  30.684  1.00  0.00     0.023 A 
ATOM     72  C   UNL A   1      37.731  30.502  30.145  1.00  0.00     0.031 A 
ATOM     73  C   UNL A   1      38.540  29.204  32.004  1.00  0.00     0.131 A 
ATOM     74  C   UNL A   1      36.648  30.911  30.939  1.00  0.00     0.055 A 
ATOM     75  C   UNL A   1      37.428  29.564  32.769  1.00  0.00     0.041 A 
ATOM     76  F   UNL A   1      39.449  28.394  32.571  1.00  0.00    -0.206 F 
ATOM     77  C   UNL A   1      36.482  30.436  32.241  1.00  0.00     0.022 A 
BRANCH  74  78
ATOM     78  S   UNL A   1      35.512  32.163  30.279  1.00  0.00     0.124 S 
ATOM     79  O   UNL A   1      36.401  33.303  30.096  1.00  0.00    -0.237 OA
ATOM     80  O   UNL A   1      35.032  31.522  29.059  1.00  0.00    -0.237 OA
ATOM     81  O   UNL A   1      34.516  32.309  31.338  1.00  0.00    -0.744 OA
ENDBRANCH  74  78
ENDBRANCH  47  71
BRANCH  59  82
ATOM     82  C   UNL A   1      44.596  33.094  29.155  1.00  0.00     0.023 A 
ATOM     83  C   UNL A   1      44.259  34.155  28.297  1.00  0.00     0.031 A 
ATOM     84  C   UNL A   1      45.379  33.384  30.288  1.00  0.00     0.131 A 
ATOM     85  C   UNL A   1      44.752  35.445  28.553  1.00  0.00     0.055 A 
ATOM     86  C   UNL A   1      45.809  34.680  30.574  1.00  0.00     0.041 A 
ATOM     87  F   UNL A   1      45.735  32.410  31.140  1.00  0.00    -0.206 F 
ATOM     88  C   UNL A   1      45.508  35.717  29.697  1.00  0.00     0.022 A 
BRANCH  85  89
ATOM     89  S   UNL A   1      44.477  36.744  27.318  1.00  0.00     0.124 S 
ATOM     90  O   UNL A   1      43.353  36.207  26.557  1.00  0.00    -0.237 OA
ATOM     91  O   UNL A   1      44.188  37.908  28.148  1.00  0.00    -0.237 OA
ATOM     92  O   UNL A   1      45.745  36.801  26.592  1.00  0.00    -0.744 OA
ENDBRANCH  85  89
ENDBRANCH  59  82
ENDBRANCH  33  34
ENDBRANCH  25  28
ENDBRANCH  23  24
ENDBRANCH  22  23
ENDBRANCH   1  22
TORSDOF 17
ENDMDL
MODEL 2
REMARK VINA RESULT:     -11.7      5.041      8.356
REMARK SMILES COCC(=O)N1[C@@H](C(=O)NCCCCNC(=O)c2ccc(-c3c4nc(c(-c5cc(S(=O)(=O)[O-])ccc5F)c5ccc([nH]5)c(-c5cc(S(=O)(=O)[O-])ccc5F)c5nc(c(-c6cc(S(=O)(=O)[O-])ccc6F)c6ccc3[nH]6)C=C5)C=C4)cc2)CC[C@@H]2CCCC[C@H]21
REMARK SMILES IDX 12 1 11 2 10 3 8 4 9 5 7 7 6 8 88 9 81 10 83 11 87 12 82 13
REMARK SMILES IDX 84 14 86 15 85 16 4 17 5 18 3 19 2 20 1 21 13 22 14 23 15 24
REMARK SMILES IDX 16 25 17 27 18 28 19 29 80 30 20 31 79 32 21 33 22 34 23 35
REMARK SMILES IDX 73 36 24 37 78 38 72 39 74 40 25 41 77 42 71 43 70 44 26 46
REMARK SMILES IDX 58 47 38 48 57 49 39 50 42 51 56 52 75 53 40 54 41 55 55 57
REMARK SMILES IDX 76 58 43 59 27 60 28 61 36 62 29 63 35 64 37 65 34 66 30 67
REMARK SMILES IDX 31 68 32 69 33 70 59 71 60 72 68 73 61 74 67 75 69 76 66 77
REMARK SMILES IDX 62 78 63 79 64 80 65 81 44 82 45 83 53 84 46 85 52 86 54 87
REMARK SMILES IDX 51 88 47 89 48 90 49 91 50 92
REMARK H PARENT 10 6 15 26 74 45 42 56
REMARK Flexibility Score: inf
ROOT
ATOM      1  C   UNL A   1      31.749  28.825  24.992  1.00  0.00     0.023 C 
ENDROOT
BRANCH   1   2
ATOM      2  C   UNL A   1      31.894  27.834  26.142  1.00  0.00     0.116 C 
BRANCH   2   3
ATOM      3  N   UNL A   1      30.989  26.710  25.982  1.00  0.00    -0.354 N 
ATOM      4  C   UNL A   1      31.254  25.373  25.931  1.00  0.00     0.242 C 
ATOM      5  O   UNL A   1      30.332  24.614  25.614  1.00  0.00    -0.273 OA
ATOM      6  H   UNL A   1      30.038  26.950  25.895  1.00  0.00     0.163 HD
BRANCH   4   7
ATOM      7  C   UNL A   1      32.697  24.836  26.038  1.00  0.00     0.174 C 
ATOM      8  N   UNL A   1      33.401  24.474  24.782  1.00  0.00    -0.325 N 
ATOM      9  C   UNL A   1      34.636  23.669  24.969  1.00  0.00     0.089 C 
ATOM     10  C   UNL A   1      32.536  23.620  26.991  1.00  0.00     0.036 C 
ATOM     11  C   UNL A   1      34.313  22.356  25.707  1.00  0.00     0.012 C 
ATOM     12  C   UNL A   1      35.508  23.427  23.723  1.00  0.00     0.025 C 
ATOM     13  C   UNL A   1      33.729  22.688  27.083  1.00  0.00     0.008 C 
ATOM     14  C   UNL A   1      35.533  21.441  25.898  1.00  0.00     0.006 C 
ATOM     15  C   UNL A   1      36.748  22.596  24.043  1.00  0.00     0.002 C 
ATOM     16  C   UNL A   1      36.343  21.251  24.625  1.00  0.00     0.000 C 
BRANCH   8  17
ATOM     17  C   UNL A   1      33.249  25.199  23.596  1.00  0.00     0.249 C 
ATOM     18  O   UNL A   1      33.736  26.326  23.465  1.00  0.00    -0.272 OA
BRANCH  17  19
ATOM     19  C   UNL A   1      32.403  24.614  22.448  1.00  0.00     0.259 C 
BRANCH  19  20
ATOM     20  O   UNL A   1      32.978  24.547  21.162  1.00  0.00    -0.375 OA
ATOM     21  C   UNL A   1      32.538  25.577  20.288  1.00  0.00     0.195 C 
ENDBRANCH  19  20
ENDBRANCH  17  19
ENDBRANCH   8  17
ENDBRANCH   4   7
ENDBRANCH   2   3
ENDBRANCH   1   2
BRANCH   1  22
ATOM     22  C   UNL A   1      31.406  30.252  25.427  1.00  0.00     0.023 C 
BRANCH  22  23
ATOM     23  C   UNL A   1      32.101  30.717  26.701  1.00  0.00     0.116 C 
BRANCH  23  24
ATOM     24  N   UNL A   1      32.051  32.162  26.862  1.00  0.00    -0.352 N 
ATOM     25  C   UNL A   1      32.889  32.980  27.579  1.00  0.00     0.251 C 
ATOM     26  H   UNL A   1      31.315  32.616  26.391  1.00  0.00     0.163 HD
ATOM     27  O   UNL A   1      32.581  34.153  27.775  1.00  0.00    -0.269 OA
BRANCH  25  28
ATOM     28  C   UNL A   1      34.145  32.432  28.136  1.00  0.00     0.039 A 
ATOM     29  C   UNL A   1      35.216  33.295  28.370  1.00  0.00     0.014 A 
ATOM     30  C   UNL A   1      34.253  31.073  28.447  1.00  0.00     0.014 A 
ATOM     31  C   UNL A   1      36.372  32.807  28.983  1.00  0.00     0.010 A 
ATOM     32  C   UNL A   1      35.374  30.607  29.129  1.00  0.00     0.010 A 
ATOM     33  C   UNL A   1      36.446  31.469  29.406  1.00  0.00    -0.014 A 
BRANCH  33  34
ATOM     34  C   UNL A   1      37.633  30.960  30.145  1.00  0.00     0.031 A 
ATOM     35  C   UNL A   1      38.578  29.992  29.486  1.00  0.00     0.074 A 
ATOM     36  C   UNL A   1      37.829  31.330  31.428  1.00  0.00     0.049 A 
ATOM     37  N   UNL A   1      39.628  29.392  29.985  1.00  0.00    -0.248 NA
ATOM     38  C   UNL A   1      38.286  29.630  28.091  1.00  0.00     0.031 C 
ATOM     39  C   UNL A   1      36.960  32.233  32.188  1.00  0.00     0.029 A 
ATOM     40  N   UNL A   1      38.813  30.990  32.323  1.00  0.00    -0.354 N 
ATOM     41  C   UNL A   1      40.117  28.576  28.971  1.00  0.00     0.074 A 
ATOM     42  C   UNL A   1      39.210  28.712  27.851  1.00  0.00     0.031 C 
ATOM     43  C   UNL A   1      37.465  32.394  33.421  1.00  0.00     0.029 A 
ATOM     44  C   UNL A   1      38.660  31.569  33.562  1.00  0.00     0.049 A 
ATOM     45  H   UNL A   1      39.559  30.388  32.098  1.00  0.00     0.167 HD
ATOM     46  C   UNL A   1      41.229  27.800  28.968  1.00  0.00     0.034 A 
ATOM     47  C   UNL A   1      39.387  31.437  34.690  1.00  0.00     0.034 A 
ATOM     48  C   UNL A   1      42.128  27.683  30.092  1.00  0.00     0.049 A 
ATOM     49  C   UNL A   1      40.603  30.543  34.672  1.00  0.00     0.074 A 
ATOM     50  C   UNL A   1      43.313  26.972  30.175  1.00  0.00     0.029 A 
ATOM     51  N   UNL A   1      41.937  28.279  31.332  1.00  0.00    -0.354 N 
ATOM     52  N   UNL A   1      41.083  29.821  33.685  1.00  0.00    -0.248 NA
ATOM     53  C   UNL A   1      41.380  30.454  35.914  1.00  0.00     0.031 C 
ATOM     54  C   UNL A   1      43.794  27.070  31.484  1.00  0.00     0.029 A 
ATOM     55  C   UNL A   1      42.961  27.919  32.196  1.00  0.00     0.049 A 
ATOM     56  H   UNL A   1      41.184  28.869  31.565  1.00  0.00     0.167 HD
ATOM     57  C   UNL A   1      42.237  29.221  34.180  1.00  0.00     0.074 A 
ATOM     58  C   UNL A   1      42.389  29.679  35.546  1.00  0.00     0.031 C 
ATOM     59  C   UNL A   1      43.099  28.374  33.560  1.00  0.00     0.034 A 
BRANCH  46  60
ATOM     60  C   UNL A   1      41.520  26.997  27.722  1.00  0.00     0.023 A 
ATOM     61  C   UNL A   1      41.235  25.623  27.641  1.00  0.00     0.031 A 
ATOM     62  C   UNL A   1      42.101  27.614  26.599  1.00  0.00     0.131 A 
ATOM     63  C   UNL A   1      41.593  24.898  26.493  1.00  0.00     0.055 A 
ATOM     64  C   UNL A   1      42.377  26.905  25.428  1.00  0.00     0.041 A 
ATOM     65  F   UNL A   1      42.418  28.919  26.623  1.00  0.00    -0.206 F 
ATOM     66  C   UNL A   1      42.136  25.536  25.375  1.00  0.00     0.022 A 
BRANCH  63  67
ATOM     67  S   UNL A   1      41.468  23.090  26.536  1.00  0.00     0.124 S 
ATOM     68  O   UNL A   1      40.027  22.890  26.403  1.00  0.00    -0.237 OA
ATOM     69  O   UNL A   1      42.277  22.690  25.390  1.00  0.00    -0.237 OA
ATOM     70  O   UNL A   1      42.020  22.739  27.842  1.00  0.00    -0.744 OA
ENDBRANCH  63  67
ENDBRANCH  46  60
BRANCH  47  71
ATOM     71  C   UNL A   1      38.984  32.147  35.941  1.00  0.00     0.023 A 
ATOM     72  C   UNL A   1      38.241  31.497  36.939  1.00  0.00     0.031 A 
ATOM     73  C   UNL A   1      39.290  33.507  36.130  1.00  0.00     0.131 A 
ATOM     74  C   UNL A   1      37.783  32.218  38.052  1.00  0.00     0.055 A 
ATOM     75  C   UNL A   1      38.885  34.204  37.270  1.00  0.00     0.041 A 
ATOM     76  F   UNL A   1      39.998  34.180  35.208  1.00  0.00    -0.206 F 
ATOM     77  C   UNL A   1      38.113  33.563  38.232  1.00  0.00     0.022 A 
BRANCH  74  78
ATOM     78  S   UNL A   1      36.655  31.399  39.214  1.00  0.00     0.124 S 
ATOM     79  O   UNL A   1      35.511  32.303  39.204  1.00  0.00    -0.237 OA
ATOM     80  O   UNL A   1      36.453  30.102  38.575  1.00  0.00    -0.237 OA
ATOM     81  O   UNL A   1      37.416  31.366  40.461  1.00  0.00    -0.744 OA
ENDBRANCH  74  78
ENDBRANCH  47  71
BRANCH  59  82
ATOM     82  C   UNL A   1      44.313  27.929  34.342  1.00  0.00     0.023 A 
ATOM     83  C   UNL A   1      44.305  26.766  35.132  1.00  0.00     0.031 A 
ATOM     84  C   UNL A   1      45.496  28.691  34.299  1.00  0.00     0.131 A 
ATOM     85  C   UNL A   1      45.436  26.430  35.891  1.00  0.00     0.055 A 
ATOM     86  C   UNL A   1      46.639  28.314  35.003  1.00  0.00     0.041 A 
ATOM     87  F   UNL A   1      45.560  29.813  33.565  1.00  0.00    -0.206 F 
ATOM     88  C   UNL A   1      46.610  27.185  35.816  1.00  0.00     0.022 A 
BRANCH  85  89
ATOM     89  S   UNL A   1      45.322  25.047  37.059  1.00  0.00     0.124 S 
ATOM     90  O   UNL A   1      46.080  25.550  38.201  1.00  0.00    -0.237 OA
ATOM     91  O   UNL A   1      43.882  24.922  37.256  1.00  0.00    -0.237 OA
ATOM     92  O   UNL A   1      45.947  23.938  36.341  1.00  0.00    -0.744 OA
ENDBRANCH  85  89
ENDBRANCH  59  82
ENDBRANCH  33  34
ENDBRANCH  25  28
ENDBRANCH  23  24
ENDBRANCH  22  23
ENDBRANCH   1  22
TORSDOF 17
ENDMDL
MODEL 3
REMARK VINA RESULT:     -11.7      5.688      9.134
REMARK SMILES COCC(=O)N1[C@@H](C(=O)NCCCCNC(=O)c2ccc(-c3c4nc(c(-c5cc(S(=O)(=O)[O-])ccc5F)c5ccc([nH]5)c(-c5cc(S(=O)(=O)[O-])ccc5F)c5nc(c(-c6cc(S(=O)(=O)[O-])ccc6F)c6ccc3[nH]6)C=C5)C=C4)cc2)CC[C@@H]2CCCC[C@H]21
REMARK SMILES IDX 12 1 11 2 10 3 8 4 9 5 7 7 6 8 88 9 81 10 83 11 87 12 82 13
REMARK SMILES IDX 84 14 86 15 85 16 4 17 5 18 3 19 2 20 1 21 13 22 14 23 15 24
REMARK SMILES IDX 16 25 17 27 18 28 19 29 80 30 20 31 79 32 21 33 22 34 23 35
REMARK SMILES IDX 73 36 24 37 78 38 72 39 74 40 25 41 77 42 71 43 70 44 26 46
REMARK SMILES IDX 58 47 38 48 57 49 39 50 42 51 56 52 75 53 40 54 41 55 55 57
REMARK SMILES IDX 76 58 43 59 27 60 28 61 36 62 29 63 35 64 37 65 34 66 30 67
REMARK SMILES IDX 31 68 32 69 33 70 59 71 60 72 68 73 61 74 67 75 69 76 66 77
REMARK SMILES IDX 62 78 63 79 64 80 65 81 44 82 45 83 53 84 46 85 52 86 54 87
REMARK SMILES IDX 51 88 47 89 48 90 49 91 50 92
REMARK H PARENT 10 6 15 26 74 45 42 56
REMARK Flexibility Score: inf
ROOT
ATOM      1  C   UNL A   1      31.808  30.087  26.846  1.00  0.00     0.023 C 
ENDROOT
BRANCH   1   2
ATOM      2  C   UNL A   1      31.504  29.264  25.598  1.00  0.00     0.116 C 
BRANCH   2   3
ATOM      3  N   UNL A   1      32.413  29.601  24.516  1.00  0.00    -0.354 N 
ATOM      4  C   UNL A   1      33.212  28.794  23.761  1.00  0.00     0.242 C 
ATOM      5  O   UNL A   1      34.031  29.334  23.009  1.00  0.00    -0.273 OA
ATOM      6  H   UNL A   1      32.459  30.559  24.294  1.00  0.00     0.163 HD
BRANCH   4   7
ATOM      7  C   UNL A   1      33.264  27.269  23.994  1.00  0.00     0.174 C 
ATOM      8  N   UNL A   1      32.053  26.472  23.675  1.00  0.00    -0.325 N 
ATOM      9  C   UNL A   1      32.053  25.091  24.221  1.00  0.00     0.089 C 
ATOM     10  C   UNL A   1      33.653  27.170  25.495  1.00  0.00     0.036 C 
ATOM     11  C   UNL A   1      32.189  25.122  25.756  1.00  0.00     0.012 C 
ATOM     12  C   UNL A   1      30.916  24.158  23.766  1.00  0.00     0.025 C 
ATOM     13  C   UNL A   1      33.513  25.797  26.126  1.00  0.00     0.008 C 
ATOM     14  C   UNL A   1      32.149  23.730  26.406  1.00  0.00     0.006 C 
ATOM     15  C   UNL A   1      31.029  22.769  24.388  1.00  0.00     0.002 C 
ATOM     16  C   UNL A   1      31.000  22.868  25.904  1.00  0.00     0.000 C 
BRANCH   8  17
ATOM     17  C   UNL A   1      31.227  26.759  22.583  1.00  0.00     0.249 C 
ATOM     18  O   UNL A   1      31.511  26.373  21.445  1.00  0.00    -0.272 OA
BRANCH  17  19
ATOM     19  C   UNL A   1      29.971  27.629  22.786  1.00  0.00     0.259 C 
BRANCH  19  20
ATOM     20  O   UNL A   1      28.914  27.106  23.560  1.00  0.00    -0.375 OA
ATOM     21  C   UNL A   1      27.727  27.883  23.501  1.00  0.00     0.195 C 
ENDBRANCH  19  20
ENDBRANCH  17  19
ENDBRANCH   8  17
ENDBRANCH   4   7
ENDBRANCH   2   3
ENDBRANCH   1   2
BRANCH   1  22
ATOM     22  C   UNL A   1      31.788  31.600  26.624  1.00  0.00     0.023 C 
BRANCH  22  23
ATOM     23  C   UNL A   1      32.964  32.353  27.237  1.00  0.00     0.116 C 
BRANCH  23  24
ATOM     24  N   UNL A   1      32.633  33.734  27.551  1.00  0.00    -0.352 N 
ATOM     25  C   UNL A   1      33.115  34.528  28.562  1.00  0.00     0.251 C 
ATOM     26  H   UNL A   1      31.974  34.158  26.955  1.00  0.00     0.163 HD
ATOM     27  O   UNL A   1      32.575  35.604  28.807  1.00  0.00    -0.269 OA
BRANCH  25  28
ATOM     28  C   UNL A   1      34.263  34.065  29.371  1.00  0.00     0.039 A 
ATOM     29  C   UNL A   1      34.027  33.239  30.472  1.00  0.00     0.014 A 
ATOM     30  C   UNL A   1      35.569  34.428  29.029  1.00  0.00     0.014 A 
ATOM     31  C   UNL A   1      35.108  32.718  31.186  1.00  0.00     0.010 A 
ATOM     32  C   UNL A   1      36.645  33.845  29.693  1.00  0.00     0.010 A 
ATOM     33  C   UNL A   1      36.427  32.982  30.779  1.00  0.00    -0.014 A 
BRANCH  33  34
ATOM     34  C   UNL A   1      37.586  32.358  31.473  1.00  0.00     0.031 A 
ATOM     35  C   UNL A   1      38.337  31.227  30.823  1.00  0.00     0.074 A 
ATOM     36  C   UNL A   1      37.926  32.776  32.709  1.00  0.00     0.049 A 
ATOM     37  N   UNL A   1      39.330  30.517  31.293  1.00  0.00    -0.248 NA
ATOM     38  C   UNL A   1      37.894  30.824  29.480  1.00  0.00     0.031 C 
ATOM     39  C   UNL A   1      37.249  33.837  33.458  1.00  0.00     0.029 A 
ATOM     40  N   UNL A   1      38.920  32.356  33.559  1.00  0.00    -0.354 N 
ATOM     41  C   UNL A   1      39.626  29.578  30.312  1.00  0.00     0.074 A 
ATOM     42  C   UNL A   1      38.664  29.771  29.247  1.00  0.00     0.031 C 
ATOM     43  C   UNL A   1      37.863  34.002  34.640  1.00  0.00     0.029 A 
ATOM     44  C   UNL A   1      38.941  33.028  34.761  1.00  0.00     0.049 A 
ATOM     45  H   UNL A   1      39.558  31.643  33.330  1.00  0.00     0.167 HD
ATOM     46  C   UNL A   1      40.618  28.655  30.291  1.00  0.00     0.034 A 
ATOM     47  C   UNL A   1      39.727  32.865  35.845  1.00  0.00     0.034 A 
ATOM     48  C   UNL A   1      41.575  28.482  31.358  1.00  0.00     0.049 A 
ATOM     49  C   UNL A   1      40.805  31.809  35.811  1.00  0.00     0.074 A 
ATOM     50  C   UNL A   1      42.655  27.618  31.413  1.00  0.00     0.029 A 
ATOM     51  N   UNL A   1      41.561  29.175  32.562  1.00  0.00    -0.354 N 
ATOM     52  N   UNL A   1      41.106  30.966  34.848  1.00  0.00    -0.248 NA
ATOM     53  C   UNL A   1      41.654  31.688  37.001  1.00  0.00     0.031 C 
ATOM     54  C   UNL A   1      43.243  27.729  32.677  1.00  0.00     0.029 A 
ATOM     55  C   UNL A   1      42.590  28.730  33.379  1.00  0.00     0.049 A 
ATOM     56  H   UNL A   1      40.916  29.879  32.801  1.00  0.00     0.167 HD
ATOM     57  C   UNL A   1      42.202  30.242  35.308  1.00  0.00     0.074 A 
ATOM     58  C   UNL A   1      42.518  30.758  36.624  1.00  0.00     0.031 C 
ATOM     59  C   UNL A   1      42.891  29.244  34.695  1.00  0.00     0.034 A 
BRANCH  46  60
ATOM     60  C   UNL A   1      40.702  27.743  29.089  1.00  0.00     0.023 A 
ATOM     61  C   UNL A   1      41.631  27.961  28.056  1.00  0.00     0.031 A 
ATOM     62  C   UNL A   1      39.833  26.644  28.969  1.00  0.00     0.131 A 
ATOM     63  C   UNL A   1      41.623  27.135  26.921  1.00  0.00     0.055 A 
ATOM     64  C   UNL A   1      39.888  25.776  27.877  1.00  0.00     0.041 A 
ATOM     65  F   UNL A   1      38.909  26.397  29.912  1.00  0.00    -0.206 F 
ATOM     66  C   UNL A   1      40.777  26.027  26.837  1.00  0.00     0.022 A 
BRANCH  63  67
ATOM     67  S   UNL A   1      42.637  27.613  25.495  1.00  0.00     0.124 S 
ATOM     68  O   UNL A   1      41.915  28.781  24.998  1.00  0.00    -0.237 OA
ATOM     69  O   UNL A   1      43.936  27.875  26.105  1.00  0.00    -0.237 OA
ATOM     70  O   UNL A   1      42.582  26.439  24.626  1.00  0.00    -0.744 OA
ENDBRANCH  63  67
ENDBRANCH  46  60
BRANCH  47  71
ATOM     71  C   UNL A   1      39.521  33.701  37.065  1.00  0.00     0.023 A 
ATOM     72  C   UNL A   1      38.879  33.184  38.201  1.00  0.00     0.031 A 
ATOM     73  C   UNL A   1      39.915  35.051  37.090  1.00  0.00     0.131 A 
ATOM     74  C   UNL A   1      38.600  34.023  39.291  1.00  0.00     0.055 A 
ATOM     75  C   UNL A   1      39.691  35.866  38.202  1.00  0.00     0.041 A 
ATOM     76  F   UNL A   1      40.533  35.600  36.032  1.00  0.00    -0.206 F 
ATOM     77  C   UNL A   1      39.016  35.355  39.306  1.00  0.00     0.022 A 
BRANCH  74  78
ATOM     78  S   UNL A   1      37.589  33.374  40.651  1.00  0.00     0.124 S 
ATOM     79  O   UNL A   1      37.479  34.540  41.520  1.00  0.00    -0.237 OA
ATOM     80  O   UNL A   1      36.369  32.974  39.956  1.00  0.00    -0.237 OA
ATOM     81  O   UNL A   1      38.393  32.274  41.178  1.00  0.00    -0.744 OA
ENDBRANCH  74  78
ENDBRANCH  47  71
BRANCH  59  82
ATOM     82  C   UNL A   1      44.088  28.682  35.425  1.00  0.00     0.023 A 
ATOM     83  C   UNL A   1      43.977  27.602  36.318  1.00  0.00     0.031 A 
ATOM     84  C   UNL A   1      45.362  29.246  35.226  1.00  0.00     0.131 A 
ATOM     85  C   UNL A   1      45.107  27.157  37.021  1.00  0.00     0.055 A 
ATOM     86  C   UNL A   1      46.494  28.755  35.878  1.00  0.00     0.041 A 
ATOM     87  F   UNL A   1      45.528  30.283  34.390  1.00  0.00    -0.206 F 
ATOM     88  C   UNL A   1      46.369  27.714  36.792  1.00  0.00     0.022 A 
BRANCH  85  89
ATOM     89  S   UNL A   1      44.891  25.907  38.317  1.00  0.00     0.124 S 
ATOM     90  O   UNL A   1      46.104  26.080  39.111  1.00  0.00    -0.237 OA
ATOM     91  O   UNL A   1      43.648  26.328  38.953  1.00  0.00    -0.237 OA
ATOM     92  O   UNL A   1      44.811  24.652  37.573  1.00  0.00    -0.744 OA
ENDBRANCH  85  89
ENDBRANCH  59  82
ENDBRANCH  33  34
ENDBRANCH  25  28
ENDBRANCH  23  24
ENDBRANCH  22  23
ENDBRANCH   1  22
TORSDOF 17
ENDMDL
