MODEL 1
REMARK VINA RESULT:     -13.8      0.000      0.000
REMARK SMILES Cc1ccc(C)c(-c2cc(C(=O)NCCCCNC(=O)c3ccc(-c4c5nc(c(-c6cc(S(=O)(=O)[O-])ccc6F)c6ccc([nH]6)c(-c6cc(S(=O)(=O)[O-])ccc6F)c6nc(c(-c7cc(S(=O)(=O)[O-])ccc7F)c7ccc4[nH]7)C=C6)C=C5)cc3)c3cc(C)ccc3n2)c1
REMARK SMILES IDX 16 1 15 2 14 3 13 4 11 5 12 6 10 8 8 9 9 10 91 11 90 12
REMARK SMILES IDX 84 13 89 14 85 15 88 16 86 17 87 18 7 19 1 20 2 21 3 22
REMARK SMILES IDX 92 23 4 24 5 25 6 26 17 27 18 28 19 29 20 31 21 32 22 33
REMARK SMILES IDX 83 34 23 35 82 36 24 37 25 38 26 39 76 40 27 41 81 42 75 43
REMARK SMILES IDX 77 44 28 45 80 46 74 47 73 48 29 50 61 51 41 52 60 53 42 54
REMARK SMILES IDX 45 55 59 56 78 57 43 58 44 59 58 61 79 62 46 63 30 64 31 65
REMARK SMILES IDX 39 66 32 67 38 68 40 69 37 70 33 71 34 72 35 73 36 74 62 75
REMARK SMILES IDX 63 76 71 77 64 78 70 79 72 80 69 81 65 82 66 83 67 84 68 85
REMARK SMILES IDX 47 86 48 87 56 88 49 89 55 90 57 91 54 92 50 93 51 94 52 95
REMARK SMILES IDX 53 96
REMARK H PARENT 13 7 18 30 77 49 45 60
REMARK Flexibility Score: inf
ROOT
ATOM      1  C   UNL A   1      37.042  23.312  24.807  1.00  0.00     0.023 C 
ENDROOT
BRANCH   1   2
ATOM      2  C   UNL A   1      37.127  21.812  24.501  1.00  0.00     0.023 C 
BRANCH   2   3
ATOM      3  C   UNL A   1      36.313  20.802  25.303  1.00  0.00     0.116 C 
BRANCH   3   4
ATOM      4  N   UNL A   1      35.649  21.215  26.526  1.00  0.00    -0.352 N 
ATOM      5  C   UNL A   1      34.397  21.798  26.719  1.00  0.00     0.252 C 
ATOM      6  O   UNL A   1      34.048  21.995  27.885  1.00  0.00    -0.269 OA
ATOM      7  H   UNL A   1      36.163  21.057  27.350  1.00  0.00     0.163 HD
BRANCH   5   8
ATOM      8  C   UNL A   1      33.521  22.324  25.612  1.00  0.00     0.051 A 
ATOM      9  C   UNL A   1      32.823  24.285  24.408  1.00  0.00     0.072 A 
ATOM     10  C   UNL A   1      33.425  23.722  25.524  1.00  0.00     0.043 A 
ATOM     11  N   UNL A   1      32.458  23.536  23.342  1.00  0.00    -0.248 NA
ATOM     12  C   UNL A   1      32.486  22.201  23.453  1.00  0.00     0.072 A 
ATOM     13  C   UNL A   1      32.878  21.543  24.629  1.00  0.00     0.013 A 
ATOM     14  C   UNL A   1      32.143  21.438  22.345  1.00  0.00     0.029 A 
ATOM     15  C   UNL A   1      32.636  20.156  24.725  1.00  0.00     0.014 A 
ATOM     16  C   UNL A   1      32.156  20.042  22.383  1.00  0.00     0.005 A 
ATOM     17  C   UNL A   1      32.383  19.387  23.588  1.00  0.00    -0.050 A 
ATOM     18  C   UNL A   1      32.533  17.896  23.651  1.00  0.00     0.044 C 
BRANCH   9  19
ATOM     19  C   UNL A   1      32.506  25.720  24.304  1.00  0.00     0.003 A 
ATOM     20  C   UNL A   1      34.116  28.905  22.898  1.00  0.00     0.044 C 
ATOM     21  C   UNL A   1      33.142  27.975  23.557  1.00  0.00    -0.050 A 
ATOM     22  C   UNL A   1      31.943  28.479  24.065  1.00  0.00     0.004 A 
ATOM     23  C   UNL A   1      33.412  26.601  23.677  1.00  0.00     0.014 A 
ATOM     24  C   UNL A   1      31.033  27.629  24.687  1.00  0.00     0.004 A 
ATOM     25  C   UNL A   1      31.301  26.255  24.821  1.00  0.00    -0.042 A 
ATOM     26  C   UNL A   1      30.259  25.421  25.525  1.00  0.00     0.045 C 
ENDBRANCH   9  19
ENDBRANCH   5   8
ENDBRANCH   3   4
ENDBRANCH   2   3
ENDBRANCH   1   2
BRANCH   1  27
ATOM     27  C   UNL A   1      38.055  23.942  25.761  1.00  0.00     0.116 C 
BRANCH  27  28
ATOM     28  N   UNL A   1      38.798  23.009  26.622  1.00  0.00    -0.352 N 
ATOM     29  C   UNL A   1      39.936  23.234  27.410  1.00  0.00     0.251 C 
ATOM     30  H   UNL A   1      38.444  22.091  26.648  1.00  0.00     0.163 HD
ATOM     31  O   UNL A   1      40.695  22.311  27.651  1.00  0.00    -0.269 OA
BRANCH  29  32
ATOM     32  C   UNL A   1      40.203  24.590  27.961  1.00  0.00     0.039 A 
ATOM     33  C   UNL A   1      41.456  25.062  28.366  1.00  0.00     0.014 A 
ATOM     34  C   UNL A   1      39.122  25.436  28.067  1.00  0.00     0.014 A 
ATOM     35  C   UNL A   1      41.545  26.371  28.869  1.00  0.00     0.010 A 
ATOM     36  C   UNL A   1      39.322  26.779  28.093  1.00  0.00     0.010 A 
ATOM     37  C   UNL A   1      40.440  27.226  28.746  1.00  0.00    -0.014 A 
BRANCH  37  38
ATOM     38  C   UNL A   1      40.427  28.644  29.078  1.00  0.00     0.031 A 
ATOM     39  C   UNL A   1      41.548  29.350  28.438  1.00  0.00     0.074 A 
ATOM     40  C   UNL A   1      39.391  29.319  29.633  1.00  0.00     0.049 A 
ATOM     41  N   UNL A   1      42.707  29.566  28.960  1.00  0.00    -0.248 NA
ATOM     42  C   UNL A   1      41.495  29.577  26.983  1.00  0.00     0.031 C 
ATOM     43  C   UNL A   1      38.053  28.829  29.987  1.00  0.00     0.029 A 
ATOM     44  N   UNL A   1      39.301  30.648  29.939  1.00  0.00    -0.354 N 
ATOM     45  C   UNL A   1      43.400  30.273  27.992  1.00  0.00     0.074 A 
ATOM     46  C   UNL A   1      42.760  29.938  26.752  1.00  0.00     0.031 C 
ATOM     47  C   UNL A   1      37.242  29.877  30.285  1.00  0.00     0.029 A 
ATOM     48  C   UNL A   1      38.024  31.103  30.282  1.00  0.00     0.049 A 
ATOM     49  H   UNL A   1      40.083  31.245  29.919  1.00  0.00     0.167 HD
ATOM     50  C   UNL A   1      44.182  31.330  28.347  1.00  0.00     0.034 A 
ATOM     51  C   UNL A   1      37.645  32.392  30.535  1.00  0.00     0.034 A 
ATOM     52  C   UNL A   1      44.357  31.363  29.792  1.00  0.00     0.049 A 
ATOM     53  C   UNL A   1      38.882  33.126  30.912  1.00  0.00     0.074 A 
ATOM     54  C   UNL A   1      44.797  30.448  30.733  1.00  0.00     0.029 A 
ATOM     55  N   UNL A   1      43.641  32.305  30.506  1.00  0.00    -0.354 N 
ATOM     56  N   UNL A   1      39.561  32.871  31.997  1.00  0.00    -0.248 NA
ATOM     57  C   UNL A   1      39.635  33.775  29.849  1.00  0.00     0.031 C 
ATOM     58  C   UNL A   1      43.917  30.607  31.846  1.00  0.00     0.029 A 
ATOM     59  C   UNL A   1      43.066  31.684  31.589  1.00  0.00     0.049 A 
ATOM     60  H   UNL A   1      43.557  33.259  30.278  1.00  0.00     0.167 HD
ATOM     61  C   UNL A   1      40.889  32.893  31.597  1.00  0.00     0.074 A 
ATOM     62  C   UNL A   1      40.878  33.553  30.291  1.00  0.00     0.031 C 
ATOM     63  C   UNL A   1      41.827  32.115  32.217  1.00  0.00     0.034 A 
BRANCH  50  64
ATOM     64  C   UNL A   1      44.432  32.553  27.485  1.00  0.00     0.023 A 
ATOM     65  C   UNL A   1      43.829  33.747  27.919  1.00  0.00     0.031 A 
ATOM     66  C   UNL A   1      44.974  32.589  26.180  1.00  0.00     0.131 A 
ATOM     67  C   UNL A   1      43.651  34.830  27.046  1.00  0.00     0.055 A 
ATOM     68  C   UNL A   1      44.853  33.696  25.334  1.00  0.00     0.041 A 
ATOM     69  F   UNL A   1      45.590  31.552  25.606  1.00  0.00    -0.206 F 
ATOM     70  C   UNL A   1      44.154  34.813  25.750  1.00  0.00     0.022 A 
BRANCH  67  71
ATOM     71  S   UNL A   1      42.587  36.185  27.590  1.00  0.00     0.124 S 
ATOM     72  O   UNL A   1      42.939  37.225  26.630  1.00  0.00    -0.237 OA
ATOM     73  O   UNL A   1      41.259  35.597  27.448  1.00  0.00    -0.237 OA
ATOM     74  O   UNL A   1      43.022  36.424  28.963  1.00  0.00    -0.744 OA
ENDBRANCH  67  71
ENDBRANCH  50  64
BRANCH  51  75
ATOM     75  C   UNL A   1      36.360  33.092  30.211  1.00  0.00     0.023 A 
ATOM     76  C   UNL A   1      35.522  33.685  31.190  1.00  0.00     0.031 A 
ATOM     77  C   UNL A   1      36.075  33.423  28.868  1.00  0.00     0.131 A 
ATOM     78  C   UNL A   1      34.475  34.566  30.809  1.00  0.00     0.055 A 
ATOM     79  C   UNL A   1      35.045  34.294  28.498  1.00  0.00     0.041 A 
ATOM     80  F   UNL A   1      36.853  32.984  27.867  1.00  0.00    -0.206 F 
ATOM     81  C   UNL A   1      34.246  34.878  29.467  1.00  0.00     0.022 A 
BRANCH  78  82
ATOM     82  S   UNL A   1      33.441  35.409  32.061  1.00  0.00     0.124 S 
ATOM     83  O   UNL A   1      33.100  34.321  32.969  1.00  0.00    -0.237 OA
ATOM     84  O   UNL A   1      34.343  36.431  32.580  1.00  0.00    -0.237 OA
ATOM     85  O   UNL A   1      32.317  35.931  31.282  1.00  0.00    -0.744 OA
ENDBRANCH  78  82
ENDBRANCH  51  75
BRANCH  63  86
ATOM     86  C   UNL A   1      41.497  31.510  33.572  1.00  0.00     0.023 A 
ATOM     87  C   UNL A   1      41.572  32.174  34.819  1.00  0.00     0.031 A 
ATOM     88  C   UNL A   1      40.968  30.205  33.566  1.00  0.00     0.131 A 
ATOM     89  C   UNL A   1      41.133  31.524  35.992  1.00  0.00     0.055 A 
ATOM     90  C   UNL A   1      40.513  29.577  34.722  1.00  0.00     0.041 A 
ATOM     91  F   UNL A   1      40.855  29.522  32.414  1.00  0.00    -0.206 F 
ATOM     92  C   UNL A   1      40.599  30.232  35.942  1.00  0.00     0.022 A 
BRANCH  89  93
ATOM     93  S   UNL A   1      41.268  32.331  37.623  1.00  0.00     0.124 S 
ATOM     94  O   UNL A   1      41.782  33.658  37.307  1.00  0.00    -0.237 OA
ATOM     95  O   UNL A   1      39.895  32.277  38.117  1.00  0.00    -0.237 OA
ATOM     96  O   UNL A   1      42.206  31.473  38.350  1.00  0.00    -0.744 OA
ENDBRANCH  89  93
ENDBRANCH  63  86
ENDBRANCH  37  38
ENDBRANCH  29  32
ENDBRANCH  27  28
ENDBRANCH   1  27
TORSDOF 15
ENDMDL
MODEL 2
REMARK VINA RESULT:     -13.7      3.957      9.750
REMARK SMILES Cc1ccc(C)c(-c2cc(C(=O)NCCCCNC(=O)c3ccc(-c4c5nc(c(-c6cc(S(=O)(=O)[O-])ccc6F)c6ccc([nH]6)c(-c6cc(S(=O)(=O)[O-])ccc6F)c6nc(c(-c7cc(S(=O)(=O)[O-])ccc7F)c7ccc4[nH]7)C=C6)C=C5)cc3)c3cc(C)ccc3n2)c1
REMARK SMILES IDX 16 1 15 2 14 3 13 4 11 5 12 6 10 8 8 9 9 10 91 11 90 12
REMARK SMILES IDX 84 13 89 14 85 15 88 16 86 17 87 18 7 19 1 20 2 21 3 22
REMARK SMILES IDX 92 23 4 24 5 25 6 26 17 27 18 28 19 29 20 31 21 32 22 33
REMARK SMILES IDX 83 34 23 35 82 36 24 37 25 38 26 39 76 40 27 41 81 42 75 43
REMARK SMILES IDX 77 44 28 45 80 46 74 47 73 48 29 50 61 51 41 52 60 53 42 54
REMARK SMILES IDX 45 55 59 56 78 57 43 58 44 59 58 61 79 62 46 63 30 64 31 65
REMARK SMILES IDX 39 66 32 67 38 68 40 69 37 70 33 71 34 72 35 73 36 74 62 75
REMARK SMILES IDX 63 76 71 77 64 78 70 79 72 80 69 81 65 82 66 83 67 84 68 85
REMARK SMILES IDX 47 86 48 87 56 88 49 89 55 90 57 91 54 92 50 93 51 94 52 95
REMARK SMILES IDX 53 96
REMARK H PARENT 13 7 18 30 77 49 45 60
REMARK Flexibility Score: inf
ROOT
ATOM      1  C   UNL A   1      33.924  30.250  27.552  1.00  0.00     0.023 C 
ENDROOT
BRANCH   1   2
ATOM      2  C   UNL A   1      32.459  30.347  27.110  1.00  0.00     0.023 C 
BRANCH   2   3
ATOM      3  C   UNL A   1      32.058  30.074  25.664  1.00  0.00     0.116 C 
BRANCH   3   4
ATOM      4  N   UNL A   1      33.080  29.834  24.661  1.00  0.00    -0.352 N 
ATOM      5  C   UNL A   1      33.220  28.787  23.751  1.00  0.00     0.252 C 
ATOM      6  O   UNL A   1      34.163  28.860  22.960  1.00  0.00    -0.269 OA
ATOM      7  H   UNL A   1      33.786  30.518  24.617  1.00  0.00     0.163 HD
BRANCH   5   8
ATOM      8  C   UNL A   1      32.396  27.527  23.765  1.00  0.00     0.051 A 
ATOM      9  C   UNL A   1      32.328  25.218  24.434  1.00  0.00     0.072 A 
ATOM     10  C   UNL A   1      33.066  26.365  24.181  1.00  0.00     0.043 A 
ATOM     11  N   UNL A   1      30.975  25.226  24.429  1.00  0.00    -0.248 NA
ATOM     12  C   UNL A   1      30.339  26.311  23.967  1.00  0.00     0.072 A 
ATOM     13  C   UNL A   1      31.016  27.443  23.485  1.00  0.00     0.013 A 
ATOM     14  C   UNL A   1      28.951  26.327  23.995  1.00  0.00     0.029 A 
ATOM     15  C   UNL A   1      30.267  28.420  22.795  1.00  0.00     0.014 A 
ATOM     16  C   UNL A   1      28.220  27.425  23.538  1.00  0.00     0.005 A 
ATOM     17  C   UNL A   1      28.877  28.478  22.910  1.00  0.00    -0.050 A 
ATOM     18  C   UNL A   1      28.150  29.731  22.520  1.00  0.00     0.044 C 
BRANCH   9  19
ATOM     19  C   UNL A   1      32.945  23.905  24.692  1.00  0.00     0.003 A 
ATOM     20  C   UNL A   1      34.009  21.795  27.713  1.00  0.00     0.044 C 
ATOM     21  C   UNL A   1      33.759  22.234  26.302  1.00  0.00    -0.050 A 
ATOM     22  C   UNL A   1      34.116  21.393  25.246  1.00  0.00     0.004 A 
ATOM     23  C   UNL A   1      33.175  23.479  26.017  1.00  0.00     0.014 A 
ATOM     24  C   UNL A   1      33.899  21.790  23.930  1.00  0.00     0.004 A 
ATOM     25  C   UNL A   1      33.325  23.041  23.636  1.00  0.00    -0.042 A 
ATOM     26  C   UNL A   1      33.145  23.385  22.178  1.00  0.00     0.045 C 
ENDBRANCH   9  19
ENDBRANCH   5   8
ENDBRANCH   3   4
ENDBRANCH   2   3
ENDBRANCH   1   2
BRANCH   1  27
ATOM     27  C   UNL A   1      34.784  31.512  27.581  1.00  0.00     0.116 C 
BRANCH  27  28
ATOM     28  N   UNL A   1      34.803  32.251  28.853  1.00  0.00    -0.352 N 
ATOM     29  C   UNL A   1      35.540  32.001  30.020  1.00  0.00     0.251 C 
ATOM     30  H   UNL A   1      34.211  33.036  28.891  1.00  0.00     0.163 HD
ATOM     31  O   UNL A   1      35.105  32.366  31.098  1.00  0.00    -0.269 OA
BRANCH  29  32
ATOM     32  C   UNL A   1      36.856  31.311  29.935  1.00  0.00     0.039 A 
ATOM     33  C   UNL A   1      38.101  31.949  29.930  1.00  0.00     0.014 A 
ATOM     34  C   UNL A   1      36.828  29.936  29.865  1.00  0.00     0.014 A 
ATOM     35  C   UNL A   1      39.257  31.155  29.844  1.00  0.00     0.010 A 
ATOM     36  C   UNL A   1      37.914  29.223  30.258  1.00  0.00     0.010 A 
ATOM     37  C   UNL A   1      39.143  29.764  29.986  1.00  0.00    -0.014 A 
BRANCH  37  38
ATOM     38  C   UNL A   1      40.255  28.829  30.072  1.00  0.00     0.031 A 
ATOM     39  C   UNL A   1      40.559  28.490  31.471  1.00  0.00     0.074 A 
ATOM     40  C   UNL A   1      40.768  28.110  29.042  1.00  0.00     0.049 A 
ATOM     41  N   UNL A   1      41.417  29.083  32.227  1.00  0.00    -0.248 NA
ATOM     42  C   UNL A   1      39.624  27.615  32.199  1.00  0.00     0.031 C 
ATOM     43  C   UNL A   1      40.324  28.054  27.644  1.00  0.00     0.029 A 
ATOM     44  N   UNL A   1      41.784  27.196  29.059  1.00  0.00    -0.354 N 
ATOM     45  C   UNL A   1      41.356  28.400  33.430  1.00  0.00     0.074 A 
ATOM     46  C   UNL A   1      40.055  27.793  33.450  1.00  0.00     0.031 C 
ATOM     47  C   UNL A   1      40.946  27.032  27.004  1.00  0.00     0.029 A 
ATOM     48  C   UNL A   1      41.934  26.441  27.893  1.00  0.00     0.049 A 
ATOM     49  H   UNL A   1      42.371  27.079  29.840  1.00  0.00     0.167 HD
ATOM     50  C   UNL A   1      42.499  28.105  34.108  1.00  0.00     0.034 A 
ATOM     51  C   UNL A   1      42.801  25.404  27.684  1.00  0.00     0.034 A 
ATOM     52  C   UNL A   1      43.624  28.831  33.535  1.00  0.00     0.049 A 
ATOM     53  C   UNL A   1      43.897  25.569  28.675  1.00  0.00     0.074 A 
ATOM     54  C   UNL A   1      43.875  30.166  33.264  1.00  0.00     0.029 A 
ATOM     55  N   UNL A   1      44.512  28.125  32.747  1.00  0.00    -0.354 N 
ATOM     56  N   UNL A   1      44.732  26.572  28.657  1.00  0.00    -0.248 NA
ATOM     57  C   UNL A   1      43.748  24.912  29.966  1.00  0.00     0.031 C 
ATOM     58  C   UNL A   1      44.522  30.171  31.992  1.00  0.00     0.029 A 
ATOM     59  C   UNL A   1      44.746  28.849  31.602  1.00  0.00     0.049 A 
ATOM     60  H   UNL A   1      44.910  27.252  32.967  1.00  0.00     0.167 HD
ATOM     61  C   UNL A   1      44.850  26.959  29.983  1.00  0.00     0.074 A 
ATOM     62  C   UNL A   1      44.303  25.841  30.752  1.00  0.00     0.031 C 
ATOM     63  C   UNL A   1      45.100  28.260  30.320  1.00  0.00     0.034 A 
BRANCH  50  64
ATOM     64  C   UNL A   1      42.700  26.879  34.978  1.00  0.00     0.023 A 
ATOM     65  C   UNL A   1      43.511  25.865  34.437  1.00  0.00     0.031 A 
ATOM     66  C   UNL A   1      41.979  26.522  36.141  1.00  0.00     0.131 A 
ATOM     67  C   UNL A   1      43.467  24.556  34.939  1.00  0.00     0.055 A 
ATOM     68  C   UNL A   1      41.990  25.231  36.678  1.00  0.00     0.041 A 
ATOM     69  F   UNL A   1      41.167  27.358  36.793  1.00  0.00    -0.206 F 
ATOM     70  C   UNL A   1      42.707  24.227  36.055  1.00  0.00     0.022 A 
BRANCH  67  71
ATOM     71  S   UNL A   1      44.287  23.261  33.984  1.00  0.00     0.124 S 
ATOM     72  O   UNL A   1      44.452  22.224  34.996  1.00  0.00    -0.237 OA
ATOM     73  O   UNL A   1      43.305  22.993  32.939  1.00  0.00    -0.237 OA
ATOM     74  O   UNL A   1      45.520  23.902  33.535  1.00  0.00    -0.744 OA
ENDBRANCH  67  71
ENDBRANCH  50  64
BRANCH  51  75
ATOM     75  C   UNL A   1      42.614  24.146  26.892  1.00  0.00     0.023 A 
ATOM     76  C   UNL A   1      43.607  23.605  26.034  1.00  0.00     0.031 A 
ATOM     77  C   UNL A   1      41.523  23.300  27.188  1.00  0.00     0.131 A 
ATOM     78  C   UNL A   1      43.486  22.282  25.532  1.00  0.00     0.055 A 
ATOM     79  C   UNL A   1      41.411  21.997  26.693  1.00  0.00     0.041 A 
ATOM     80  F   UNL A   1      40.569  23.679  28.052  1.00  0.00    -0.206 F 
ATOM     81  C   UNL A   1      42.397  21.477  25.871  1.00  0.00     0.022 A 
BRANCH  78  82
ATOM     82  S   UNL A   1      44.798  21.536  24.497  1.00  0.00     0.124 S 
ATOM     83  O   UNL A   1      44.669  22.275  23.247  1.00  0.00    -0.237 OA
ATOM     84  O   UNL A   1      46.002  21.789  25.282  1.00  0.00    -0.237 OA
ATOM     85  O   UNL A   1      44.411  20.127  24.417  1.00  0.00    -0.744 OA
ENDBRANCH  78  82
ENDBRANCH  51  75
BRANCH  63  86
ATOM     86  C   UNL A   1      45.615  29.208  29.248  1.00  0.00     0.023 A 
ATOM     87  C   UNL A   1      44.821  30.038  28.422  1.00  0.00     0.031 A 
ATOM     88  C   UNL A   1      47.013  29.343  29.147  1.00  0.00     0.131 A 
ATOM     89  C   UNL A   1      45.437  30.951  27.539  1.00  0.00     0.055 A 
ATOM     90  C   UNL A   1      47.615  30.263  28.292  1.00  0.00     0.041 A 
ATOM     91  F   UNL A   1      47.826  28.596  29.912  1.00  0.00    -0.206 F 
ATOM     92  C   UNL A   1      46.829  31.067  27.480  1.00  0.00     0.022 A 
BRANCH  89  93
ATOM     93  S   UNL A   1      44.443  31.996  26.421  1.00  0.00     0.124 S 
ATOM     94  O   UNL A   1      45.388  32.383  25.382  1.00  0.00    -0.237 OA
ATOM     95  O   UNL A   1      43.373  31.091  26.010  1.00  0.00    -0.237 OA
ATOM     96  O   UNL A   1      44.007  33.096  27.285  1.00  0.00    -0.744 OA
ENDBRANCH  89  93
ENDBRANCH  63  86
ENDBRANCH  37  38
ENDBRANCH  29  32
ENDBRANCH  27  28
ENDBRANCH   1  27
TORSDOF 15
ENDMDL
MODEL 3
REMARK VINA RESULT:     -13.7      4.553     10.169
REMARK SMILES Cc1ccc(C)c(-c2cc(C(=O)NCCCCNC(=O)c3ccc(-c4c5nc(c(-c6cc(S(=O)(=O)[O-])ccc6F)c6ccc([nH]6)c(-c6cc(S(=O)(=O)[O-])ccc6F)c6nc(c(-c7cc(S(=O)(=O)[O-])ccc7F)c7ccc4[nH]7)C=C6)C=C5)cc3)c3cc(C)ccc3n2)c1
REMARK SMILES IDX 16 1 15 2 14 3 13 4 11 5 12 6 10 8 8 9 9 10 91 11 90 12
REMARK SMILES IDX 84 13 89 14 85 15 88 16 86 17 87 18 7 19 1 20 2 21 3 22
REMARK SMILES IDX 92 23 4 24 5 25 6 26 17 27 18 28 19 29 20 31 21 32 22 33
REMARK SMILES IDX 83 34 23 35 82 36 24 37 25 38 26 39 76 40 27 41 81 42 75 43
REMARK SMILES IDX 77 44 28 45 80 46 74 47 73 48 29 50 61 51 41 52 60 53 42 54
REMARK SMILES IDX 45 55 59 56 78 57 43 58 44 59 58 61 79 62 46 63 30 64 31 65
REMARK SMILES IDX 39 66 32 67 38 68 40 69 37 70 33 71 34 72 35 73 36 74 62 75
REMARK SMILES IDX 63 76 71 77 64 78 70 79 72 80 69 81 65 82 66 83 67 84 68 85
REMARK SMILES IDX 47 86 48 87 56 88 49 89 55 90 57 91 54 92 50 93 51 94 52 95
REMARK SMILES IDX 53 96
REMARK H PARENT 13 7 18 30 77 49 45 60
REMARK Flexibility Score: inf
ROOT
ATOM      1  C   UNL A   1      33.483  31.454  27.483  1.00  0.00     0.023 C 
ENDROOT
BRANCH   1   2
ATOM      2  C   UNL A   1      33.075  30.085  26.927  1.00  0.00     0.023 C 
BRANCH   2   3
ATOM      3  C   UNL A   1      32.395  29.962  25.567  1.00  0.00     0.116 C 
BRANCH   3   4
ATOM      4  N   UNL A   1      33.186  29.662  24.387  1.00  0.00    -0.352 N 
ATOM      5  C   UNL A   1      32.947  28.765  23.346  1.00  0.00     0.252 C 
ATOM      6  O   UNL A   1      33.765  28.751  22.424  1.00  0.00    -0.269 OA
ATOM      7  H   UNL A   1      34.023  30.173  24.309  1.00  0.00     0.163 HD
BRANCH   5   8
ATOM      8  C   UNL A   1      31.853  27.731  23.346  1.00  0.00     0.051 A 
ATOM      9  C   UNL A   1      31.254  25.487  23.972  1.00  0.00     0.072 A 
ATOM     10  C   UNL A   1      32.237  26.437  23.733  1.00  0.00     0.043 A 
ATOM     11  N   UNL A   1      29.940  25.809  23.981  1.00  0.00    -0.248 NA
ATOM     12  C   UNL A   1      29.571  27.021  23.545  1.00  0.00     0.072 A 
ATOM     13  C   UNL A   1      30.489  27.975  23.078  1.00  0.00     0.013 A 
ATOM     14  C   UNL A   1      28.225  27.358  23.587  1.00  0.00     0.029 A 
ATOM     15  C   UNL A   1      29.984  29.113  22.413  1.00  0.00     0.014 A 
ATOM     16  C   UNL A   1      27.766  28.605  23.158  1.00  0.00     0.005 A 
ATOM     17  C   UNL A   1      28.646  29.489  22.543  1.00  0.00    -0.050 A 
ATOM     18  C   UNL A   1      28.228  30.884  22.184  1.00  0.00     0.044 C 
BRANCH   9  19
ATOM     19  C   UNL A   1      31.551  24.062  24.199  1.00  0.00     0.003 A 
ATOM     20  C   UNL A   1      32.045  20.881  22.114  1.00  0.00     0.044 C 
ATOM     21  C   UNL A   1      31.943  21.814  23.283  1.00  0.00    -0.050 A 
ATOM     22  C   UNL A   1      32.131  21.322  24.575  1.00  0.00     0.004 A 
ATOM     23  C   UNL A   1      31.659  23.178  23.104  1.00  0.00     0.014 A 
ATOM     24  C   UNL A   1      32.031  22.174  25.671  1.00  0.00     0.004 A 
ATOM     25  C   UNL A   1      31.735  23.539  25.502  1.00  0.00    -0.042 A 
ATOM     26  C   UNL A   1      31.632  24.376  26.753  1.00  0.00     0.045 C 
ENDBRANCH   9  19
ENDBRANCH   5   8
ENDBRANCH   3   4
ENDBRANCH   2   3
ENDBRANCH   1   2
BRANCH   1  27
ATOM     27  C   UNL A   1      34.627  31.543  28.492  1.00  0.00     0.116 C 
BRANCH  27  28
ATOM     28  N   UNL A   1      35.594  32.630  28.276  1.00  0.00    -0.352 N 
ATOM     29  C   UNL A   1      36.948  32.706  28.639  1.00  0.00     0.251 C 
ATOM     30  H   UNL A   1      35.240  33.420  27.810  1.00  0.00     0.163 HD
ATOM     31  O   UNL A   1      37.457  33.793  28.841  1.00  0.00    -0.269 OA
BRANCH  29  32
ATOM     32  C   UNL A   1      37.757  31.463  28.755  1.00  0.00     0.039 A 
ATOM     33  C   UNL A   1      37.651  30.352  27.910  1.00  0.00     0.014 A 
ATOM     34  C   UNL A   1      38.684  31.422  29.772  1.00  0.00     0.014 A 
ATOM     35  C   UNL A   1      38.489  29.249  28.150  1.00  0.00     0.010 A 
ATOM     36  C   UNL A   1      39.751  30.589  29.674  1.00  0.00     0.010 A 
ATOM     37  C   UNL A   1      39.539  29.377  29.073  1.00  0.00    -0.014 A 
BRANCH  37  38
ATOM     38  C   UNL A   1      40.575  28.383  29.317  1.00  0.00     0.031 A 
ATOM     39  C   UNL A   1      40.840  28.234  30.756  1.00  0.00     0.074 A 
ATOM     40  C   UNL A   1      41.039  27.484  28.415  1.00  0.00     0.049 A 
ATOM     41  N   UNL A   1      41.736  28.867  31.433  1.00  0.00    -0.248 NA
ATOM     42  C   UNL A   1      39.834  27.550  31.587  1.00  0.00     0.031 C 
ATOM     43  C   UNL A   1      40.603  27.254  27.032  1.00  0.00     0.029 A 
ATOM     44  N   UNL A   1      41.980  26.508  28.586  1.00  0.00    -0.354 N 
ATOM     45  C   UNL A   1      41.611  28.377  32.722  1.00  0.00     0.074 A 
ATOM     46  C   UNL A   1      40.268  27.879  32.806  1.00  0.00     0.031 C 
ATOM     47  C   UNL A   1      41.149  26.104  26.562  1.00  0.00     0.029 A 
ATOM     48  C   UNL A   1      42.081  25.579  27.547  1.00  0.00     0.049 A 
ATOM     49  H   UNL A   1      42.550  26.464  29.387  1.00  0.00     0.167 HD
ATOM     50  C   UNL A   1      42.723  28.100  33.459  1.00  0.00     0.034 A 
ATOM     51  C   UNL A   1      42.867  24.460  27.510  1.00  0.00     0.034 A 
ATOM     52  C   UNL A   1      43.906  28.646  32.807  1.00  0.00     0.049 A 
ATOM     53  C   UNL A   1      43.964  24.687  28.487  1.00  0.00     0.074 A 
ATOM     54  C   UNL A   1      44.262  29.903  32.347  1.00  0.00     0.029 A 
ATOM     55  N   UNL A   1      44.742  27.766  32.149  1.00  0.00    -0.354 N 
ATOM     56  N   UNL A   1      44.874  25.611  28.337  1.00  0.00    -0.248 NA
ATOM     57  C   UNL A   1      43.754  24.243  29.858  1.00  0.00     0.031 C 
ATOM     58  C   UNL A   1      44.917  29.670  31.101  1.00  0.00     0.029 A 
ATOM     59  C   UNL A   1      45.041  28.292  30.915  1.00  0.00     0.049 A 
ATOM     60  H   UNL A   1      45.070  26.908  32.503  1.00  0.00     0.167 HD
ATOM     61  C   UNL A   1      45.012  26.180  29.594  1.00  0.00     0.074 A 
ATOM     62  C   UNL A   1      44.373  25.233  30.508  1.00  0.00     0.031 C 
ATOM     63  C   UNL A   1      45.359  27.495  29.740  1.00  0.00     0.034 A 
BRANCH  50  64
ATOM     64  C   UNL A   1      42.822  27.005  34.504  1.00  0.00     0.023 A 
ATOM     65  C   UNL A   1      43.607  25.891  34.158  1.00  0.00     0.031 A 
ATOM     66  C   UNL A   1      42.028  26.849  35.663  1.00  0.00     0.131 A 
ATOM     67  C   UNL A   1      43.476  24.672  34.837  1.00  0.00     0.055 A 
ATOM     68  C   UNL A   1      41.950  25.650  36.378  1.00  0.00     0.041 A 
ATOM     69  F   UNL A   1      41.227  27.803  36.145  1.00  0.00    -0.206 F 
ATOM     70  C   UNL A   1      42.647  24.538  35.945  1.00  0.00     0.022 A 
BRANCH  67  71
ATOM     71  S   UNL A   1      44.278  23.219  34.123  1.00  0.00     0.124 S 
ATOM     72  O   UNL A   1      43.366  22.901  33.030  1.00  0.00    -0.237 OA
ATOM     73  O   UNL A   1      45.581  23.754  33.742  1.00  0.00    -0.237 OA
ATOM     74  O   UNL A   1      44.292  22.264  35.228  1.00  0.00    -0.744 OA
ENDBRANCH  67  71
ENDBRANCH  50  64
BRANCH  51  75
ATOM     75  C   UNL A   1      42.589  23.116  26.908  1.00  0.00     0.023 A 
ATOM     76  C   UNL A   1      43.542  22.384  26.153  1.00  0.00     0.031 A 
ATOM     77  C   UNL A   1      41.438  22.404  27.311  1.00  0.00     0.131 A 
ATOM     78  C   UNL A   1      43.324  21.014  25.848  1.00  0.00     0.055 A 
ATOM     79  C   UNL A   1      41.231  21.054  27.011  1.00  0.00     0.041 A 
ATOM     80  F   UNL A   1      40.512  22.975  28.097  1.00  0.00    -0.206 F 
ATOM     81  C   UNL A   1      42.178  20.349  26.288  1.00  0.00     0.022 A 
BRANCH  78  82
ATOM     82  S   UNL A   1      44.580  20.031  24.952  1.00  0.00     0.124 S 
ATOM     83  O   UNL A   1      44.445  20.520  23.586  1.00  0.00    -0.237 OA
ATOM     84  O   UNL A   1      45.813  20.380  25.650  1.00  0.00    -0.237 OA
ATOM     85  O   UNL A   1      44.141  18.649  25.152  1.00  0.00    -0.744 OA
ENDBRANCH  78  82
ENDBRANCH  51  75
BRANCH  63  86
ATOM     86  C   UNL A   1      45.954  28.231  28.551  1.00  0.00     0.023 A 
ATOM     87  C   UNL A   1      47.309  28.191  28.142  1.00  0.00     0.031 A 
ATOM     88  C   UNL A   1      45.051  28.927  27.726  1.00  0.00     0.131 A 
ATOM     89  C   UNL A   1      47.706  28.840  26.953  1.00  0.00     0.055 A 
ATOM     90  C   UNL A   1      45.443  29.543  26.540  1.00  0.00     0.041 A 
ATOM     91  F   UNL A   1      43.748  28.993  28.046  1.00  0.00    -0.206 F 
ATOM     92  C   UNL A   1      46.774  29.507  26.151  1.00  0.00     0.022 A 
BRANCH  89  93
ATOM     93  S   UNL A   1      49.453  28.855  26.427  1.00  0.00     0.124 S 
ATOM     94  O   UNL A   1      49.789  30.273  26.393  1.00  0.00    -0.237 OA
ATOM     95  O   UNL A   1      50.104  28.067  27.471  1.00  0.00    -0.237 OA
ATOM     96  O   UNL A   1      49.418  28.207  25.114  1.00  0.00    -0.744 OA
ENDBRANCH  89  93
ENDBRANCH  63  86
ENDBRANCH  37  38
ENDBRANCH  29  32
ENDBRANCH  27  28
ENDBRANCH   1  27
TORSDOF 15
ENDMDL
