MODEL 1
REMARK VINA RESULT:     -13.9      0.000      0.000
REMARK SMILES Cc1ccccc1C(=O)Nc1ccc(N2CCCCC2)cc1C(=O)NCCCCNC(=O)c1ccc(-c2c3nc(c(-c4cc(S(=O)(=O)[O-])ccc4F)c4ccc([nH]4)c(-c4cc(S(=O)(=O)[O-])ccc4F)c4nc(c(-c5cc(S(=O)(=O)[O-])ccc5F)c5ccc2[nH]5)C=C4)C=C3)cc1
REMARK SMILES IDX 28 1 27 2 26 3 25 4 23 5 24 6 22 8 11 9 12 10 13 11 21 12
REMARK SMILES IDX 14 13 10 14 8 15 9 16 7 18 1 19 2 20 3 21 4 22 6 23 5 24
REMARK SMILES IDX 15 25 16 26 20 27 17 28 19 29 18 30 29 31 30 32 31 33 32 35
REMARK SMILES IDX 33 36 34 37 95 38 35 39 94 40 36 41 37 42 38 43 88 44 39 45
REMARK SMILES IDX 93 46 87 47 89 48 40 49 92 50 86 51 85 52 41 54 73 55 53 56
REMARK SMILES IDX 72 57 54 58 57 59 71 60 90 61 55 62 56 63 70 65 91 66 58 67
REMARK SMILES IDX 42 68 43 69 51 70 44 71 50 72 52 73 49 74 45 75 46 76 47 77
REMARK SMILES IDX 48 78 74 79 75 80 83 81 76 82 82 83 84 84 81 85 77 86 78 87
REMARK SMILES IDX 79 88 80 89 59 90 60 91 68 92 61 93 67 94 69 95 66 96 62 97
REMARK SMILES IDX 63 98 64 99 65 100
REMARK H PARENT 25 7 10 17 30 34 89 53 57 64
REMARK Flexibility Score: inf
ROOT
ATOM      1  C   UNL A   1      38.941  21.246  25.748  1.00  0.00     0.023 C 
ENDROOT
BRANCH   1   2
ATOM      2  C   UNL A   1      37.631  21.258  24.976  1.00  0.00     0.023 C 
BRANCH   2   3
ATOM      3  C   UNL A   1      37.172  22.623  24.467  1.00  0.00     0.116 C 
BRANCH   3   4
ATOM      4  N   UNL A   1      36.186  23.305  25.305  1.00  0.00    -0.352 N 
ATOM      5  C   UNL A   1      34.827  23.136  25.461  1.00  0.00     0.253 C 
ATOM      6  O   UNL A   1      34.259  23.771  26.350  1.00  0.00    -0.269 OA
ATOM      7  H   UNL A   1      36.565  24.022  25.863  1.00  0.00     0.163 HD
BRANCH   5   8
ATOM      8  C   UNL A   1      34.027  22.247  24.578  1.00  0.00     0.065 A 
ATOM      9  C   UNL A   1      33.531  22.677  23.332  1.00  0.00     0.054 A 
ATOM     10  C   UNL A   1      32.696  21.818  22.597  1.00  0.00     0.029 A 
ATOM     11  C   UNL A   1      32.509  20.500  22.996  1.00  0.00     0.028 A 
ATOM     12  C   UNL A   1      33.667  20.965  25.037  1.00  0.00     0.042 A 
ATOM     13  C   UNL A   1      33.034  20.039  24.201  1.00  0.00     0.038 A 
BRANCH   9  14
ATOM     14  N   UNL A   1      33.791  23.881  22.657  1.00  0.00    -0.321 N 
ATOM     15  C   UNL A   1      33.341  25.169  22.792  1.00  0.00     0.255 C 
ATOM     16  O   UNL A   1      33.716  25.992  21.947  1.00  0.00    -0.269 OA
ATOM     17  H   UNL A   1      34.442  23.778  21.926  1.00  0.00     0.170 HD
BRANCH  15  18
ATOM     18  C   UNL A   1      32.565  25.686  23.949  1.00  0.00     0.043 A 
ATOM     19  C   UNL A   1      30.360  24.434  23.465  1.00  0.00     0.045 C 
ATOM     20  C   UNL A   1      31.249  25.318  24.291  1.00  0.00    -0.038 A 
ATOM     21  C   UNL A   1      30.706  25.811  25.494  1.00  0.00     0.004 A 
ATOM     22  C   UNL A   1      31.456  26.601  26.365  1.00  0.00     0.000 A 
ATOM     23  C   UNL A   1      33.317  26.466  24.850  1.00  0.00     0.014 A 
ATOM     24  C   UNL A   1      32.769  26.920  26.048  1.00  0.00     0.001 A 
ENDBRANCH  15  18
ENDBRANCH   9  14
BRANCH  13  25
ATOM     25  N   UNL A   1      33.009  18.668  24.456  1.00  0.00    -0.372 N 
ATOM     26  C   UNL A   1      34.196  17.972  23.923  1.00  0.00     0.116 C 
ATOM     27  C   UNL A   1      32.614  18.195  25.790  1.00  0.00     0.116 C 
ATOM     28  C   UNL A   1      33.897  16.482  23.790  1.00  0.00     0.021 C 
ATOM     29  C   UNL A   1      32.257  16.711  25.695  1.00  0.00     0.021 C 
ATOM     30  C   UNL A   1      33.408  15.891  25.111  1.00  0.00     0.004 C 
ENDBRANCH  13  25
ENDBRANCH   5   8
ENDBRANCH   3   4
ENDBRANCH   2   3
ENDBRANCH   1   2
BRANCH   1  31
ATOM     31  C   UNL A   1      39.324  22.599  26.335  1.00  0.00     0.116 C 
BRANCH  31  32
ATOM     32  N   UNL A   1      40.763  22.853  26.360  1.00  0.00    -0.352 N 
ATOM     33  C   UNL A   1      41.420  24.064  26.560  1.00  0.00     0.251 C 
ATOM     34  H   UNL A   1      41.341  22.069  26.215  1.00  0.00     0.163 HD
ATOM     35  O   UNL A   1      42.626  24.161  26.549  1.00  0.00    -0.269 OA
BRANCH  33  36
ATOM     36  C   UNL A   1      40.580  25.238  26.903  1.00  0.00     0.039 A 
ATOM     37  C   UNL A   1      40.826  26.424  26.206  1.00  0.00     0.014 A 
ATOM     38  C   UNL A   1      39.830  25.235  28.073  1.00  0.00     0.014 A 
ATOM     39  C   UNL A   1      40.540  27.638  26.821  1.00  0.00     0.010 A 
ATOM     40  C   UNL A   1      39.646  26.438  28.730  1.00  0.00     0.010 A 
ATOM     41  C   UNL A   1      40.070  27.634  28.135  1.00  0.00    -0.014 A 
BRANCH  41  42
ATOM     42  C   UNL A   1      40.161  28.804  29.006  1.00  0.00     0.031 A 
ATOM     43  C   UNL A   1      39.094  29.825  29.027  1.00  0.00     0.074 A 
ATOM     44  C   UNL A   1      41.214  28.939  29.845  1.00  0.00     0.049 A 
ATOM     45  N   UNL A   1      39.256  31.037  29.441  1.00  0.00    -0.248 NA
ATOM     46  C   UNL A   1      37.753  29.565  28.526  1.00  0.00     0.031 C 
ATOM     47  C   UNL A   1      41.361  29.887  30.946  1.00  0.00     0.029 A 
ATOM     48  N   UNL A   1      42.493  28.404  29.675  1.00  0.00    -0.354 N 
ATOM     49  C   UNL A   1      38.016  31.626  29.522  1.00  0.00     0.074 A 
ATOM     50  C   UNL A   1      37.121  30.683  28.891  1.00  0.00     0.031 C 
ATOM     51  C   UNL A   1      42.668  30.094  31.164  1.00  0.00     0.029 A 
ATOM     52  C   UNL A   1      43.398  29.386  30.129  1.00  0.00     0.049 A 
ATOM     53  H   UNL A   1      42.718  27.517  29.312  1.00  0.00     0.167 HD
ATOM     54  C   UNL A   1      37.868  32.791  30.214  1.00  0.00     0.034 A 
ATOM     55  C   UNL A   1      44.314  29.934  29.278  1.00  0.00     0.034 A 
ATOM     56  C   UNL A   1      39.148  33.319  30.689  1.00  0.00     0.049 A 
ATOM     57  C   UNL A   1      44.168  31.431  29.085  1.00  0.00     0.074 A 
ATOM     58  C   UNL A   1      39.800  33.354  31.910  1.00  0.00     0.029 A 
ATOM     59  N   UNL A   1      40.085  33.720  29.751  1.00  0.00    -0.354 N 
ATOM     60  N   UNL A   1      43.245  32.166  29.644  1.00  0.00    -0.248 NA
ATOM     61  C   UNL A   1      45.003  32.202  28.162  1.00  0.00     0.031 C 
ATOM     62  C   UNL A   1      41.148  33.771  31.686  1.00  0.00     0.029 A 
ATOM     63  C   UNL A   1      41.305  34.005  30.333  1.00  0.00     0.049 A 
ATOM     64  H   UNL A   1      39.904  33.792  28.786  1.00  0.00     0.167 HD
ATOM     65  C   UNL A   1      43.304  33.440  29.139  1.00  0.00     0.074 A 
ATOM     66  C   UNL A   1      44.423  33.412  28.214  1.00  0.00     0.031 C 
ATOM     67  C   UNL A   1      42.404  34.413  29.471  1.00  0.00     0.034 A 
BRANCH  54  68
ATOM     68  C   UNL A   1      36.529  33.331  30.665  1.00  0.00     0.023 A 
ATOM     69  C   UNL A   1      35.684  33.955  29.724  1.00  0.00     0.031 A 
ATOM     70  C   UNL A   1      36.041  33.307  31.986  1.00  0.00     0.131 A 
ATOM     71  C   UNL A   1      34.501  34.607  30.117  1.00  0.00     0.055 A 
ATOM     72  C   UNL A   1      34.905  34.019  32.393  1.00  0.00     0.041 A 
ATOM     73  F   UNL A   1      36.607  32.543  32.930  1.00  0.00    -0.206 F 
ATOM     74  C   UNL A   1      34.135  34.689  31.457  1.00  0.00     0.022 A 
BRANCH  71  75
ATOM     75  S   UNL A   1      33.432  35.340  28.848  1.00  0.00     0.124 S 
ATOM     76  O   UNL A   1      34.389  36.048  28.005  1.00  0.00    -0.237 OA
ATOM     77  O   UNL A   1      32.802  34.161  28.262  1.00  0.00    -0.237 OA
ATOM     78  O   UNL A   1      32.533  36.199  29.618  1.00  0.00    -0.744 OA
ENDBRANCH  71  75
ENDBRANCH  54  68
BRANCH  55  79
ATOM     79  C   UNL A   1      44.814  28.956  28.265  1.00  0.00     0.023 A 
ATOM     80  C   UNL A   1      45.703  27.960  28.726  1.00  0.00     0.031 A 
ATOM     81  C   UNL A   1      44.172  28.741  27.039  1.00  0.00     0.131 A 
ATOM     82  C   UNL A   1      45.780  26.722  28.075  1.00  0.00     0.055 A 
ATOM     83  C   UNL A   1      44.323  27.534  26.342  1.00  0.00     0.041 A 
ATOM     84  F   UNL A   1      43.288  29.628  26.561  1.00  0.00    -0.206 F 
ATOM     85  C   UNL A   1      45.088  26.500  26.885  1.00  0.00     0.022 A 
BRANCH  82  86
ATOM     86  S   UNL A   1      46.525  25.323  28.965  1.00  0.00     0.124 S 
ATOM     87  O   UNL A   1      47.263  24.638  27.911  1.00  0.00    -0.237 OA
ATOM     88  O   UNL A   1      47.346  25.983  29.977  1.00  0.00    -0.237 OA
ATOM     89  O   UNL A   1      45.376  24.605  29.510  1.00  0.00    -0.744 OA
ENDBRANCH  82  86
ENDBRANCH  55  79
BRANCH  67  90
ATOM     90  C   UNL A   1      42.474  35.829  28.952  1.00  0.00     0.023 A 
ATOM     91  C   UNL A   1      43.084  36.863  29.681  1.00  0.00     0.031 A 
ATOM     92  C   UNL A   1      41.869  36.208  27.731  1.00  0.00     0.131 A 
ATOM     93  C   UNL A   1      43.169  38.165  29.157  1.00  0.00     0.055 A 
ATOM     94  C   UNL A   1      41.881  37.521  27.252  1.00  0.00     0.041 A 
ATOM     95  F   UNL A   1      41.270  35.315  26.930  1.00  0.00    -0.206 F 
ATOM     96  C   UNL A   1      42.552  38.507  27.956  1.00  0.00     0.022 A 
BRANCH  93  97
ATOM     97  S   UNL A   1      44.181  39.384  30.036  1.00  0.00     0.124 S 
ATOM     98  O   UNL A   1      43.851  39.122  31.433  1.00  0.00    -0.237 OA
ATOM     99  O   UNL A   1      45.529  39.003  29.621  1.00  0.00    -0.237 OA
ATOM    100  O   UNL A   1      43.710  40.665  29.514  1.00  0.00    -0.744 OA
ENDBRANCH  93  97
ENDBRANCH  67  90
ENDBRANCH  41  42
ENDBRANCH  33  36
ENDBRANCH  31  32
ENDBRANCH   1  31
TORSDOF 17
ENDMDL
MODEL 2
REMARK VINA RESULT:     -13.9      4.284     10.777
REMARK SMILES Cc1ccccc1C(=O)Nc1ccc(N2CCCCC2)cc1C(=O)NCCCCNC(=O)c1ccc(-c2c3nc(c(-c4cc(S(=O)(=O)[O-])ccc4F)c4ccc([nH]4)c(-c4cc(S(=O)(=O)[O-])ccc4F)c4nc(c(-c5cc(S(=O)(=O)[O-])ccc5F)c5ccc2[nH]5)C=C4)C=C3)cc1
REMARK SMILES IDX 28 1 27 2 26 3 25 4 23 5 24 6 22 8 11 9 12 10 13 11 21 12
REMARK SMILES IDX 14 13 10 14 8 15 9 16 7 18 1 19 2 20 3 21 4 22 6 23 5 24
REMARK SMILES IDX 15 25 16 26 20 27 17 28 19 29 18 30 29 31 30 32 31 33 32 35
REMARK SMILES IDX 33 36 34 37 95 38 35 39 94 40 36 41 37 42 38 43 88 44 39 45
REMARK SMILES IDX 93 46 87 47 89 48 40 49 92 50 86 51 85 52 41 54 73 55 53 56
REMARK SMILES IDX 72 57 54 58 57 59 71 60 90 61 55 62 56 63 70 65 91 66 58 67
REMARK SMILES IDX 42 68 43 69 51 70 44 71 50 72 52 73 49 74 45 75 46 76 47 77
REMARK SMILES IDX 48 78 74 79 75 80 83 81 76 82 82 83 84 84 81 85 77 86 78 87
REMARK SMILES IDX 79 88 80 89 59 90 60 91 68 92 61 93 67 94 69 95 66 96 62 97
REMARK SMILES IDX 63 98 64 99 65 100
REMARK H PARENT 25 7 10 17 30 34 89 53 57 64
REMARK Flexibility Score: inf
ROOT
ATOM      1  C   UNL A   1      33.002  31.335  27.521  1.00  0.00     0.023 C 
ENDROOT
BRANCH   1   2
ATOM      2  C   UNL A   1      32.138  30.222  26.950  1.00  0.00     0.023 C 
BRANCH   2   3
ATOM      3  C   UNL A   1      32.525  28.802  27.361  1.00  0.00     0.116 C 
BRANCH   3   4
ATOM      4  N   UNL A   1      33.228  28.023  26.342  1.00  0.00    -0.352 N 
ATOM      5  C   UNL A   1      32.819  27.484  25.141  1.00  0.00     0.253 C 
ATOM      6  O   UNL A   1      33.671  26.982  24.408  1.00  0.00    -0.269 OA
ATOM      7  H   UNL A   1      34.174  27.851  26.555  1.00  0.00     0.163 HD
BRANCH   5   8
ATOM      8  C   UNL A   1      31.393  27.460  24.722  1.00  0.00     0.065 A 
ATOM      9  C   UNL A   1      30.492  26.482  25.185  1.00  0.00     0.054 A 
ATOM     10  C   UNL A   1      29.186  26.458  24.667  1.00  0.00     0.029 A 
ATOM     11  C   UNL A   1      28.727  27.488  23.855  1.00  0.00     0.028 A 
ATOM     12  C   UNL A   1      30.943  28.383  23.758  1.00  0.00     0.042 A 
ATOM     13  C   UNL A   1      29.589  28.496  23.427  1.00  0.00     0.038 A 
BRANCH   9  14
ATOM     14  N   UNL A   1      30.699  25.500  26.168  1.00  0.00    -0.321 N 
ATOM     15  C   UNL A   1      31.408  24.327  26.214  1.00  0.00     0.255 C 
ATOM     16  O   UNL A   1      31.298  23.637  27.234  1.00  0.00    -0.269 OA
ATOM     17  H   UNL A   1      30.231  25.697  27.012  1.00  0.00     0.170 HD
BRANCH  15  18
ATOM     18  C   UNL A   1      32.410  23.896  25.204  1.00  0.00     0.043 A 
ATOM     19  C   UNL A   1      30.779  23.548  23.234  1.00  0.00     0.045 C 
ATOM     20  C   UNL A   1      32.145  23.600  23.852  1.00  0.00    -0.038 A 
ATOM     21  C   UNL A   1      33.234  23.326  23.000  1.00  0.00     0.004 A 
ATOM     22  C   UNL A   1      34.551  23.394  23.453  1.00  0.00     0.000 A 
ATOM     23  C   UNL A   1      33.747  23.982  25.640  1.00  0.00     0.014 A 
ATOM     24  C   UNL A   1      34.810  23.734  24.774  1.00  0.00     0.001 A 
ENDBRANCH  15  18
ENDBRANCH   9  14
BRANCH  13  25
ATOM     25  N   UNL A   1      29.044  29.616  22.799  1.00  0.00    -0.372 N 
ATOM     26  C   UNL A   1      28.952  30.780  23.701  1.00  0.00     0.116 C 
ATOM     27  C   UNL A   1      29.494  29.967  21.446  1.00  0.00     0.116 C 
ATOM     28  C   UNL A   1      27.939  31.776  23.145  1.00  0.00     0.021 C 
ATOM     29  C   UNL A   1      28.479  30.931  20.829  1.00  0.00     0.021 C 
ATOM     30  C   UNL A   1      28.270  32.166  21.707  1.00  0.00     0.004 C 
ENDBRANCH  13  25
ENDBRANCH   5   8
ENDBRANCH   3   4
ENDBRANCH   2   3
ENDBRANCH   1   2
BRANCH   1  31
ATOM     31  C   UNL A   1      34.444  30.922  27.788  1.00  0.00     0.116 C 
BRANCH  31  32
ATOM     32  N   UNL A   1      35.076  31.643  28.891  1.00  0.00    -0.352 N 
ATOM     33  C   UNL A   1      36.192  31.270  29.635  1.00  0.00     0.251 C 
ATOM     34  H   UNL A   1      34.660  32.500  29.139  1.00  0.00     0.163 HD
ATOM     35  O   UNL A   1      36.627  31.945  30.541  1.00  0.00    -0.269 OA
BRANCH  33  36
ATOM     36  C   UNL A   1      36.912  30.047  29.203  1.00  0.00     0.039 A 
ATOM     37  C   UNL A   1      37.116  29.054  30.165  1.00  0.00     0.014 A 
ATOM     38  C   UNL A   1      37.624  30.047  28.009  1.00  0.00     0.014 A 
ATOM     39  C   UNL A   1      38.215  28.211  30.040  1.00  0.00     0.010 A 
ATOM     40  C   UNL A   1      38.775  29.286  27.939  1.00  0.00     0.010 A 
ATOM     41  C   UNL A   1      39.111  28.421  28.991  1.00  0.00    -0.014 A 
BRANCH  41  42
ATOM     42  C   UNL A   1      40.483  27.917  29.014  1.00  0.00     0.031 A 
ATOM     43  C   UNL A   1      40.800  26.550  28.553  1.00  0.00     0.074 A 
ATOM     44  C   UNL A   1      41.490  28.723  29.419  1.00  0.00     0.049 A 
ATOM     45  N   UNL A   1      41.862  25.898  28.889  1.00  0.00    -0.248 NA
ATOM     46  C   UNL A   1      39.903  25.783  27.701  1.00  0.00     0.031 C 
ATOM     47  C   UNL A   1      42.926  28.493  29.282  1.00  0.00     0.029 A 
ATOM     48  N   UNL A   1      41.394  29.806  30.296  1.00  0.00    -0.354 N 
ATOM     49  C   UNL A   1      41.930  24.768  28.109  1.00  0.00     0.074 A 
ATOM     50  C   UNL A   1      40.659  24.718  27.423  1.00  0.00     0.031 C 
ATOM     51  C   UNL A   1      43.564  29.181  30.239  1.00  0.00     0.029 A 
ATOM     52  C   UNL A   1      42.555  29.771  31.098  1.00  0.00     0.049 A 
ATOM     53  H   UNL A   1      40.663  30.463  30.344  1.00  0.00     0.167 HD
ATOM     54  C   UNL A   1      43.097  24.065  28.043  1.00  0.00     0.034 A 
ATOM     55  C   UNL A   1      42.461  29.612  32.450  1.00  0.00     0.034 A 
ATOM     56  C   UNL A   1      44.112  24.590  28.958  1.00  0.00     0.049 A 
ATOM     57  C   UNL A   1      43.136  28.361  32.979  1.00  0.00     0.074 A 
ATOM     58  C   UNL A   1      45.250  25.368  28.815  1.00  0.00     0.029 A 
ATOM     59  N   UNL A   1      43.872  24.521  30.320  1.00  0.00    -0.354 N 
ATOM     60  N   UNL A   1      43.743  27.474  32.237  1.00  0.00    -0.248 NA
ATOM     61  C   UNL A   1      43.094  27.965  34.388  1.00  0.00     0.031 C 
ATOM     62  C   UNL A   1      45.679  25.773  30.115  1.00  0.00     0.029 A 
ATOM     63  C   UNL A   1      44.814  25.227  31.044  1.00  0.00     0.049 A 
ATOM     64  H   UNL A   1      43.121  24.030  30.723  1.00  0.00     0.167 HD
ATOM     65  C   UNL A   1      44.104  26.399  33.009  1.00  0.00     0.074 A 
ATOM     66  C   UNL A   1      43.677  26.756  34.350  1.00  0.00     0.031 C 
ATOM     67  C   UNL A   1      44.680  25.273  32.492  1.00  0.00     0.034 A 
BRANCH  54  68
ATOM     68  C   UNL A   1      43.396  23.041  26.972  1.00  0.00     0.023 A 
ATOM     69  C   UNL A   1      42.805  21.763  27.054  1.00  0.00     0.031 A 
ATOM     70  C   UNL A   1      44.268  23.230  25.881  1.00  0.00     0.131 A 
ATOM     71  C   UNL A   1      43.166  20.727  26.172  1.00  0.00     0.055 A 
ATOM     72  C   UNL A   1      44.687  22.183  25.049  1.00  0.00     0.041 A 
ATOM     73  F   UNL A   1      44.704  24.447  25.533  1.00  0.00    -0.206 F 
ATOM     74  C   UNL A   1      44.146  20.916  25.203  1.00  0.00     0.022 A 
BRANCH  71  75
ATOM     75  S   UNL A   1      42.326  19.126  26.298  1.00  0.00     0.124 S 
ATOM     76  O   UNL A   1      40.980  19.442  25.833  1.00  0.00    -0.237 OA
ATOM     77  O   UNL A   1      43.134  18.287  25.419  1.00  0.00    -0.237 OA
ATOM     78  O   UNL A   1      42.427  18.801  27.721  1.00  0.00    -0.744 OA
ENDBRANCH  71  75
ENDBRANCH  54  68
BRANCH  55  79
ATOM     79  C   UNL A   1      41.250  30.272  33.024  1.00  0.00     0.023 A 
ATOM     80  C   UNL A   1      41.291  31.679  33.148  1.00  0.00     0.031 A 
ATOM     81  C   UNL A   1      39.997  29.650  33.068  1.00  0.00     0.131 A 
ATOM     82  C   UNL A   1      40.108  32.428  33.114  1.00  0.00     0.055 A 
ATOM     83  C   UNL A   1      38.814  30.400  33.127  1.00  0.00     0.041 A 
ATOM     84  F   UNL A   1      39.883  28.322  32.919  1.00  0.00    -0.206 F 
ATOM     85  C   UNL A   1      38.865  31.795  33.098  1.00  0.00     0.022 A 
BRANCH  82  86
ATOM     86  S   UNL A   1      40.222  34.209  32.768  1.00  0.00     0.124 S 
ATOM     87  O   UNL A   1      41.509  34.315  32.093  1.00  0.00    -0.237 OA
ATOM     88  O   UNL A   1      39.052  34.450  31.926  1.00  0.00    -0.237 OA
ATOM     89  O   UNL A   1      40.139  34.827  34.087  1.00  0.00    -0.744 OA
ENDBRANCH  82  86
ENDBRANCH  55  79
BRANCH  67  90
ATOM     90  C   UNL A   1      45.115  24.095  33.331  1.00  0.00     0.023 A 
ATOM     91  C   UNL A   1      46.415  23.989  33.851  1.00  0.00     0.031 A 
ATOM     92  C   UNL A   1      44.256  23.001  33.584  1.00  0.00     0.131 A 
ATOM     93  C   UNL A   1      46.784  22.900  34.662  1.00  0.00     0.055 A 
ATOM     94  C   UNL A   1      44.652  21.880  34.319  1.00  0.00     0.041 A 
ATOM     95  F   UNL A   1      42.985  22.985  33.161  1.00  0.00    -0.206 F 
ATOM     96  C   UNL A   1      45.917  21.832  34.882  1.00  0.00     0.022 A 
BRANCH  93  97
ATOM     97  S   UNL A   1      48.390  22.951  35.496  1.00  0.00     0.124 S 
ATOM     98  O   UNL A   1      48.369  24.257  36.147  1.00  0.00    -0.237 OA
ATOM     99  O   UNL A   1      48.297  21.798  36.388  1.00  0.00    -0.237 OA
ATOM    100  O   UNL A   1      49.352  22.813  34.404  1.00  0.00    -0.744 OA
ENDBRANCH  93  97
ENDBRANCH  67  90
ENDBRANCH  41  42
ENDBRANCH  33  36
ENDBRANCH  31  32
ENDBRANCH   1  31
TORSDOF 17
ENDMDL
MODEL 3
REMARK VINA RESULT:     -13.3      1.824      2.218
REMARK SMILES Cc1ccccc1C(=O)Nc1ccc(N2CCCCC2)cc1C(=O)NCCCCNC(=O)c1ccc(-c2c3nc(c(-c4cc(S(=O)(=O)[O-])ccc4F)c4ccc([nH]4)c(-c4cc(S(=O)(=O)[O-])ccc4F)c4nc(c(-c5cc(S(=O)(=O)[O-])ccc5F)c5ccc2[nH]5)C=C4)C=C3)cc1
REMARK SMILES IDX 28 1 27 2 26 3 25 4 23 5 24 6 22 8 11 9 12 10 13 11 21 12
REMARK SMILES IDX 14 13 10 14 8 15 9 16 7 18 1 19 2 20 3 21 4 22 6 23 5 24
REMARK SMILES IDX 15 25 16 26 20 27 17 28 19 29 18 30 29 31 30 32 31 33 32 35
REMARK SMILES IDX 33 36 34 37 95 38 35 39 94 40 36 41 37 42 38 43 88 44 39 45
REMARK SMILES IDX 93 46 87 47 89 48 40 49 92 50 86 51 85 52 41 54 73 55 53 56
REMARK SMILES IDX 72 57 54 58 57 59 71 60 90 61 55 62 56 63 70 65 91 66 58 67
REMARK SMILES IDX 42 68 43 69 51 70 44 71 50 72 52 73 49 74 45 75 46 76 47 77
REMARK SMILES IDX 48 78 74 79 75 80 83 81 76 82 82 83 84 84 81 85 77 86 78 87
REMARK SMILES IDX 79 88 80 89 59 90 60 91 68 92 61 93 67 94 69 95 66 96 62 97
REMARK SMILES IDX 63 98 64 99 65 100
REMARK H PARENT 25 7 10 17 30 34 89 53 57 64
REMARK Flexibility Score: inf
ROOT
ATOM      1  C   UNL A   1      38.723  20.966  25.385  1.00  0.00     0.023 C 
ENDROOT
BRANCH   1   2
ATOM      2  C   UNL A   1      37.436  21.262  24.631  1.00  0.00     0.023 C 
BRANCH   2   3
ATOM      3  C   UNL A   1      37.110  22.740  24.427  1.00  0.00     0.116 C 
BRANCH   3   4
ATOM      4  N   UNL A   1      36.123  23.298  25.352  1.00  0.00    -0.352 N 
ATOM      5  C   UNL A   1      34.785  23.029  25.552  1.00  0.00     0.253 C 
ATOM      6  O   UNL A   1      34.221  23.564  26.506  1.00  0.00    -0.269 OA
ATOM      7  H   UNL A   1      36.482  23.998  25.943  1.00  0.00     0.163 HD
BRANCH   5   8
ATOM      8  C   UNL A   1      34.003  22.152  24.642  1.00  0.00     0.065 A 
ATOM      9  C   UNL A   1      33.547  22.592  23.384  1.00  0.00     0.054 A 
ATOM     10  C   UNL A   1      32.726  21.744  22.622  1.00  0.00     0.029 A 
ATOM     11  C   UNL A   1      32.516  20.426  23.009  1.00  0.00     0.028 A 
ATOM     12  C   UNL A   1      33.619  20.871  25.084  1.00  0.00     0.042 A 
ATOM     13  C   UNL A   1      33.002  19.955  24.226  1.00  0.00     0.038 A 
BRANCH   9  14
ATOM     14  N   UNL A   1      33.838  23.797  22.723  1.00  0.00    -0.321 N 
ATOM     15  C   UNL A   1      33.254  25.037  22.694  1.00  0.00     0.255 C 
ATOM     16  O   UNL A   1      33.728  25.869  21.910  1.00  0.00    -0.269 OA
ATOM     17  H   UNL A   1      34.640  23.738  22.155  1.00  0.00     0.170 HD
BRANCH  15  18
ATOM     18  C   UNL A   1      32.200  25.506  23.630  1.00  0.00     0.043 A 
ATOM     19  C   UNL A   1      33.747  26.691  25.321  1.00  0.00     0.045 C 
ATOM     20  C   UNL A   1      32.405  26.296  24.778  1.00  0.00    -0.038 A 
ATOM     21  C   UNL A   1      31.277  26.757  25.486  1.00  0.00     0.004 A 
ATOM     22  C   UNL A   1      29.980  26.493  25.046  1.00  0.00     0.000 A 
ATOM     23  C   UNL A   1      30.883  25.267  23.187  1.00  0.00     0.014 A 
ATOM     24  C   UNL A   1      29.782  25.756  23.887  1.00  0.00     0.001 A 
ENDBRANCH  15  18
ENDBRANCH   9  14
BRANCH  13  25
ATOM     25  N   UNL A   1      32.957  18.583  24.474  1.00  0.00    -0.372 N 
ATOM     26  C   UNL A   1      34.065  17.855  23.826  1.00  0.00     0.116 C 
ATOM     27  C   UNL A   1      32.674  18.110  25.836  1.00  0.00     0.116 C 
ATOM     28  C   UNL A   1      33.707  16.376  23.714  1.00  0.00     0.021 C 
ATOM     29  C   UNL A   1      32.263  16.639  25.767  1.00  0.00     0.021 C 
ATOM     30  C   UNL A   1      33.326  15.789  25.071  1.00  0.00     0.004 C 
ENDBRANCH  13  25
ENDBRANCH   5   8
ENDBRANCH   3   4
ENDBRANCH   2   3
ENDBRANCH   1   2
BRANCH   1  31
ATOM     31  C   UNL A   1      39.218  22.125  26.241  1.00  0.00     0.116 C 
BRANCH  31  32
ATOM     32  N   UNL A   1      40.663  22.336  26.183  1.00  0.00    -0.352 N 
ATOM     33  C   UNL A   1      41.364  23.531  26.311  1.00  0.00     0.251 C 
ATOM     34  H   UNL A   1      41.209  21.530  26.034  1.00  0.00     0.163 HD
ATOM     35  O   UNL A   1      42.571  23.591  26.236  1.00  0.00    -0.269 OA
BRANCH  33  36
ATOM     36  C   UNL A   1      40.578  24.740  26.661  1.00  0.00     0.039 A 
ATOM     37  C   UNL A   1      41.028  25.962  26.153  1.00  0.00     0.014 A 
ATOM     38  C   UNL A   1      39.653  24.690  27.697  1.00  0.00     0.014 A 
ATOM     39  C   UNL A   1      40.746  27.128  26.857  1.00  0.00     0.010 A 
ATOM     40  C   UNL A   1      39.464  25.829  28.456  1.00  0.00     0.010 A 
ATOM     41  C   UNL A   1      40.073  27.034  28.077  1.00  0.00    -0.014 A 
BRANCH  41  42
ATOM     42  C   UNL A   1      40.119  28.092  29.084  1.00  0.00     0.031 A 
ATOM     43  C   UNL A   1      39.174  29.227  29.041  1.00  0.00     0.074 A 
ATOM     44  C   UNL A   1      41.007  28.016  30.101  1.00  0.00     0.049 A 
ATOM     45  N   UNL A   1      39.377  30.363  29.619  1.00  0.00    -0.248 NA
ATOM     46  C   UNL A   1      37.929  29.180  28.289  1.00  0.00     0.031 C 
ATOM     47  C   UNL A   1      41.042  28.826  31.316  1.00  0.00     0.029 A 
ATOM     48  N   UNL A   1      42.235  27.351  30.092  1.00  0.00    -0.354 N 
ATOM     49  C   UNL A   1      38.209  31.085  29.554  1.00  0.00     0.074 A 
ATOM     50  C   UNL A   1      37.355  30.324  28.670  1.00  0.00     0.031 C 
ATOM     51  C   UNL A   1      42.300  28.852  31.779  1.00  0.00     0.029 A 
ATOM     52  C   UNL A   1      43.135  28.168  30.809  1.00  0.00     0.049 A 
ATOM     53  H   UNL A   1      42.433  26.484  29.670  1.00  0.00     0.167 HD
ATOM     54  C   UNL A   1      38.052  32.186  30.344  1.00  0.00     0.034 A 
ATOM     55  C   UNL A   1      44.242  28.684  30.200  1.00  0.00     0.034 A 
ATOM     56  C   UNL A   1      39.269  32.507  31.091  1.00  0.00     0.049 A 
ATOM     57  C   UNL A   1      44.285  30.199  30.164  1.00  0.00     0.074 A 
ATOM     58  C   UNL A   1      39.684  32.342  32.403  1.00  0.00     0.029 A 
ATOM     59  N   UNL A   1      40.399  32.883  30.384  1.00  0.00    -0.354 N 
ATOM     60  N   UNL A   1      43.352  30.980  30.639  1.00  0.00    -0.248 NA
ATOM     61  C   UNL A   1      45.349  30.953  29.498  1.00  0.00     0.031 C 
ATOM     62  C   UNL A   1      41.085  32.615  32.465  1.00  0.00     0.029 A 
ATOM     63  C   UNL A   1      41.512  32.962  31.197  1.00  0.00     0.049 A 
ATOM     64  H   UNL A   1      40.407  33.072  29.418  1.00  0.00     0.167 HD
ATOM     65  C   UNL A   1      43.630  32.282  30.307  1.00  0.00     0.074 A 
ATOM     66  C   UNL A   1      44.893  32.212  29.593  1.00  0.00     0.031 C 
ATOM     67  C   UNL A   1      42.787  33.319  30.593  1.00  0.00     0.034 A 
BRANCH  54  68
ATOM     68  C   UNL A   1      36.714  32.835  30.618  1.00  0.00     0.023 A 
ATOM     69  C   UNL A   1      36.034  33.484  29.567  1.00  0.00     0.031 A 
ATOM     70  C   UNL A   1      36.075  32.891  31.872  1.00  0.00     0.131 A 
ATOM     71  C   UNL A   1      34.865  34.232  29.799  1.00  0.00     0.055 A 
ATOM     72  C   UNL A   1      34.956  33.695  32.122  1.00  0.00     0.041 A 
ATOM     73  F   UNL A   1      36.468  32.122  32.896  1.00  0.00    -0.206 F 
ATOM     74  C   UNL A   1      34.352  34.385  31.083  1.00  0.00     0.022 A 
BRANCH  71  75
ATOM     75  S   UNL A   1      34.009  34.994  28.394  1.00  0.00     0.124 S 
ATOM     76  O   UNL A   1      34.431  36.387  28.489  1.00  0.00    -0.237 OA
ATOM     77  O   UNL A   1      34.537  34.234  27.266  1.00  0.00    -0.237 OA
ATOM     78  O   UNL A   1      32.596  34.755  28.688  1.00  0.00    -0.744 OA
ENDBRANCH  71  75
ENDBRANCH  54  68
BRANCH  55  79
ATOM     79  C   UNL A   1      44.820  27.759  29.179  1.00  0.00     0.023 A 
ATOM     80  C   UNL A   1      44.947  28.261  27.865  1.00  0.00     0.031 A 
ATOM     81  C   UNL A   1      45.571  26.628  29.521  1.00  0.00     0.131 A 
ATOM     82  C   UNL A   1      45.937  27.762  27.008  1.00  0.00     0.055 A 
ATOM     83  C   UNL A   1      46.497  26.073  28.626  1.00  0.00     0.041 A 
ATOM     84  F   UNL A   1      45.527  26.122  30.762  1.00  0.00    -0.206 F 
ATOM     85  C   UNL A   1      46.720  26.671  27.385  1.00  0.00     0.022 A 
BRANCH  82  86
ATOM     86  S   UNL A   1      46.398  28.749  25.553  1.00  0.00     0.124 S 
ATOM     87  O   UNL A   1      47.855  28.722  25.605  1.00  0.00    -0.237 OA
ATOM     88  O   UNL A   1      45.797  28.001  24.451  1.00  0.00    -0.237 OA
ATOM     89  O   UNL A   1      45.774  30.045  25.799  1.00  0.00    -0.744 OA
ENDBRANCH  82  86
ENDBRANCH  55  79
BRANCH  67  90
ATOM     90  C   UNL A   1      43.092  34.760  30.265  1.00  0.00     0.023 A 
ATOM     91  C   UNL A   1      43.042  35.254  28.952  1.00  0.00     0.031 A 
ATOM     92  C   UNL A   1      43.512  35.679  31.256  1.00  0.00     0.131 A 
ATOM     93  C   UNL A   1      43.294  36.611  28.679  1.00  0.00     0.055 A 
ATOM     94  C   UNL A   1      43.844  37.005  30.969  1.00  0.00     0.041 A 
ATOM     95  F   UNL A   1      43.584  35.340  32.550  1.00  0.00    -0.206 F 
ATOM     96  C   UNL A   1      43.717  37.487  29.676  1.00  0.00     0.022 A 
BRANCH  93  97
ATOM     97  S   UNL A   1      42.971  37.228  27.007  1.00  0.00     0.124 S 
ATOM     98  O   UNL A   1      44.205  37.936  26.686  1.00  0.00    -0.237 OA
ATOM     99  O   UNL A   1      42.743  35.986  26.272  1.00  0.00    -0.237 OA
ATOM    100  O   UNL A   1      41.791  38.075  27.173  1.00  0.00    -0.744 OA
ENDBRANCH  93  97
ENDBRANCH  67  90
ENDBRANCH  41  42
ENDBRANCH  33  36
ENDBRANCH  31  32
ENDBRANCH   1  31
TORSDOF 17
ENDMDL
