MODEL 1
REMARK VINA RESULT:     -12.6      0.000      0.000
REMARK SMILES C[C@H]1CN(c2ccc([N+](=O)[O-])c(C(=O)NCCCCNC(=O)c3ccc(-c4c5nc(c(-c6cc(S(=O)(=O)[O-])ccc6F)c6ccc([nH]6)c(-c6cc(S(=O)(=O)[O-])ccc6F)c6nc(c(-c7cc(S(=O)(=O)[O-])ccc7F)c7ccc4[nH]7)C=C6)C=C5)cc3)c2)C[C@H](C)O1
REMARK SMILES IDX 18 1 17 2 16 3 15 4 13 5 14 6 12 8 5 9 6 10 86 11 7 12 8 13
REMARK SMILES IDX 4 14 1 15 2 16 3 17 90 18 88 19 87 20 89 21 9 22 10 23 11 24
REMARK SMILES IDX 19 25 20 26 21 27 22 29 23 30 24 31 85 32 25 33 84 34 26 35
REMARK SMILES IDX 27 36 28 37 78 38 29 39 83 40 77 41 79 42 30 43 82 44 76 45
REMARK SMILES IDX 75 46 31 48 63 49 43 50 62 51 44 52 47 53 61 54 80 55 45 56
REMARK SMILES IDX 46 57 60 59 81 60 48 61 32 62 33 63 41 64 34 65 40 66 42 67
REMARK SMILES IDX 39 68 35 69 36 70 37 71 38 72 64 73 65 74 73 75 66 76 72 77
REMARK SMILES IDX 74 78 71 79 67 80 68 81 69 82 70 83 49 84 50 85 58 86 51 87
REMARK SMILES IDX 57 88 59 89 56 90 52 91 53 92 54 93 55 94
REMARK H PARENT 15 7 20 28 79 47 47 58
REMARK Flexibility Score: inf
ROOT
ATOM      1  C   UNL A   1      31.645  31.772  26.811  1.00  0.00     0.023 C 
ENDROOT
BRANCH   1   2
ATOM      2  C   UNL A   1      31.840  30.283  26.575  1.00  0.00     0.023 C 
BRANCH   2   3
ATOM      3  C   UNL A   1      33.223  29.845  26.116  1.00  0.00     0.116 C 
BRANCH   3   4
ATOM      4  N   UNL A   1      33.382  29.708  24.671  1.00  0.00    -0.352 N 
ATOM      5  C   UNL A   1      32.695  28.991  23.706  1.00  0.00     0.258 C 
ATOM      6  O   UNL A   1      33.127  29.032  22.558  1.00  0.00    -0.269 OA
ATOM      7  H   UNL A   1      34.132  30.233  24.308  1.00  0.00     0.163 HD
BRANCH   5   8
ATOM      8  C   UNL A   1      31.543  28.101  24.030  1.00  0.00     0.119 A 
ATOM      9  C   UNL A   1      30.921  25.826  24.689  1.00  0.00     0.038 A 
ATOM     10  C   UNL A   1      29.721  25.976  23.988  1.00  0.00     0.033 A 
ATOM     11  C   UNL A   1      31.735  26.959  24.806  1.00  0.00     0.047 A 
ATOM     12  C   UNL A   1      29.360  27.208  23.436  1.00  0.00     0.088 A 
ATOM     13  C   UNL A   1      30.286  28.260  23.452  1.00  0.00     0.282 A 
BRANCH   9  14
ATOM     14  N   UNL A   1      31.336  24.622  25.202  1.00  0.00    -0.366 N 
ATOM     15  C   UNL A   1      32.311  21.426  23.445  1.00  0.00     0.040 C 
ATOM     16  C   UNL A   1      32.456  22.735  24.209  1.00  0.00     0.135 C 
ATOM     17  C   UNL A   1      31.083  23.339  24.538  1.00  0.00     0.148 C 
ATOM     18  O   UNL A   1      33.203  22.492  25.420  1.00  0.00    -0.372 OA
ATOM     19  C   UNL A   1      33.381  23.674  26.233  1.00  0.00     0.135 C 
ATOM     20  C   UNL A   1      32.079  24.479  26.460  1.00  0.00     0.148 C 
ATOM     21  C   UNL A   1      34.502  24.545  25.674  1.00  0.00     0.040 C 
ENDBRANCH   9  14
BRANCH  13  22
ATOM     22  N   UNL A   1      29.826  29.545  22.963  1.00  0.00     0.063 N 
ATOM     23  O   UNL A   1      29.613  30.423  23.812  1.00  0.00    -0.258 OA
ATOM     24  O   UNL A   1      29.850  29.716  21.737  1.00  0.00    -0.258 OA
ENDBRANCH  13  22
ENDBRANCH   5   8
ENDBRANCH   3   4
ENDBRANCH   2   3
ENDBRANCH   1   2
BRANCH   1  25
ATOM     25  C   UNL A   1      32.849  32.525  27.367  1.00  0.00     0.116 C 
BRANCH  25  26
ATOM     26  N   UNL A   1      32.580  33.921  27.669  1.00  0.00    -0.352 N 
ATOM     27  C   UNL A   1      33.183  34.760  28.583  1.00  0.00     0.251 C 
ATOM     28  H   UNL A   1      31.858  34.331  27.141  1.00  0.00     0.163 HD
ATOM     29  O   UNL A   1      32.742  35.886  28.745  1.00  0.00    -0.269 OA
BRANCH  27  30
ATOM     30  C   UNL A   1      34.329  34.278  29.393  1.00  0.00     0.039 A 
ATOM     31  C   UNL A   1      34.066  33.560  30.561  1.00  0.00     0.014 A 
ATOM     32  C   UNL A   1      35.650  34.508  28.999  1.00  0.00     0.014 A 
ATOM     33  C   UNL A   1      35.123  33.005  31.287  1.00  0.00     0.010 A 
ATOM     34  C   UNL A   1      36.696  33.879  29.672  1.00  0.00     0.010 A 
ATOM     35  C   UNL A   1      36.446  33.119  30.823  1.00  0.00    -0.014 A 
BRANCH  35  36
ATOM     36  C   UNL A   1      37.558  32.429  31.530  1.00  0.00     0.031 A 
ATOM     37  C   UNL A   1      38.303  31.300  30.869  1.00  0.00     0.074 A 
ATOM     38  C   UNL A   1      37.869  32.798  32.791  1.00  0.00     0.049 A 
ATOM     39  N   UNL A   1      39.308  30.595  31.322  1.00  0.00    -0.248 NA
ATOM     40  C   UNL A   1      37.841  30.887  29.534  1.00  0.00     0.031 C 
ATOM     41  C   UNL A   1      37.169  33.828  33.565  1.00  0.00     0.029 A 
ATOM     42  N   UNL A   1      38.847  32.356  33.646  1.00  0.00    -0.354 N 
ATOM     43  C   UNL A   1      39.589  29.651  30.340  1.00  0.00     0.074 A 
ATOM     44  C   UNL A   1      38.611  29.836  29.291  1.00  0.00     0.031 C 
ATOM     45  C   UNL A   1      37.765  33.964  34.760  1.00  0.00     0.029 A 
ATOM     46  C   UNL A   1      38.860  33.006  34.860  1.00  0.00     0.049 A 
ATOM     47  H   UNL A   1      39.483  31.640  33.412  1.00  0.00     0.167 HD
ATOM     48  C   UNL A   1      40.584  28.731  30.309  1.00  0.00     0.034 A 
ATOM     49  C   UNL A   1      39.661  32.848  35.933  1.00  0.00     0.034 A 
ATOM     50  C   UNL A   1      41.565  28.575  31.356  1.00  0.00     0.049 A 
ATOM     51  C   UNL A   1      40.772  31.830  35.861  1.00  0.00     0.074 A 
ATOM     52  C   UNL A   1      42.667  27.738  31.385  1.00  0.00     0.029 A 
ATOM     53  N   UNL A   1      41.556  29.258  32.566  1.00  0.00    -0.354 N 
ATOM     54  N   UNL A   1      41.085  31.016  34.878  1.00  0.00    -0.248 NA
ATOM     55  C   UNL A   1      41.650  31.725  37.033  1.00  0.00     0.031 C 
ATOM     56  C   UNL A   1      43.275  27.856  32.639  1.00  0.00     0.029 A 
ATOM     57  C   UNL A   1      42.607  28.831  33.363  1.00  0.00     0.049 A 
ATOM     58  H   UNL A   1      40.899  29.945  32.820  1.00  0.00     0.167 HD
ATOM     59  C   UNL A   1      42.213  30.320  35.308  1.00  0.00     0.074 A 
ATOM     60  C   UNL A   1      42.542  30.838  36.619  1.00  0.00     0.031 C 
ATOM     61  C   UNL A   1      42.913  29.342  34.678  1.00  0.00     0.034 A 
BRANCH  48  62
ATOM     62  C   UNL A   1      40.649  27.803  29.117  1.00  0.00     0.023 A 
ATOM     63  C   UNL A   1      41.581  27.985  28.080  1.00  0.00     0.031 A 
ATOM     64  C   UNL A   1      39.766  26.713  29.021  1.00  0.00     0.131 A 
ATOM     65  C   UNL A   1      41.570  27.129  26.967  1.00  0.00     0.055 A 
ATOM     66  C   UNL A   1      39.810  25.818  27.950  1.00  0.00     0.041 A 
ATOM     67  F   UNL A   1      38.839  26.500  29.968  1.00  0.00    -0.206 F 
ATOM     68  C   UNL A   1      40.708  26.031  26.909  1.00  0.00     0.022 A 
BRANCH  65  69
ATOM     69  S   UNL A   1      42.613  27.540  25.542  1.00  0.00     0.124 S 
ATOM     70  O   UNL A   1      41.942  28.729  25.019  1.00  0.00    -0.237 OA
ATOM     71  O   UNL A   1      43.916  27.761  26.157  1.00  0.00    -0.237 OA
ATOM     72  O   UNL A   1      42.517  26.356  24.692  1.00  0.00    -0.744 OA
ENDBRANCH  65  69
ENDBRANCH  48  62
BRANCH  49  73
ATOM     73  C   UNL A   1      39.448  33.654  37.172  1.00  0.00     0.023 A 
ATOM     74  C   UNL A   1      38.759  33.126  38.276  1.00  0.00     0.031 A 
ATOM     75  C   UNL A   1      39.876  34.992  37.245  1.00  0.00     0.131 A 
ATOM     76  C   UNL A   1      38.461  33.947  39.376  1.00  0.00     0.055 A 
ATOM     77  C   UNL A   1      39.634  35.786  38.367  1.00  0.00     0.041 A 
ATOM     78  F   UNL A   1      40.543  35.550  36.221  1.00  0.00    -0.206 F 
ATOM     79  C   UNL A   1      38.906  35.270  39.435  1.00  0.00     0.022 A 
BRANCH  76  80
ATOM     80  S   UNL A   1      37.383  33.295  40.681  1.00  0.00     0.124 S 
ATOM     81  O   UNL A   1      36.303  32.697  39.904  1.00  0.00    -0.237 OA
ATOM     82  O   UNL A   1      38.271  32.363  41.368  1.00  0.00    -0.237 OA
ATOM     83  O   UNL A   1      37.018  34.485  41.447  1.00  0.00    -0.744 OA
ENDBRANCH  76  80
ENDBRANCH  49  73
BRANCH  61  84
ATOM     84  C   UNL A   1      44.124  28.798  35.401  1.00  0.00     0.023 A 
ATOM     85  C   UNL A   1      44.028  27.704  36.280  1.00  0.00     0.031 A 
ATOM     86  C   UNL A   1      45.381  29.408  35.241  1.00  0.00     0.131 A 
ATOM     87  C   UNL A   1      45.148  27.306  37.025  1.00  0.00     0.055 A 
ATOM     88  C   UNL A   1      46.509  28.957  35.929  1.00  0.00     0.041 A 
ATOM     89  F   UNL A   1      45.532  30.457  34.418  1.00  0.00    -0.206 F 
ATOM     90  C   UNL A   1      46.392  27.913  36.842  1.00  0.00     0.022 A 
BRANCH  87  91
ATOM     91  S   UNL A   1      44.923  26.073  38.337  1.00  0.00     0.124 S 
ATOM     92  O   UNL A   1      44.158  25.037  37.651  1.00  0.00    -0.237 OA
ATOM     93  O   UNL A   1      46.298  25.728  38.679  1.00  0.00    -0.237 OA
ATOM     94  O   UNL A   1      44.191  26.802  39.371  1.00  0.00    -0.744 OA
ENDBRANCH  87  91
ENDBRANCH  61  84
ENDBRANCH  35  36
ENDBRANCH  27  30
ENDBRANCH  25  26
ENDBRANCH   1  25
TORSDOF 16
ENDMDL
MODEL 2
REMARK VINA RESULT:     -12.3      3.193      8.528
REMARK SMILES C[C@H]1CN(c2ccc([N+](=O)[O-])c(C(=O)NCCCCNC(=O)c3ccc(-c4c5nc(c(-c6cc(S(=O)(=O)[O-])ccc6F)c6ccc([nH]6)c(-c6cc(S(=O)(=O)[O-])ccc6F)c6nc(c(-c7cc(S(=O)(=O)[O-])ccc7F)c7ccc4[nH]7)C=C6)C=C5)cc3)c2)C[C@H](C)O1
REMARK SMILES IDX 18 1 17 2 16 3 15 4 13 5 14 6 12 8 5 9 6 10 86 11 7 12 8 13
REMARK SMILES IDX 4 14 1 15 2 16 3 17 90 18 88 19 87 20 89 21 9 22 10 23 11 24
REMARK SMILES IDX 19 25 20 26 21 27 22 29 23 30 24 31 85 32 25 33 84 34 26 35
REMARK SMILES IDX 27 36 28 37 78 38 29 39 83 40 77 41 79 42 30 43 82 44 76 45
REMARK SMILES IDX 75 46 31 48 63 49 43 50 62 51 44 52 47 53 61 54 80 55 45 56
REMARK SMILES IDX 46 57 60 59 81 60 48 61 32 62 33 63 41 64 34 65 40 66 42 67
REMARK SMILES IDX 39 68 35 69 36 70 37 71 38 72 64 73 65 74 73 75 66 76 72 77
REMARK SMILES IDX 74 78 71 79 67 80 68 81 69 82 70 83 49 84 50 85 58 86 51 87
REMARK SMILES IDX 57 88 59 89 56 90 52 91 53 92 54 93 55 94
REMARK H PARENT 15 7 20 28 79 47 47 58
REMARK Flexibility Score: inf
ROOT
ATOM      1  C   UNL A   1      33.649  27.644  26.361  1.00  0.00     0.023 C 
ENDROOT
BRANCH   1   2
ATOM      2  C   UNL A   1      32.161  27.726  26.663  1.00  0.00     0.023 C 
BRANCH   2   3
ATOM      3  C   UNL A   1      31.396  26.411  26.660  1.00  0.00     0.116 C 
BRANCH   3   4
ATOM      4  N   UNL A   1      30.173  26.406  25.862  1.00  0.00    -0.352 N 
ATOM      5  C   UNL A   1      29.925  26.236  24.511  1.00  0.00     0.258 C 
ATOM      6  O   UNL A   1      28.764  26.355  24.131  1.00  0.00    -0.269 OA
ATOM      7  H   UNL A   1      29.358  26.554  26.394  1.00  0.00     0.163 HD
BRANCH   5   8
ATOM      8  C   UNL A   1      31.011  26.028  23.510  1.00  0.00     0.119 A 
ATOM      9  C   UNL A   1      32.772  24.487  22.789  1.00  0.00     0.038 A 
ATOM     10  C   UNL A   1      33.522  25.584  22.354  1.00  0.00     0.033 A 
ATOM     11  C   UNL A   1      31.467  24.742  23.226  1.00  0.00     0.047 A 
ATOM     12  C   UNL A   1      32.979  26.871  22.356  1.00  0.00     0.088 A 
ATOM     13  C   UNL A   1      31.727  27.083  22.950  1.00  0.00     0.282 A 
BRANCH   9  14
ATOM     14  N   UNL A   1      33.284  23.215  22.850  1.00  0.00    -0.366 N 
ATOM     15  C   UNL A   1      36.297  21.881  24.694  1.00  0.00     0.040 C 
ATOM     16  C   UNL A   1      34.838  22.162  24.360  1.00  0.00     0.135 C 
ATOM     17  C   UNL A   1      34.711  22.934  23.038  1.00  0.00     0.148 C 
ATOM     18  O   UNL A   1      34.125  20.909  24.281  1.00  0.00    -0.372 OA
ATOM     19  C   UNL A   1      32.727  21.063  23.948  1.00  0.00     0.135 C 
ATOM     20  C   UNL A   1      32.471  21.997  22.741  1.00  0.00     0.148 C 
ATOM     21  C   UNL A   1      31.925  21.483  25.175  1.00  0.00     0.040 C 
ENDBRANCH   9  14
BRANCH  13  22
ATOM     22  N   UNL A   1      31.163  28.414  22.834  1.00  0.00     0.063 N 
ATOM     23  O   UNL A   1      31.689  29.305  23.516  1.00  0.00    -0.258 OA
ATOM     24  O   UNL A   1      30.322  28.587  21.941  1.00  0.00    -0.258 OA
ENDBRANCH  13  22
ENDBRANCH   5   8
ENDBRANCH   3   4
ENDBRANCH   2   3
ENDBRANCH   1   2
BRANCH   1  25
ATOM     25  C   UNL A   1      34.307  28.932  25.880  1.00  0.00     0.116 C 
BRANCH  25  26
ATOM     26  N   UNL A   1      33.764  30.134  26.493  1.00  0.00    -0.352 N 
ATOM     27  C   UNL A   1      34.254  30.893  27.535  1.00  0.00     0.251 C 
ATOM     28  H   UNL A   1      32.919  30.455  26.104  1.00  0.00     0.163 HD
ATOM     29  O   UNL A   1      33.590  31.825  27.960  1.00  0.00    -0.269 OA
BRANCH  27  30
ATOM     30  C   UNL A   1      35.554  30.550  28.160  1.00  0.00     0.039 A 
ATOM     31  C   UNL A   1      35.558  29.712  29.276  1.00  0.00     0.014 A 
ATOM     32  C   UNL A   1      36.762  31.026  27.642  1.00  0.00     0.014 A 
ATOM     33  C   UNL A   1      36.773  29.288  29.822  1.00  0.00     0.010 A 
ATOM     34  C   UNL A   1      37.971  30.531  28.130  1.00  0.00     0.010 A 
ATOM     35  C   UNL A   1      37.991  29.656  29.224  1.00  0.00    -0.014 A 
BRANCH  35  36
ATOM     36  C   UNL A   1      39.279  29.109  29.732  1.00  0.00     0.031 A 
ATOM     37  C   UNL A   1      39.961  29.733  30.921  1.00  0.00     0.074 A 
ATOM     38  C   UNL A   1      39.853  28.070  29.089  1.00  0.00     0.049 A 
ATOM     39  N   UNL A   1      41.074  29.383  31.512  1.00  0.00    -0.248 NA
ATOM     40  C   UNL A   1      39.325  30.924  31.505  1.00  0.00     0.031 C 
ATOM     41  C   UNL A   1      39.325  27.429  27.882  1.00  0.00     0.029 A 
ATOM     42  N   UNL A   1      41.002  27.368  29.356  1.00  0.00    -0.354 N 
ATOM     43  C   UNL A   1      41.280  30.313  32.525  1.00  0.00     0.074 A 
ATOM     44  C   UNL A   1      40.206  31.278  32.431  1.00  0.00     0.031 C 
ATOM     45  C   UNL A   1      40.125  26.408  27.537  1.00  0.00     0.029 A 
ATOM     46  C   UNL A   1      41.245  26.343  28.469  1.00  0.00     0.049 A 
ATOM     47  H   UNL A   1      41.597  27.577  30.113  1.00  0.00     0.167 HD
ATOM     48  C   UNL A   1      42.262  30.346  33.459  1.00  0.00     0.034 A 
ATOM     49  C   UNL A   1      42.256  25.453  28.411  1.00  0.00     0.034 A 
ATOM     50  C   UNL A   1      43.314  29.363  33.551  1.00  0.00     0.049 A 
ATOM     51  C   UNL A   1      43.324  25.502  29.476  1.00  0.00     0.074 A 
ATOM     52  C   UNL A   1      44.305  29.250  34.511  1.00  0.00     0.029 A 
ATOM     53  N   UNL A   1      43.523  28.331  32.645  1.00  0.00    -0.354 N 
ATOM     54  N   UNL A   1      43.443  26.330  30.489  1.00  0.00    -0.248 NA
ATOM     55  C   UNL A   1      44.379  24.484  29.402  1.00  0.00     0.031 C 
ATOM     56  C   UNL A   1      45.157  28.205  34.142  1.00  0.00     0.029 A 
ATOM     57  C   UNL A   1      44.650  27.605  33.000  1.00  0.00     0.049 A 
ATOM     58  H   UNL A   1      42.955  28.143  31.864  1.00  0.00     0.167 HD
ATOM     59  C   UNL A   1      44.576  25.914  31.186  1.00  0.00     0.074 A 
ATOM     60  C   UNL A   1      45.077  24.743  30.497  1.00  0.00     0.031 C 
ATOM     61  C   UNL A   1      45.151  26.450  32.292  1.00  0.00     0.034 A 
BRANCH  48  62
ATOM     62  C   UNL A   1      42.262  31.495  34.442  1.00  0.00     0.023 A 
ATOM     63  C   UNL A   1      41.392  31.532  35.546  1.00  0.00     0.031 A 
ATOM     64  C   UNL A   1      43.153  32.570  34.272  1.00  0.00     0.131 A 
ATOM     65  C   UNL A   1      41.392  32.644  36.403  1.00  0.00     0.055 A 
ATOM     66  C   UNL A   1      43.202  33.637  35.171  1.00  0.00     0.041 A 
ATOM     67  F   UNL A   1      43.991  32.603  33.225  1.00  0.00    -0.206 F 
ATOM     68  C   UNL A   1      42.309  33.684  36.237  1.00  0.00     0.022 A 
BRANCH  65  69
ATOM     69  S   UNL A   1      40.095  32.771  37.663  1.00  0.00     0.124 S 
ATOM     70  O   UNL A   1      39.648  34.152  37.490  1.00  0.00    -0.237 OA
ATOM     71  O   UNL A   1      39.152  31.739  37.251  1.00  0.00    -0.237 OA
ATOM     72  O   UNL A   1      40.803  32.506  38.914  1.00  0.00    -0.744 OA
ENDBRANCH  65  69
ENDBRANCH  48  62
BRANCH  49  73
ATOM     73  C   UNL A   1      42.326  24.445  27.310  1.00  0.00     0.023 A 
ATOM     74  C   UNL A   1      41.538  23.283  27.335  1.00  0.00     0.031 A 
ATOM     75  C   UNL A   1      43.233  24.600  26.246  1.00  0.00     0.131 A 
ATOM     76  C   UNL A   1      41.717  22.293  26.355  1.00  0.00     0.055 A 
ATOM     77  C   UNL A   1      43.363  23.642  25.239  1.00  0.00     0.041 A 
ATOM     78  F   UNL A   1      44.009  25.693  26.168  1.00  0.00    -0.206 F 
ATOM     79  C   UNL A   1      42.615  22.471  25.300  1.00  0.00     0.022 A 
BRANCH  76  80
ATOM     80  S   UNL A   1      40.843  20.714  26.544  1.00  0.00     0.124 S 
ATOM     81  O   UNL A   1      39.509  21.054  26.061  1.00  0.00    -0.237 OA
ATOM     82  O   UNL A   1      41.629  19.830  25.690  1.00  0.00    -0.237 OA
ATOM     83  O   UNL A   1      40.939  20.441  27.976  1.00  0.00    -0.744 OA
ENDBRANCH  76  80
ENDBRANCH  49  73
BRANCH  61  84
ATOM     84  C   UNL A   1      46.371  25.744  32.836  1.00  0.00     0.023 A 
ATOM     85  C   UNL A   1      46.262  24.673  33.741  1.00  0.00     0.031 A 
ATOM     86  C   UNL A   1      47.661  26.175  32.478  1.00  0.00     0.131 A 
ATOM     87  C   UNL A   1      47.417  24.124  34.318  1.00  0.00     0.055 A 
ATOM     88  C   UNL A   1      48.809  25.573  32.997  1.00  0.00     0.041 A 
ATOM     89  F   UNL A   1      47.828  27.194  31.620  1.00  0.00    -0.206 F 
ATOM     90  C   UNL A   1      48.690  24.555  33.938  1.00  0.00     0.022 A 
BRANCH  87  91
ATOM     91  S   UNL A   1      47.228  22.933  35.673  1.00  0.00     0.124 S 
ATOM     92  O   UNL A   1      45.924  23.298  36.216  1.00  0.00    -0.237 OA
ATOM     93  O   UNL A   1      47.291  21.654  34.974  1.00  0.00    -0.237 OA
ATOM     94  O   UNL A   1      48.365  23.221  36.544  1.00  0.00    -0.744 OA
ENDBRANCH  87  91
ENDBRANCH  61  84
ENDBRANCH  35  36
ENDBRANCH  27  30
ENDBRANCH  25  26
ENDBRANCH   1  25
TORSDOF 16
ENDMDL
MODEL 3
REMARK VINA RESULT:     -12.3      2.405      8.173
REMARK SMILES C[C@H]1CN(c2ccc([N+](=O)[O-])c(C(=O)NCCCCNC(=O)c3ccc(-c4c5nc(c(-c6cc(S(=O)(=O)[O-])ccc6F)c6ccc([nH]6)c(-c6cc(S(=O)(=O)[O-])ccc6F)c6nc(c(-c7cc(S(=O)(=O)[O-])ccc7F)c7ccc4[nH]7)C=C6)C=C5)cc3)c2)C[C@H](C)O1
REMARK SMILES IDX 18 1 17 2 16 3 15 4 13 5 14 6 12 8 5 9 6 10 86 11 7 12 8 13
REMARK SMILES IDX 4 14 1 15 2 16 3 17 90 18 88 19 87 20 89 21 9 22 10 23 11 24
REMARK SMILES IDX 19 25 20 26 21 27 22 29 23 30 24 31 85 32 25 33 84 34 26 35
REMARK SMILES IDX 27 36 28 37 78 38 29 39 83 40 77 41 79 42 30 43 82 44 76 45
REMARK SMILES IDX 75 46 31 48 63 49 43 50 62 51 44 52 47 53 61 54 80 55 45 56
REMARK SMILES IDX 46 57 60 59 81 60 48 61 32 62 33 63 41 64 34 65 40 66 42 67
REMARK SMILES IDX 39 68 35 69 36 70 37 71 38 72 64 73 65 74 73 75 66 76 72 77
REMARK SMILES IDX 74 78 71 79 67 80 68 81 69 82 70 83 49 84 50 85 58 86 51 87
REMARK SMILES IDX 57 88 59 89 56 90 52 91 53 92 54 93 55 94
REMARK H PARENT 15 7 20 28 79 47 47 58
REMARK Flexibility Score: inf
ROOT
ATOM      1  C   UNL A   1      33.314  27.567  25.877  1.00  0.00     0.023 C 
ENDROOT
BRANCH   1   2
ATOM      2  C   UNL A   1      31.907  27.693  26.440  1.00  0.00     0.023 C 
BRANCH   2   3
ATOM      3  C   UNL A   1      31.089  26.412  26.510  1.00  0.00     0.116 C 
BRANCH   3   4
ATOM      4  N   UNL A   1      29.899  26.389  25.662  1.00  0.00    -0.352 N 
ATOM      5  C   UNL A   1      29.710  26.230  24.300  1.00  0.00     0.258 C 
ATOM      6  O   UNL A   1      28.563  26.328  23.875  1.00  0.00    -0.269 OA
ATOM      7  H   UNL A   1      29.060  26.510  26.163  1.00  0.00     0.163 HD
BRANCH   5   8
ATOM      8  C   UNL A   1      30.841  26.063  23.342  1.00  0.00     0.119 A 
ATOM      9  C   UNL A   1      32.688  24.590  22.696  1.00  0.00     0.038 A 
ATOM     10  C   UNL A   1      33.409  25.714  22.283  1.00  0.00     0.033 A 
ATOM     11  C   UNL A   1      31.358  24.794  23.083  1.00  0.00     0.047 A 
ATOM     12  C   UNL A   1      32.815  26.979  22.258  1.00  0.00     0.088 A 
ATOM     13  C   UNL A   1      31.534  27.143  22.803  1.00  0.00     0.282 A 
BRANCH   9  14
ATOM     14  N   UNL A   1      33.247  23.340  22.784  1.00  0.00    -0.366 N 
ATOM     15  C   UNL A   1      36.259  22.143  24.721  1.00  0.00     0.040 C 
ATOM     16  C   UNL A   1      34.800  22.363  24.345  1.00  0.00     0.135 C 
ATOM     17  C   UNL A   1      34.679  23.117  23.013  1.00  0.00     0.148 C 
ATOM     18  O   UNL A   1      34.139  21.082  24.260  1.00  0.00    -0.372 OA
ATOM     19  C   UNL A   1      32.746  21.178  23.888  1.00  0.00     0.135 C 
ATOM     20  C   UNL A   1      32.486  22.090  22.665  1.00  0.00     0.148 C 
ATOM     21  C   UNL A   1      31.895  21.577  25.090  1.00  0.00     0.040 C 
ENDBRANCH   9  14
BRANCH  13  22
ATOM     22  N   UNL A   1      30.922  28.449  22.658  1.00  0.00     0.063 N 
ATOM     23  O   UNL A   1      30.024  28.554  21.810  1.00  0.00    -0.258 OA
ATOM     24  O   UNL A   1      31.221  29.303  23.504  1.00  0.00    -0.258 OA
ENDBRANCH  13  22
ENDBRANCH   5   8
ENDBRANCH   3   4
ENDBRANCH   2   3
ENDBRANCH   1   2
BRANCH   1  25
ATOM     25  C   UNL A   1      33.963  28.861  25.401  1.00  0.00     0.116 C 
BRANCH  25  26
ATOM     26  N   UNL A   1      33.253  30.061  25.812  1.00  0.00    -0.352 N 
ATOM     27  C   UNL A   1      33.507  30.925  26.857  1.00  0.00     0.251 C 
ATOM     28  H   UNL A   1      32.471  30.292  25.261  1.00  0.00     0.163 HD
ATOM     29  O   UNL A   1      32.725  31.834  27.086  1.00  0.00    -0.269 OA
BRANCH  27  30
ATOM     30  C   UNL A   1      34.695  30.720  27.720  1.00  0.00     0.039 A 
ATOM     31  C   UNL A   1      34.730  29.602  28.554  1.00  0.00     0.014 A 
ATOM     32  C   UNL A   1      35.778  31.604  27.695  1.00  0.00     0.014 A 
ATOM     33  C   UNL A   1      35.879  29.328  29.300  1.00  0.00     0.010 A 
ATOM     34  C   UNL A   1      36.955  31.281  28.368  1.00  0.00     0.010 A 
ATOM     35  C   UNL A   1      37.021  30.139  29.178  1.00  0.00    -0.014 A 
BRANCH  35  36
ATOM     36  C   UNL A   1      38.283  29.780  29.879  1.00  0.00     0.031 A 
ATOM     37  C   UNL A   1      38.570  30.308  31.259  1.00  0.00     0.074 A 
ATOM     38  C   UNL A   1      39.192  29.007  29.247  1.00  0.00     0.049 A 
ATOM     39  N   UNL A   1      39.605  30.090  32.029  1.00  0.00    -0.248 NA
ATOM     40  C   UNL A   1      37.578  31.227  31.841  1.00  0.00     0.031 C 
ATOM     41  C   UNL A   1      39.061  28.497  27.880  1.00  0.00     0.029 A 
ATOM     42  N   UNL A   1      40.403  28.513  29.665  1.00  0.00    -0.354 N 
ATOM     43  C   UNL A   1      39.398  30.849  33.176  1.00  0.00     0.074 A 
ATOM     44  C   UNL A   1      38.165  31.580  32.976  1.00  0.00     0.031 C 
ATOM     45  C   UNL A   1      40.126  27.734  27.589  1.00  0.00     0.029 A 
ATOM     46  C   UNL A   1      41.038  27.731  28.726  1.00  0.00     0.049 A 
ATOM     47  H   UNL A   1      40.783  28.701  30.555  1.00  0.00     0.167 HD
ATOM     48  C   UNL A   1      40.155  30.913  34.299  1.00  0.00     0.034 A 
ATOM     49  C   UNL A   1      42.220  27.086  28.775  1.00  0.00     0.034 A 
ATOM     50  C   UNL A   1      41.371  30.160  34.490  1.00  0.00     0.049 A 
ATOM     51  C   UNL A   1      43.032  27.159  30.045  1.00  0.00     0.074 A 
ATOM     52  C   UNL A   1      42.165  30.081  35.620  1.00  0.00     0.029 A 
ATOM     53  N   UNL A   1      41.978  29.368  33.523  1.00  0.00    -0.354 N 
ATOM     54  N   UNL A   1      42.766  27.803  31.159  1.00  0.00    -0.248 NA
ATOM     55  C   UNL A   1      44.289  26.403  30.071  1.00  0.00     0.031 C 
ATOM     56  C   UNL A   1      43.291  29.309  35.313  1.00  0.00     0.029 A 
ATOM     57  C   UNL A   1      43.157  28.831  34.019  1.00  0.00     0.049 A 
ATOM     58  H   UNL A   1      41.624  29.211  32.619  1.00  0.00     0.167 HD
ATOM     59  C   UNL A   1      43.815  27.506  32.027  1.00  0.00     0.074 A 
ATOM     60  C   UNL A   1      44.693  26.600  31.317  1.00  0.00     0.031 C 
ATOM     61  C   UNL A   1      44.035  27.943  33.293  1.00  0.00     0.034 A 
BRANCH  48  62
ATOM     62  C   UNL A   1      39.706  31.847  35.399  1.00  0.00     0.023 A 
ATOM     63  C   UNL A   1      38.923  31.405  36.481  1.00  0.00     0.031 A 
ATOM     64  C   UNL A   1      40.074  33.205  35.368  1.00  0.00     0.131 A 
ATOM     65  C   UNL A   1      38.486  32.319  37.452  1.00  0.00     0.055 A 
ATOM     66  C   UNL A   1      39.701  34.094  36.378  1.00  0.00     0.041 A 
ATOM     67  F   UNL A   1      40.801  33.692  34.350  1.00  0.00    -0.206 F 
ATOM     68  C   UNL A   1      38.892  33.655  37.422  1.00  0.00     0.022 A 
BRANCH  65  69
ATOM     69  S   UNL A   1      37.280  31.766  38.688  1.00  0.00     0.124 S 
ATOM     70  O   UNL A   1      36.184  32.708  38.473  1.00  0.00    -0.237 OA
ATOM     71  O   UNL A   1      37.026  30.388  38.286  1.00  0.00    -0.237 OA
ATOM     72  O   UNL A   1      37.989  31.925  39.956  1.00  0.00    -0.744 OA
ENDBRANCH  65  69
ENDBRANCH  48  62
BRANCH  49  73
ATOM     73  C   UNL A   1      42.725  26.323  27.594  1.00  0.00     0.023 A 
ATOM     74  C   UNL A   1      42.287  25.015  27.330  1.00  0.00     0.031 A 
ATOM     75  C   UNL A   1      43.705  26.870  26.746  1.00  0.00     0.131 A 
ATOM     76  C   UNL A   1      42.873  24.275  26.290  1.00  0.00     0.055 A 
ATOM     77  C   UNL A   1      44.239  26.154  25.674  1.00  0.00     0.041 A 
ATOM     78  F   UNL A   1      44.159  28.118  26.947  1.00  0.00    -0.206 F 
ATOM     79  C   UNL A   1      43.836  24.841  25.451  1.00  0.00     0.022 A 
BRANCH  76  80
ATOM     80  S   UNL A   1      42.441  22.522  26.119  1.00  0.00     0.124 S 
ATOM     81  O   UNL A   1      43.031  22.195  24.826  1.00  0.00    -0.237 OA
ATOM     82  O   UNL A   1      43.091  21.936  27.287  1.00  0.00    -0.237 OA
ATOM     83  O   UNL A   1      40.980  22.525  26.158  1.00  0.00    -0.744 OA
ENDBRANCH  76  80
ENDBRANCH  49  73
BRANCH  61  84
ATOM     84  C   UNL A   1      45.264  27.412  33.994  1.00  0.00     0.023 A 
ATOM     85  C   UNL A   1      45.222  26.237  34.766  1.00  0.00     0.031 A 
ATOM     86  C   UNL A   1      46.481  28.111  33.923  1.00  0.00     0.131 A 
ATOM     87  C   UNL A   1      46.350  25.843  35.501  1.00  0.00     0.055 A 
ATOM     88  C   UNL A   1      47.623  27.670  34.595  1.00  0.00     0.041 A 
ATOM     89  F   UNL A   1      46.581  29.240  33.203  1.00  0.00    -0.206 F 
ATOM     90  C   UNL A   1      47.556  26.541  35.405  1.00  0.00     0.022 A 
BRANCH  87  91
ATOM     91  S   UNL A   1      46.180  24.482  36.688  1.00  0.00     0.124 S 
ATOM     92  O   UNL A   1      47.533  23.937  36.719  1.00  0.00    -0.237 OA
ATOM     93  O   UNL A   1      45.744  25.175  37.895  1.00  0.00    -0.237 OA
ATOM     94  O   UNL A   1      45.177  23.614  36.073  1.00  0.00    -0.744 OA
ENDBRANCH  87  91
ENDBRANCH  61  84
ENDBRANCH  35  36
ENDBRANCH  27  30
ENDBRANCH  25  26
ENDBRANCH   1  25
TORSDOF 16
ENDMDL
