MODEL 1
REMARK VINA RESULT:     -12.0      0.000      0.000
REMARK SMILES CC[C@@H](C(=O)Nc1ccc(OC(C)=O)cc1C(=O)NCCCCNC(=O)c1ccc(-c2c3nc(c(-c4cc(S(=O)(=O)[O-])ccc4F)c4ccc([nH]4)c(-c4cc(S(=O)(=O)[O-])ccc4F)c4nc(c(-c5cc(S(=O)(=O)[O-])ccc5F)c5ccc2[nH]5)C=C4)C=C3)cc1)c1ccccc1
REMARK SMILES IDX 21 1 20 2 19 3 17 4 18 5 16 7 7 8 8 9 9 10 15 11 10 12 6 13
REMARK SMILES IDX 4 14 5 15 3 17 2 18 1 19 90 20 91 21 95 22 92 23 94 24 93 25
REMARK SMILES IDX 11 26 12 27 13 28 14 29 22 30 23 31 24 32 25 33 26 35 27 36
REMARK SMILES IDX 28 37 89 38 29 39 88 40 30 41 31 42 32 43 82 44 33 45 87 46
REMARK SMILES IDX 81 47 83 48 34 49 86 50 80 51 79 52 35 54 67 55 47 56 66 57
REMARK SMILES IDX 48 58 51 59 65 60 84 61 49 62 50 63 64 65 85 66 52 67 36 68
REMARK SMILES IDX 37 69 45 70 38 71 44 72 46 73 43 74 39 75 40 76 41 77 42 78
REMARK SMILES IDX 68 79 69 80 77 81 70 82 76 83 78 84 75 85 71 86 72 87 73 88
REMARK SMILES IDX 74 89 53 90 54 91 62 92 55 93 61 94 63 95 60 96 56 97 57 98
REMARK SMILES IDX 58 99 59 100
REMARK H PARENT 19 6 6 16 24 34 83 53 51 64
REMARK Flexibility Score: inf
ROOT
ATOM      1  C   UNL A   1      37.081  21.327  24.799  1.00  0.00     0.023 C 
ENDROOT
BRANCH   1   2
ATOM      2  C   UNL A   1      36.444  21.840  26.091  1.00  0.00     0.116 C 
BRANCH   2   3
ATOM      3  N   UNL A   1      36.031  23.228  26.024  1.00  0.00    -0.352 N 
ATOM      4  C   UNL A   1      34.971  23.833  25.402  1.00  0.00     0.253 C 
ATOM      5  O   UNL A   1      34.936  25.066  25.417  1.00  0.00    -0.269 OA
ATOM      6  H   UNL A   1      36.618  23.848  26.514  1.00  0.00     0.163 HD
BRANCH   4   7
ATOM      7  C   UNL A   1      33.878  23.119  24.674  1.00  0.00     0.067 A 
ATOM      8  C   UNL A   1      33.243  23.485  23.475  1.00  0.00     0.054 A 
ATOM      9  C   UNL A   1      32.092  22.781  23.061  1.00  0.00     0.031 A 
ATOM     10  C   UNL A   1      31.698  21.603  23.690  1.00  0.00     0.049 A 
ATOM     11  C   UNL A   1      33.465  21.920  25.305  1.00  0.00     0.063 A 
ATOM     12  C   UNL A   1      32.436  21.149  24.770  1.00  0.00     0.131 A 
BRANCH   8  13
ATOM     13  N   UNL A   1      33.584  24.527  22.613  1.00  0.00    -0.325 N 
ATOM     14  C   UNL A   1      33.015  25.695  22.218  1.00  0.00     0.231 C 
ATOM     15  O   UNL A   1      33.658  26.247  21.307  1.00  0.00    -0.274 OA
ATOM     16  H   UNL A   1      34.457  24.378  22.182  1.00  0.00     0.169 HD
BRANCH  14  17
ATOM     17  C   UNL A   1      31.862  26.464  22.909  1.00  0.00     0.108 C 
BRANCH  17  18
ATOM     18  C   UNL A   1      31.076  27.577  22.208  1.00  0.00     0.015 C 
ATOM     19  C   UNL A   1      29.764  27.933  22.887  1.00  0.00     0.005 C 
ENDBRANCH  17  18
BRANCH  17  20
ATOM     20  C   UNL A   1      32.345  27.005  24.263  1.00  0.00    -0.036 A 
ATOM     21  C   UNL A   1      31.787  26.510  25.453  1.00  0.00     0.004 A 
ATOM     22  C   UNL A   1      33.344  27.989  24.346  1.00  0.00     0.004 A 
ATOM     23  C   UNL A   1      32.196  27.009  26.690  1.00  0.00     0.000 A 
ATOM     24  C   UNL A   1      33.752  28.486  25.586  1.00  0.00     0.000 A 
ATOM     25  C   UNL A   1      33.173  28.000  26.756  1.00  0.00     0.000 A 
ENDBRANCH  17  20
ENDBRANCH  14  17
ENDBRANCH   8  13
BRANCH  12  26
ATOM     26  O   UNL A   1      32.060  19.931  25.357  1.00  0.00    -0.427 OA
BRANCH  26  27
ATOM     27  C   UNL A   1      32.628  18.736  24.916  1.00  0.00     0.308 C 
ATOM     28  C   UNL A   1      34.037  18.816  24.399  1.00  0.00     0.139 C 
ATOM     29  O   UNL A   1      32.028  17.669  25.021  1.00  0.00    -0.252 OA
ENDBRANCH  26  27
ENDBRANCH  12  26
ENDBRANCH   4   7
ENDBRANCH   2   3
ENDBRANCH   1   2
BRANCH   1  30
ATOM     30  C   UNL A   1      38.089  20.181  24.971  1.00  0.00     0.023 C 
BRANCH  30  31
ATOM     31  C   UNL A   1      39.307  20.464  25.853  1.00  0.00     0.116 C 
BRANCH  31  32
ATOM     32  N   UNL A   1      40.276  19.382  25.892  1.00  0.00    -0.352 N 
ATOM     33  C   UNL A   1      41.628  19.402  26.144  1.00  0.00     0.251 C 
ATOM     34  H   UNL A   1      39.904  18.489  25.711  1.00  0.00     0.163 HD
ATOM     35  O   UNL A   1      42.273  18.358  26.068  1.00  0.00    -0.269 OA
BRANCH  33  36
ATOM     36  C   UNL A   1      42.324  20.675  26.443  1.00  0.00     0.039 A 
ATOM     37  C   UNL A   1      42.819  21.427  25.374  1.00  0.00     0.014 A 
ATOM     38  C   UNL A   1      42.488  21.136  27.752  1.00  0.00     0.014 A 
ATOM     39  C   UNL A   1      43.382  22.684  25.609  1.00  0.00     0.010 A 
ATOM     40  C   UNL A   1      42.988  22.422  27.980  1.00  0.00     0.010 A 
ATOM     41  C   UNL A   1      43.420  23.219  26.908  1.00  0.00    -0.014 A 
BRANCH  41  42
ATOM     42  C   UNL A   1      43.861  24.625  27.131  1.00  0.00     0.031 A 
ATOM     43  C   UNL A   1      42.912  25.658  27.674  1.00  0.00     0.074 A 
ATOM     44  C   UNL A   1      45.120  24.981  26.801  1.00  0.00     0.049 A 
ATOM     45  N   UNL A   1      43.126  26.924  27.927  1.00  0.00    -0.248 NA
ATOM     46  C   UNL A   1      41.538  25.216  27.944  1.00  0.00     0.031 C 
ATOM     47  C   UNL A   1      46.122  24.085  26.215  1.00  0.00     0.029 A 
ATOM     48  N   UNL A   1      45.776  26.182  26.909  1.00  0.00    -0.354 N 
ATOM     49  C   UNL A   1      41.916  27.433  28.385  1.00  0.00     0.074 A 
ATOM     50  C   UNL A   1      40.958  26.347  28.316  1.00  0.00     0.031 C 
ATOM     51  C   UNL A   1      47.270  24.761  26.045  1.00  0.00     0.029 A 
ATOM     52  C   UNL A   1      47.080  26.144  26.470  1.00  0.00     0.049 A 
ATOM     53  H   UNL A   1      45.352  26.996  27.267  1.00  0.00     0.167 HD
ATOM     54  C   UNL A   1      41.635  28.680  28.842  1.00  0.00     0.034 A 
ATOM     55  C   UNL A   1      48.019  27.111  26.412  1.00  0.00     0.034 A 
ATOM     56  C   UNL A   1      42.599  29.752  28.911  1.00  0.00     0.049 A 
ATOM     57  C   UNL A   1      47.678  28.491  26.911  1.00  0.00     0.074 A 
ATOM     58  C   UNL A   1      42.433  31.032  29.415  1.00  0.00     0.029 A 
ATOM     59  N   UNL A   1      43.909  29.679  28.452  1.00  0.00    -0.354 N 
ATOM     60  N   UNL A   1      46.545  28.934  27.404  1.00  0.00    -0.248 NA
ATOM     61  C   UNL A   1      48.747  29.496  26.856  1.00  0.00     0.031 C 
ATOM     62  C   UNL A   1      43.616  31.749  29.201  1.00  0.00     0.029 A 
ATOM     63  C   UNL A   1      44.547  30.898  28.629  1.00  0.00     0.049 A 
ATOM     64  H   UNL A   1      44.323  28.877  28.057  1.00  0.00     0.167 HD
ATOM     65  C   UNL A   1      46.776  30.265  27.742  1.00  0.00     0.074 A 
ATOM     66  C   UNL A   1      48.159  30.544  27.414  1.00  0.00     0.031 C 
ATOM     67  C   UNL A   1      45.922  31.173  28.279  1.00  0.00     0.034 A 
BRANCH  54  68
ATOM     68  C   UNL A   1      40.214  28.955  29.278  1.00  0.00     0.023 A 
ATOM     69  C   UNL A   1      39.839  28.916  30.633  1.00  0.00     0.031 A 
ATOM     70  C   UNL A   1      39.218  29.240  28.328  1.00  0.00     0.131 A 
ATOM     71  C   UNL A   1      38.493  29.083  30.993  1.00  0.00     0.055 A 
ATOM     72  C   UNL A   1      37.894  29.483  28.700  1.00  0.00     0.041 A 
ATOM     73  F   UNL A   1      39.511  29.272  27.019  1.00  0.00    -0.206 F 
ATOM     74  C   UNL A   1      37.521  29.391  30.038  1.00  0.00     0.022 A 
BRANCH  71  75
ATOM     75  S   UNL A   1      38.008  28.753  32.709  1.00  0.00     0.124 S 
ATOM     76  O   UNL A   1      38.080  27.295  32.761  1.00  0.00    -0.237 OA
ATOM     77  O   UNL A   1      39.026  29.471  33.468  1.00  0.00    -0.237 OA
ATOM     78  O   UNL A   1      36.658  29.306  32.796  1.00  0.00    -0.744 OA
ENDBRANCH  71  75
ENDBRANCH  54  68
BRANCH  55  79
ATOM     79  C   UNL A   1      49.370  26.818  25.854  1.00  0.00     0.023 A 
ATOM     80  C   UNL A   1      49.774  27.346  24.618  1.00  0.00     0.031 A 
ATOM     81  C   UNL A   1      50.261  25.967  26.531  1.00  0.00     0.131 A 
ATOM     82  C   UNL A   1      51.017  26.983  24.076  1.00  0.00     0.055 A 
ATOM     83  C   UNL A   1      51.517  25.648  26.011  1.00  0.00     0.041 A 
ATOM     84  F   UNL A   1      49.926  25.439  27.720  1.00  0.00    -0.206 F 
ATOM     85  C   UNL A   1      51.895  26.148  24.769  1.00  0.00     0.022 A 
BRANCH  82  86
ATOM     86  S   UNL A   1      51.438  27.558  22.407  1.00  0.00     0.124 S 
ATOM     87  O   UNL A   1      52.895  27.504  22.432  1.00  0.00    -0.237 OA
ATOM     88  O   UNL A   1      50.773  26.566  21.569  1.00  0.00    -0.237 OA
ATOM     89  O   UNL A   1      50.864  28.900  22.354  1.00  0.00    -0.744 OA
ENDBRANCH  82  86
ENDBRANCH  55  79
BRANCH  67  90
ATOM     90  C   UNL A   1      46.480  32.545  28.573  1.00  0.00     0.023 A 
ATOM     91  C   UNL A   1      46.416  33.586  27.631  1.00  0.00     0.031 A 
ATOM     92  C   UNL A   1      47.104  32.806  29.806  1.00  0.00     0.131 A 
ATOM     93  C   UNL A   1      47.019  34.822  27.913  1.00  0.00     0.055 A 
ATOM     94  C   UNL A   1      47.650  34.055  30.104  1.00  0.00     0.041 A 
ATOM     95  F   UNL A   1      47.196  31.847  30.742  1.00  0.00    -0.206 F 
ATOM     96  C   UNL A   1      47.621  35.068  29.149  1.00  0.00     0.022 A 
BRANCH  93  97
ATOM     97  S   UNL A   1      47.086  36.078  26.605  1.00  0.00     0.124 S 
ATOM     98  O   UNL A   1      47.677  35.334  25.499  1.00  0.00    -0.237 OA
ATOM     99  O   UNL A   1      45.681  36.442  26.449  1.00  0.00    -0.237 OA
ATOM    100  O   UNL A   1      47.936  37.122  27.175  1.00  0.00    -0.744 OA
ENDBRANCH  93  97
ENDBRANCH  67  90
ENDBRANCH  41  42
ENDBRANCH  33  36
ENDBRANCH  31  32
ENDBRANCH  30  31
ENDBRANCH   1  30
TORSDOF 20
ENDMDL
MODEL 2
REMARK VINA RESULT:     -11.8      2.177      7.690
REMARK SMILES CC[C@@H](C(=O)Nc1ccc(OC(C)=O)cc1C(=O)NCCCCNC(=O)c1ccc(-c2c3nc(c(-c4cc(S(=O)(=O)[O-])ccc4F)c4ccc([nH]4)c(-c4cc(S(=O)(=O)[O-])ccc4F)c4nc(c(-c5cc(S(=O)(=O)[O-])ccc5F)c5ccc2[nH]5)C=C4)C=C3)cc1)c1ccccc1
REMARK SMILES IDX 21 1 20 2 19 3 17 4 18 5 16 7 7 8 8 9 9 10 15 11 10 12 6 13
REMARK SMILES IDX 4 14 5 15 3 17 2 18 1 19 90 20 91 21 95 22 92 23 94 24 93 25
REMARK SMILES IDX 11 26 12 27 13 28 14 29 22 30 23 31 24 32 25 33 26 35 27 36
REMARK SMILES IDX 28 37 89 38 29 39 88 40 30 41 31 42 32 43 82 44 33 45 87 46
REMARK SMILES IDX 81 47 83 48 34 49 86 50 80 51 79 52 35 54 67 55 47 56 66 57
REMARK SMILES IDX 48 58 51 59 65 60 84 61 49 62 50 63 64 65 85 66 52 67 36 68
REMARK SMILES IDX 37 69 45 70 38 71 44 72 46 73 43 74 39 75 40 76 41 77 42 78
REMARK SMILES IDX 68 79 69 80 77 81 70 82 76 83 78 84 75 85 71 86 72 87 73 88
REMARK SMILES IDX 74 89 53 90 54 91 62 92 55 93 61 94 63 95 60 96 56 97 57 98
REMARK SMILES IDX 58 99 59 100
REMARK H PARENT 19 6 6 16 24 34 83 53 51 64
REMARK Flexibility Score: inf
ROOT
ATOM      1  C   UNL A   1      37.740  20.674  25.021  1.00  0.00     0.023 C 
ENDROOT
BRANCH   1   2
ATOM      2  C   UNL A   1      36.837  21.900  25.151  1.00  0.00     0.116 C 
BRANCH   2   3
ATOM      3  N   UNL A   1      35.913  21.827  26.267  1.00  0.00    -0.352 N 
ATOM      4  C   UNL A   1      34.595  21.461  26.335  1.00  0.00     0.253 C 
ATOM      5  O   UNL A   1      34.022  21.612  27.417  1.00  0.00    -0.269 OA
ATOM      6  H   UNL A   1      36.305  22.088  27.132  1.00  0.00     0.163 HD
BRANCH   4   7
ATOM      7  C   UNL A   1      33.789  20.932  25.193  1.00  0.00     0.067 A 
ATOM      8  C   UNL A   1      33.212  21.645  24.127  1.00  0.00     0.054 A 
ATOM      9  C   UNL A   1      32.314  20.984  23.261  1.00  0.00     0.031 A 
ATOM     10  C   UNL A   1      32.153  19.602  23.302  1.00  0.00     0.049 A 
ATOM     11  C   UNL A   1      33.615  19.527  25.223  1.00  0.00     0.063 A 
ATOM     12  C   UNL A   1      32.863  18.879  24.246  1.00  0.00     0.131 A 
BRANCH   8  13
ATOM     13  N   UNL A   1      33.379  22.993  23.814  1.00  0.00    -0.325 N 
ATOM     14  C   UNL A   1      32.892  24.173  24.280  1.00  0.00     0.231 C 
ATOM     15  O   UNL A   1      33.244  25.137  23.578  1.00  0.00    -0.274 OA
ATOM     16  H   UNL A   1      34.007  23.123  23.067  1.00  0.00     0.169 HD
BRANCH  14  17
ATOM     17  C   UNL A   1      32.193  24.435  25.637  1.00  0.00     0.108 C 
BRANCH  17  18
ATOM     18  C   UNL A   1      30.733  24.055  25.900  1.00  0.00     0.015 C 
ATOM     19  C   UNL A   1      30.558  22.769  26.691  1.00  0.00     0.005 C 
ENDBRANCH  17  18
BRANCH  17  20
ATOM     20  C   UNL A   1      32.379  25.908  26.033  1.00  0.00    -0.036 A 
ATOM     21  C   UNL A   1      33.651  26.497  25.956  1.00  0.00     0.004 A 
ATOM     22  C   UNL A   1      31.299  26.692  26.473  1.00  0.00     0.004 A 
ATOM     23  C   UNL A   1      33.842  27.826  26.337  1.00  0.00     0.000 A 
ATOM     24  C   UNL A   1      31.493  28.021  26.852  1.00  0.00     0.000 A 
ATOM     25  C   UNL A   1      32.765  28.585  26.791  1.00  0.00     0.000 A 
ENDBRANCH  17  20
ENDBRANCH  14  17
ENDBRANCH   8  13
BRANCH  12  26
ATOM     26  O   UNL A   1      32.735  17.482  24.236  1.00  0.00    -0.427 OA
BRANCH  26  27
ATOM     27  C   UNL A   1      33.827  16.679  23.911  1.00  0.00     0.308 C 
ATOM     28  C   UNL A   1      34.519  15.996  25.057  1.00  0.00     0.139 C 
ATOM     29  O   UNL A   1      34.150  16.485  22.742  1.00  0.00    -0.252 OA
ENDBRANCH  26  27
ENDBRANCH  12  26
ENDBRANCH   4   7
ENDBRANCH   2   3
ENDBRANCH   1   2
BRANCH   1  30
ATOM     30  C   UNL A   1      39.198  20.879  25.456  1.00  0.00     0.023 C 
BRANCH  30  31
ATOM     31  C   UNL A   1      39.778  19.845  26.425  1.00  0.00     0.116 C 
BRANCH  31  32
ATOM     32  N   UNL A   1      41.134  19.431  26.108  1.00  0.00    -0.352 N 
ATOM     33  C   UNL A   1      42.311  20.144  26.121  1.00  0.00     0.251 C 
ATOM     34  H   UNL A   1      41.227  18.488  25.843  1.00  0.00     0.163 HD
ATOM     35  O   UNL A   1      43.351  19.600  25.755  1.00  0.00    -0.269 OA
BRANCH  33  36
ATOM     36  C   UNL A   1      42.326  21.574  26.508  1.00  0.00     0.039 A 
ATOM     37  C   UNL A   1      42.383  21.892  27.867  1.00  0.00     0.014 A 
ATOM     38  C   UNL A   1      42.290  22.597  25.556  1.00  0.00     0.014 A 
ATOM     39  C   UNL A   1      42.511  23.226  28.266  1.00  0.00     0.010 A 
ATOM     40  C   UNL A   1      42.487  23.923  25.951  1.00  0.00     0.010 A 
ATOM     41  C   UNL A   1      42.622  24.250  27.309  1.00  0.00    -0.014 A 
BRANCH  41  42
ATOM     42  C   UNL A   1      42.930  25.645  27.732  1.00  0.00     0.031 A 
ATOM     43  C   UNL A   1      44.332  26.184  27.662  1.00  0.00     0.074 A 
ATOM     44  C   UNL A   1      41.940  26.418  28.224  1.00  0.00     0.049 A 
ATOM     45  N   UNL A   1      44.779  27.370  27.990  1.00  0.00    -0.248 NA
ATOM     46  C   UNL A   1      45.371  25.263  27.183  1.00  0.00     0.031 C 
ATOM     47  C   UNL A   1      40.547  25.996  28.394  1.00  0.00     0.029 A 
ATOM     48  N   UNL A   1      41.945  27.718  28.668  1.00  0.00    -0.354 N 
ATOM     49  C   UNL A   1      46.150  27.340  27.760  1.00  0.00     0.074 A 
ATOM     50  C   UNL A   1      46.466  25.996  27.321  1.00  0.00     0.031 C 
ATOM     51  C   UNL A   1      39.831  27.023  28.877  1.00  0.00     0.029 A 
ATOM     52  C   UNL A   1      40.714  28.166  29.088  1.00  0.00     0.049 A 
ATOM     53  H   UNL A   1      42.757  28.276  28.686  1.00  0.00     0.167 HD
ATOM     54  C   UNL A   1      47.055  28.344  27.881  1.00  0.00     0.034 A 
ATOM     55  C   UNL A   1      40.335  29.359  29.590  1.00  0.00     0.034 A 
ATOM     56  C   UNL A   1      46.727  29.682  28.314  1.00  0.00     0.049 A 
ATOM     57  C   UNL A   1      41.362  30.453  29.728  1.00  0.00     0.074 A 
ATOM     58  C   UNL A   1      47.557  30.787  28.410  1.00  0.00     0.029 A 
ATOM     59  N   UNL A   1      45.470  30.098  28.737  1.00  0.00    -0.354 N 
ATOM     60  N   UNL A   1      42.642  30.425  29.441  1.00  0.00    -0.248 NA
ATOM     61  C   UNL A   1      40.887  31.743  30.248  1.00  0.00     0.031 C 
ATOM     62  C   UNL A   1      46.821  31.847  28.951  1.00  0.00     0.029 A 
ATOM     63  C   UNL A   1      45.513  31.429  29.126  1.00  0.00     0.049 A 
ATOM     64  H   UNL A   1      44.666  29.529  28.758  1.00  0.00     0.167 HD
ATOM     65  C   UNL A   1      43.120  31.702  29.721  1.00  0.00     0.074 A 
ATOM     66  C   UNL A   1      41.987  32.479  30.182  1.00  0.00     0.031 C 
ATOM     67  C   UNL A   1      44.381  32.189  29.604  1.00  0.00     0.034 A 
BRANCH  54  68
ATOM     68  C   UNL A   1      48.497  28.020  27.562  1.00  0.00     0.023 A 
ATOM     69  C   UNL A   1      48.989  28.067  26.246  1.00  0.00     0.031 A 
ATOM     70  C   UNL A   1      49.385  27.640  28.583  1.00  0.00     0.131 A 
ATOM     71  C   UNL A   1      50.307  27.669  25.975  1.00  0.00     0.055 A 
ATOM     72  C   UNL A   1      50.719  27.320  28.317  1.00  0.00     0.041 A 
ATOM     73  F   UNL A   1      48.969  27.558  29.856  1.00  0.00    -0.206 F 
ATOM     74  C   UNL A   1      51.183  27.319  27.005  1.00  0.00     0.022 A 
BRANCH  71  75
ATOM     75  S   UNL A   1      50.817  27.480  24.245  1.00  0.00     0.124 S 
ATOM     76  O   UNL A   1      50.907  28.872  23.811  1.00  0.00    -0.237 OA
ATOM     77  O   UNL A   1      52.081  26.764  24.365  1.00  0.00    -0.237 OA
ATOM     78  O   UNL A   1      49.722  26.718  23.646  1.00  0.00    -0.744 OA
ENDBRANCH  71  75
ENDBRANCH  54  68
BRANCH  55  79
ATOM     79  C   UNL A   1      38.922  29.587  30.008  1.00  0.00     0.023 A 
ATOM     80  C   UNL A   1      38.051  30.365  29.228  1.00  0.00     0.031 A 
ATOM     81  C   UNL A   1      38.434  29.064  31.218  1.00  0.00     0.131 A 
ATOM     82  C   UNL A   1      36.753  30.636  29.689  1.00  0.00     0.055 A 
ATOM     83  C   UNL A   1      37.127  29.296  31.649  1.00  0.00     0.041 A 
ATOM     84  F   UNL A   1      39.224  28.309  31.999  1.00  0.00    -0.206 F 
ATOM     85  C   UNL A   1      36.282  30.097  30.888  1.00  0.00     0.022 A 
BRANCH  82  86
ATOM     86  S   UNL A   1      35.712  31.774  28.734  1.00  0.00     0.124 S 
ATOM     87  O   UNL A   1      36.666  32.814  28.366  1.00  0.00    -0.237 OA
ATOM     88  O   UNL A   1      35.245  30.918  27.649  1.00  0.00    -0.237 OA
ATOM     89  O   UNL A   1      34.684  32.179  29.690  1.00  0.00    -0.744 OA
ENDBRANCH  82  86
ENDBRANCH  55  79
BRANCH  67  90
ATOM     90  C   UNL A   1      44.586  33.645  29.952  1.00  0.00     0.023 A 
ATOM     91  C   UNL A   1      44.380  34.667  29.009  1.00  0.00     0.031 A 
ATOM     92  C   UNL A   1      45.016  34.011  31.240  1.00  0.00     0.131 A 
ATOM     93  C   UNL A   1      44.660  35.999  29.349  1.00  0.00     0.055 A 
ATOM     94  C   UNL A   1      45.236  35.343  31.591  1.00  0.00     0.041 A 
ATOM     95  F   UNL A   1      45.232  33.076  32.180  1.00  0.00    -0.206 F 
ATOM     96  C   UNL A   1      45.071  36.346  30.639  1.00  0.00     0.022 A 
BRANCH  93  97
ATOM     97  S   UNL A   1      44.566  37.267  28.055  1.00  0.00     0.124 S 
ATOM     98  O   UNL A   1      45.466  38.294  28.570  1.00  0.00    -0.237 OA
ATOM     99  O   UNL A   1      45.031  36.545  26.875  1.00  0.00    -0.237 OA
ATOM    100  O   UNL A   1      43.152  37.636  28.037  1.00  0.00    -0.744 OA
ENDBRANCH  93  97
ENDBRANCH  67  90
ENDBRANCH  41  42
ENDBRANCH  33  36
ENDBRANCH  31  32
ENDBRANCH  30  31
ENDBRANCH   1  30
TORSDOF 20
ENDMDL
MODEL 3
REMARK VINA RESULT:     -11.8      1.617      1.918
REMARK SMILES CC[C@@H](C(=O)Nc1ccc(OC(C)=O)cc1C(=O)NCCCCNC(=O)c1ccc(-c2c3nc(c(-c4cc(S(=O)(=O)[O-])ccc4F)c4ccc([nH]4)c(-c4cc(S(=O)(=O)[O-])ccc4F)c4nc(c(-c5cc(S(=O)(=O)[O-])ccc5F)c5ccc2[nH]5)C=C4)C=C3)cc1)c1ccccc1
REMARK SMILES IDX 21 1 20 2 19 3 17 4 18 5 16 7 7 8 8 9 9 10 15 11 10 12 6 13
REMARK SMILES IDX 4 14 5 15 3 17 2 18 1 19 90 20 91 21 95 22 92 23 94 24 93 25
REMARK SMILES IDX 11 26 12 27 13 28 14 29 22 30 23 31 24 32 25 33 26 35 27 36
REMARK SMILES IDX 28 37 89 38 29 39 88 40 30 41 31 42 32 43 82 44 33 45 87 46
REMARK SMILES IDX 81 47 83 48 34 49 86 50 80 51 79 52 35 54 67 55 47 56 66 57
REMARK SMILES IDX 48 58 51 59 65 60 84 61 49 62 50 63 64 65 85 66 52 67 36 68
REMARK SMILES IDX 37 69 45 70 38 71 44 72 46 73 43 74 39 75 40 76 41 77 42 78
REMARK SMILES IDX 68 79 69 80 77 81 70 82 76 83 78 84 75 85 71 86 72 87 73 88
REMARK SMILES IDX 74 89 53 90 54 91 62 92 55 93 61 94 63 95 60 96 56 97 57 98
REMARK SMILES IDX 58 99 59 100
REMARK H PARENT 19 6 6 16 24 34 83 53 51 64
REMARK Flexibility Score: inf
ROOT
ATOM      1  C   UNL A   1      37.207  21.398  25.226  1.00  0.00     0.023 C 
ENDROOT
BRANCH   1   2
ATOM      2  C   UNL A   1      36.714  22.779  25.655  1.00  0.00     0.116 C 
BRANCH   2   3
ATOM      3  N   UNL A   1      35.658  22.738  26.648  1.00  0.00    -0.352 N 
ATOM      4  C   UNL A   1      34.327  22.427  26.549  1.00  0.00     0.253 C 
ATOM      5  O   UNL A   1      33.632  22.595  27.554  1.00  0.00    -0.269 OA
ATOM      6  H   UNL A   1      35.950  22.975  27.557  1.00  0.00     0.163 HD
BRANCH   4   7
ATOM      7  C   UNL A   1      33.646  21.942  25.310  1.00  0.00     0.067 A 
ATOM      8  C   UNL A   1      33.272  22.679  24.173  1.00  0.00     0.054 A 
ATOM      9  C   UNL A   1      32.454  22.072  23.196  1.00  0.00     0.031 A 
ATOM     10  C   UNL A   1      32.188  20.707  23.221  1.00  0.00     0.049 A 
ATOM     11  C   UNL A   1      33.368  20.554  25.323  1.00  0.00     0.063 A 
ATOM     12  C   UNL A   1      32.709  19.948  24.256  1.00  0.00     0.131 A 
BRANCH   8  13
ATOM     13  N   UNL A   1      33.578  24.008  23.880  1.00  0.00    -0.325 N 
ATOM     14  C   UNL A   1      33.172  25.226  24.324  1.00  0.00     0.231 C 
ATOM     15  O   UNL A   1      33.650  26.156  23.652  1.00  0.00    -0.274 OA
ATOM     16  H   UNL A   1      34.259  24.082  23.173  1.00  0.00     0.169 HD
BRANCH  14  17
ATOM     17  C   UNL A   1      32.419  25.548  25.639  1.00  0.00     0.108 C 
BRANCH  17  18
ATOM     18  C   UNL A   1      30.929  25.247  25.832  1.00  0.00     0.015 C 
ATOM     19  C   UNL A   1      30.644  23.883  26.439  1.00  0.00     0.005 C 
ENDBRANCH  17  18
BRANCH  17  20
ATOM     20  C   UNL A   1      32.660  27.016  26.022  1.00  0.00    -0.036 A 
ATOM     21  C   UNL A   1      31.614  27.947  25.914  1.00  0.00     0.004 A 
ATOM     22  C   UNL A   1      33.910  27.459  26.484  1.00  0.00     0.004 A 
ATOM     23  C   UNL A   1      31.823  29.290  26.233  1.00  0.00     0.000 A 
ATOM     24  C   UNL A   1      34.116  28.802  26.803  1.00  0.00     0.000 A 
ATOM     25  C   UNL A   1      33.074  29.717  26.670  1.00  0.00     0.000 A 
ENDBRANCH  17  20
ENDBRANCH  14  17
ENDBRANCH   8  13
BRANCH  12  26
ATOM     26  O   UNL A   1      32.481  18.563  24.234  1.00  0.00    -0.427 OA
BRANCH  26  27
ATOM     27  C   UNL A   1      33.307  17.728  23.482  1.00  0.00     0.308 C 
ATOM     28  C   UNL A   1      34.558  17.241  24.157  1.00  0.00     0.139 C 
ATOM     29  O   UNL A   1      32.980  17.354  22.358  1.00  0.00    -0.252 OA
ENDBRANCH  26  27
ENDBRANCH  12  26
ENDBRANCH   4   7
ENDBRANCH   2   3
ENDBRANCH   1   2
BRANCH   1  30
ATOM     30  C   UNL A   1      38.730  21.200  25.266  1.00  0.00     0.023 C 
BRANCH  30  31
ATOM     31  C   UNL A   1      39.296  20.473  26.488  1.00  0.00     0.116 C 
BRANCH  31  32
ATOM     32  N   UNL A   1      40.284  19.456  26.168  1.00  0.00    -0.352 N 
ATOM     33  C   UNL A   1      41.655  19.533  26.105  1.00  0.00     0.251 C 
ATOM     34  H   UNL A   1      39.911  18.568  25.965  1.00  0.00     0.163 HD
ATOM     35  O   UNL A   1      42.301  18.547  25.753  1.00  0.00    -0.269 OA
BRANCH  33  36
ATOM     36  C   UNL A   1      42.357  20.806  26.394  1.00  0.00     0.039 A 
ATOM     37  C   UNL A   1      42.752  21.605  25.318  1.00  0.00     0.014 A 
ATOM     38  C   UNL A   1      42.624  21.219  27.702  1.00  0.00     0.014 A 
ATOM     39  C   UNL A   1      43.316  22.862  25.555  1.00  0.00     0.010 A 
ATOM     40  C   UNL A   1      43.124  22.503  27.938  1.00  0.00     0.010 A 
ATOM     41  C   UNL A   1      43.455  23.348  26.866  1.00  0.00    -0.014 A 
BRANCH  41  42
ATOM     42  C   UNL A   1      43.894  24.751  27.107  1.00  0.00     0.031 A 
ATOM     43  C   UNL A   1      42.938  25.783  27.638  1.00  0.00     0.074 A 
ATOM     44  C   UNL A   1      45.160  25.106  26.803  1.00  0.00     0.049 A 
ATOM     45  N   UNL A   1      43.150  27.047  27.904  1.00  0.00    -0.248 NA
ATOM     46  C   UNL A   1      41.558  25.341  27.880  1.00  0.00     0.031 C 
ATOM     47  C   UNL A   1      46.171  24.212  26.230  1.00  0.00     0.029 A 
ATOM     48  N   UNL A   1      45.817  26.305  26.931  1.00  0.00    -0.354 N 
ATOM     49  C   UNL A   1      41.932  27.555  28.342  1.00  0.00     0.074 A 
ATOM     50  C   UNL A   1      40.974  26.472  28.248  1.00  0.00     0.031 C 
ATOM     51  C   UNL A   1      47.324  24.886  26.086  1.00  0.00     0.029 A 
ATOM     52  C   UNL A   1      47.128  26.267  26.517  1.00  0.00     0.049 A 
ATOM     53  H   UNL A   1      45.388  27.118  27.286  1.00  0.00     0.167 HD
ATOM     54  C   UNL A   1      41.645  28.799  28.802  1.00  0.00     0.034 A 
ATOM     55  C   UNL A   1      48.070  27.232  26.482  1.00  0.00     0.034 A 
ATOM     56  C   UNL A   1      42.610  29.869  28.897  1.00  0.00     0.049 A 
ATOM     57  C   UNL A   1      47.723  28.610  26.984  1.00  0.00     0.074 A 
ATOM     58  C   UNL A   1      42.437  31.146  29.406  1.00  0.00     0.029 A 
ATOM     59  N   UNL A   1      43.928  29.796  28.462  1.00  0.00    -0.354 N 
ATOM     60  N   UNL A   1      46.582  29.052  27.459  1.00  0.00    -0.248 NA
ATOM     61  C   UNL A   1      48.795  29.613  26.956  1.00  0.00     0.031 C 
ATOM     62  C   UNL A   1      43.626  31.862  29.219  1.00  0.00     0.029 A 
ATOM     63  C   UNL A   1      44.565  31.012  28.659  1.00  0.00     0.049 A 
ATOM     64  H   UNL A   1      44.348  28.996  28.069  1.00  0.00     0.167 HD
ATOM     65  C   UNL A   1      46.809  30.381  27.809  1.00  0.00     0.074 A 
ATOM     66  C   UNL A   1      48.199  30.659  27.509  1.00  0.00     0.031 C 
ATOM     67  C   UNL A   1      45.947  31.287  28.337  1.00  0.00     0.034 A 
BRANCH  54  68
ATOM     68  C   UNL A   1      40.217  29.074  29.214  1.00  0.00     0.023 A 
ATOM     69  C   UNL A   1      39.824  29.065  30.564  1.00  0.00     0.031 A 
ATOM     70  C   UNL A   1      39.231  29.330  28.244  1.00  0.00     0.131 A 
ATOM     71  C   UNL A   1      38.473  29.231  30.902  1.00  0.00     0.055 A 
ATOM     72  C   UNL A   1      37.901  29.573  28.593  1.00  0.00     0.041 A 
ATOM     73  F   UNL A   1      39.541  29.333  26.938  1.00  0.00    -0.206 F 
ATOM     74  C   UNL A   1      37.511  29.509  29.928  1.00  0.00     0.022 A 
BRANCH  71  75
ATOM     75  S   UNL A   1      37.968  28.939  32.619  1.00  0.00     0.124 S 
ATOM     76  O   UNL A   1      38.000  27.480  32.692  1.00  0.00    -0.237 OA
ATOM     77  O   UNL A   1      38.999  29.639  33.375  1.00  0.00    -0.237 OA
ATOM     78  O   UNL A   1      36.632  29.529  32.689  1.00  0.00    -0.744 OA
ENDBRANCH  71  75
ENDBRANCH  54  68
BRANCH  55  79
ATOM     79  C   UNL A   1      49.431  26.940  25.948  1.00  0.00     0.023 A 
ATOM     80  C   UNL A   1      49.792  27.307  24.642  1.00  0.00     0.031 A 
ATOM     81  C   UNL A   1      50.378  26.249  26.724  1.00  0.00     0.131 A 
ATOM     82  C   UNL A   1      51.049  26.942  24.135  1.00  0.00     0.055 A 
ATOM     83  C   UNL A   1      51.645  25.930  26.233  1.00  0.00     0.041 A 
ATOM     84  F   UNL A   1      50.085  25.879  27.982  1.00  0.00    -0.206 F 
ATOM     85  C   UNL A   1      51.981  26.267  24.925  1.00  0.00     0.022 A 
BRANCH  82  86
ATOM     86  S   UNL A   1      51.419  27.294  22.394  1.00  0.00     0.124 S 
ATOM     87  O   UNL A   1      51.920  28.662  22.466  1.00  0.00    -0.237 OA
ATOM     88  O   UNL A   1      52.404  26.265  22.080  1.00  0.00    -0.237 OA
ATOM     89  O   UNL A   1      50.126  27.137  21.733  1.00  0.00    -0.744 OA
ENDBRANCH  82  86
ENDBRANCH  55  79
BRANCH  67  90
ATOM     90  C   UNL A   1      46.502  32.656  28.650  1.00  0.00     0.023 A 
ATOM     91  C   UNL A   1      47.055  32.959  29.907  1.00  0.00     0.031 A 
ATOM     92  C   UNL A   1      46.455  33.677  27.684  1.00  0.00     0.131 A 
ATOM     93  C   UNL A   1      47.486  34.266  30.184  1.00  0.00     0.055 A 
ATOM     94  C   UNL A   1      46.939  34.959  27.946  1.00  0.00     0.041 A 
ATOM     95  F   UNL A   1      45.934  33.444  26.469  1.00  0.00    -0.206 F 
ATOM     96  C   UNL A   1      47.446  35.263  29.207  1.00  0.00     0.022 A 
BRANCH  93  97
ATOM     97  S   UNL A   1      48.017  34.669  31.871  1.00  0.00     0.124 S 
ATOM     98  O   UNL A   1      47.678  33.450  32.596  1.00  0.00    -0.237 OA
ATOM     99  O   UNL A   1      49.442  34.932  31.696  1.00  0.00    -0.237 OA
ATOM    100  O   UNL A   1      47.210  35.839  32.215  1.00  0.00    -0.744 OA
ENDBRANCH  93  97
ENDBRANCH  67  90
ENDBRANCH  41  42
ENDBRANCH  33  36
ENDBRANCH  31  32
ENDBRANCH  30  31
ENDBRANCH   1  30
TORSDOF 20
ENDMDL
