MODEL 1
REMARK VINA RESULT:     -12.1      0.000      0.000
REMARK SMILES [NH3+]Cc1c(-c2ccccc2)c(C(=O)NCCCCNC(=O)c2ccc(-c3c4nc(c(-c5cc(S(=O)(=O)[O-])ccc5F)c5ccc([nH]5)c(-c5cc(S(=O)(=O)[O-])ccc5F)c5nc(c(-c6cc(S(=O)(=O)[O-])ccc6F)c6ccc3[nH]6)C=C5)C=C4)cc2)c2ccccn12
REMARK SMILES IDX 17 1 16 2 15 3 14 4 12 5 13 6 11 8 3 9 4 10 90 11 85 12
REMARK SMILES IDX 89 13 86 14 88 15 87 16 2 17 1 18 5 22 6 23 10 24 7 25 9 26
REMARK SMILES IDX 8 27 18 28 19 29 20 30 21 32 22 33 23 34 84 35 24 36 83 37
REMARK SMILES IDX 25 38 26 39 27 40 77 41 28 42 82 43 76 44 78 45 29 46 81 47
REMARK SMILES IDX 75 48 74 49 30 51 62 52 42 53 61 54 43 55 46 56 60 57 79 58
REMARK SMILES IDX 44 59 45 60 59 62 80 63 47 64 31 65 32 66 40 67 33 68 39 69
REMARK SMILES IDX 41 70 38 71 34 72 35 73 36 74 37 75 63 76 64 77 72 78 65 79
REMARK SMILES IDX 71 80 73 81 70 82 66 83 67 84 68 85 69 86 48 87 49 88 57 89
REMARK SMILES IDX 50 90 56 91 58 92 55 93 51 94 52 95 53 96 54 97
REMARK H PARENT 14 7 1 19 1 20 1 21 19 31 78 50 46 61
REMARK Flexibility Score: inf
ROOT
ATOM      1  C   UNL A   1      31.305  32.131  26.550  1.00  0.00     0.023 C 
ENDROOT
BRANCH   1   2
ATOM      2  C   UNL A   1      31.364  30.831  25.751  1.00  0.00     0.023 C 
BRANCH   2   3
ATOM      3  C   UNL A   1      32.570  29.923  25.979  1.00  0.00     0.116 C 
BRANCH   3   4
ATOM      4  N   UNL A   1      33.410  29.691  24.821  1.00  0.00    -0.352 N 
ATOM      5  C   UNL A   1      33.199  28.915  23.697  1.00  0.00     0.254 C 
ATOM      6  O   UNL A   1      34.063  28.958  22.825  1.00  0.00    -0.269 OA
ATOM      7  H   UNL A   1      34.273  30.166  24.837  1.00  0.00     0.163 HD
BRANCH   5   8
ATOM      8  C   UNL A   1      32.045  28.012  23.599  1.00  0.00     0.073 A 
ATOM      9  C   UNL A   1      30.735  26.127  23.833  1.00  0.00     0.086 A 
ATOM     10  C   UNL A   1      32.049  26.598  23.872  1.00  0.00     0.022 A 
ATOM     11  N   UNL A   1      29.938  27.215  23.514  1.00  0.00    -0.314 N 
ATOM     12  C   UNL A   1      30.766  28.270  23.126  1.00  0.00     0.059 A 
ATOM     13  C   UNL A   1      28.543  27.340  23.528  1.00  0.00     0.092 A 
ATOM     14  C   UNL A   1      30.140  29.358  22.440  1.00  0.00     0.027 A 
ATOM     15  C   UNL A   1      27.963  28.444  23.030  1.00  0.00     0.018 A 
ATOM     16  C   UNL A   1      28.800  29.454  22.413  1.00  0.00     0.004 A 
BRANCH   9  17
ATOM     17  C   UNL A   1      30.223  24.749  24.132  1.00  0.00     0.315 C 
BRANCH  17  18
ATOM     18  N   UNL A   1      30.216  23.862  22.975  1.00  0.00    -0.353 N 
ATOM     19  H   UNL A   1      29.353  23.316  22.970  1.00  0.00     0.344 HD
ATOM     20  H   UNL A   1      31.016  23.231  23.025  1.00  0.00     0.344 HD
ATOM     21  H   UNL A   1      30.272  24.416  22.121  1.00  0.00     0.344 HD
ENDBRANCH  17  18
ENDBRANCH   9  17
BRANCH  10  22
ATOM     22  C   UNL A   1      33.177  25.727  24.173  1.00  0.00    -0.016 A 
ATOM     23  C   UNL A   1      33.750  24.922  23.187  1.00  0.00     0.009 A 
ATOM     24  C   UNL A   1      33.698  25.702  25.475  1.00  0.00     0.009 A 
ATOM     25  C   UNL A   1      34.843  24.107  23.499  1.00  0.00     0.001 A 
ATOM     26  C   UNL A   1      34.790  24.890  25.783  1.00  0.00     0.001 A 
ATOM     27  C   UNL A   1      35.363  24.092  24.794  1.00  0.00     0.000 A 
ENDBRANCH  10  22
ENDBRANCH   5   8
ENDBRANCH   3   4
ENDBRANCH   2   3
ENDBRANCH   1   2
BRANCH   1  28
ATOM     28  C   UNL A   1      32.633  32.806  26.880  1.00  0.00     0.116 C 
BRANCH  28  29
ATOM     29  N   UNL A   1      32.503  34.041  27.638  1.00  0.00    -0.352 N 
ATOM     30  C   UNL A   1      33.259  34.531  28.681  1.00  0.00     0.251 C 
ATOM     31  H   UNL A   1      31.757  34.620  27.360  1.00  0.00     0.163 HD
ATOM     32  O   UNL A   1      32.931  35.586  29.214  1.00  0.00    -0.269 OA
BRANCH  30  33
ATOM     33  C   UNL A   1      34.423  33.768  29.195  1.00  0.00     0.039 A 
ATOM     34  C   UNL A   1      35.707  34.286  28.995  1.00  0.00     0.014 A 
ATOM     35  C   UNL A   1      34.262  32.569  29.890  1.00  0.00     0.014 A 
ATOM     36  C   UNL A   1      36.811  33.657  29.579  1.00  0.00     0.010 A 
ATOM     37  C   UNL A   1      35.350  31.994  30.545  1.00  0.00     0.010 A 
ATOM     38  C   UNL A   1      36.637  32.536  30.408  1.00  0.00    -0.014 A 
BRANCH  38  39
ATOM     39  C   UNL A   1      37.783  31.934  31.144  1.00  0.00     0.031 A 
ATOM     40  C   UNL A   1      38.583  30.816  30.529  1.00  0.00     0.074 A 
ATOM     41  C   UNL A   1      38.061  32.346  32.399  1.00  0.00     0.049 A 
ATOM     42  N   UNL A   1      39.573  30.127  31.037  1.00  0.00    -0.248 NA
ATOM     43  C   UNL A   1      38.192  30.395  29.176  1.00  0.00     0.031 C 
ATOM     44  C   UNL A   1      37.322  33.374  33.135  1.00  0.00     0.029 A 
ATOM     45  N   UNL A   1      39.035  31.948  33.282  1.00  0.00    -0.354 N 
ATOM     46  C   UNL A   1      39.911  29.180  30.076  1.00  0.00     0.074 A 
ATOM     47  C   UNL A   1      38.973  29.342  28.986  1.00  0.00     0.031 C 
ATOM     48  C   UNL A   1      37.887  33.549  34.340  1.00  0.00     0.029 A 
ATOM     49  C   UNL A   1      39.004  32.620  34.483  1.00  0.00     0.049 A 
ATOM     50  H   UNL A   1      39.694  31.247  33.075  1.00  0.00     0.167 HD
ATOM     51  C   UNL A   1      40.925  28.277  30.087  1.00  0.00     0.034 A 
ATOM     52  C   UNL A   1      39.784  32.502  35.576  1.00  0.00     0.034 A 
ATOM     53  C   UNL A   1      41.864  28.138  31.174  1.00  0.00     0.049 A 
ATOM     54  C   UNL A   1      40.917  31.509  35.559  1.00  0.00     0.074 A 
ATOM     55  C   UNL A   1      42.958  27.295  31.269  1.00  0.00     0.029 A 
ATOM     56  N   UNL A   1      41.823  28.863  32.358  1.00  0.00    -0.354 N 
ATOM     57  N   UNL A   1      41.258  30.659  34.617  1.00  0.00    -0.248 NA
ATOM     58  C   UNL A   1      41.782  31.472  36.745  1.00  0.00     0.031 C 
ATOM     59  C   UNL A   1      43.542  27.468  32.529  1.00  0.00     0.029 A 
ATOM     60  C   UNL A   1      42.859  28.472  33.195  1.00  0.00     0.049 A 
ATOM     61  H   UNL A   1      41.155  29.554  32.574  1.00  0.00     0.167 HD
ATOM     62  C   UNL A   1      42.401  30.015  35.083  1.00  0.00     0.074 A 
ATOM     63  C   UNL A   1      42.696  30.584  36.383  1.00  0.00     0.031 C 
ATOM     64  C   UNL A   1      43.142  29.046  34.490  1.00  0.00     0.034 A 
BRANCH  51  65
ATOM     65  C   UNL A   1      41.050  27.362  28.890  1.00  0.00     0.023 A 
ATOM     66  C   UNL A   1      42.048  27.552  27.918  1.00  0.00     0.031 A 
ATOM     67  C   UNL A   1      40.138  26.310  28.696  1.00  0.00     0.131 A 
ATOM     68  C   UNL A   1      42.058  26.764  26.757  1.00  0.00     0.055 A 
ATOM     69  C   UNL A   1      40.207  25.471  27.580  1.00  0.00     0.041 A 
ATOM     70  F   UNL A   1      39.151  26.087  29.577  1.00  0.00    -0.206 F 
ATOM     71  C   UNL A   1      41.161  25.707  26.593  1.00  0.00     0.022 A 
BRANCH  68  72
ATOM     72  S   UNL A   1      43.160  27.241  25.398  1.00  0.00     0.124 S 
ATOM     73  O   UNL A   1      43.385  25.957  24.738  1.00  0.00    -0.237 OA
ATOM     74  O   UNL A   1      42.354  28.206  24.660  1.00  0.00    -0.237 OA
ATOM     75  O   UNL A   1      44.327  27.795  26.082  1.00  0.00    -0.744 OA
ENDBRANCH  68  72
ENDBRANCH  51  65
BRANCH  52  76
ATOM     76  C   UNL A   1      39.539  33.354  36.776  1.00  0.00     0.023 A 
ATOM     77  C   UNL A   1      38.906  32.833  37.915  1.00  0.00     0.031 A 
ATOM     78  C   UNL A   1      39.895  34.714  36.784  1.00  0.00     0.131 A 
ATOM     79  C   UNL A   1      38.605  33.675  38.997  1.00  0.00     0.055 A 
ATOM     80  C   UNL A   1      39.639  35.537  37.883  1.00  0.00     0.041 A 
ATOM     81  F   UNL A   1      40.511  35.261  35.723  1.00  0.00    -0.206 F 
ATOM     82  C   UNL A   1      38.977  35.021  38.993  1.00  0.00     0.022 A 
BRANCH  79  83
ATOM     83  S   UNL A   1      37.643  33.002  40.380  1.00  0.00     0.124 S 
ATOM     84  O   UNL A   1      38.231  31.676  40.535  1.00  0.00    -0.237 OA
ATOM     85  O   UNL A   1      37.929  33.960  41.442  1.00  0.00    -0.237 OA
ATOM     86  O   UNL A   1      36.269  33.021  39.879  1.00  0.00    -0.744 OA
ENDBRANCH  79  83
ENDBRANCH  52  76
BRANCH  64  87
ATOM     87  C   UNL A   1      44.381  28.587  35.222  1.00  0.00     0.023 A 
ATOM     88  C   UNL A   1      44.333  27.591  36.213  1.00  0.00     0.031 A 
ATOM     89  C   UNL A   1      45.625  29.177  34.935  1.00  0.00     0.131 A 
ATOM     90  C   UNL A   1      45.494  27.263  36.928  1.00  0.00     0.055 A 
ATOM     91  C   UNL A   1      46.788  28.800  35.608  1.00  0.00     0.041 A 
ATOM     92  F   UNL A   1      45.729  30.133  33.999  1.00  0.00    -0.206 F 
ATOM     93  C   UNL A   1      46.725  27.849  36.622  1.00  0.00     0.022 A 
BRANCH  90  94
ATOM     94  S   UNL A   1      45.356  26.131  38.341  1.00  0.00     0.124 S 
ATOM     95  O   UNL A   1      44.226  26.695  39.072  1.00  0.00    -0.237 OA
ATOM     96  O   UNL A   1      45.118  24.848  37.689  1.00  0.00    -0.237 OA
ATOM     97  O   UNL A   1      46.651  26.257  39.008  1.00  0.00    -0.744 OA
ENDBRANCH  90  94
ENDBRANCH  64  87
ENDBRANCH  38  39
ENDBRANCH  30  33
ENDBRANCH  28  29
ENDBRANCH   1  28
TORSDOF 17
ENDMDL
MODEL 2
REMARK VINA RESULT:     -12.0      5.627      8.475
REMARK SMILES [NH3+]Cc1c(-c2ccccc2)c(C(=O)NCCCCNC(=O)c2ccc(-c3c4nc(c(-c5cc(S(=O)(=O)[O-])ccc5F)c5ccc([nH]5)c(-c5cc(S(=O)(=O)[O-])ccc5F)c5nc(c(-c6cc(S(=O)(=O)[O-])ccc6F)c6ccc3[nH]6)C=C5)C=C4)cc2)c2ccccn12
REMARK SMILES IDX 17 1 16 2 15 3 14 4 12 5 13 6 11 8 3 9 4 10 90 11 85 12
REMARK SMILES IDX 89 13 86 14 88 15 87 16 2 17 1 18 5 22 6 23 10 24 7 25 9 26
REMARK SMILES IDX 8 27 18 28 19 29 20 30 21 32 22 33 23 34 84 35 24 36 83 37
REMARK SMILES IDX 25 38 26 39 27 40 77 41 28 42 82 43 76 44 78 45 29 46 81 47
REMARK SMILES IDX 75 48 74 49 30 51 62 52 42 53 61 54 43 55 46 56 60 57 79 58
REMARK SMILES IDX 44 59 45 60 59 62 80 63 47 64 31 65 32 66 40 67 33 68 39 69
REMARK SMILES IDX 41 70 38 71 34 72 35 73 36 74 37 75 63 76 64 77 72 78 65 79
REMARK SMILES IDX 71 80 73 81 70 82 66 83 67 84 68 85 69 86 48 87 49 88 57 89
REMARK SMILES IDX 50 90 56 91 58 92 55 93 51 94 52 95 53 96 54 97
REMARK H PARENT 14 7 1 19 1 20 1 21 19 31 78 50 46 61
REMARK Flexibility Score: inf
ROOT
ATOM      1  C   UNL A   1      35.905  21.408  25.044  1.00  0.00     0.023 C 
ENDROOT
BRANCH   1   2
ATOM      2  C   UNL A   1      34.968  21.578  26.238  1.00  0.00     0.023 C 
BRANCH   2   3
ATOM      3  C   UNL A   1      34.826  22.982  26.821  1.00  0.00     0.116 C 
BRANCH   3   4
ATOM      4  N   UNL A   1      33.502  23.336  27.291  1.00  0.00    -0.352 N 
ATOM      5  C   UNL A   1      32.422  23.874  26.617  1.00  0.00     0.254 C 
ATOM      6  O   UNL A   1      31.382  24.009  27.257  1.00  0.00    -0.269 OA
ATOM      7  H   UNL A   1      33.345  23.164  28.248  1.00  0.00     0.163 HD
BRANCH   5   8
ATOM      8  C   UNL A   1      32.545  24.347  25.233  1.00  0.00     0.073 A 
ATOM      9  C   UNL A   1      32.990  25.733  23.441  1.00  0.00     0.086 A 
ATOM     10  C   UNL A   1      32.757  25.710  24.818  1.00  0.00     0.022 A 
ATOM     11  N   UNL A   1      32.895  24.420  23.007  1.00  0.00    -0.314 N 
ATOM     12  C   UNL A   1      32.374  23.647  24.046  1.00  0.00     0.059 A 
ATOM     13  C   UNL A   1      33.219  23.861  21.764  1.00  0.00     0.092 A 
ATOM     14  C   UNL A   1      31.884  22.350  23.698  1.00  0.00     0.027 A 
ATOM     15  C   UNL A   1      32.903  22.583  21.500  1.00  0.00     0.018 A 
ATOM     16  C   UNL A   1      32.155  21.831  22.488  1.00  0.00     0.004 A 
BRANCH   9  17
ATOM     17  C   UNL A   1      33.342  26.900  22.569  1.00  0.00     0.315 C 
BRANCH  17  18
ATOM     18  N   UNL A   1      32.182  27.602  22.030  1.00  0.00    -0.353 N 
ATOM     19  H   UNL A   1      31.346  27.321  22.544  1.00  0.00     0.344 HD
ATOM     20  H   UNL A   1      32.070  27.366  21.044  1.00  0.00     0.344 HD
ATOM     21  H   UNL A   1      32.318  28.607  22.127  1.00  0.00     0.344 HD
ENDBRANCH  17  18
ENDBRANCH   9  17
BRANCH  10  22
ATOM     22  C   UNL A   1      32.771  26.921  25.628  1.00  0.00    -0.016 A 
ATOM     23  C   UNL A   1      31.589  27.601  25.928  1.00  0.00     0.009 A 
ATOM     24  C   UNL A   1      33.992  27.408  26.117  1.00  0.00     0.009 A 
ATOM     25  C   UNL A   1      31.628  28.753  26.720  1.00  0.00     0.001 A 
ATOM     26  C   UNL A   1      34.028  28.556  26.910  1.00  0.00     0.001 A 
ATOM     27  C   UNL A   1      32.845  29.228  27.212  1.00  0.00     0.000 A 
ENDBRANCH  10  22
ENDBRANCH   5   8
ENDBRANCH   3   4
ENDBRANCH   2   3
ENDBRANCH   1   2
BRANCH   1  28
ATOM     28  C   UNL A   1      37.280  22.062  25.139  1.00  0.00     0.116 C 
BRANCH  28  29
ATOM     29  N   UNL A   1      38.341  21.164  25.568  1.00  0.00    -0.352 N 
ATOM     30  C   UNL A   1      39.480  21.415  26.304  1.00  0.00     0.251 C 
ATOM     31  H   UNL A   1      38.227  20.226  25.290  1.00  0.00     0.163 HD
ATOM     32  O   UNL A   1      40.275  20.504  26.506  1.00  0.00    -0.269 OA
BRANCH  30  33
ATOM     33  C   UNL A   1      39.773  22.783  26.800  1.00  0.00     0.039 A 
ATOM     34  C   UNL A   1      40.655  22.932  27.875  1.00  0.00     0.014 A 
ATOM     35  C   UNL A   1      39.211  23.912  26.205  1.00  0.00     0.014 A 
ATOM     36  C   UNL A   1      41.051  24.210  28.279  1.00  0.00     0.010 A 
ATOM     37  C   UNL A   1      39.673  25.182  26.549  1.00  0.00     0.010 A 
ATOM     38  C   UNL A   1      40.607  25.348  27.583  1.00  0.00    -0.014 A 
BRANCH  38  39
ATOM     39  C   UNL A   1      41.121  26.706  27.914  1.00  0.00     0.031 A 
ATOM     40  C   UNL A   1      42.540  27.086  27.581  1.00  0.00     0.074 A 
ATOM     41  C   UNL A   1      40.332  27.575  28.580  1.00  0.00     0.049 A 
ATOM     42  N   UNL A   1      43.186  28.194  27.844  1.00  0.00    -0.248 NA
ATOM     43  C   UNL A   1      43.350  26.070  26.894  1.00  0.00     0.031 C 
ATOM     44  C   UNL A   1      38.961  27.307  29.019  1.00  0.00     0.029 A 
ATOM     45  N   UNL A   1      40.569  28.858  29.010  1.00  0.00    -0.354 N 
ATOM     46  C   UNL A   1      44.480  28.002  27.372  1.00  0.00     0.074 A 
ATOM     47  C   UNL A   1      44.542  26.646  26.871  1.00  0.00     0.031 C 
ATOM     48  C   UNL A   1      38.468  28.400  29.625  1.00  0.00     0.029 A 
ATOM     49  C   UNL A   1      39.498  29.434  29.655  1.00  0.00     0.049 A 
ATOM     50  H   UNL A   1      41.425  29.322  28.870  1.00  0.00     0.167 HD
ATOM     51  C   UNL A   1      45.513  28.882  27.334  1.00  0.00     0.034 A 
ATOM     52  C   UNL A   1      39.359  30.655  30.209  1.00  0.00     0.034 A 
ATOM     53  C   UNL A   1      45.432  30.238  27.822  1.00  0.00     0.049 A 
ATOM     54  C   UNL A   1      40.511  31.623  30.136  1.00  0.00     0.074 A 
ATOM     55  C   UNL A   1      46.398  31.229  27.787  1.00  0.00     0.029 A 
ATOM     56  N   UNL A   1      44.317  30.797  28.435  1.00  0.00    -0.354 N 
ATOM     57  N   UNL A   1      41.712  31.445  29.634  1.00  0.00    -0.248 NA
ATOM     58  C   UNL A   1      40.283  32.965  30.689  1.00  0.00     0.031 C 
ATOM     59  C   UNL A   1      45.890  32.365  28.427  1.00  0.00     0.029 A 
ATOM     60  C   UNL A   1      44.580  32.110  28.798  1.00  0.00     0.049 A 
ATOM     61  H   UNL A   1      43.465  30.329  28.590  1.00  0.00     0.167 HD
ATOM     62  C   UNL A   1      42.368  32.664  29.776  1.00  0.00     0.074 A 
ATOM     63  C   UNL A   1      41.425  33.571  30.398  1.00  0.00     0.031 C 
ATOM     64  C   UNL A   1      43.632  33.005  29.420  1.00  0.00     0.034 A 
BRANCH  51  65
ATOM     65  C   UNL A   1      46.821  28.388  26.759  1.00  0.00     0.023 A 
ATOM     66  C   UNL A   1      47.050  28.351  25.373  1.00  0.00     0.031 A 
ATOM     67  C   UNL A   1      47.840  27.912  27.604  1.00  0.00     0.131 A 
ATOM     68  C   UNL A   1      48.223  27.770  24.869  1.00  0.00     0.055 A 
ATOM     69  C   UNL A   1      49.045  27.416  27.099  1.00  0.00     0.041 A 
ATOM     70  F   UNL A   1      47.676  27.903  28.936  1.00  0.00    -0.206 F 
ATOM     71  C   UNL A   1      49.235  27.326  25.723  1.00  0.00     0.022 A 
BRANCH  68  72
ATOM     72  S   UNL A   1      48.339  27.463  23.085  1.00  0.00     0.124 S 
ATOM     73  O   UNL A   1      47.156  28.163  22.589  1.00  0.00    -0.237 OA
ATOM     74  O   UNL A   1      49.624  28.061  22.743  1.00  0.00    -0.237 OA
ATOM     75  O   UNL A   1      48.280  26.006  22.983  1.00  0.00    -0.744 OA
ENDBRANCH  68  72
ENDBRANCH  51  65
BRANCH  52  76
ATOM     76  C   UNL A   1      38.079  31.046  30.867  1.00  0.00     0.023 A 
ATOM     77  C   UNL A   1      37.099  31.770  30.170  1.00  0.00     0.031 A 
ATOM     78  C   UNL A   1      37.834  30.737  32.217  1.00  0.00     0.131 A 
ATOM     79  C   UNL A   1      35.942  32.206  30.835  1.00  0.00     0.055 A 
ATOM     80  C   UNL A   1      36.659  31.129  32.861  1.00  0.00     0.041 A 
ATOM     81  F   UNL A   1      38.734  30.038  32.928  1.00  0.00    -0.206 F 
ATOM     82  C   UNL A   1      35.710  31.880  32.173  1.00  0.00     0.022 A 
BRANCH  79  83
ATOM     83  S   UNL A   1      34.780  33.277  29.945  1.00  0.00     0.124 S 
ATOM     84  O   UNL A   1      33.984  33.826  31.038  1.00  0.00    -0.237 OA
ATOM     85  O   UNL A   1      35.680  34.209  29.275  1.00  0.00    -0.237 OA
ATOM     86  O   UNL A   1      34.072  32.352  29.062  1.00  0.00    -0.744 OA
ENDBRANCH  79  83
ENDBRANCH  52  76
BRANCH  64  87
ATOM     87  C   UNL A   1      44.042  34.441  29.643  1.00  0.00     0.023 A 
ATOM     88  C   UNL A   1      43.693  35.462  28.742  1.00  0.00     0.031 A 
ATOM     89  C   UNL A   1      44.816  34.785  30.765  1.00  0.00     0.131 A 
ATOM     90  C   UNL A   1      44.174  36.765  28.943  1.00  0.00     0.055 A 
ATOM     91  C   UNL A   1      45.238  36.096  30.993  1.00  0.00     0.041 A 
ATOM     92  F   UNL A   1      45.180  33.850  31.658  1.00  0.00    -0.206 F 
ATOM     93  C   UNL A   1      44.931  37.092  30.071  1.00  0.00     0.022 A 
BRANCH  90  94
ATOM     94  S   UNL A   1      43.884  38.009  27.654  1.00  0.00     0.124 S 
ATOM     95  O   UNL A   1      43.219  37.225  26.619  1.00  0.00    -0.237 OA
ATOM     96  O   UNL A   1      43.051  38.986  28.347  1.00  0.00    -0.237 OA
ATOM     97  O   UNL A   1      45.229  38.469  27.314  1.00  0.00    -0.744 OA
ENDBRANCH  90  94
ENDBRANCH  64  87
ENDBRANCH  38  39
ENDBRANCH  30  33
ENDBRANCH  28  29
ENDBRANCH   1  28
TORSDOF 17
ENDMDL
MODEL 3
REMARK VINA RESULT:     -12.0      5.626     10.704
REMARK SMILES [NH3+]Cc1c(-c2ccccc2)c(C(=O)NCCCCNC(=O)c2ccc(-c3c4nc(c(-c5cc(S(=O)(=O)[O-])ccc5F)c5ccc([nH]5)c(-c5cc(S(=O)(=O)[O-])ccc5F)c5nc(c(-c6cc(S(=O)(=O)[O-])ccc6F)c6ccc3[nH]6)C=C5)C=C4)cc2)c2ccccn12
REMARK SMILES IDX 17 1 16 2 15 3 14 4 12 5 13 6 11 8 3 9 4 10 90 11 85 12
REMARK SMILES IDX 89 13 86 14 88 15 87 16 2 17 1 18 5 22 6 23 10 24 7 25 9 26
REMARK SMILES IDX 8 27 18 28 19 29 20 30 21 32 22 33 23 34 84 35 24 36 83 37
REMARK SMILES IDX 25 38 26 39 27 40 77 41 28 42 82 43 76 44 78 45 29 46 81 47
REMARK SMILES IDX 75 48 74 49 30 51 62 52 42 53 61 54 43 55 46 56 60 57 79 58
REMARK SMILES IDX 44 59 45 60 59 62 80 63 47 64 31 65 32 66 40 67 33 68 39 69
REMARK SMILES IDX 41 70 38 71 34 72 35 73 36 74 37 75 63 76 64 77 72 78 65 79
REMARK SMILES IDX 71 80 73 81 70 82 66 83 67 84 68 85 69 86 48 87 49 88 57 89
REMARK SMILES IDX 50 90 56 91 58 92 55 93 51 94 52 95 53 96 54 97
REMARK H PARENT 14 7 1 19 1 20 1 21 19 31 78 50 46 61
REMARK Flexibility Score: inf
ROOT
ATOM      1  C   UNL A   1      35.243  21.096  25.090  1.00  0.00     0.023 C 
ENDROOT
BRANCH   1   2
ATOM      2  C   UNL A   1      34.397  21.357  26.335  1.00  0.00     0.023 C 
BRANCH   2   3
ATOM      3  C   UNL A   1      34.428  22.766  26.920  1.00  0.00     0.116 C 
BRANCH   3   4
ATOM      4  N   UNL A   1      33.150  23.296  27.351  1.00  0.00    -0.352 N 
ATOM      5  C   UNL A   1      32.172  23.971  26.646  1.00  0.00     0.254 C 
ATOM      6  O   UNL A   1      31.141  24.246  27.255  1.00  0.00    -0.269 OA
ATOM      7  H   UNL A   1      32.943  23.149  28.303  1.00  0.00     0.163 HD
BRANCH   5   8
ATOM      8  C   UNL A   1      32.398  24.419  25.266  1.00  0.00     0.073 A 
ATOM      9  C   UNL A   1      32.998  25.764  23.488  1.00  0.00     0.086 A 
ATOM     10  C   UNL A   1      32.677  25.769  24.847  1.00  0.00     0.022 A 
ATOM     11  N   UNL A   1      32.892  24.448  23.066  1.00  0.00    -0.314 N 
ATOM     12  C   UNL A   1      32.283  23.707  24.080  1.00  0.00     0.059 A 
ATOM     13  C   UNL A   1      33.279  23.860  21.855  1.00  0.00     0.092 A 
ATOM     14  C   UNL A   1      31.778  22.419  23.719  1.00  0.00     0.027 A 
ATOM     15  C   UNL A   1      32.943  22.588  21.588  1.00  0.00     0.018 A 
ATOM     16  C   UNL A   1      32.110  21.873  22.536  1.00  0.00     0.004 A 
BRANCH   9  17
ATOM     17  C   UNL A   1      33.440  26.907  22.625  1.00  0.00     0.315 C 
BRANCH  17  18
ATOM     18  N   UNL A   1      32.339  27.631  22.000  1.00  0.00    -0.353 N 
ATOM     19  H   UNL A   1      32.358  28.606  22.303  1.00  0.00     0.344 HD
ATOM     20  H   UNL A   1      31.453  27.207  22.276  1.00  0.00     0.344 HD
ATOM     21  H   UNL A   1      32.435  27.588  20.987  1.00  0.00     0.344 HD
ENDBRANCH  17  18
ENDBRANCH   9  17
BRANCH  10  22
ATOM     22  C   UNL A   1      32.675  26.991  25.640  1.00  0.00    -0.016 A 
ATOM     23  C   UNL A   1      33.844  27.462  26.242  1.00  0.00     0.009 A 
ATOM     24  C   UNL A   1      31.480  27.709  25.795  1.00  0.00     0.009 A 
ATOM     25  C   UNL A   1      33.819  28.646  26.985  1.00  0.00     0.001 A 
ATOM     26  C   UNL A   1      31.458  28.892  26.535  1.00  0.00     0.001 A 
ATOM     27  C   UNL A   1      32.628  29.361  27.129  1.00  0.00     0.000 A 
ENDBRANCH  10  22
ENDBRANCH   5   8
ENDBRANCH   3   4
ENDBRANCH   2   3
ENDBRANCH   1   2
BRANCH   1  28
ATOM     28  C   UNL A   1      36.672  21.629  25.096  1.00  0.00     0.116 C 
BRANCH  28  29
ATOM     29  N   UNL A   1      37.691  20.606  25.277  1.00  0.00    -0.352 N 
ATOM     30  C   UNL A   1      38.953  20.690  25.825  1.00  0.00     0.251 C 
ATOM     31  H   UNL A   1      37.437  19.709  24.959  1.00  0.00     0.163 HD
ATOM     32  O   UNL A   1      39.673  19.697  25.826  1.00  0.00    -0.269 OA
BRANCH  30  33
ATOM     33  C   UNL A   1      39.462  21.979  26.356  1.00  0.00     0.039 A 
ATOM     34  C   UNL A   1      40.610  21.969  27.155  1.00  0.00     0.014 A 
ATOM     35  C   UNL A   1      38.839  23.191  26.056  1.00  0.00     0.014 A 
ATOM     36  C   UNL A   1      41.186  23.176  27.562  1.00  0.00     0.010 A 
ATOM     37  C   UNL A   1      39.463  24.393  26.386  1.00  0.00     0.010 A 
ATOM     38  C   UNL A   1      40.650  24.402  27.134  1.00  0.00    -0.014 A 
BRANCH  38  39
ATOM     39  C   UNL A   1      41.326  25.692  27.445  1.00  0.00     0.031 A 
ATOM     40  C   UNL A   1      40.622  26.745  28.261  1.00  0.00     0.074 A 
ATOM     41  C   UNL A   1      42.548  25.947  26.934  1.00  0.00     0.049 A 
ATOM     42  N   UNL A   1      41.020  27.949  28.584  1.00  0.00    -0.248 NA
ATOM     43  C   UNL A   1      39.275  26.410  28.747  1.00  0.00     0.031 C 
ATOM     44  C   UNL A   1      43.312  25.039  26.075  1.00  0.00     0.029 A 
ATOM     45  N   UNL A   1      43.364  27.045  27.055  1.00  0.00    -0.354 N 
ATOM     46  C   UNL A   1      39.970  28.522  29.293  1.00  0.00     0.074 A 
ATOM     47  C   UNL A   1      38.892  27.555  29.291  1.00  0.00     0.031 C 
ATOM     48  C   UNL A   1      44.493  25.601  25.775  1.00  0.00     0.029 A 
ATOM     49  C   UNL A   1      44.561  26.925  26.385  1.00  0.00     0.049 A 
ATOM     50  H   UNL A   1      43.117  27.844  27.575  1.00  0.00     0.167 HD
ATOM     51  C   UNL A   1      39.915  29.729  29.911  1.00  0.00     0.034 A 
ATOM     52  C   UNL A   1      45.594  27.783  26.272  1.00  0.00     0.034 A 
ATOM     53  C   UNL A   1      41.004  30.676  29.920  1.00  0.00     0.049 A 
ATOM     54  C   UNL A   1      45.522  29.109  26.985  1.00  0.00     0.074 A 
ATOM     55  C   UNL A   1      41.077  31.903  30.557  1.00  0.00     0.029 A 
ATOM     56  N   UNL A   1      42.214  30.503  29.261  1.00  0.00    -0.354 N 
ATOM     57  N   UNL A   1      44.541  29.612  27.700  1.00  0.00    -0.248 NA
ATOM     58  C   UNL A   1      46.704  29.975  26.891  1.00  0.00     0.031 C 
ATOM     59  C   UNL A   1      42.304  32.496  30.237  1.00  0.00     0.029 A 
ATOM     60  C   UNL A   1      43.030  31.608  29.460  1.00  0.00     0.049 A 
ATOM     61  H   UNL A   1      42.458  29.712  28.728  1.00  0.00     0.167 HD
ATOM     62  C   UNL A   1      45.006  30.836  28.172  1.00  0.00     0.074 A 
ATOM     63  C   UNL A   1      46.356  30.988  27.671  1.00  0.00     0.031 C 
ATOM     64  C   UNL A   1      44.375  31.749  28.953  1.00  0.00     0.034 A 
BRANCH  51  65
ATOM     65  C   UNL A   1      38.625  30.089  30.612  1.00  0.00     0.023 A 
ATOM     66  C   UNL A   1      37.612  30.817  29.963  1.00  0.00     0.031 A 
ATOM     67  C   UNL A   1      38.418  29.734  31.957  1.00  0.00     0.131 A 
ATOM     68  C   UNL A   1      36.483  31.243  30.679  1.00  0.00     0.055 A 
ATOM     69  C   UNL A   1      37.250  30.085  32.640  1.00  0.00     0.041 A 
ATOM     70  F   UNL A   1      39.353  29.055  32.638  1.00  0.00    -0.206 F 
ATOM     71  C   UNL A   1      36.282  30.860  32.006  1.00  0.00     0.022 A 
BRANCH  68  72
ATOM     72  S   UNL A   1      35.361  32.433  29.896  1.00  0.00     0.124 S 
ATOM     73  O   UNL A   1      34.856  31.659  28.764  1.00  0.00    -0.237 OA
ATOM     74  O   UNL A   1      34.401  32.711  30.958  1.00  0.00    -0.237 OA
ATOM     75  O   UNL A   1      36.237  33.547  29.538  1.00  0.00    -0.744 OA
ENDBRANCH  68  72
ENDBRANCH  51  65
BRANCH  52  76
ATOM     76  C   UNL A   1      46.796  27.417  25.469  1.00  0.00     0.023 A 
ATOM     77  C   UNL A   1      46.950  27.872  24.150  1.00  0.00     0.031 A 
ATOM     78  C   UNL A   1      47.790  26.572  25.994  1.00  0.00     0.131 A 
ATOM     79  C   UNL A   1      48.044  27.442  23.382  1.00  0.00     0.055 A 
ATOM     80  C   UNL A   1      48.903  26.187  25.244  1.00  0.00     0.041 A 
ATOM     81  F   UNL A   1      47.697  26.116  27.254  1.00  0.00    -0.206 F 
ATOM     82  C   UNL A   1      49.027  26.611  23.924  1.00  0.00     0.022 A 
BRANCH  79  83
ATOM     83  S   UNL A   1      48.119  27.919  21.634  1.00  0.00     0.124 S 
ATOM     84  O   UNL A   1      46.828  28.571  21.446  1.00  0.00    -0.237 OA
ATOM     85  O   UNL A   1      49.289  28.791  21.609  1.00  0.00    -0.237 OA
ATOM     86  O   UNL A   1      48.281  26.643  20.940  1.00  0.00    -0.744 OA
ENDBRANCH  79  83
ENDBRANCH  52  76
BRANCH  64  87
ATOM     87  C   UNL A   1      45.170  32.966  29.361  1.00  0.00     0.023 A 
ATOM     88  C   UNL A   1      45.195  34.134  28.580  1.00  0.00     0.031 A 
ATOM     89  C   UNL A   1      45.935  32.942  30.541  1.00  0.00     0.131 A 
ATOM     90  C   UNL A   1      46.020  35.206  28.954  1.00  0.00     0.055 A 
ATOM     91  C   UNL A   1      46.705  34.036  30.940  1.00  0.00     0.041 A 
ATOM     92  F   UNL A   1      45.950  31.852  31.324  1.00  0.00    -0.206 F 
ATOM     93  C   UNL A   1      46.764  35.171  30.137  1.00  0.00     0.022 A 
BRANCH  90  94
ATOM     94  S   UNL A   1      46.192  36.610  27.817  1.00  0.00     0.124 S 
ATOM     95  O   UNL A   1      46.495  37.707  28.732  1.00  0.00    -0.237 OA
ATOM     96  O   UNL A   1      47.285  36.179  26.953  1.00  0.00    -0.237 OA
ATOM     97  O   UNL A   1      44.883  36.689  27.170  1.00  0.00    -0.744 OA
ENDBRANCH  90  94
ENDBRANCH  64  87
ENDBRANCH  38  39
ENDBRANCH  30  33
ENDBRANCH  28  29
ENDBRANCH   1  28
TORSDOF 17
ENDMDL
