MODEL 1
REMARK VINA RESULT:     -12.2      0.000      0.000
REMARK SMILES C[C@]12CCC(=O)N1c1ccccc1C(=O)N2CCCC(=O)NCCCCNC(=O)c1ccc(-c2c3nc(c(-c4cc(S(=O)(=O)[O-])ccc4F)c4ccc([nH]4)c(-c4cc(S(=O)(=O)[O-])ccc4F)c4nc(c(-c5cc(S(=O)(=O)[O-])ccc5F)c5ccc2[nH]5)C=C4)C=C3)cc1
REMARK SMILES IDX 24 1 23 2 22 3 20 4 21 5 19 7 18 8 17 9 16 10 1 11 2 12 3 13
REMARK SMILES IDX 7 14 4 15 5 16 8 17 14 18 6 19 9 20 13 21 15 22 10 23 12 24
REMARK SMILES IDX 11 25 25 26 26 27 27 28 28 29 29 31 30 32 31 33 92 34 32 35
REMARK SMILES IDX 91 36 33 37 34 38 35 39 85 40 36 41 90 42 84 43 86 44 37 45
REMARK SMILES IDX 89 46 83 47 82 48 38 50 70 51 50 52 69 53 51 54 54 55 68 56
REMARK SMILES IDX 87 57 52 58 53 59 67 61 88 62 55 63 39 64 40 65 48 66 41 67
REMARK SMILES IDX 47 68 49 69 46 70 42 71 43 72 44 73 45 74 71 75 72 76 80 77
REMARK SMILES IDX 73 78 79 79 81 80 78 81 74 82 75 83 76 84 77 85 56 86 57 87
REMARK SMILES IDX 65 88 58 89 64 90 66 91 63 92 59 93 60 94 61 95 62 96
REMARK H PARENT 22 6 27 30 86 49 54 60
REMARK Flexibility Score: inf
ROOT
ATOM      1  C   UNL A   1      31.534  30.858  25.733  1.00  0.00     0.023 C 
ENDROOT
BRANCH   1   2
ATOM      2  C   UNL A   1      31.182  29.613  24.922  1.00  0.00     0.116 C 
BRANCH   2   3
ATOM      3  N   UNL A   1      30.494  30.016  23.718  1.00  0.00    -0.356 N 
ATOM      4  C   UNL A   1      30.248  29.261  22.612  1.00  0.00     0.220 C 
ATOM      5  O   UNL A   1      29.976  29.824  21.552  1.00  0.00    -0.275 OA
ATOM      6  H   UNL A   1      30.164  30.943  23.694  1.00  0.00     0.163 HD
BRANCH   4   7
ATOM      7  C   UNL A   1      30.150  27.755  22.745  1.00  0.00     0.102 C 
BRANCH   7   8
ATOM      8  C   UNL A   1      31.300  26.829  22.343  1.00  0.00     0.031 C 
BRANCH   8   9
ATOM      9  C   UNL A   1      32.622  26.638  23.115  1.00  0.00     0.123 C 
BRANCH   9  10
ATOM     10  N   UNL A   1      32.984  25.518  24.010  1.00  0.00    -0.315 N 
ATOM     11  C   UNL A   1      31.907  26.275  26.157  1.00  0.00     0.060 C 
ATOM     12  C   UNL A   1      32.266  25.096  25.233  1.00  0.00     0.120 C 
ATOM     13  C   UNL A   1      30.998  24.277  24.963  1.00  0.00     0.061 C 
ATOM     14  N   UNL A   1      33.015  24.141  26.046  1.00  0.00    -0.288 N 
ATOM     15  C   UNL A   1      30.748  23.582  26.309  1.00  0.00     0.105 C 
ATOM     16  C   UNL A   1      32.144  23.417  26.879  1.00  0.00     0.229 C 
ATOM     17  C   UNL A   1      34.201  23.528  25.585  1.00  0.00     0.059 A 
ATOM     18  C   UNL A   1      33.749  24.524  23.364  1.00  0.00     0.257 C 
ATOM     19  O   UNL A   1      32.411  22.710  27.838  1.00  0.00    -0.274 OA
ATOM     20  C   UNL A   1      35.001  22.733  26.414  1.00  0.00     0.027 A 
ATOM     21  C   UNL A   1      34.492  23.588  24.226  1.00  0.00     0.063 A 
ATOM     22  O   UNL A   1      33.916  24.479  22.147  1.00  0.00    -0.269 OA
ATOM     23  C   UNL A   1      36.048  21.978  25.876  1.00  0.00     0.002 A 
ATOM     24  C   UNL A   1      35.505  22.791  23.676  1.00  0.00     0.016 A 
ATOM     25  C   UNL A   1      36.283  21.985  24.504  1.00  0.00     0.001 A 
ENDBRANCH   9  10
ENDBRANCH   8   9
ENDBRANCH   7   8
ENDBRANCH   4   7
ENDBRANCH   2   3
ENDBRANCH   1   2
BRANCH   1  26
ATOM     26  C   UNL A   1      32.313  30.551  27.005  1.00  0.00     0.023 C 
BRANCH  26  27
ATOM     27  C   UNL A   1      33.410  31.565  27.290  1.00  0.00     0.116 C 
BRANCH  27  28
ATOM     28  N   UNL A   1      32.911  32.926  27.457  1.00  0.00    -0.352 N 
ATOM     29  C   UNL A   1      33.366  33.888  28.333  1.00  0.00     0.251 C 
ATOM     30  H   UNL A   1      32.161  33.188  26.875  1.00  0.00     0.163 HD
ATOM     31  O   UNL A   1      32.811  34.976  28.431  1.00  0.00    -0.269 OA
BRANCH  29  32
ATOM     32  C   UNL A   1      34.508  33.534  29.196  1.00  0.00     0.039 A 
ATOM     33  C   UNL A   1      35.801  33.863  28.787  1.00  0.00     0.014 A 
ATOM     34  C   UNL A   1      34.292  32.711  30.302  1.00  0.00     0.014 A 
ATOM     35  C   UNL A   1      36.876  33.198  29.358  1.00  0.00     0.010 A 
ATOM     36  C   UNL A   1      35.387  32.127  30.942  1.00  0.00     0.010 A 
ATOM     37  C   UNL A   1      36.682  32.313  30.434  1.00  0.00    -0.014 A 
BRANCH  37  38
ATOM     38  C   UNL A   1      37.852  31.595  31.004  1.00  0.00     0.031 A 
ATOM     39  C   UNL A   1      38.608  30.570  30.199  1.00  0.00     0.074 A 
ATOM     40  C   UNL A   1      38.263  31.915  32.247  1.00  0.00     0.049 A 
ATOM     41  N   UNL A   1      39.647  29.857  30.551  1.00  0.00    -0.248 NA
ATOM     42  C   UNL A   1      38.141  30.303  28.828  1.00  0.00     0.031 C 
ATOM     43  C   UNL A   1      37.605  32.892  33.114  1.00  0.00     0.029 A 
ATOM     44  N   UNL A   1      39.331  31.477  32.988  1.00  0.00    -0.354 N 
ATOM     45  C   UNL A   1      39.936  29.036  29.466  1.00  0.00     0.074 A 
ATOM     46  C   UNL A   1      38.954  29.326  28.446  1.00  0.00     0.031 C 
ATOM     47  C   UNL A   1      38.311  33.021  34.243  1.00  0.00     0.029 A 
ATOM     48  C   UNL A   1      39.422  32.076  34.223  1.00  0.00     0.049 A 
ATOM     49  H   UNL A   1      39.972  30.802  32.667  1.00  0.00     0.167 HD
ATOM     50  C   UNL A   1      40.937  28.131  29.336  1.00  0.00     0.034 A 
ATOM     51  C   UNL A   1      40.283  31.873  35.242  1.00  0.00     0.034 A 
ATOM     52  C   UNL A   1      41.935  27.888  30.346  1.00  0.00     0.049 A 
ATOM     53  C   UNL A   1      41.391  30.873  35.064  1.00  0.00     0.074 A 
ATOM     54  C   UNL A   1      43.015  27.024  30.285  1.00  0.00     0.029 A 
ATOM     55  N   UNL A   1      41.991  28.508  31.586  1.00  0.00    -0.354 N 
ATOM     56  N   UNL A   1      41.670  30.134  34.015  1.00  0.00    -0.248 NA
ATOM     57  C   UNL A   1      42.303  30.673  36.197  1.00  0.00     0.031 C 
ATOM     58  C   UNL A   1      43.690  27.081  31.505  1.00  0.00     0.029 A 
ATOM     59  C   UNL A   1      43.072  28.027  32.306  1.00  0.00     0.049 A 
ATOM     60  H   UNL A   1      41.356  29.189  31.907  1.00  0.00     0.167 HD
ATOM     61  C   UNL A   1      42.791  29.386  34.361  1.00  0.00     0.074 A 
ATOM     62  C   UNL A   1      43.161  29.790  35.701  1.00  0.00     0.031 C 
ATOM     63  C   UNL A   1      43.442  28.442  33.638  1.00  0.00     0.034 A 
BRANCH  50  64
ATOM     64  C   UNL A   1      41.041  27.330  28.062  1.00  0.00     0.023 A 
ATOM     65  C   UNL A   1      40.744  25.954  28.077  1.00  0.00     0.031 A 
ATOM     66  C   UNL A   1      41.588  27.881  26.891  1.00  0.00     0.131 A 
ATOM     67  C   UNL A   1      41.038  25.165  26.957  1.00  0.00     0.055 A 
ATOM     68  C   UNL A   1      41.845  27.097  25.764  1.00  0.00     0.041 A 
ATOM     69  F   UNL A   1      41.889  29.188  26.828  1.00  0.00    -0.206 F 
ATOM     70  C   UNL A   1      41.584  25.731  25.800  1.00  0.00     0.022 A 
BRANCH  67  71
ATOM     71  S   UNL A   1      40.789  23.369  26.983  1.00  0.00     0.124 S 
ATOM     72  O   UNL A   1      41.646  22.930  25.883  1.00  0.00    -0.237 OA
ATOM     73  O   UNL A   1      41.258  23.014  28.318  1.00  0.00    -0.237 OA
ATOM     74  O   UNL A   1      39.357  23.210  26.751  1.00  0.00    -0.744 OA
ENDBRANCH  67  71
ENDBRANCH  50  64
BRANCH  51  75
ATOM     75  C   UNL A   1      40.112  32.666  36.493  1.00  0.00     0.023 A 
ATOM     76  C   UNL A   1      39.213  32.241  37.491  1.00  0.00     0.031 A 
ATOM     77  C   UNL A   1      40.731  33.915  36.651  1.00  0.00     0.131 A 
ATOM     78  C   UNL A   1      38.892  33.097  38.551  1.00  0.00     0.055 A 
ATOM     79  C   UNL A   1      40.469  34.731  37.753  1.00  0.00     0.041 A 
ATOM     80  F   UNL A   1      41.584  34.370  35.721  1.00  0.00    -0.206 F 
ATOM     81  C   UNL A   1      39.527  34.333  38.698  1.00  0.00     0.022 A 
BRANCH  78  82
ATOM     82  S   UNL A   1      37.511  32.709  39.665  1.00  0.00     0.124 S 
ATOM     83  O   UNL A   1      37.937  31.439  40.242  1.00  0.00    -0.237 OA
ATOM     84  O   UNL A   1      37.527  33.853  40.574  1.00  0.00    -0.237 OA
ATOM     85  O   UNL A   1      36.358  32.647  38.773  1.00  0.00    -0.744 OA
ENDBRANCH  78  82
ENDBRANCH  51  75
BRANCH  63  86
ATOM     86  C   UNL A   1      44.627  27.750  34.262  1.00  0.00     0.023 A 
ATOM     87  C   UNL A   1      44.440  26.590  35.037  1.00  0.00     0.031 A 
ATOM     88  C   UNL A   1      45.910  28.323  34.218  1.00  0.00     0.131 A 
ATOM     89  C   UNL A   1      45.510  26.064  35.771  1.00  0.00     0.055 A 
ATOM     90  C   UNL A   1      46.983  27.770  34.916  1.00  0.00     0.041 A 
ATOM     91  F   UNL A   1      46.134  29.435  33.499  1.00  0.00    -0.206 F 
ATOM     92  C   UNL A   1      46.782  26.643  35.709  1.00  0.00     0.022 A 
BRANCH  89  93
ATOM     93  S   UNL A   1      45.272  24.663  36.899  1.00  0.00     0.124 S 
ATOM     94  O   UNL A   1      44.731  23.643  36.003  1.00  0.00    -0.237 OA
ATOM     95  O   UNL A   1      46.630  24.416  37.376  1.00  0.00    -0.237 OA
ATOM     96  O   UNL A   1      44.339  25.170  37.899  1.00  0.00    -0.744 OA
ENDBRANCH  89  93
ENDBRANCH  63  86
ENDBRANCH  37  38
ENDBRANCH  29  32
ENDBRANCH  27  28
ENDBRANCH  26  27
ENDBRANCH   1  26
TORSDOF 17
ENDMDL
MODEL 2
REMARK VINA RESULT:     -12.2      5.505      9.357
REMARK SMILES C[C@]12CCC(=O)N1c1ccccc1C(=O)N2CCCC(=O)NCCCCNC(=O)c1ccc(-c2c3nc(c(-c4cc(S(=O)(=O)[O-])ccc4F)c4ccc([nH]4)c(-c4cc(S(=O)(=O)[O-])ccc4F)c4nc(c(-c5cc(S(=O)(=O)[O-])ccc5F)c5ccc2[nH]5)C=C4)C=C3)cc1
REMARK SMILES IDX 24 1 23 2 22 3 20 4 21 5 19 7 18 8 17 9 16 10 1 11 2 12 3 13
REMARK SMILES IDX 7 14 4 15 5 16 8 17 14 18 6 19 9 20 13 21 15 22 10 23 12 24
REMARK SMILES IDX 11 25 25 26 26 27 27 28 28 29 29 31 30 32 31 33 92 34 32 35
REMARK SMILES IDX 91 36 33 37 34 38 35 39 85 40 36 41 90 42 84 43 86 44 37 45
REMARK SMILES IDX 89 46 83 47 82 48 38 50 70 51 50 52 69 53 51 54 54 55 68 56
REMARK SMILES IDX 87 57 52 58 53 59 67 61 88 62 55 63 39 64 40 65 48 66 41 67
REMARK SMILES IDX 47 68 49 69 46 70 42 71 43 72 44 73 45 74 71 75 72 76 80 77
REMARK SMILES IDX 73 78 79 79 81 80 78 81 74 82 75 83 76 84 77 85 56 86 57 87
REMARK SMILES IDX 65 88 58 89 64 90 66 91 63 92 59 93 60 94 61 95 62 96
REMARK H PARENT 22 6 27 30 86 49 54 60
REMARK Flexibility Score: inf
ROOT
ATOM      1  C   UNL A   1      36.812  20.320  25.044  1.00  0.00     0.023 C 
ENDROOT
BRANCH   1   2
ATOM      2  C   UNL A   1      35.357  20.782  25.013  1.00  0.00     0.116 C 
BRANCH   2   3
ATOM      3  N   UNL A   1      34.496  19.624  25.078  1.00  0.00    -0.356 N 
ATOM      4  C   UNL A   1      33.135  19.605  25.123  1.00  0.00     0.220 C 
ATOM      5  O   UNL A   1      32.564  18.592  25.526  1.00  0.00    -0.275 OA
ATOM      6  H   UNL A   1      34.944  18.748  25.091  1.00  0.00     0.163 HD
BRANCH   4   7
ATOM      7  C   UNL A   1      32.354  20.758  24.524  1.00  0.00     0.102 C 
BRANCH   7   8
ATOM      8  C   UNL A   1      31.795  21.891  25.386  1.00  0.00     0.031 C 
BRANCH   8   9
ATOM      9  C   UNL A   1      32.589  23.101  25.920  1.00  0.00     0.123 C 
BRANCH   9  10
ATOM     10  N   UNL A   1      32.732  24.430  25.287  1.00  0.00    -0.315 N 
ATOM     11  C   UNL A   1      34.494  23.931  23.559  1.00  0.00     0.060 C 
ATOM     12  C   UNL A   1      33.214  24.708  23.917  1.00  0.00     0.120 C 
ATOM     13  C   UNL A   1      32.167  24.464  22.824  1.00  0.00     0.061 C 
ATOM     14  N   UNL A   1      33.503  26.121  23.678  1.00  0.00    -0.288 N 
ATOM     15  C   UNL A   1      32.721  25.264  21.636  1.00  0.00     0.105 C 
ATOM     16  C   UNL A   1      33.468  26.404  22.301  1.00  0.00     0.229 C 
ATOM     17  C   UNL A   1      33.143  27.128  24.601  1.00  0.00     0.059 A 
ATOM     18  C   UNL A   1      31.889  25.405  25.861  1.00  0.00     0.257 C 
ATOM     19  O   UNL A   1      33.871  27.394  21.711  1.00  0.00    -0.274 OA
ATOM     20  C   UNL A   1      33.551  28.458  24.450  1.00  0.00     0.027 A 
ATOM     21  C   UNL A   1      32.226  26.815  25.598  1.00  0.00     0.063 A 
ATOM     22  O   UNL A   1      30.983  25.141  26.648  1.00  0.00    -0.269 OA
ATOM     23  C   UNL A   1      33.011  29.462  25.261  1.00  0.00     0.002 A 
ATOM     24  C   UNL A   1      31.641  27.826  26.375  1.00  0.00     0.016 A 
ATOM     25  C   UNL A   1      32.036  29.150  26.204  1.00  0.00     0.001 A 
ENDBRANCH   9  10
ENDBRANCH   8   9
ENDBRANCH   7   8
ENDBRANCH   4   7
ENDBRANCH   2   3
ENDBRANCH   1   2
BRANCH   1  26
ATOM     26  C   UNL A   1      37.812  21.466  24.969  1.00  0.00     0.023 C 
BRANCH  26  27
ATOM     27  C   UNL A   1      38.911  21.367  26.016  1.00  0.00     0.116 C 
BRANCH  27  28
ATOM     28  N   UNL A   1      39.684  20.133  25.929  1.00  0.00    -0.352 N 
ATOM     29  C   UNL A   1      41.040  19.974  26.112  1.00  0.00     0.251 C 
ATOM     30  H   UNL A   1      39.176  19.317  25.715  1.00  0.00     0.163 HD
ATOM     31  O   UNL A   1      41.586  18.891  25.938  1.00  0.00    -0.269 OA
BRANCH  29  32
ATOM     32  C   UNL A   1      41.822  21.174  26.464  1.00  0.00     0.039 A 
ATOM     33  C   UNL A   1      42.050  21.470  27.809  1.00  0.00     0.014 A 
ATOM     34  C   UNL A   1      42.150  22.087  25.461  1.00  0.00     0.014 A 
ATOM     35  C   UNL A   1      42.410  22.763  28.159  1.00  0.00     0.010 A 
ATOM     36  C   UNL A   1      42.615  23.354  25.818  1.00  0.00     0.010 A 
ATOM     37  C   UNL A   1      42.685  23.725  27.170  1.00  0.00    -0.014 A 
BRANCH  37  38
ATOM     38  C   UNL A   1      43.041  25.108  27.580  1.00  0.00     0.031 A 
ATOM     39  C   UNL A   1      44.436  25.644  27.395  1.00  0.00     0.074 A 
ATOM     40  C   UNL A   1      42.073  25.902  28.079  1.00  0.00     0.049 A 
ATOM     41  N   UNL A   1      44.906  26.827  27.702  1.00  0.00    -0.248 NA
ATOM     42  C   UNL A   1      45.437  24.745  26.796  1.00  0.00     0.031 C 
ATOM     43  C   UNL A   1      40.688  25.485  28.301  1.00  0.00     0.029 A 
ATOM     44  N   UNL A   1      42.091  27.217  28.468  1.00  0.00    -0.354 N 
ATOM     45  C   UNL A   1      46.257  26.803  27.369  1.00  0.00     0.074 A 
ATOM     46  C   UNL A   1      46.538  25.484  26.850  1.00  0.00     0.031 C 
ATOM     47  C   UNL A   1      39.978  26.534  28.733  1.00  0.00     0.029 A 
ATOM     48  C   UNL A   1      40.870  27.677  28.905  1.00  0.00     0.049 A 
ATOM     49  H   UNL A   1      42.899  27.779  28.437  1.00  0.00     0.167 HD
ATOM     50  C   UNL A   1      47.170  27.797  27.481  1.00  0.00     0.034 A 
ATOM     51  C   UNL A   1      40.505  28.871  29.412  1.00  0.00     0.034 A 
ATOM     52  C   UNL A   1      46.861  29.122  27.958  1.00  0.00     0.049 A 
ATOM     53  C   UNL A   1      41.538  29.960  29.512  1.00  0.00     0.074 A 
ATOM     54  C   UNL A   1      47.712  30.208  28.062  1.00  0.00     0.029 A 
ATOM     55  N   UNL A   1      45.616  29.547  28.397  1.00  0.00    -0.354 N 
ATOM     56  N   UNL A   1      42.800  29.929  29.155  1.00  0.00    -0.248 NA
ATOM     57  C   UNL A   1      41.106  31.244  30.078  1.00  0.00     0.031 C 
ATOM     58  C   UNL A   1      46.997  31.272  28.613  1.00  0.00     0.029 A 
ATOM     59  C   UNL A   1      45.683  30.872  28.793  1.00  0.00     0.049 A 
ATOM     60  H   UNL A   1      44.804  28.989  28.422  1.00  0.00     0.167 HD
ATOM     61  C   UNL A   1      43.312  31.189  29.450  1.00  0.00     0.074 A 
ATOM     62  C   UNL A   1      42.213  31.970  29.977  1.00  0.00     0.031 C 
ATOM     63  C   UNL A   1      44.580  31.648  29.308  1.00  0.00     0.034 A 
BRANCH  50  64
ATOM     64  C   UNL A   1      48.598  27.531  27.073  1.00  0.00     0.023 A 
ATOM     65  C   UNL A   1      49.008  27.798  25.753  1.00  0.00     0.031 A 
ATOM     66  C   UNL A   1      49.494  26.868  27.928  1.00  0.00     0.131 A 
ATOM     67  C   UNL A   1      50.264  27.361  25.312  1.00  0.00     0.055 A 
ATOM     68  C   UNL A   1      50.760  26.468  27.494  1.00  0.00     0.041 A 
ATOM     69  F   UNL A   1      49.149  26.591  29.196  1.00  0.00    -0.206 F 
ATOM     70  C   UNL A   1      51.143  26.701  26.177  1.00  0.00     0.022 A 
BRANCH  67  71
ATOM     71  S   UNL A   1      50.778  27.572  23.585  1.00  0.00     0.124 S 
ATOM     72  O   UNL A   1      51.083  29.001  23.534  1.00  0.00    -0.237 OA
ATOM     73  O   UNL A   1      51.933  26.684  23.498  1.00  0.00    -0.237 OA
ATOM     74  O   UNL A   1      49.605  27.164  22.818  1.00  0.00    -0.744 OA
ENDBRANCH  67  71
ENDBRANCH  50  64
BRANCH  51  75
ATOM     75  C   UNL A   1      39.088  29.069  29.834  1.00  0.00     0.023 A 
ATOM     76  C   UNL A   1      38.202  29.815  29.033  1.00  0.00     0.031 A 
ATOM     77  C   UNL A   1      38.640  28.641  31.093  1.00  0.00     0.131 A 
ATOM     78  C   UNL A   1      36.951  30.186  29.537  1.00  0.00     0.055 A 
ATOM     79  C   UNL A   1      37.358  28.944  31.558  1.00  0.00     0.041 A 
ATOM     80  F   UNL A   1      39.451  27.939  31.898  1.00  0.00    -0.206 F 
ATOM     81  C   UNL A   1      36.515  29.741  30.788  1.00  0.00     0.022 A 
BRANCH  78  82
ATOM     82  S   UNL A   1      35.927  31.404  28.661  1.00  0.00     0.124 S 
ATOM     83  O   UNL A   1      36.916  32.398  28.260  1.00  0.00    -0.237 OA
ATOM     84  O   UNL A   1      35.362  30.601  27.579  1.00  0.00    -0.237 OA
ATOM     85  O   UNL A   1      34.967  31.836  29.673  1.00  0.00    -0.744 OA
ENDBRANCH  78  82
ENDBRANCH  51  75
BRANCH  63  86
ATOM     86  C   UNL A   1      44.883  33.062  29.735  1.00  0.00     0.023 A 
ATOM     87  C   UNL A   1      44.815  34.112  28.799  1.00  0.00     0.031 A 
ATOM     88  C   UNL A   1      45.387  33.342  31.017  1.00  0.00     0.131 A 
ATOM     89  C   UNL A   1      45.281  35.385  29.148  1.00  0.00     0.055 A 
ATOM     90  C   UNL A   1      45.810  34.623  31.372  1.00  0.00     0.041 A 
ATOM     91  F   UNL A   1      45.480  32.371  31.939  1.00  0.00    -0.206 F 
ATOM     92  C   UNL A   1      45.772  35.648  30.431  1.00  0.00     0.022 A 
BRANCH  89  93
ATOM     93  S   UNL A   1      45.351  36.723  27.925  1.00  0.00     0.124 S 
ATOM     94  O   UNL A   1      46.509  36.337  27.122  1.00  0.00    -0.237 OA
ATOM     95  O   UNL A   1      44.059  36.598  27.256  1.00  0.00    -0.237 OA
ATOM     96  O   UNL A   1      45.527  37.928  28.729  1.00  0.00    -0.744 OA
ENDBRANCH  89  93
ENDBRANCH  63  86
ENDBRANCH  37  38
ENDBRANCH  29  32
ENDBRANCH  27  28
ENDBRANCH  26  27
ENDBRANCH   1  26
TORSDOF 17
ENDMDL
MODEL 3
REMARK VINA RESULT:     -12.2      5.086      8.633
REMARK SMILES C[C@]12CCC(=O)N1c1ccccc1C(=O)N2CCCC(=O)NCCCCNC(=O)c1ccc(-c2c3nc(c(-c4cc(S(=O)(=O)[O-])ccc4F)c4ccc([nH]4)c(-c4cc(S(=O)(=O)[O-])ccc4F)c4nc(c(-c5cc(S(=O)(=O)[O-])ccc5F)c5ccc2[nH]5)C=C4)C=C3)cc1
REMARK SMILES IDX 24 1 23 2 22 3 20 4 21 5 19 7 18 8 17 9 16 10 1 11 2 12 3 13
REMARK SMILES IDX 7 14 4 15 5 16 8 17 14 18 6 19 9 20 13 21 15 22 10 23 12 24
REMARK SMILES IDX 11 25 25 26 26 27 27 28 28 29 29 31 30 32 31 33 92 34 32 35
REMARK SMILES IDX 91 36 33 37 34 38 35 39 85 40 36 41 90 42 84 43 86 44 37 45
REMARK SMILES IDX 89 46 83 47 82 48 38 50 70 51 50 52 69 53 51 54 54 55 68 56
REMARK SMILES IDX 87 57 52 58 53 59 67 61 88 62 55 63 39 64 40 65 48 66 41 67
REMARK SMILES IDX 47 68 49 69 46 70 42 71 43 72 44 73 45 74 71 75 72 76 80 77
REMARK SMILES IDX 73 78 79 79 81 80 78 81 74 82 75 83 76 84 77 85 56 86 57 87
REMARK SMILES IDX 65 88 58 89 64 90 66 91 63 92 59 93 60 94 61 95 62 96
REMARK H PARENT 22 6 27 30 86 49 54 60
REMARK Flexibility Score: inf
ROOT
ATOM      1  C   UNL A   1      34.562  20.768  24.697  1.00  0.00     0.023 C 
ENDROOT
BRANCH   1   2
ATOM      2  C   UNL A   1      33.532  21.873  24.473  1.00  0.00     0.116 C 
BRANCH   2   3
ATOM      3  N   UNL A   1      33.966  22.704  23.375  1.00  0.00    -0.356 N 
ATOM      4  C   UNL A   1      34.286  24.027  23.412  1.00  0.00     0.220 C 
ATOM      5  O   UNL A   1      34.294  24.671  22.363  1.00  0.00    -0.275 OA
ATOM      6  H   UNL A   1      34.041  22.264  22.498  1.00  0.00     0.163 HD
BRANCH   4   7
ATOM      7  C   UNL A   1      34.782  24.637  24.708  1.00  0.00     0.102 C 
BRANCH   7   8
ATOM      8  C   UNL A   1      33.862  25.433  25.634  1.00  0.00     0.031 C 
BRANCH   8   9
ATOM      9  C   UNL A   1      32.428  25.899  25.305  1.00  0.00     0.123 C 
BRANCH   9  10
ATOM     10  N   UNL A   1      31.960  27.287  25.104  1.00  0.00    -0.315 N 
ATOM     11  C   UNL A   1      31.753  28.055  27.493  1.00  0.00     0.060 C 
ATOM     12  C   UNL A   1      32.122  28.419  26.043  1.00  0.00     0.120 C 
ATOM     13  C   UNL A   1      33.522  29.045  26.033  1.00  0.00     0.061 C 
ATOM     14  N   UNL A   1      31.320  29.588  25.688  1.00  0.00    -0.288 N 
ATOM     15  C   UNL A   1      33.284  30.421  26.671  1.00  0.00     0.105 C 
ATOM     16  C   UNL A   1      31.857  30.748  26.274  1.00  0.00     0.229 C 
ATOM     17  C   UNL A   1      30.639  29.686  24.455  1.00  0.00     0.059 A 
ATOM     18  C   UNL A   1      31.812  27.625  23.742  1.00  0.00     0.257 C 
ATOM     19  O   UNL A   1      31.350  31.852  26.392  1.00  0.00    -0.274 OA
ATOM     20  C   UNL A   1      29.750  30.730  24.174  1.00  0.00     0.027 A 
ATOM     21  C   UNL A   1      30.988  28.807  23.434  1.00  0.00     0.063 A 
ATOM     22  O   UNL A   1      32.227  26.927  22.820  1.00  0.00    -0.269 OA
ATOM     23  C   UNL A   1      29.255  30.911  22.879  1.00  0.00     0.002 A 
ATOM     24  C   UNL A   1      30.537  29.018  22.124  1.00  0.00     0.016 A 
ATOM     25  C   UNL A   1      29.670  30.073  21.848  1.00  0.00     0.001 A 
ENDBRANCH   9  10
ENDBRANCH   8   9
ENDBRANCH   7   8
ENDBRANCH   4   7
ENDBRANCH   2   3
ENDBRANCH   1   2
BRANCH   1  26
ATOM     26  C   UNL A   1      35.606  21.119  25.749  1.00  0.00     0.023 C 
BRANCH  26  27
ATOM     27  C   UNL A   1      36.941  21.531  25.148  1.00  0.00     0.116 C 
BRANCH  27  28
ATOM     28  N   UNL A   1      37.951  20.479  25.208  1.00  0.00    -0.352 N 
ATOM     29  C   UNL A   1      39.190  20.535  25.808  1.00  0.00     0.251 C 
ATOM     30  H   UNL A   1      37.719  19.630  24.768  1.00  0.00     0.163 HD
ATOM     31  O   UNL A   1      39.982  19.604  25.724  1.00  0.00    -0.269 OA
BRANCH  29  32
ATOM     32  C   UNL A   1      39.552  21.785  26.502  1.00  0.00     0.039 A 
ATOM     33  C   UNL A   1      38.997  22.990  26.071  1.00  0.00     0.014 A 
ATOM     34  C   UNL A   1      40.584  21.763  27.441  1.00  0.00     0.014 A 
ATOM     35  C   UNL A   1      39.618  24.179  26.424  1.00  0.00     0.010 A 
ATOM     36  C   UNL A   1      41.136  22.970  27.876  1.00  0.00     0.010 A 
ATOM     37  C   UNL A   1      40.702  24.184  27.321  1.00  0.00    -0.014 A 
BRANCH  37  38
ATOM     38  C   UNL A   1      41.363  25.473  27.656  1.00  0.00     0.031 A 
ATOM     39  C   UNL A   1      42.750  25.791  27.164  1.00  0.00     0.074 A 
ATOM     40  C   UNL A   1      40.674  26.385  28.370  1.00  0.00     0.049 A 
ATOM     41  N   UNL A   1      43.465  26.868  27.369  1.00  0.00    -0.248 NA
ATOM     42  C   UNL A   1      43.431  24.774  26.343  1.00  0.00     0.031 C 
ATOM     43  C   UNL A   1      39.324  26.181  28.896  1.00  0.00     0.029 A 
ATOM     44  N   UNL A   1      40.994  27.660  28.760  1.00  0.00    -0.354 N 
ATOM     45  C   UNL A   1      44.685  26.647  26.738  1.00  0.00     0.074 A 
ATOM     46  C   UNL A   1      44.622  25.327  26.153  1.00  0.00     0.031 C 
ATOM     47  C   UNL A   1      38.911  27.307  29.490  1.00  0.00     0.029 A 
ATOM     48  C   UNL A   1      39.993  28.285  29.467  1.00  0.00     0.049 A 
ATOM     49  H   UNL A   1      41.857  28.088  28.552  1.00  0.00     0.167 HD
ATOM     50  C   UNL A   1      45.751  27.479  26.650  1.00  0.00     0.034 A 
ATOM     51  C   UNL A   1      39.953  29.496  30.058  1.00  0.00     0.034 A 
ATOM     52  C   UNL A   1      45.778  28.810  27.199  1.00  0.00     0.049 A 
ATOM     53  C   UNL A   1      41.146  30.403  29.932  1.00  0.00     0.074 A 
ATOM     54  C   UNL A   1      46.798  29.743  27.119  1.00  0.00     0.029 A 
ATOM     55  N   UNL A   1      44.749  29.405  27.914  1.00  0.00    -0.354 N 
ATOM     56  N   UNL A   1      42.275  30.190  29.298  1.00  0.00    -0.248 NA
ATOM     57  C   UNL A   1      41.069  31.710  30.596  1.00  0.00     0.031 C 
ATOM     58  C   UNL A   1      46.408  30.879  27.830  1.00  0.00     0.029 A 
ATOM     59  C   UNL A   1      45.119  30.682  28.300  1.00  0.00     0.049 A 
ATOM     60  H   UNL A   1      43.883  28.982  28.117  1.00  0.00     0.167 HD
ATOM     61  C   UNL A   1      43.040  31.337  29.482  1.00  0.00     0.074 A 
ATOM     62  C   UNL A   1      42.230  32.256  30.254  1.00  0.00     0.031 C 
ATOM     63  C   UNL A   1      44.302  31.597  29.061  1.00  0.00     0.034 A 
BRANCH  50  64
ATOM     64  C   UNL A   1      46.989  27.010  25.925  1.00  0.00     0.023 A 
ATOM     65  C   UNL A   1      48.023  26.383  26.646  1.00  0.00     0.031 A 
ATOM     66  C   UNL A   1      47.216  27.331  24.576  1.00  0.00     0.131 A 
ATOM     67  C   UNL A   1      49.255  26.136  26.024  1.00  0.00     0.055 A 
ATOM     68  C   UNL A   1      48.432  27.049  23.952  1.00  0.00     0.041 A 
ATOM     69  F   UNL A   1      46.260  27.930  23.848  1.00  0.00    -0.206 F 
ATOM     70  C   UNL A   1      49.463  26.463  24.681  1.00  0.00     0.022 A 
BRANCH  67  71
ATOM     71  S   UNL A   1      50.652  25.447  26.953  1.00  0.00     0.124 S 
ATOM     72  O   UNL A   1      51.580  25.093  25.880  1.00  0.00    -0.237 OA
ATOM     73  O   UNL A   1      51.058  26.579  27.780  1.00  0.00    -0.237 OA
ATOM     74  O   UNL A   1      50.074  24.314  27.668  1.00  0.00    -0.744 OA
ENDBRANCH  67  71
ENDBRANCH  50  64
BRANCH  51  75
ATOM     75  C   UNL A   1      38.718  29.895  30.793  1.00  0.00     0.023 A 
ATOM     76  C   UNL A   1      37.759  30.725  30.181  1.00  0.00     0.031 A 
ATOM     77  C   UNL A   1      38.544  29.571  32.147  1.00  0.00     0.131 A 
ATOM     78  C   UNL A   1      36.724  31.276  30.945  1.00  0.00     0.055 A 
ATOM     79  C   UNL A   1      37.462  30.057  32.886  1.00  0.00     0.041 A 
ATOM     80  F   UNL A   1      39.437  28.794  32.778  1.00  0.00    -0.206 F 
ATOM     81  C   UNL A   1      36.559  30.933  32.291  1.00  0.00     0.022 A 
BRANCH  78  82
ATOM     82  S   UNL A   1      35.672  32.590  30.264  1.00  0.00     0.124 S 
ATOM     83  O   UNL A   1      36.459  33.785  30.548  1.00  0.00    -0.237 OA
ATOM     84  O   UNL A   1      35.586  32.209  28.857  1.00  0.00    -0.237 OA
ATOM     85  O   UNL A   1      34.427  32.456  31.015  1.00  0.00    -0.744 OA
ENDBRANCH  78  82
ENDBRANCH  51  75
BRANCH  63  86
ATOM     86  C   UNL A   1      44.921  32.923  29.423  1.00  0.00     0.023 A 
ATOM     87  C   UNL A   1      44.876  33.996  28.512  1.00  0.00     0.031 A 
ATOM     88  C   UNL A   1      45.684  33.074  30.595  1.00  0.00     0.131 A 
ATOM     89  C   UNL A   1      45.615  35.157  28.769  1.00  0.00     0.055 A 
ATOM     90  C   UNL A   1      46.383  34.250  30.866  1.00  0.00     0.041 A 
ATOM     91  F   UNL A   1      45.764  32.075  31.488  1.00  0.00    -0.206 F 
ATOM     92  C   UNL A   1      46.362  35.293  29.944  1.00  0.00     0.022 A 
BRANCH  89  93
ATOM     93  S   UNL A   1      45.705  36.498  27.550  1.00  0.00     0.124 S 
ATOM     94  O   UNL A   1      45.825  35.756  26.296  1.00  0.00    -0.237 OA
ATOM     95  O   UNL A   1      44.431  37.183  27.749  1.00  0.00    -0.237 OA
ATOM     96  O   UNL A   1      46.890  37.252  27.941  1.00  0.00    -0.744 OA
ENDBRANCH  89  93
ENDBRANCH  63  86
ENDBRANCH  37  38
ENDBRANCH  29  32
ENDBRANCH  27  28
ENDBRANCH  26  27
ENDBRANCH   1  26
TORSDOF 17
ENDMDL
