MODEL 1
REMARK VINA RESULT:     -11.0      0.000      0.000
REMARK SMILES COc1cc(/C=C2/CCc3cc(OC(C)(C)C(=O)NCCCCNC(=O)c4ccc(-c5c6nc(c(-c7cc(S(=O)(=O)[O-])ccc7F)c7ccc([nH]7)c(-c7cc(S(=O)(=O)[O-])ccc7F)c7nc(c(-c8cc(S(=O)(=O)[O-])ccc8F)c8ccc5[nH]8)C=C7)C=C6)cc4)ccc3C2=O)cc(OC)c1O
REMARK SMILES IDX 21 1 20 2 19 3 17 4 18 5 14 7 15 8 16 9 13 10 12 11 6 12
REMARK SMILES IDX 7 13 8 14 93 15 9 16 92 17 94 18 10 19 91 20 11 21 90 22
REMARK SMILES IDX 5 23 3 24 4 25 99 26 96 27 95 28 2 29 1 30 100 31 97 33
REMARK SMILES IDX 98 34 22 35 23 36 24 37 25 38 26 40 27 41 28 42 89 43 29 44
REMARK SMILES IDX 88 45 30 46 31 47 32 48 82 49 33 50 87 51 81 52 83 53 34 54
REMARK SMILES IDX 86 55 80 56 79 57 35 59 67 60 47 61 66 62 48 63 51 64 65 65
REMARK SMILES IDX 84 66 49 67 50 68 64 70 85 71 52 72 36 73 37 74 45 75 38 76
REMARK SMILES IDX 44 77 46 78 43 79 39 80 40 81 41 82 42 83 68 84 69 85 77 86
REMARK SMILES IDX 70 87 76 88 78 89 75 90 71 91 72 92 73 93 74 94 53 95 54 96
REMARK SMILES IDX 62 97 55 98 61 99 63 100 60 101 56 102 57 103 58 104 59 105
REMARK H PARENT 19 6 100 32 24 39 83 58 51 69
REMARK Flexibility Score: inf
ROOT
ATOM      1  C   UNL A   1      33.922  30.380  27.445  1.00  0.00     0.023 C 
ENDROOT
BRANCH   1   2
ATOM      2  C   UNL A   1      33.551  29.603  26.191  1.00  0.00     0.116 C 
BRANCH   2   3
ATOM      3  N   UNL A   1      32.458  30.070  25.339  1.00  0.00    -0.353 N 
ATOM      4  C   UNL A   1      31.767  29.348  24.347  1.00  0.00     0.263 C 
ATOM      5  O   UNL A   1      30.574  29.632  24.193  1.00  0.00    -0.270 OA
ATOM      6  H   UNL A   1      32.170  31.001  25.475  1.00  0.00     0.163 HD
BRANCH   4   7
ATOM      7  C   UNL A   1      32.555  28.457  23.266  1.00  0.00     0.181 C 
ATOM      8  C   UNL A   1      33.969  29.035  23.141  1.00  0.00     0.067 C 
ATOM      9  C   UNL A   1      31.502  28.703  22.143  1.00  0.00     0.067 C 
BRANCH   7  10
ATOM     10  O   UNL A   1      32.761  27.010  23.541  1.00  0.00    -0.478 OA
BRANCH  10  11
ATOM     11  C   UNL A   1      31.574  26.276  23.721  1.00  0.00     0.121 A 
ATOM     12  C   UNL A   1      32.177  21.251  26.268  1.00  0.00     0.016 C 
ATOM     13  C   UNL A   1      31.295  22.262  26.091  1.00  0.00     0.001 C 
ATOM     14  C   UNL A   1      30.090  22.797  26.859  1.00  0.00     0.044 C 
ATOM     15  C   UNL A   1      31.699  23.287  25.148  1.00  0.00     0.189 C 
ATOM     16  C   UNL A   1      29.914  24.418  26.715  1.00  0.00     0.041 C 
ATOM     17  C   UNL A   1      30.553  23.916  24.415  1.00  0.00     0.026 A 
ATOM     18  O   UNL A   1      32.736  23.891  25.396  1.00  0.00    -0.289 OA
ATOM     19  C   UNL A   1      30.257  24.945  25.300  1.00  0.00    -0.033 A 
ATOM     20  C   UNL A   1      30.752  24.156  23.058  1.00  0.00     0.016 A 
ATOM     21  C   UNL A   1      30.856  26.179  24.957  1.00  0.00     0.051 A 
ATOM     22  C   UNL A   1      31.278  25.386  22.692  1.00  0.00     0.047 A 
BRANCH  12  23
ATOM     23  C   UNL A   1      33.616  21.369  25.829  1.00  0.00    -0.018 A 
ATOM     24  C   UNL A   1      35.416  20.103  24.782  1.00  0.00     0.165 A 
ATOM     25  C   UNL A   1      34.068  20.265  25.089  1.00  0.00     0.058 A 
ATOM     26  C   UNL A   1      36.354  21.072  25.158  1.00  0.00     0.200 A 
ATOM     27  C   UNL A   1      35.967  22.131  25.985  1.00  0.00     0.165 A 
ATOM     28  C   UNL A   1      34.587  22.285  26.298  1.00  0.00     0.058 A 
BRANCH  24  29
ATOM     29  O   UNL A   1      35.801  18.831  24.432  1.00  0.00    -0.493 OA
ATOM     30  C   UNL A   1      34.804  17.849  24.663  1.00  0.00     0.278 C 
ENDBRANCH  24  29
BRANCH  26  31
ATOM     31  O   UNL A   1      37.631  20.957  24.686  1.00  0.00    -0.502 OA
ATOM     32  H   UNL A   1      37.899  20.175  24.243  1.00  0.00     0.293 HD
ENDBRANCH  26  31
BRANCH  27  33
ATOM     33  O   UNL A   1      36.809  23.044  26.583  1.00  0.00    -0.493 OA
ATOM     34  C   UNL A   1      37.370  24.094  25.785  1.00  0.00     0.278 C 
ENDBRANCH  27  33
ENDBRANCH  12  23
ENDBRANCH  10  11
ENDBRANCH   7  10
ENDBRANCH   4   7
ENDBRANCH   2   3
ENDBRANCH   1   2
BRANCH   1  35
ATOM     35  C   UNL A   1      33.156  31.626  27.822  1.00  0.00     0.023 C 
BRANCH  35  36
ATOM     36  C   UNL A   1      33.898  32.886  27.416  1.00  0.00     0.116 C 
BRANCH  36  37
ATOM     37  N   UNL A   1      33.320  34.075  28.056  1.00  0.00    -0.352 N 
ATOM     38  C   UNL A   1      33.380  34.485  29.374  1.00  0.00     0.251 C 
ATOM     39  H   UNL A   1      32.815  34.670  27.456  1.00  0.00     0.163 HD
ATOM     40  O   UNL A   1      32.529  35.235  29.831  1.00  0.00    -0.269 OA
BRANCH  38  41
ATOM     41  C   UNL A   1      34.499  34.005  30.207  1.00  0.00     0.039 A 
ATOM     42  C   UNL A   1      34.321  33.016  31.177  1.00  0.00     0.014 A 
ATOM     43  C   UNL A   1      35.760  34.546  29.976  1.00  0.00     0.014 A 
ATOM     44  C   UNL A   1      35.442  32.504  31.839  1.00  0.00     0.010 A 
ATOM     45  C   UNL A   1      36.871  33.918  30.492  1.00  0.00     0.010 A 
ATOM     46  C   UNL A   1      36.730  32.914  31.457  1.00  0.00    -0.014 A 
BRANCH  46  47
ATOM     47  C   UNL A   1      37.977  32.376  32.048  1.00  0.00     0.031 A 
ATOM     48  C   UNL A   1      38.703  31.273  31.317  1.00  0.00     0.074 A 
ATOM     49  C   UNL A   1      38.351  32.752  33.286  1.00  0.00     0.049 A 
ATOM     50  N   UNL A   1      39.642  30.471  31.744  1.00  0.00    -0.248 NA
ATOM     51  C   UNL A   1      38.244  30.979  29.948  1.00  0.00     0.031 C 
ATOM     52  C   UNL A   1      37.678  33.761  34.109  1.00  0.00     0.029 A 
ATOM     53  N   UNL A   1      39.377  32.311  34.081  1.00  0.00    -0.354 N 
ATOM     54  C   UNL A   1      39.842  29.553  30.716  1.00  0.00     0.074 A 
ATOM     55  C   UNL A   1      38.857  29.835  29.698  1.00  0.00     0.031 C 
ATOM     56  C   UNL A   1      38.333  33.888  35.273  1.00  0.00     0.029 A 
ATOM     57  C   UNL A   1      39.429  32.929  35.309  1.00  0.00     0.049 A 
ATOM     58  H   UNL A   1      40.016  31.617  33.799  1.00  0.00     0.167 HD
ATOM     59  C   UNL A   1      40.790  28.591  30.615  1.00  0.00     0.034 A 
ATOM     60  C   UNL A   1      40.261  32.726  36.348  1.00  0.00     0.034 A 
ATOM     61  C   UNL A   1      41.792  28.377  31.627  1.00  0.00     0.049 A 
ATOM     62  C   UNL A   1      41.319  31.660  36.214  1.00  0.00     0.074 A 
ATOM     63  C   UNL A   1      42.864  27.506  31.612  1.00  0.00     0.029 A 
ATOM     64  N   UNL A   1      41.840  29.051  32.842  1.00  0.00    -0.354 N 
ATOM     65  N   UNL A   1      41.545  30.843  35.210  1.00  0.00    -0.248 NA
ATOM     66  C   UNL A   1      42.235  31.490  37.347  1.00  0.00     0.031 C 
ATOM     67  C   UNL A   1      43.520  27.604  32.842  1.00  0.00     0.029 A 
ATOM     68  C   UNL A   1      42.904  28.592  33.598  1.00  0.00     0.049 A 
ATOM     69  H   UNL A   1      41.210  29.754  33.123  1.00  0.00     0.167 HD
ATOM     70  C   UNL A   1      42.644  30.076  35.583  1.00  0.00     0.074 A 
ATOM     71  C   UNL A   1      43.046  30.545  36.895  1.00  0.00     0.031 C 
ATOM     72  C   UNL A   1      43.268  29.076  34.909  1.00  0.00     0.034 A 
BRANCH  59  73
ATOM     73  C   UNL A   1      40.775  27.720  29.379  1.00  0.00     0.023 A 
ATOM     74  C   UNL A   1      41.699  27.905  28.334  1.00  0.00     0.031 A 
ATOM     75  C   UNL A   1      39.794  26.726  29.213  1.00  0.00     0.131 A 
ATOM     76  C   UNL A   1      41.560  27.188  27.136  1.00  0.00     0.055 A 
ATOM     77  C   UNL A   1      39.722  25.946  28.056  1.00  0.00     0.041 A 
ATOM     78  F   UNL A   1      38.870  26.513  30.162  1.00  0.00    -0.206 F 
ATOM     79  C   UNL A   1      40.596  26.189  27.000  1.00  0.00     0.022 A 
BRANCH  76  80
ATOM     80  S   UNL A   1      42.543  27.707  25.702  1.00  0.00     0.124 S 
ATOM     81  O   UNL A   1      42.344  26.584  24.788  1.00  0.00    -0.237 OA
ATOM     82  O   UNL A   1      41.906  28.962  25.319  1.00  0.00    -0.237 OA
ATOM     83  O   UNL A   1      43.896  27.831  26.240  1.00  0.00    -0.744 OA
ENDBRANCH  76  80
ENDBRANCH  59  73
BRANCH  60  84
ATOM     84  C   UNL A   1      40.140  33.546  37.587  1.00  0.00     0.023 A 
ATOM     85  C   UNL A   1      39.387  33.086  38.678  1.00  0.00     0.031 A 
ATOM     86  C   UNL A   1      40.761  34.802  37.702  1.00  0.00     0.131 A 
ATOM     87  C   UNL A   1      39.236  33.891  39.819  1.00  0.00     0.055 A 
ATOM     88  C   UNL A   1      40.654  35.577  38.859  1.00  0.00     0.041 A 
ATOM     89  F   UNL A   1      41.501  35.290  36.692  1.00  0.00    -0.206 F 
ATOM     90  C   UNL A   1      39.878  35.127  39.922  1.00  0.00     0.022 A 
BRANCH  87  91
ATOM     91  S   UNL A   1      38.120  33.332  41.134  1.00  0.00     0.124 S 
ATOM     92  O   UNL A   1      39.063  32.910  42.164  1.00  0.00    -0.237 OA
ATOM     93  O   UNL A   1      37.356  34.542  41.418  1.00  0.00    -0.237 OA
ATOM     94  O   UNL A   1      37.363  32.253  40.501  1.00  0.00    -0.744 OA
ENDBRANCH  87  91
ENDBRANCH  60  84
BRANCH  72  95
ATOM     95  C   UNL A   1      44.465  28.449  35.576  1.00  0.00     0.023 A 
ATOM     96  C   UNL A   1      44.322  27.417  36.516  1.00  0.00     0.031 A 
ATOM     97  C   UNL A   1      45.763  28.880  35.250  1.00  0.00     0.131 A 
ATOM     98  C   UNL A   1      45.459  26.879  37.136  1.00  0.00     0.055 A 
ATOM     99  C   UNL A   1      46.892  28.297  35.822  1.00  0.00     0.041 A 
ATOM    100  F   UNL A   1      45.953  29.866  34.358  1.00  0.00    -0.206 F 
ATOM    101  C   UNL A   1      46.743  27.297  36.779  1.00  0.00     0.022 A 
BRANCH  98 102
ATOM    102  S   UNL A   1      45.229  25.679  38.475  1.00  0.00     0.124 S 
ATOM    103  O   UNL A   1      46.585  25.549  38.999  1.00  0.00    -0.237 OA
ATOM    104  O   UNL A   1      44.274  26.358  39.344  1.00  0.00    -0.237 OA
ATOM    105  O   UNL A   1      44.711  24.498  37.790  1.00  0.00    -0.744 OA
ENDBRANCH  98 102
ENDBRANCH  72  95
ENDBRANCH  46  47
ENDBRANCH  38  41
ENDBRANCH  36  37
ENDBRANCH  35  36
ENDBRANCH   1  35
TORSDOF 20
ENDMDL
MODEL 2
REMARK VINA RESULT:     -10.9      7.862     14.858
REMARK SMILES COc1cc(/C=C2/CCc3cc(OC(C)(C)C(=O)NCCCCNC(=O)c4ccc(-c5c6nc(c(-c7cc(S(=O)(=O)[O-])ccc7F)c7ccc([nH]7)c(-c7cc(S(=O)(=O)[O-])ccc7F)c7nc(c(-c8cc(S(=O)(=O)[O-])ccc8F)c8ccc5[nH]8)C=C7)C=C6)cc4)ccc3C2=O)cc(OC)c1O
REMARK SMILES IDX 21 1 20 2 19 3 17 4 18 5 14 7 15 8 16 9 13 10 12 11 6 12
REMARK SMILES IDX 7 13 8 14 93 15 9 16 92 17 94 18 10 19 91 20 11 21 90 22
REMARK SMILES IDX 5 23 3 24 4 25 99 26 96 27 95 28 2 29 1 30 100 31 97 33
REMARK SMILES IDX 98 34 22 35 23 36 24 37 25 38 26 40 27 41 28 42 89 43 29 44
REMARK SMILES IDX 88 45 30 46 31 47 32 48 82 49 33 50 87 51 81 52 83 53 34 54
REMARK SMILES IDX 86 55 80 56 79 57 35 59 67 60 47 61 66 62 48 63 51 64 65 65
REMARK SMILES IDX 84 66 49 67 50 68 64 70 85 71 52 72 36 73 37 74 45 75 38 76
REMARK SMILES IDX 44 77 46 78 43 79 39 80 40 81 41 82 42 83 68 84 69 85 77 86
REMARK SMILES IDX 70 87 76 88 78 89 75 90 71 91 72 92 73 93 74 94 53 95 54 96
REMARK SMILES IDX 62 97 55 98 61 99 63 100 60 101 56 102 57 103 58 104 59 105
REMARK H PARENT 19 6 100 32 24 39 83 58 51 69
REMARK Flexibility Score: inf
ROOT
ATOM      1  C   UNL A   1      47.803  41.517  34.955  1.00  0.00     0.023 C 
ENDROOT
BRANCH   1   2
ATOM      2  C   UNL A   1      46.866  42.665  34.612  1.00  0.00     0.116 C 
BRANCH   2   3
ATOM      3  N   UNL A   1      45.533  42.724  35.210  1.00  0.00    -0.353 N 
ATOM      4  C   UNL A   1      44.289  42.580  34.566  1.00  0.00     0.263 C 
ATOM      5  O   UNL A   1      43.387  42.054  35.228  1.00  0.00    -0.270 OA
ATOM      6  H   UNL A   1      45.501  42.884  36.181  1.00  0.00     0.163 HD
BRANCH   4   7
ATOM      7  C   UNL A   1      43.972  43.345  33.188  1.00  0.00     0.181 C 
ATOM      8  C   UNL A   1      44.690  44.699  33.243  1.00  0.00     0.067 C 
ATOM      9  C   UNL A   1      42.428  43.266  33.381  1.00  0.00     0.067 C 
BRANCH   7  10
ATOM     10  O   UNL A   1      44.415  42.733  31.908  1.00  0.00    -0.478 OA
BRANCH  10  11
ATOM     11  C   UNL A   1      44.525  41.330  31.939  1.00  0.00     0.121 A 
ATOM     12  C   UNL A   1      45.682  38.863  26.973  1.00  0.00     0.016 C 
ATOM     13  C   UNL A   1      45.847  38.712  28.307  1.00  0.00     0.001 C 
ATOM     14  C   UNL A   1      46.838  37.970  29.200  1.00  0.00     0.044 C 
ATOM     15  C   UNL A   1      45.151  39.675  29.137  1.00  0.00     0.189 C 
ATOM     16  C   UNL A   1      47.116  38.741  30.616  1.00  0.00     0.041 C 
ATOM     17  C   UNL A   1      44.711  39.123  30.460  1.00  0.00     0.026 A 
ATOM     18  O   UNL A   1      45.438  40.856  28.976  1.00  0.00    -0.289 OA
ATOM     19  C   UNL A   1      45.848  39.404  31.209  1.00  0.00    -0.033 A 
ATOM     20  C   UNL A   1      43.443  39.504  30.890  1.00  0.00     0.016 A 
ATOM     21  C   UNL A   1      45.762  40.610  31.942  1.00  0.00     0.051 A 
ATOM     22  C   UNL A   1      43.342  40.649  31.665  1.00  0.00     0.047 A 
BRANCH  12  23
ATOM     23  C   UNL A   1      45.147  40.145  26.381  1.00  0.00    -0.018 A 
ATOM     24  C   UNL A   1      43.089  41.186  25.594  1.00  0.00     0.165 A 
ATOM     25  C   UNL A   1      43.747  40.181  26.298  1.00  0.00     0.058 A 
ATOM     26  C   UNL A   1      43.811  42.224  24.993  1.00  0.00     0.200 A 
ATOM     27  C   UNL A   1      45.208  42.172  24.959  1.00  0.00     0.165 A 
ATOM     28  C   UNL A   1      45.870  41.137  25.678  1.00  0.00     0.058 A 
BRANCH  24  29
ATOM     29  O   UNL A   1      41.792  40.912  25.232  1.00  0.00    -0.493 OA
ATOM     30  C   UNL A   1      41.058  40.211  26.223  1.00  0.00     0.278 C 
ENDBRANCH  24  29
BRANCH  26  31
ATOM     31  O   UNL A   1      43.117  43.275  24.464  1.00  0.00    -0.502 OA
ATOM     32  H   UNL A   1      42.812  43.239  23.579  1.00  0.00     0.293 HD
ENDBRANCH  26  31
BRANCH  27  33
ATOM     33  O   UNL A   1      46.035  43.014  24.248  1.00  0.00    -0.493 OA
ATOM     34  C   UNL A   1      46.843  43.956  24.964  1.00  0.00     0.278 C 
ENDBRANCH  27  33
ENDBRANCH  12  23
ENDBRANCH  10  11
ENDBRANCH   7  10
ENDBRANCH   4   7
ENDBRANCH   2   3
ENDBRANCH   1   2
BRANCH   1  35
ATOM     35  C   UNL A   1      48.403  41.412  36.337  1.00  0.00     0.023 C 
BRANCH  35  36
ATOM     36  C   UNL A   1      48.513  39.969  36.793  1.00  0.00     0.116 C 
BRANCH  36  37
ATOM     37  N   UNL A   1      49.676  39.306  36.189  1.00  0.00    -0.352 N 
ATOM     38  C   UNL A   1      49.809  38.015  35.715  1.00  0.00     0.251 C 
ATOM     39  H   UNL A   1      50.482  39.865  36.109  1.00  0.00     0.163 HD
ATOM     40  O   UNL A   1      50.912  37.492  35.639  1.00  0.00    -0.269 OA
BRANCH  38  41
ATOM     41  C   UNL A   1      48.592  37.294  35.295  1.00  0.00     0.039 A 
ATOM     42  C   UNL A   1      48.369  35.963  35.652  1.00  0.00     0.014 A 
ATOM     43  C   UNL A   1      47.646  37.993  34.553  1.00  0.00     0.014 A 
ATOM     44  C   UNL A   1      47.138  35.375  35.342  1.00  0.00     0.010 A 
ATOM     45  C   UNL A   1      46.378  37.476  34.413  1.00  0.00     0.010 A 
ATOM     46  C   UNL A   1      46.115  36.148  34.771  1.00  0.00    -0.014 A 
BRANCH  46  47
ATOM     47  C   UNL A   1      44.756  35.634  34.476  1.00  0.00     0.031 A 
ATOM     48  C   UNL A   1      44.354  35.449  33.033  1.00  0.00     0.074 A 
ATOM     49  C   UNL A   1      43.858  35.500  35.470  1.00  0.00     0.049 A 
ATOM     50  N   UNL A   1      43.167  35.273  32.517  1.00  0.00    -0.248 NA
ATOM     51  C   UNL A   1      45.429  35.567  32.031  1.00  0.00     0.031 C 
ATOM     52  C   UNL A   1      44.125  35.722  36.894  1.00  0.00     0.029 A 
ATOM     53  N   UNL A   1      42.529  35.169  35.432  1.00  0.00    -0.354 N 
ATOM     54  C   UNL A   1      43.351  35.313  31.137  1.00  0.00     0.074 A 
ATOM     55  C   UNL A   1      44.741  35.634  30.905  1.00  0.00     0.031 C 
ATOM     56  C   UNL A   1      43.006  35.481  37.595  1.00  0.00     0.029 A 
ATOM     57  C   UNL A   1      41.929  35.153  36.670  1.00  0.00     0.049 A 
ATOM     58  H   UNL A   1      42.049  34.961  34.598  1.00  0.00     0.167 HD
ATOM     59  C   UNL A   1      42.452  35.062  30.157  1.00  0.00     0.034 A 
ATOM     60  C   UNL A   1      40.647  34.915  37.011  1.00  0.00     0.034 A 
ATOM     61  C   UNL A   1      41.088  34.689  30.430  1.00  0.00     0.049 A 
ATOM     62  C   UNL A   1      39.661  34.624  35.907  1.00  0.00     0.074 A 
ATOM     63  C   UNL A   1      40.099  34.316  29.541  1.00  0.00     0.029 A 
ATOM     64  N   UNL A   1      40.524  34.642  31.700  1.00  0.00    -0.354 N 
ATOM     65  N   UNL A   1      39.860  34.596  34.608  1.00  0.00    -0.248 NA
ATOM     66  C   UNL A   1      38.283  34.330  36.313  1.00  0.00     0.031 C 
ATOM     67  C   UNL A   1      38.921  34.109  30.264  1.00  0.00     0.029 A 
ATOM     68  C   UNL A   1      39.192  34.278  31.614  1.00  0.00     0.049 A 
ATOM     69  H   UNL A   1      41.003  34.837  32.538  1.00  0.00     0.167 HD
ATOM     70  C   UNL A   1      38.634  34.259  34.044  1.00  0.00     0.074 A 
ATOM     71  C   UNL A   1      37.711  34.074  35.145  1.00  0.00     0.031 C 
ATOM     72  C   UNL A   1      38.297  34.114  32.736  1.00  0.00     0.034 A 
BRANCH  59  73
ATOM     73  C   UNL A   1      42.924  35.184  28.726  1.00  0.00     0.023 A 
ATOM     74  C   UNL A   1      43.686  34.173  28.110  1.00  0.00     0.031 A 
ATOM     75  C   UNL A   1      42.657  36.345  27.979  1.00  0.00     0.131 A 
ATOM     76  C   UNL A   1      44.241  34.385  26.839  1.00  0.00     0.055 A 
ATOM     77  C   UNL A   1      43.130  36.507  26.674  1.00  0.00     0.041 A 
ATOM     78  F   UNL A   1      41.954  37.355  28.513  1.00  0.00    -0.206 F 
ATOM     79  C   UNL A   1      43.944  35.533  26.104  1.00  0.00     0.022 A 
BRANCH  76  80
ATOM     80  S   UNL A   1      45.494  33.218  26.241  1.00  0.00     0.124 S 
ATOM     81  O   UNL A   1      46.301  34.074  25.373  1.00  0.00    -0.237 OA
ATOM     82  O   UNL A   1      46.133  32.779  27.476  1.00  0.00    -0.237 OA
ATOM     83  O   UNL A   1      44.711  32.199  25.545  1.00  0.00    -0.744 OA
ENDBRANCH  76  80
ENDBRANCH  59  73
BRANCH  60  84
ATOM     84  C   UNL A   1      40.228  34.928  38.441  1.00  0.00     0.023 A 
ATOM     85  C   UNL A   1      40.263  33.753  39.207  1.00  0.00     0.031 A 
ATOM     86  C   UNL A   1      39.775  36.104  39.064  1.00  0.00     0.131 A 
ATOM     87  C   UNL A   1      39.815  33.767  40.538  1.00  0.00     0.055 A 
ATOM     88  C   UNL A   1      39.381  36.127  40.403  1.00  0.00     0.041 A 
ATOM     89  F   UNL A   1      39.727  37.260  38.381  1.00  0.00    -0.206 F 
ATOM     90  C   UNL A   1      39.389  34.949  41.145  1.00  0.00     0.022 A 
BRANCH  87  91
ATOM     91  S   UNL A   1      39.721  32.196  41.438  1.00  0.00     0.124 S 
ATOM     92  O   UNL A   1      38.596  31.542  40.778  1.00  0.00    -0.237 OA
ATOM     93  O   UNL A   1      41.038  31.621  41.183  1.00  0.00    -0.237 OA
ATOM     94  O   UNL A   1      39.480  32.609  42.819  1.00  0.00    -0.744 OA
ENDBRANCH  87  91
ENDBRANCH  60  84
BRANCH  72  95
ATOM     95  C   UNL A   1      36.875  33.711  32.440  1.00  0.00     0.023 A 
ATOM     96  C   UNL A   1      35.884  34.668  32.171  1.00  0.00     0.031 A 
ATOM     97  C   UNL A   1      36.517  32.352  32.410  1.00  0.00     0.131 A 
ATOM     98  C   UNL A   1      34.567  34.254  31.929  1.00  0.00     0.055 A 
ATOM     99  C   UNL A   1      35.220  31.945  32.104  1.00  0.00     0.041 A 
ATOM    100  F   UNL A   1      37.428  31.398  32.663  1.00  0.00    -0.206 F 
ATOM    101  C   UNL A   1      34.233  32.899  31.872  1.00  0.00     0.022 A 
BRANCH  98 102
ATOM    102  S   UNL A   1      33.278  35.518  31.768  1.00  0.00     0.124 S 
ATOM    103  O   UNL A   1      33.959  36.709  32.265  1.00  0.00    -0.237 OA
ATOM    104  O   UNL A   1      32.994  35.497  30.337  1.00  0.00    -0.237 OA
ATOM    105  O   UNL A   1      32.201  35.018  32.619  1.00  0.00    -0.744 OA
ENDBRANCH  98 102
ENDBRANCH  72  95
ENDBRANCH  46  47
ENDBRANCH  38  41
ENDBRANCH  36  37
ENDBRANCH  35  36
ENDBRANCH   1  35
TORSDOF 20
ENDMDL
MODEL 3
REMARK VINA RESULT:     -10.8      5.276     12.558
REMARK SMILES COc1cc(/C=C2/CCc3cc(OC(C)(C)C(=O)NCCCCNC(=O)c4ccc(-c5c6nc(c(-c7cc(S(=O)(=O)[O-])ccc7F)c7ccc([nH]7)c(-c7cc(S(=O)(=O)[O-])ccc7F)c7nc(c(-c8cc(S(=O)(=O)[O-])ccc8F)c8ccc5[nH]8)C=C7)C=C6)cc4)ccc3C2=O)cc(OC)c1O
REMARK SMILES IDX 21 1 20 2 19 3 17 4 18 5 14 7 15 8 16 9 13 10 12 11 6 12
REMARK SMILES IDX 7 13 8 14 93 15 9 16 92 17 94 18 10 19 91 20 11 21 90 22
REMARK SMILES IDX 5 23 3 24 4 25 99 26 96 27 95 28 2 29 1 30 100 31 97 33
REMARK SMILES IDX 98 34 22 35 23 36 24 37 25 38 26 40 27 41 28 42 89 43 29 44
REMARK SMILES IDX 88 45 30 46 31 47 32 48 82 49 33 50 87 51 81 52 83 53 34 54
REMARK SMILES IDX 86 55 80 56 79 57 35 59 67 60 47 61 66 62 48 63 51 64 65 65
REMARK SMILES IDX 84 66 49 67 50 68 64 70 85 71 52 72 36 73 37 74 45 75 38 76
REMARK SMILES IDX 44 77 46 78 43 79 39 80 40 81 41 82 42 83 68 84 69 85 77 86
REMARK SMILES IDX 70 87 76 88 78 89 75 90 71 91 72 92 73 93 74 94 53 95 54 96
REMARK SMILES IDX 62 97 55 98 61 99 63 100 60 101 56 102 57 103 58 104 59 105
REMARK H PARENT 19 6 100 32 24 39 83 58 51 69
REMARK Flexibility Score: inf
ROOT
ATOM      1  C   UNL A   1      48.846  31.994  33.854  1.00  0.00     0.023 C 
ENDROOT
BRANCH   1   2
ATOM      2  C   UNL A   1      47.399  31.599  34.108  1.00  0.00     0.116 C 
BRANCH   2   3
ATOM      3  N   UNL A   1      47.011  30.190  34.079  1.00  0.00    -0.353 N 
ATOM      4  C   UNL A   1      46.088  29.565  33.219  1.00  0.00     0.263 C 
ATOM      5  O   UNL A   1      46.331  28.392  32.913  1.00  0.00    -0.270 OA
ATOM      6  H   UNL A   1      47.449  29.606  34.741  1.00  0.00     0.163 HD
BRANCH   4   7
ATOM      7  C   UNL A   1      44.649  30.219  32.926  1.00  0.00     0.181 C 
ATOM      8  C   UNL A   1      44.895  31.617  32.344  1.00  0.00     0.067 C 
ATOM      9  C   UNL A   1      44.160  30.053  34.396  1.00  0.00     0.067 C 
BRANCH   7  10
ATOM     10  O   UNL A   1      43.744  29.556  31.949  1.00  0.00    -0.478 OA
BRANCH  10  11
ATOM     11  C   UNL A   1      42.505  30.200  31.773  1.00  0.00     0.121 A 
ATOM     12  C   UNL A   1      38.694  27.350  28.700  1.00  0.00     0.016 C 
ATOM     13  C   UNL A   1      38.802  28.254  29.700  1.00  0.00     0.001 C 
ATOM     14  C   UNL A   1      37.916  28.698  30.861  1.00  0.00     0.044 C 
ATOM     15  C   UNL A   1      40.143  28.734  29.969  1.00  0.00     0.189 C 
ATOM     16  C   UNL A   1      38.777  29.151  32.178  1.00  0.00     0.041 C 
ATOM     17  C   UNL A   1      40.190  30.150  30.458  1.00  0.00     0.026 A 
ATOM     18  O   UNL A   1      40.978  27.895  30.291  1.00  0.00    -0.289 OA
ATOM     19  C   UNL A   1      40.073  29.920  31.824  1.00  0.00    -0.033 A 
ATOM     20  C   UNL A   1      41.208  30.945  29.937  1.00  0.00     0.016 A 
ATOM     21  C   UNL A   1      41.314  29.885  32.502  1.00  0.00     0.051 A 
ATOM     22  C   UNL A   1      42.413  30.977  30.622  1.00  0.00     0.047 A 
BRANCH  12  23
ATOM     23  C   UNL A   1      39.897  26.608  28.170  1.00  0.00    -0.018 A 
ATOM     24  C   UNL A   1      41.590  26.694  26.420  1.00  0.00     0.165 A 
ATOM     25  C   UNL A   1      40.587  27.305  27.166  1.00  0.00     0.058 A 
ATOM     26  C   UNL A   1      41.976  25.375  26.690  1.00  0.00     0.200 A 
ATOM     27  C   UNL A   1      41.248  24.610  27.605  1.00  0.00     0.165 A 
ATOM     28  C   UNL A   1      40.221  25.244  28.360  1.00  0.00     0.058 A 
BRANCH  24  29
ATOM     29  O   UNL A   1      41.905  27.302  25.228  1.00  0.00    -0.493 OA
ATOM     30  C   UNL A   1      41.894  28.719  25.290  1.00  0.00     0.278 C 
ENDBRANCH  24  29
BRANCH  26  31
ATOM     31  O   UNL A   1      43.077  24.877  26.051  1.00  0.00    -0.502 OA
ATOM     32  H   UNL A   1      43.339  23.988  26.191  1.00  0.00     0.293 HD
ENDBRANCH  26  31
BRANCH  27  33
ATOM     33  O   UNL A   1      41.392  23.258  27.831  1.00  0.00    -0.493 OA
ATOM     34  C   UNL A   1      40.352  22.371  27.400  1.00  0.00     0.278 C 
ENDBRANCH  27  33
ENDBRANCH  12  23
ENDBRANCH  10  11
ENDBRANCH   7  10
ENDBRANCH   4   7
ENDBRANCH   2   3
ENDBRANCH   1   2
BRANCH   1  35
ATOM     35  C   UNL A   1      49.762  32.312  35.013  1.00  0.00     0.023 C 
BRANCH  35  36
ATOM     36  C   UNL A   1      49.885  33.807  35.238  1.00  0.00     0.116 C 
BRANCH  36  37
ATOM     37  N   UNL A   1      49.907  34.131  36.671  1.00  0.00    -0.352 N 
ATOM     38  C   UNL A   1      49.032  34.898  37.415  1.00  0.00     0.251 C 
ATOM     39  H   UNL A   1      50.656  33.742  37.177  1.00  0.00     0.163 HD
ATOM     40  O   UNL A   1      49.394  35.413  38.463  1.00  0.00    -0.269 OA
BRANCH  38  41
ATOM     41  C   UNL A   1      47.652  35.067  36.920  1.00  0.00     0.039 A 
ATOM     42  C   UNL A   1      47.185  36.299  36.455  1.00  0.00     0.014 A 
ATOM     43  C   UNL A   1      46.827  33.948  36.896  1.00  0.00     0.014 A 
ATOM     44  C   UNL A   1      45.916  36.368  35.872  1.00  0.00     0.010 A 
ATOM     45  C   UNL A   1      45.663  33.978  36.162  1.00  0.00     0.010 A 
ATOM     46  C   UNL A   1      45.172  35.194  35.671  1.00  0.00    -0.014 A 
BRANCH  46  47
ATOM     47  C   UNL A   1      43.853  35.157  34.997  1.00  0.00     0.031 A 
ATOM     48  C   UNL A   1      42.619  34.943  35.839  1.00  0.00     0.074 A 
ATOM     49  C   UNL A   1      43.786  35.147  33.652  1.00  0.00     0.049 A 
ATOM     50  N   UNL A   1      41.409  34.613  35.472  1.00  0.00    -0.248 NA
ATOM     51  C   UNL A   1      42.798  35.027  37.300  1.00  0.00     0.031 C 
ATOM     52  C   UNL A   1      44.927  35.277  32.742  1.00  0.00     0.029 A 
ATOM     53  N   UNL A   1      42.713  34.995  32.813  1.00  0.00    -0.354 N 
ATOM     54  C   UNL A   1      40.707  34.401  36.656  1.00  0.00     0.074 A 
ATOM     55  C   UNL A   1      41.652  34.536  37.739  1.00  0.00     0.031 C 
ATOM     56  C   UNL A   1      44.487  35.241  31.474  1.00  0.00     0.029 A 
ATOM     57  C   UNL A   1      43.047  35.019  31.478  1.00  0.00     0.049 A 
ATOM     58  H   UNL A   1      41.790  34.880  33.135  1.00  0.00     0.167 HD
ATOM     59  C   UNL A   1      39.385  34.159  36.822  1.00  0.00     0.034 A 
ATOM     60  C   UNL A   1      42.274  34.863  30.387  1.00  0.00     0.034 A 
ATOM     61  C   UNL A   1      38.463  34.087  35.718  1.00  0.00     0.049 A 
ATOM     62  C   UNL A   1      40.802  34.606  30.590  1.00  0.00     0.074 A 
ATOM     63  C   UNL A   1      37.089  33.943  35.747  1.00  0.00     0.029 A 
ATOM     64  N   UNL A   1      38.830  34.158  34.379  1.00  0.00    -0.354 N 
ATOM     65  N   UNL A   1      40.134  34.476  31.714  1.00  0.00    -0.248 NA
ATOM     66  C   UNL A   1      39.980  34.479  29.382  1.00  0.00     0.031 C 
ATOM     67  C   UNL A   1      36.634  33.858  34.428  1.00  0.00     0.029 A 
ATOM     68  C   UNL A   1      37.714  34.027  33.573  1.00  0.00     0.049 A 
ATOM     69  H   UNL A   1      39.751  34.284  34.052  1.00  0.00     0.167 HD
ATOM     70  C   UNL A   1      38.807  34.273  31.346  1.00  0.00     0.074 A 
ATOM     71  C   UNL A   1      38.770  34.321  29.898  1.00  0.00     0.031 C 
ATOM     72  C   UNL A   1      37.717  34.067  32.129  1.00  0.00     0.034 A 
BRANCH  59  73
ATOM     73  C   UNL A   1      38.881  33.960  38.233  1.00  0.00     0.023 A 
ATOM     74  C   UNL A   1      38.427  32.707  38.686  1.00  0.00     0.031 A 
ATOM     75  C   UNL A   1      38.802  35.043  39.126  1.00  0.00     0.131 A 
ATOM     76  C   UNL A   1      37.820  32.590  39.945  1.00  0.00     0.055 A 
ATOM     77  C   UNL A   1      38.287  34.898  40.417  1.00  0.00     0.041 A 
ATOM     78  F   UNL A   1      39.198  36.268  38.752  1.00  0.00    -0.206 F 
ATOM     79  C   UNL A   1      37.773  33.670  40.826  1.00  0.00     0.022 A 
BRANCH  76  80
ATOM     80  S   UNL A   1      36.939  31.054  40.338  1.00  0.00     0.124 S 
ATOM     81  O   UNL A   1      37.881  30.398  41.244  1.00  0.00    -0.237 OA
ATOM     82  O   UNL A   1      35.706  31.543  40.945  1.00  0.00    -0.237 OA
ATOM     83  O   UNL A   1      36.782  30.405  39.038  1.00  0.00    -0.744 OA
ENDBRANCH  76  80
ENDBRANCH  59  73
BRANCH  60  84
ATOM     84  C   UNL A   1      42.863  34.954  29.021  1.00  0.00     0.023 A 
ATOM     85  C   UNL A   1      43.482  33.840  28.433  1.00  0.00     0.031 A 
ATOM     86  C   UNL A   1      42.832  36.152  28.285  1.00  0.00     0.131 A 
ATOM     87  C   UNL A   1      44.081  33.954  27.168  1.00  0.00     0.055 A 
ATOM     88  C   UNL A   1      43.381  36.246  27.004  1.00  0.00     0.041 A 
ATOM     89  F   UNL A   1      42.246  37.248  28.794  1.00  0.00    -0.206 F 
ATOM     90  C   UNL A   1      44.020  35.145  26.443  1.00  0.00     0.022 A 
BRANCH  87  91
ATOM     91  S   UNL A   1      45.012  32.540  26.520  1.00  0.00     0.124 S 
ATOM     92  O   UNL A   1      45.940  33.190  25.602  1.00  0.00    -0.237 OA
ATOM     93  O   UNL A   1      45.597  31.979  27.733  1.00  0.00    -0.237 OA
ATOM     94  O   UNL A   1      43.984  31.716  25.888  1.00  0.00    -0.744 OA
ENDBRANCH  87  91
ENDBRANCH  60  84
BRANCH  72  95
ATOM     95  C   UNL A   1      36.394  33.906  31.425  1.00  0.00     0.023 A 
ATOM     96  C   UNL A   1      35.431  34.927  31.434  1.00  0.00     0.031 A 
ATOM     97  C   UNL A   1      36.107  32.723  30.721  1.00  0.00     0.131 A 
ATOM     98  C   UNL A   1      34.201  34.727  30.792  1.00  0.00     0.055 A 
ATOM     99  C   UNL A   1      34.909  32.557  30.029  1.00  0.00     0.041 A 
ATOM    100  F   UNL A   1      36.995  31.717  30.683  1.00  0.00    -0.206 F 
ATOM    101  C   UNL A   1      33.943  33.558  30.071  1.00  0.00     0.022 A 
BRANCH  98 102
ATOM    102  S   UNL A   1      32.911  35.987  30.978  1.00  0.00     0.124 S 
ATOM    103  O   UNL A   1      32.424  36.124  29.609  1.00  0.00    -0.237 OA
ATOM    104  O   UNL A   1      31.992  35.358  31.921  1.00  0.00    -0.237 OA
ATOM    105  O   UNL A   1      33.637  37.143  31.498  1.00  0.00    -0.744 OA
ENDBRANCH  98 102
ENDBRANCH  72  95
ENDBRANCH  46  47
ENDBRANCH  38  41
ENDBRANCH  36  37
ENDBRANCH  35  36
ENDBRANCH   1  35
TORSDOF 20
ENDMDL
