MODEL 1
REMARK VINA RESULT:     -11.1      0.000      0.000
REMARK SMILES COc1ccc(Br)cc1S(=O)(=O)N(C)CC(=O)NCCCCNC(=O)c1ccc(-c2c3nc(c(-c4cc(S(=O)(=O)[O-])ccc4F)c4ccc([nH]4)c(-c4cc(S(=O)(=O)[O-])ccc4F)c4nc(c(-c5cc(S(=O)(=O)[O-])ccc5F)c5ccc2[nH]5)C=C4)C=C3)cc1
REMARK SMILES IDX 20 1 19 2 18 3 16 4 17 5 15 7 13 8 14 9 10 10 11 11 12 12
REMARK SMILES IDX 9 13 3 14 4 15 5 16 8 17 6 18 7 19 2 20 1 21 21 22 22 23
REMARK SMILES IDX 23 24 24 25 25 27 26 28 27 29 88 30 28 31 87 32 29 33 30 34
REMARK SMILES IDX 31 35 81 36 32 37 86 38 80 39 82 40 33 41 85 42 79 43 78 44
REMARK SMILES IDX 34 46 66 47 46 48 65 49 47 50 50 51 64 52 83 53 48 54 49 55
REMARK SMILES IDX 63 57 84 58 51 59 35 60 36 61 44 62 37 63 43 64 45 65 42 66
REMARK SMILES IDX 38 67 39 68 40 69 41 70 67 71 68 72 76 73 69 74 75 75 77 76
REMARK SMILES IDX 74 77 70 78 71 79 72 80 73 81 52 82 53 83 61 84 54 85 60 86
REMARK SMILES IDX 62 87 59 88 55 89 56 90 57 91 58 92
REMARK H PARENT 18 6 23 26 82 45 50 56
REMARK Flexibility Score: inf
ROOT
ATOM      1  C   UNL A   1      31.937  28.489  27.490  1.00  0.00     0.023 C 
ENDROOT
BRANCH   1   2
ATOM      2  C   UNL A   1      31.894  27.307  26.521  1.00  0.00     0.116 C 
BRANCH   2   3
ATOM      3  N   UNL A   1      31.023  27.544  25.387  1.00  0.00    -0.355 N 
ATOM      4  C   UNL A   1      30.188  26.702  24.708  1.00  0.00     0.235 C 
ATOM      5  O   UNL A   1      29.480  27.196  23.826  1.00  0.00    -0.274 OA
ATOM      6  H   UNL A   1      31.035  28.469  25.048  1.00  0.00     0.163 HD
BRANCH   4   7
ATOM      7  C   UNL A   1      30.083  25.214  25.053  1.00  0.00     0.202 C 
BRANCH   7   8
ATOM      8  N   UNL A   1      31.261  24.316  24.771  1.00  0.00    -0.191 NA
ATOM      9  C   UNL A   1      31.368  23.990  23.349  1.00  0.00     0.125 C 
BRANCH   8  10
ATOM     10  S   UNL A   1      31.465  23.118  25.961  1.00  0.00     0.247 S 
ATOM     11  O   UNL A   1      30.292  22.264  25.914  1.00  0.00    -0.207 OA
ATOM     12  O   UNL A   1      31.791  23.843  27.175  1.00  0.00    -0.207 OA
BRANCH  10  13
ATOM     13  C   UNL A   1      32.824  21.989  25.730  1.00  0.00     0.125 A 
ATOM     14  C   UNL A   1      34.193  22.225  25.852  1.00  0.00     0.138 A 
ATOM     15  C   UNL A   1      35.095  21.198  25.505  1.00  0.00     0.049 A 
ATOM     16  C   UNL A   1      34.652  19.972  25.005  1.00  0.00     0.019 A 
ATOM     17  C   UNL A   1      32.387  20.732  25.245  1.00  0.00     0.041 A 
ATOM     18  C   UNL A   1      33.293  19.742  24.881  1.00  0.00     0.019 A 
ATOM     19  Br  UNL A   1      32.673  18.089  24.209  1.00  0.00    -0.051 Br
BRANCH  14  20
ATOM     20  O   UNL A   1      34.687  23.391  26.356  1.00  0.00    -0.495 OA
ATOM     21  C   UNL A   1      34.924  24.408  25.373  1.00  0.00     0.278 C 
ENDBRANCH  14  20
ENDBRANCH  10  13
ENDBRANCH   8  10
ENDBRANCH   7   8
ENDBRANCH   4   7
ENDBRANCH   2   3
ENDBRANCH   1   2
BRANCH   1  22
ATOM     22  C   UNL A   1      31.467  29.824  26.922  1.00  0.00     0.023 C 
BRANCH  22  23
ATOM     23  C   UNL A   1      32.594  30.736  26.460  1.00  0.00     0.116 C 
BRANCH  23  24
ATOM     24  N   UNL A   1      32.437  32.121  26.890  1.00  0.00    -0.352 N 
ATOM     25  C   UNL A   1      33.309  32.889  27.629  1.00  0.00     0.251 C 
ATOM     26  H   UNL A   1      31.600  32.564  26.618  1.00  0.00     0.163 HD
ATOM     27  O   UNL A   1      32.992  34.018  27.984  1.00  0.00    -0.269 OA
BRANCH  25  28
ATOM     28  C   UNL A   1      34.605  32.301  28.030  1.00  0.00     0.039 A 
ATOM     29  C   UNL A   1      35.738  33.117  28.065  1.00  0.00     0.014 A 
ATOM     30  C   UNL A   1      34.668  30.978  28.473  1.00  0.00     0.014 A 
ATOM     31  C   UNL A   1      36.913  32.634  28.643  1.00  0.00     0.010 A 
ATOM     32  C   UNL A   1      35.812  30.528  29.120  1.00  0.00     0.010 A 
ATOM     33  C   UNL A   1      36.940  31.357  29.226  1.00  0.00    -0.014 A 
BRANCH  33  34
ATOM     34  C   UNL A   1      38.124  30.862  29.971  1.00  0.00     0.031 A 
ATOM     35  C   UNL A   1      39.036  29.850  29.337  1.00  0.00     0.074 A 
ATOM     36  C   UNL A   1      38.314  31.238  31.251  1.00  0.00     0.049 A 
ATOM     37  N   UNL A   1      40.031  29.183  29.861  1.00  0.00    -0.248 NA
ATOM     38  C   UNL A   1      38.757  29.516  27.933  1.00  0.00     0.031 C 
ATOM     39  C   UNL A   1      37.471  32.176  31.995  1.00  0.00     0.029 A 
ATOM     40  N   UNL A   1      39.272  30.863  32.159  1.00  0.00    -0.354 N 
ATOM     41  C   UNL A   1      40.483  28.331  28.859  1.00  0.00     0.074 A 
ATOM     42  C   UNL A   1      39.605  28.523  27.723  1.00  0.00     0.031 C 
ATOM     43  C   UNL A   1      37.965  32.324  33.235  1.00  0.00     0.029 A 
ATOM     44  C   UNL A   1      39.128  31.458  33.390  1.00  0.00     0.049 A 
ATOM     45  H   UNL A   1      39.994  30.228  31.948  1.00  0.00     0.167 HD
ATOM     46  C   UNL A   1      41.547  27.490  28.875  1.00  0.00     0.034 A 
ATOM     47  C   UNL A   1      39.848  31.313  34.519  1.00  0.00     0.034 A 
ATOM     48  C   UNL A   1      42.420  27.326  30.011  1.00  0.00     0.049 A 
ATOM     49  C   UNL A   1      41.007  30.355  34.528  1.00  0.00     0.074 A 
ATOM     50  C   UNL A   1      43.564  26.554  30.121  1.00  0.00     0.029 A 
ATOM     51  N   UNL A   1      42.240  27.943  31.244  1.00  0.00    -0.354 N 
ATOM     52  N   UNL A   1      41.448  29.582  33.562  1.00  0.00    -0.248 NA
ATOM     53  C   UNL A   1      41.765  30.248  35.781  1.00  0.00     0.031 C 
ATOM     54  C   UNL A   1      44.045  26.664  31.432  1.00  0.00     0.029 A 
ATOM     55  C   UNL A   1      43.235  27.550  32.126  1.00  0.00     0.049 A 
ATOM     56  H   UNL A   1      41.513  28.569  31.459  1.00  0.00     0.167 HD
ATOM     57  C   UNL A   1      42.549  28.914  34.086  1.00  0.00     0.074 A 
ATOM     58  C   UNL A   1      42.707  29.378  35.449  1.00  0.00     0.031 C 
ATOM     59  C   UNL A   1      43.363  28.006  33.490  1.00  0.00     0.034 A 
BRANCH  46  60
ATOM     60  C   UNL A   1      41.789  26.675  27.626  1.00  0.00     0.023 A 
ATOM     61  C   UNL A   1      41.403  25.326  27.546  1.00  0.00     0.031 A 
ATOM     62  C   UNL A   1      42.485  27.225  26.536  1.00  0.00     0.131 A 
ATOM     63  C   UNL A   1      41.814  24.542  26.458  1.00  0.00     0.055 A 
ATOM     64  C   UNL A   1      42.809  26.463  25.411  1.00  0.00     0.041 A 
ATOM     65  F   UNL A   1      42.895  28.503  26.561  1.00  0.00    -0.206 F 
ATOM     66  C   UNL A   1      42.494  25.107  25.378  1.00  0.00     0.022 A 
BRANCH  63  67
ATOM     67  S   UNL A   1      41.618  22.742  26.571  1.00  0.00     0.124 S 
ATOM     68  O   UNL A   1      42.324  22.448  27.817  1.00  0.00    -0.237 OA
ATOM     69  O   UNL A   1      40.169  22.584  26.604  1.00  0.00    -0.237 OA
ATOM     70  O   UNL A   1      42.275  22.249  25.363  1.00  0.00    -0.744 OA
ENDBRANCH  63  67
ENDBRANCH  46  60
BRANCH  47  71
ATOM     71  C   UNL A   1      39.495  32.091  35.737  1.00  0.00     0.023 A 
ATOM     72  C   UNL A   1      38.608  31.564  36.688  1.00  0.00     0.031 A 
ATOM     73  C   UNL A   1      40.027  33.372  35.960  1.00  0.00     0.131 A 
ATOM     74  C   UNL A   1      38.255  32.329  37.810  1.00  0.00     0.055 A 
ATOM     75  C   UNL A   1      39.699  34.115  37.096  1.00  0.00     0.041 A 
ATOM     76  F   UNL A   1      40.889  33.912  35.084  1.00  0.00    -0.206 F 
ATOM     77  C   UNL A   1      38.801  33.596  38.026  1.00  0.00     0.022 A 
BRANCH  74  78
ATOM     78  S   UNL A   1      37.037  31.652  38.971  1.00  0.00     0.124 S 
ATOM     79  O   UNL A   1      37.743  31.761  40.243  1.00  0.00    -0.237 OA
ATOM     80  O   UNL A   1      35.906  32.556  38.786  1.00  0.00    -0.237 OA
ATOM     81  O   UNL A   1      36.827  30.289  38.488  1.00  0.00    -0.744 OA
ENDBRANCH  74  78
ENDBRANCH  47  71
BRANCH  59  82
ATOM     82  C   UNL A   1      44.515  27.491  34.310  1.00  0.00     0.023 A 
ATOM     83  C   UNL A   1      44.402  26.326  35.088  1.00  0.00     0.031 A 
ATOM     84  C   UNL A   1      45.736  28.187  34.325  1.00  0.00     0.131 A 
ATOM     85  C   UNL A   1      45.480  25.915  35.886  1.00  0.00     0.055 A 
ATOM     86  C   UNL A   1      46.821  27.748  35.084  1.00  0.00     0.041 A 
ATOM     87  F   UNL A   1      45.892  29.306  33.600  1.00  0.00    -0.206 F 
ATOM     88  C   UNL A   1      46.693  26.611  35.878  1.00  0.00     0.022 A 
BRANCH  85  89
ATOM     89  S   UNL A   1      45.259  24.491  36.987  1.00  0.00     0.124 S 
ATOM     90  O   UNL A   1      46.528  24.466  37.709  1.00  0.00    -0.237 OA
ATOM     91  O   UNL A   1      44.089  24.878  37.768  1.00  0.00    -0.237 OA
ATOM     92  O   UNL A   1      45.047  23.374  36.067  1.00  0.00    -0.744 OA
ENDBRANCH  85  89
ENDBRANCH  59  82
ENDBRANCH  33  34
ENDBRANCH  25  28
ENDBRANCH  23  24
ENDBRANCH  22  23
ENDBRANCH   1  22
TORSDOF 18
ENDMDL
MODEL 2
REMARK VINA RESULT:     -11.1      1.665      2.084
REMARK SMILES COc1ccc(Br)cc1S(=O)(=O)N(C)CC(=O)NCCCCNC(=O)c1ccc(-c2c3nc(c(-c4cc(S(=O)(=O)[O-])ccc4F)c4ccc([nH]4)c(-c4cc(S(=O)(=O)[O-])ccc4F)c4nc(c(-c5cc(S(=O)(=O)[O-])ccc5F)c5ccc2[nH]5)C=C4)C=C3)cc1
REMARK SMILES IDX 20 1 19 2 18 3 16 4 17 5 15 7 13 8 14 9 10 10 11 11 12 12
REMARK SMILES IDX 9 13 3 14 4 15 5 16 8 17 6 18 7 19 2 20 1 21 21 22 22 23
REMARK SMILES IDX 23 24 24 25 25 27 26 28 27 29 88 30 28 31 87 32 29 33 30 34
REMARK SMILES IDX 31 35 81 36 32 37 86 38 80 39 82 40 33 41 85 42 79 43 78 44
REMARK SMILES IDX 34 46 66 47 46 48 65 49 47 50 50 51 64 52 83 53 48 54 49 55
REMARK SMILES IDX 63 57 84 58 51 59 35 60 36 61 44 62 37 63 43 64 45 65 42 66
REMARK SMILES IDX 38 67 39 68 40 69 41 70 67 71 68 72 76 73 69 74 75 75 77 76
REMARK SMILES IDX 74 77 70 78 71 79 72 80 73 81 52 82 53 83 61 84 54 85 60 86
REMARK SMILES IDX 62 87 59 88 55 89 56 90 57 91 58 92
REMARK H PARENT 18 6 23 26 82 45 50 56
REMARK Flexibility Score: inf
ROOT
ATOM      1  C   UNL A   1      32.073  29.251  24.389  1.00  0.00     0.023 C 
ENDROOT
BRANCH   1   2
ATOM      2  C   UNL A   1      32.389  27.856  24.929  1.00  0.00     0.116 C 
BRANCH   2   3
ATOM      3  N   UNL A   1      31.278  27.270  25.651  1.00  0.00    -0.355 N 
ATOM      4  C   UNL A   1      30.872  25.970  25.769  1.00  0.00     0.235 C 
ATOM      5  O   UNL A   1      29.932  25.738  26.534  1.00  0.00    -0.274 OA
ATOM      6  H   UNL A   1      30.720  27.918  26.139  1.00  0.00     0.163 HD
BRANCH   4   7
ATOM      7  C   UNL A   1      31.582  24.831  25.033  1.00  0.00     0.202 C 
BRANCH   7   8
ATOM      8  N   UNL A   1      32.623  24.024  25.770  1.00  0.00    -0.191 NA
ATOM      9  C   UNL A   1      33.966  24.260  25.244  1.00  0.00     0.125 C 
BRANCH   8  10
ATOM     10  S   UNL A   1      32.088  22.451  26.133  1.00  0.00     0.247 S 
ATOM     11  O   UNL A   1      30.648  22.517  26.306  1.00  0.00    -0.207 OA
ATOM     12  O   UNL A   1      32.934  22.007  27.226  1.00  0.00    -0.207 OA
BRANCH  10  13
ATOM     13  C   UNL A   1      32.309  21.221  24.863  1.00  0.00     0.125 A 
ATOM     14  C   UNL A   1      32.153  21.344  23.483  1.00  0.00     0.138 A 
ATOM     15  C   UNL A   1      32.271  20.192  22.678  1.00  0.00     0.049 A 
ATOM     16  C   UNL A   1      32.498  18.931  23.233  1.00  0.00     0.019 A 
ATOM     17  C   UNL A   1      32.563  19.939  25.412  1.00  0.00     0.041 A 
ATOM     18  C   UNL A   1      32.648  18.811  24.604  1.00  0.00     0.019 A 
ATOM     19  Br  UNL A   1      32.956  17.114  25.373  1.00  0.00    -0.051 Br
BRANCH  14  20
ATOM     20  O   UNL A   1      31.955  22.551  22.881  1.00  0.00    -0.495 OA
ATOM     21  C   UNL A   1      33.032  22.973  22.032  1.00  0.00     0.278 C 
ENDBRANCH  14  20
ENDBRANCH  10  13
ENDBRANCH   8  10
ENDBRANCH   7   8
ENDBRANCH   4   7
ENDBRANCH   2   3
ENDBRANCH   1   2
BRANCH   1  22
ATOM     22  C   UNL A   1      31.397  30.201  25.372  1.00  0.00     0.023 C 
BRANCH  22  23
ATOM     23  C   UNL A   1      32.292  30.655  26.515  1.00  0.00     0.116 C 
BRANCH  23  24
ATOM     24  N   UNL A   1      32.122  32.061  26.865  1.00  0.00    -0.352 N 
ATOM     25  C   UNL A   1      32.997  32.883  27.540  1.00  0.00     0.251 C 
ATOM     26  H   UNL A   1      31.275  32.476  26.582  1.00  0.00     0.163 HD
ATOM     27  O   UNL A   1      32.669  34.027  27.834  1.00  0.00    -0.269 OA
BRANCH  25  28
ATOM     28  C   UNL A   1      34.307  32.338  27.953  1.00  0.00     0.039 A 
ATOM     29  C   UNL A   1      35.417  33.186  27.978  1.00  0.00     0.014 A 
ATOM     30  C   UNL A   1      34.406  31.024  28.415  1.00  0.00     0.014 A 
ATOM     31  C   UNL A   1      36.604  32.744  28.565  1.00  0.00     0.010 A 
ATOM     32  C   UNL A   1      35.560  30.615  29.071  1.00  0.00     0.010 A 
ATOM     33  C   UNL A   1      36.665  31.476  29.167  1.00  0.00    -0.014 A 
BRANCH  33  34
ATOM     34  C   UNL A   1      37.861  31.025  29.922  1.00  0.00     0.031 A 
ATOM     35  C   UNL A   1      38.790  30.014  29.313  1.00  0.00     0.074 A 
ATOM     36  C   UNL A   1      38.048  31.442  31.189  1.00  0.00     0.049 A 
ATOM     37  N   UNL A   1      39.799  29.381  29.853  1.00  0.00    -0.248 NA
ATOM     38  C   UNL A   1      38.512  29.634  27.921  1.00  0.00     0.031 C 
ATOM     39  C   UNL A   1      37.190  32.385  31.909  1.00  0.00     0.029 A 
ATOM     40  N   UNL A   1      39.016  31.112  32.104  1.00  0.00    -0.354 N 
ATOM     41  C   UNL A   1      40.263  28.509  28.873  1.00  0.00     0.074 A 
ATOM     42  C   UNL A   1      39.378  28.651  27.735  1.00  0.00     0.031 C 
ATOM     43  C   UNL A   1      37.684  32.578  33.142  1.00  0.00     0.029 A 
ATOM     44  C   UNL A   1      38.865  31.740  33.317  1.00  0.00     0.049 A 
ATOM     45  H   UNL A   1      39.749  30.485  31.909  1.00  0.00     0.167 HD
ATOM     46  C   UNL A   1      41.343  27.688  28.910  1.00  0.00     0.034 A 
ATOM     47  C   UNL A   1      39.591  31.641  34.448  1.00  0.00     0.034 A 
ATOM     48  C   UNL A   1      42.223  27.574  30.047  1.00  0.00     0.049 A 
ATOM     49  C   UNL A   1      40.768  30.705  34.479  1.00  0.00     0.074 A 
ATOM     50  C   UNL A   1      43.381  26.827  30.175  1.00  0.00     0.029 A 
ATOM     51  N   UNL A   1      42.036  28.223  31.262  1.00  0.00    -0.354 N 
ATOM     52  N   UNL A   1      41.220  29.914  33.535  1.00  0.00    -0.248 NA
ATOM     53  C   UNL A   1      41.532  30.649  35.733  1.00  0.00     0.031 C 
ATOM     54  C   UNL A   1      43.865  26.984  31.480  1.00  0.00     0.029 A 
ATOM     55  C   UNL A   1      43.041  27.874  32.151  1.00  0.00     0.049 A 
ATOM     56  H   UNL A   1      41.297  28.841  31.462  1.00  0.00     0.167 HD
ATOM     57  C   UNL A   1      42.335  29.282  34.073  1.00  0.00     0.074 A 
ATOM     58  C   UNL A   1      42.489  29.788  35.422  1.00  0.00     0.031 C 
ATOM     59  C   UNL A   1      43.164  28.372  33.501  1.00  0.00     0.034 A 
BRANCH  46  60
ATOM     60  C   UNL A   1      41.596  26.843  27.684  1.00  0.00     0.023 A 
ATOM     61  C   UNL A   1      41.317  25.465  27.674  1.00  0.00     0.031 A 
ATOM     62  C   UNL A   1      42.199  27.399  26.543  1.00  0.00     0.131 A 
ATOM     63  C   UNL A   1      41.743  24.670  26.600  1.00  0.00     0.055 A 
ATOM     64  C   UNL A   1      42.535  26.617  25.434  1.00  0.00     0.041 A 
ATOM     65  F   UNL A   1      42.506  28.705  26.498  1.00  0.00    -0.206 F 
ATOM     66  C   UNL A   1      42.329  25.241  25.469  1.00  0.00     0.022 A 
BRANCH  63  67
ATOM     67  S   UNL A   1      41.698  22.867  26.793  1.00  0.00     0.124 S 
ATOM     68  O   UNL A   1      41.884  22.419  25.415  1.00  0.00    -0.237 OA
ATOM     69  O   UNL A   1      42.811  22.620  27.702  1.00  0.00    -0.237 OA
ATOM     70  O   UNL A   1      40.369  22.615  27.347  1.00  0.00    -0.744 OA
ENDBRANCH  63  67
ENDBRANCH  46  60
BRANCH  47  71
ATOM     71  C   UNL A   1      39.228  32.447  35.644  1.00  0.00     0.023 A 
ATOM     72  C   UNL A   1      39.702  33.760  35.789  1.00  0.00     0.031 A 
ATOM     73  C   UNL A   1      38.417  31.916  36.660  1.00  0.00     0.131 A 
ATOM     74  C   UNL A   1      39.383  34.492  36.943  1.00  0.00     0.055 A 
ATOM     75  C   UNL A   1      38.074  32.661  37.790  1.00  0.00     0.041 A 
ATOM     76  F   UNL A   1      37.931  30.669  36.559  1.00  0.00    -0.206 F 
ATOM     77  C   UNL A   1      38.565  33.956  37.940  1.00  0.00     0.022 A 
BRANCH  74  78
ATOM     78  S   UNL A   1      40.086  36.152  37.138  1.00  0.00     0.124 S 
ATOM     79  O   UNL A   1      41.472  35.852  37.476  1.00  0.00    -0.237 OA
ATOM     80  O   UNL A   1      39.861  36.735  35.819  1.00  0.00    -0.237 OA
ATOM     81  O   UNL A   1      39.291  36.735  38.216  1.00  0.00    -0.744 OA
ENDBRANCH  74  78
ENDBRANCH  47  71
BRANCH  59  82
ATOM     82  C   UNL A   1      44.329  27.903  34.331  1.00  0.00     0.023 A 
ATOM     83  C   UNL A   1      44.240  26.759  35.143  1.00  0.00     0.031 A 
ATOM     84  C   UNL A   1      45.537  28.621  34.320  1.00  0.00     0.131 A 
ATOM     85  C   UNL A   1      45.329  26.392  35.948  1.00  0.00     0.055 A 
ATOM     86  C   UNL A   1      46.632  28.225  35.087  1.00  0.00     0.041 A 
ATOM     87  F   UNL A   1      45.669  29.722  33.562  1.00  0.00    -0.206 F 
ATOM     88  C   UNL A   1      46.529  27.110  35.915  1.00  0.00     0.022 A 
BRANCH  85  89
ATOM     89  S   UNL A   1      45.139  24.997  37.091  1.00  0.00     0.124 S 
ATOM     90  O   UNL A   1      45.062  23.863  36.177  1.00  0.00    -0.237 OA
ATOM     91  O   UNL A   1      46.352  25.086  37.898  1.00  0.00    -0.237 OA
ATOM     92  O   UNL A   1      43.900  25.304  37.805  1.00  0.00    -0.744 OA
ENDBRANCH  85  89
ENDBRANCH  59  82
ENDBRANCH  33  34
ENDBRANCH  25  28
ENDBRANCH  23  24
ENDBRANCH  22  23
ENDBRANCH   1  22
TORSDOF 18
ENDMDL
MODEL 3
REMARK VINA RESULT:     -11.1      1.466      7.717
REMARK SMILES COc1ccc(Br)cc1S(=O)(=O)N(C)CC(=O)NCCCCNC(=O)c1ccc(-c2c3nc(c(-c4cc(S(=O)(=O)[O-])ccc4F)c4ccc([nH]4)c(-c4cc(S(=O)(=O)[O-])ccc4F)c4nc(c(-c5cc(S(=O)(=O)[O-])ccc5F)c5ccc2[nH]5)C=C4)C=C3)cc1
REMARK SMILES IDX 20 1 19 2 18 3 16 4 17 5 15 7 13 8 14 9 10 10 11 11 12 12
REMARK SMILES IDX 9 13 3 14 4 15 5 16 8 17 6 18 7 19 2 20 1 21 21 22 22 23
REMARK SMILES IDX 23 24 24 25 25 27 26 28 27 29 88 30 28 31 87 32 29 33 30 34
REMARK SMILES IDX 31 35 81 36 32 37 86 38 80 39 82 40 33 41 85 42 79 43 78 44
REMARK SMILES IDX 34 46 66 47 46 48 65 49 47 50 50 51 64 52 83 53 48 54 49 55
REMARK SMILES IDX 63 57 84 58 51 59 35 60 36 61 44 62 37 63 43 64 45 65 42 66
REMARK SMILES IDX 38 67 39 68 40 69 41 70 67 71 68 72 76 73 69 74 75 75 77 76
REMARK SMILES IDX 74 77 70 78 71 79 72 80 73 81 52 82 53 83 61 84 54 85 60 86
REMARK SMILES IDX 62 87 59 88 55 89 56 90 57 91 58 92
REMARK H PARENT 18 6 23 26 82 45 50 56
REMARK Flexibility Score: inf
ROOT
ATOM      1  C   UNL A   1      31.622  28.389  27.236  1.00  0.00     0.023 C 
ENDROOT
BRANCH   1   2
ATOM      2  C   UNL A   1      31.961  27.068  26.544  1.00  0.00     0.116 C 
BRANCH   2   3
ATOM      3  N   UNL A   1      30.957  26.046  26.763  1.00  0.00    -0.355 N 
ATOM      4  C   UNL A   1      30.970  24.706  26.495  1.00  0.00     0.235 C 
ATOM      5  O   UNL A   1      30.001  24.044  26.875  1.00  0.00    -0.274 OA
ATOM      6  H   UNL A   1      30.124  26.374  27.174  1.00  0.00     0.163 HD
BRANCH   4   7
ATOM      7  C   UNL A   1      32.157  24.030  25.803  1.00  0.00     0.202 C 
BRANCH   7   8
ATOM      8  N   UNL A   1      32.320  24.195  24.312  1.00  0.00    -0.191 NA
ATOM      9  C   UNL A   1      31.213  23.588  23.574  1.00  0.00     0.125 C 
BRANCH   8  10
ATOM     10  S   UNL A   1      33.930  23.981  23.807  1.00  0.00     0.247 S 
ATOM     11  O   UNL A   1      34.707  25.063  24.384  1.00  0.00    -0.207 OA
ATOM     12  O   UNL A   1      33.857  23.825  22.365  1.00  0.00    -0.207 OA
BRANCH  10  13
ATOM     13  C   UNL A   1      34.756  22.510  24.379  1.00  0.00     0.125 A 
ATOM     14  C   UNL A   1      36.105  22.317  24.672  1.00  0.00     0.138 A 
ATOM     15  C   UNL A   1      36.552  21.020  25.002  1.00  0.00     0.049 A 
ATOM     16  C   UNL A   1      35.687  19.925  25.000  1.00  0.00     0.019 A 
ATOM     17  C   UNL A   1      33.883  21.394  24.404  1.00  0.00     0.041 A 
ATOM     18  C   UNL A   1      34.349  20.118  24.704  1.00  0.00     0.019 A 
ATOM     19  Br  UNL A   1      33.162  18.649  24.698  1.00  0.00    -0.051 Br
BRANCH  14  20
ATOM     20  O   UNL A   1      36.993  23.349  24.714  1.00  0.00    -0.495 OA
ATOM     21  C   UNL A   1      37.429  23.703  26.034  1.00  0.00     0.278 C 
ENDBRANCH  14  20
ENDBRANCH  10  13
ENDBRANCH   8  10
ENDBRANCH   7   8
ENDBRANCH   4   7
ENDBRANCH   2   3
ENDBRANCH   1   2
BRANCH   1  22
ATOM     22  C   UNL A   1      31.798  29.643  26.385  1.00  0.00     0.023 C 
BRANCH  22  23
ATOM     23  C   UNL A   1      33.163  30.300  26.519  1.00  0.00     0.116 C 
BRANCH  23  24
ATOM     24  N   UNL A   1      33.115  31.628  27.120  1.00  0.00    -0.352 N 
ATOM     25  C   UNL A   1      34.049  32.230  27.934  1.00  0.00     0.251 C 
ATOM     26  H   UNL A   1      32.313  32.163  26.918  1.00  0.00     0.163 HD
ATOM     27  O   UNL A   1      33.820  33.326  28.432  1.00  0.00    -0.269 OA
BRANCH  25  28
ATOM     28  C   UNL A   1      35.298  31.501  28.239  1.00  0.00     0.039 A 
ATOM     29  C   UNL A   1      36.505  32.203  28.256  1.00  0.00     0.014 A 
ATOM     30  C   UNL A   1      35.252  30.156  28.613  1.00  0.00     0.014 A 
ATOM     31  C   UNL A   1      37.654  31.580  28.748  1.00  0.00     0.010 A 
ATOM     32  C   UNL A   1      36.375  29.566  29.178  1.00  0.00     0.010 A 
ATOM     33  C   UNL A   1      37.583  30.276  29.266  1.00  0.00    -0.014 A 
BRANCH  33  34
ATOM     34  C   UNL A   1      38.747  29.632  29.925  1.00  0.00     0.031 A 
ATOM     35  C   UNL A   1      39.187  30.096  31.284  1.00  0.00     0.074 A 
ATOM     36  C   UNL A   1      39.467  28.712  29.255  1.00  0.00     0.049 A 
ATOM     37  N   UNL A   1      40.255  29.775  31.967  1.00  0.00    -0.248 NA
ATOM     38  C   UNL A   1      38.327  31.091  31.939  1.00  0.00     0.031 C 
ATOM     39  C   UNL A   1      39.171  28.213  27.911  1.00  0.00     0.029 A 
ATOM     40  N   UNL A   1      40.611  28.041  29.611  1.00  0.00    -0.354 N 
ATOM     41  C   UNL A   1      40.208  30.546  33.123  1.00  0.00     0.074 A 
ATOM     42  C   UNL A   1      39.042  31.397  33.009  1.00  0.00     0.031 C 
ATOM     43  C   UNL A   1      40.091  27.298  27.568  1.00  0.00     0.029 A 
ATOM     44  C   UNL A   1      41.068  27.178  28.644  1.00  0.00     0.049 A 
ATOM     45  H   UNL A   1      41.061  28.168  30.477  1.00  0.00     0.167 HD
ATOM     46  C   UNL A   1      41.045  30.526  34.191  1.00  0.00     0.034 A 
ATOM     47  C   UNL A   1      42.158  26.387  28.624  1.00  0.00     0.034 A 
ATOM     48  C   UNL A   1      42.192  29.658  34.294  1.00  0.00     0.049 A 
ATOM     49  C   UNL A   1      43.089  26.398  29.806  1.00  0.00     0.074 A 
ATOM     50  C   UNL A   1      43.070  29.504  35.352  1.00  0.00     0.029 A 
ATOM     51  N   UNL A   1      42.626  28.799  33.291  1.00  0.00    -0.354 N 
ATOM     52  N   UNL A   1      43.014  27.104  30.910  1.00  0.00    -0.248 NA
ATOM     53  C   UNL A   1      44.253  25.505  29.736  1.00  0.00     0.031 C 
ATOM     54  C   UNL A   1      44.062  28.592  34.971  1.00  0.00     0.029 A 
ATOM     55  C   UNL A   1      43.773  28.132  33.695  1.00  0.00     0.049 A 
ATOM     56  H   UNL A   1      42.184  28.680  32.420  1.00  0.00     0.167 HD
ATOM     57  C   UNL A   1      44.110  26.724  31.677  1.00  0.00     0.074 A 
ATOM     58  C   UNL A   1      44.826  25.723  30.910  1.00  0.00     0.031 C 
ATOM     59  C   UNL A   1      44.486  27.155  32.908  1.00  0.00     0.034 A 
BRANCH  46  60
ATOM     60  C   UNL A   1      40.742  31.496  35.309  1.00  0.00     0.023 A 
ATOM     61  C   UNL A   1      39.719  31.244  36.240  1.00  0.00     0.031 A 
ATOM     62  C   UNL A   1      41.423  32.722  35.398  1.00  0.00     0.131 A 
ATOM     63  C   UNL A   1      39.328  32.245  37.142  1.00  0.00     0.055 A 
ATOM     64  C   UNL A   1      41.093  33.679  36.361  1.00  0.00     0.041 A 
ATOM     65  F   UNL A   1      42.398  33.028  34.527  1.00  0.00    -0.206 F 
ATOM     66  C   UNL A   1      40.024  33.453  37.225  1.00  0.00     0.022 A 
BRANCH  63  67
ATOM     67  S   UNL A   1      37.780  32.020  38.060  1.00  0.00     0.124 S 
ATOM     68  O   UNL A   1      36.947  33.080  37.496  1.00  0.00    -0.237 OA
ATOM     69  O   UNL A   1      37.403  30.655  37.711  1.00  0.00    -0.237 OA
ATOM     70  O   UNL A   1      38.175  32.224  39.452  1.00  0.00    -0.744 OA
ENDBRANCH  63  67
ENDBRANCH  46  60
BRANCH  47  71
ATOM     71  C   UNL A   1      42.432  25.519  27.448  1.00  0.00     0.023 A 
ATOM     72  C   UNL A   1      41.982  24.190  27.423  1.00  0.00     0.031 A 
ATOM     73  C   UNL A   1      43.156  25.998  26.344  1.00  0.00     0.131 A 
ATOM     74  C   UNL A   1      42.284  23.373  26.323  1.00  0.00     0.055 A 
ATOM     75  C   UNL A   1      43.425  25.191  25.237  1.00  0.00     0.041 A 
ATOM     76  F   UNL A   1      43.596  27.266  26.319  1.00  0.00    -0.206 F 
ATOM     77  C   UNL A   1      42.995  23.866  25.226  1.00  0.00     0.022 A 
BRANCH  74  78
ATOM     78  S   UNL A   1      41.764  21.636  26.364  1.00  0.00     0.124 S 
ATOM     79  O   UNL A   1      42.657  21.033  25.382  1.00  0.00    -0.237 OA
ATOM     80  O   UNL A   1      42.010  21.279  27.758  1.00  0.00    -0.237 OA
ATOM     81  O   UNL A   1      40.356  21.694  25.978  1.00  0.00    -0.744 OA
ENDBRANCH  74  78
ENDBRANCH  47  71
BRANCH  59  82
ATOM     82  C   UNL A   1      45.708  26.510  33.505  1.00  0.00     0.023 A 
ATOM     83  C   UNL A   1      45.631  25.296  34.208  1.00  0.00     0.031 A 
ATOM     84  C   UNL A   1      46.963  27.132  33.384  1.00  0.00     0.131 A 
ATOM     85  C   UNL A   1      46.783  24.761  34.802  1.00  0.00     0.055 A 
ATOM     86  C   UNL A   1      48.114  26.572  33.937  1.00  0.00     0.041 A 
ATOM     87  F   UNL A   1      47.087  28.295  32.725  1.00  0.00    -0.206 F 
ATOM     88  C   UNL A   1      48.027  25.385  34.660  1.00  0.00     0.022 A 
BRANCH  85  89
ATOM     89  S   UNL A   1      46.629  23.269  35.821  1.00  0.00     0.124 S 
ATOM     90  O   UNL A   1      47.451  22.313  35.087  1.00  0.00    -0.237 OA
ATOM     91  O   UNL A   1      47.160  23.712  37.107  1.00  0.00    -0.237 OA
ATOM     92  O   UNL A   1      45.193  22.991  35.809  1.00  0.00    -0.744 OA
ENDBRANCH  85  89
ENDBRANCH  59  82
ENDBRANCH  33  34
ENDBRANCH  25  28
ENDBRANCH  23  24
ENDBRANCH  22  23
ENDBRANCH   1  22
TORSDOF 18
ENDMDL
