MODEL 1
REMARK VINA RESULT:     -14.0      0.000      0.000
REMARK SMILES Cc1c(NC(=O)[C@@H]2CC=CC[C@@H]2C(=O)NCCCCNC(=O)c2ccc(-c3c4nc(c(-c5cc(S(=O)(=O)[O-])ccc5F)c5ccc([nH]5)c(-c5cc(S(=O)(=O)[O-])ccc5F)c5nc(c(-c6cc(S(=O)(=O)[O-])ccc6F)c6ccc3[nH]6)C=C5)C=C4)cc2)cccc1C(=O)N1CCOCC1
REMARK SMILES IDX 17 1 16 2 15 3 13 4 14 5 12 7 7 8 8 9 9 10 11 11 10 12 5 13
REMARK SMILES IDX 4 14 6 16 3 17 1 18 2 19 89 20 86 21 88 22 87 23 90 24 91 25
REMARK SMILES IDX 92 26 93 27 97 28 94 29 96 30 95 31 18 32 19 33 20 34 21 35
REMARK SMILES IDX 22 37 23 38 24 39 85 40 25 41 84 42 26 43 27 44 28 45 78 46
REMARK SMILES IDX 29 47 83 48 77 49 79 50 30 51 82 52 76 53 75 54 31 56 63 57
REMARK SMILES IDX 43 58 62 59 44 60 47 61 61 62 80 63 45 64 46 65 60 67 81 68
REMARK SMILES IDX 48 69 32 70 33 71 41 72 34 73 40 74 42 75 39 76 35 77 36 78
REMARK SMILES IDX 37 79 38 80 64 81 65 82 73 83 66 84 72 85 74 86 71 87 67 88
REMARK SMILES IDX 68 89 69 90 70 91 49 92 50 93 58 94 51 95 57 96 59 97 56 98
REMARK SMILES IDX 52 99 53 100 54 101 55 102
REMARK H PARENT 15 6 4 15 20 36 79 55 47 66
REMARK Flexibility Score: inf
ROOT
ATOM      1  C   UNL A   1      32.450  30.710  26.550  1.00  0.00     0.023 C 
ENDROOT
BRANCH   1   2
ATOM      2  C   UNL A   1      31.931  29.821  25.404  1.00  0.00     0.116 C 
BRANCH   2   3
ATOM      3  N   UNL A   1      32.959  29.545  24.411  1.00  0.00    -0.356 N 
ATOM      4  C   UNL A   1      33.635  28.455  23.994  1.00  0.00     0.224 C 
ATOM      5  O   UNL A   1      34.386  28.692  23.028  1.00  0.00    -0.275 OA
ATOM      6  H   UNL A   1      33.229  30.355  23.923  1.00  0.00     0.163 HD
BRANCH   4   7
ATOM      7  C   UNL A   1      33.590  26.997  24.515  1.00  0.00     0.095 C 
ATOM      8  C   UNL A   1      32.535  25.925  24.154  1.00  0.00     0.095 C 
ATOM      9  C   UNL A   1      31.134  26.361  24.578  1.00  0.00     0.041 C 
ATOM     10  C   UNL A   1      31.128  26.883  25.991  1.00  0.00    -0.030 C 
ATOM     11  C   UNL A   1      33.624  27.060  26.067  1.00  0.00     0.041 C 
ATOM     12  C   UNL A   1      32.249  27.163  26.674  1.00  0.00    -0.030 C 
BRANCH   8  13
ATOM     13  C   UNL A   1      32.744  25.372  22.764  1.00  0.00     0.228 C 
ATOM     14  N   UNL A   1      33.522  24.302  22.474  1.00  0.00    -0.326 N 
ATOM     15  H   UNL A   1      33.504  24.105  21.509  1.00  0.00     0.169 HD
ATOM     16  O   UNL A   1      32.244  25.948  21.787  1.00  0.00    -0.274 OA
BRANCH  14  17
ATOM     17  C   UNL A   1      34.353  23.386  23.160  1.00  0.00     0.044 A 
ATOM     18  C   UNL A   1      32.225  22.404  24.031  1.00  0.00     0.047 C 
ATOM     19  C   UNL A   1      33.713  22.339  23.898  1.00  0.00    -0.015 A 
ATOM     20  C   UNL A   1      34.468  21.341  24.560  1.00  0.00     0.045 A 
ATOM     21  C   UNL A   1      35.743  23.443  23.140  1.00  0.00     0.026 A 
ATOM     22  C   UNL A   1      35.869  21.473  24.540  1.00  0.00     0.014 A 
ATOM     23  C   UNL A   1      36.497  22.514  23.853  1.00  0.00     0.003 A 
BRANCH  20  24
ATOM     24  C   UNL A   1      33.948  20.229  25.450  1.00  0.00     0.254 C 
ATOM     25  O   UNL A   1      33.587  20.520  26.596  1.00  0.00    -0.269 OA
ATOM     26  N   UNL A   1      33.795  18.920  25.002  1.00  0.00    -0.334 N 
ATOM     27  C   UNL A   1      34.857  18.072  24.455  1.00  0.00     0.148 C 
ATOM     28  C   UNL A   1      32.638  18.171  25.487  1.00  0.00     0.148 C 
ATOM     29  C   UNL A   1      34.297  17.027  23.466  1.00  0.00     0.181 C 
ATOM     30  C   UNL A   1      32.134  17.225  24.398  1.00  0.00     0.181 C 
ATOM     31  O   UNL A   1      33.179  16.311  24.018  1.00  0.00    -0.378 OA
ENDBRANCH  20  24
ENDBRANCH  14  17
ENDBRANCH   8  13
ENDBRANCH   4   7
ENDBRANCH   2   3
ENDBRANCH   1   2
BRANCH   1  32
ATOM     32  C   UNL A   1      33.939  30.630  26.871  1.00  0.00     0.023 C 
BRANCH  32  33
ATOM     33  C   UNL A   1      34.270  30.401  28.342  1.00  0.00     0.116 C 
BRANCH  33  34
ATOM     34  N   UNL A   1      35.246  31.316  28.938  1.00  0.00    -0.352 N 
ATOM     35  C   UNL A   1      36.545  31.046  29.359  1.00  0.00     0.251 C 
ATOM     36  H   UNL A   1      34.942  32.244  29.058  1.00  0.00     0.163 HD
ATOM     37  O   UNL A   1      37.264  31.921  29.836  1.00  0.00    -0.269 OA
BRANCH  35  38
ATOM     38  C   UNL A   1      37.138  29.712  29.063  1.00  0.00     0.039 A 
ATOM     39  C   UNL A   1      37.447  28.905  30.162  1.00  0.00     0.014 A 
ATOM     40  C   UNL A   1      37.750  29.482  27.841  1.00  0.00     0.014 A 
ATOM     41  C   UNL A   1      38.621  28.161  30.138  1.00  0.00     0.010 A 
ATOM     42  C   UNL A   1      38.994  28.892  27.860  1.00  0.00     0.010 A 
ATOM     43  C   UNL A   1      39.459  28.300  29.035  1.00  0.00    -0.014 A 
BRANCH  43  44
ATOM     44  C   UNL A   1      40.832  27.823  29.006  1.00  0.00     0.031 A 
ATOM     45  C   UNL A   1      41.056  26.439  28.568  1.00  0.00     0.074 A 
ATOM     46  C   UNL A   1      41.853  28.640  29.342  1.00  0.00     0.049 A 
ATOM     47  N   UNL A   1      42.033  25.691  28.941  1.00  0.00    -0.248 NA
ATOM     48  C   UNL A   1      40.106  25.763  27.693  1.00  0.00     0.031 C 
ATOM     49  C   UNL A   1      43.285  28.378  29.233  1.00  0.00     0.029 A 
ATOM     50  N   UNL A   1      41.769  29.802  30.110  1.00  0.00    -0.354 N 
ATOM     51  C   UNL A   1      41.998  24.553  28.163  1.00  0.00     0.074 A 
ATOM     52  C   UNL A   1      40.740  24.613  27.464  1.00  0.00     0.031 C 
ATOM     53  C   UNL A   1      43.930  29.146  30.130  1.00  0.00     0.029 A 
ATOM     54  C   UNL A   1      42.915  29.809  30.931  1.00  0.00     0.049 A 
ATOM     55  H   UNL A   1      41.055  30.480  30.084  1.00  0.00     0.167 HD
ATOM     56  C   UNL A   1      43.108  23.767  28.090  1.00  0.00     0.034 A 
ATOM     57  C   UNL A   1      42.783  29.707  32.287  1.00  0.00     0.034 A 
ATOM     58  C   UNL A   1      44.141  24.249  29.009  1.00  0.00     0.049 A 
ATOM     59  C   UNL A   1      43.446  28.479  32.848  1.00  0.00     0.074 A 
ATOM     60  C   UNL A   1      45.232  25.082  28.826  1.00  0.00     0.029 A 
ATOM     61  N   UNL A   1      43.917  24.190  30.382  1.00  0.00    -0.354 N 
ATOM     62  N   UNL A   1      43.728  27.418  32.142  1.00  0.00    -0.248 NA
ATOM     63  C   UNL A   1      43.857  28.363  34.241  1.00  0.00     0.031 C 
ATOM     64  C   UNL A   1      45.581  25.623  30.094  1.00  0.00     0.029 A 
ATOM     65  C   UNL A   1      44.742  25.075  31.051  1.00  0.00     0.049 A 
ATOM     66  H   UNL A   1      43.261  23.598  30.817  1.00  0.00     0.167 HD
ATOM     67  C   UNL A   1      44.313  26.480  32.948  1.00  0.00     0.074 A 
ATOM     68  C   UNL A   1      44.406  27.137  34.245  1.00  0.00     0.031 C 
ATOM     69  C   UNL A   1      44.654  25.235  32.498  1.00  0.00     0.034 A 
BRANCH  56  70
ATOM     70  C   UNL A   1      43.368  22.804  26.950  1.00  0.00     0.023 A 
ATOM     71  C   UNL A   1      42.827  21.504  27.020  1.00  0.00     0.031 A 
ATOM     72  C   UNL A   1      44.178  23.054  25.824  1.00  0.00     0.131 A 
ATOM     73  C   UNL A   1      43.174  20.511  26.085  1.00  0.00     0.055 A 
ATOM     74  C   UNL A   1      44.579  22.051  24.931  1.00  0.00     0.041 A 
ATOM     75  F   UNL A   1      44.570  24.291  25.495  1.00  0.00    -0.206 F 
ATOM     76  C   UNL A   1      44.084  20.765  25.065  1.00  0.00     0.022 A 
BRANCH  73  77
ATOM     77  S   UNL A   1      42.401  18.876  26.211  1.00  0.00     0.124 S 
ATOM     78  O   UNL A   1      43.239  18.069  25.331  1.00  0.00    -0.237 OA
ATOM     79  O   UNL A   1      42.504  18.595  27.639  1.00  0.00    -0.237 OA
ATOM     80  O   UNL A   1      41.040  19.106  25.728  1.00  0.00    -0.744 OA
ENDBRANCH  73  77
ENDBRANCH  56  70
BRANCH  57  81
ATOM     81  C   UNL A   1      41.528  30.342  32.793  1.00  0.00     0.023 A 
ATOM     82  C   UNL A   1      41.427  31.728  32.584  1.00  0.00     0.031 A 
ATOM     83  C   UNL A   1      40.341  29.641  32.994  1.00  0.00     0.131 A 
ATOM     84  C   UNL A   1      40.194  32.346  32.346  1.00  0.00     0.055 A 
ATOM     85  C   UNL A   1      39.097  30.277  32.847  1.00  0.00     0.041 A 
ATOM     86  F   UNL A   1      40.352  28.314  33.185  1.00  0.00    -0.206 F 
ATOM     87  C   UNL A   1      39.019  31.615  32.450  1.00  0.00     0.022 A 
BRANCH  84  88
ATOM     88  S   UNL A   1      40.198  34.010  31.622  1.00  0.00     0.124 S 
ATOM     89  O   UNL A   1      38.839  34.464  31.910  1.00  0.00    -0.237 OA
ATOM     90  O   UNL A   1      41.257  34.674  32.377  1.00  0.00    -0.237 OA
ATOM     91  O   UNL A   1      40.513  33.794  30.215  1.00  0.00    -0.744 OA
ENDBRANCH  84  88
ENDBRANCH  57  81
BRANCH  69  92
ATOM     92  C   UNL A   1      45.031  24.090  33.405  1.00  0.00     0.023 A 
ATOM     93  C   UNL A   1      46.329  23.924  33.905  1.00  0.00     0.031 A 
ATOM     94  C   UNL A   1      44.076  23.148  33.851  1.00  0.00     0.131 A 
ATOM     95  C   UNL A   1      46.681  22.795  34.658  1.00  0.00     0.055 A 
ATOM     96  C   UNL A   1      44.403  22.089  34.705  1.00  0.00     0.041 A 
ATOM     97  F   UNL A   1      42.790  23.218  33.482  1.00  0.00    -0.206 F 
ATOM     98  C   UNL A   1      45.721  21.887  35.087  1.00  0.00     0.022 A 
BRANCH  95  99
ATOM     99  S   UNL A   1      48.442  22.490  34.938  1.00  0.00     0.124 S 
ATOM    100  O   UNL A   1      48.491  22.361  36.393  1.00  0.00    -0.237 OA
ATOM    101  O   UNL A   1      48.675  21.261  34.187  1.00  0.00    -0.237 OA
ATOM    102  O   UNL A   1      49.088  23.685  34.399  1.00  0.00    -0.744 OA
ENDBRANCH  95  99
ENDBRANCH  69  92
ENDBRANCH  43  44
ENDBRANCH  35  38
ENDBRANCH  33  34
ENDBRANCH  32  33
ENDBRANCH   1  32
TORSDOF 17
ENDMDL
MODEL 2
REMARK VINA RESULT:     -13.9      4.076     10.840
REMARK SMILES Cc1c(NC(=O)[C@@H]2CC=CC[C@@H]2C(=O)NCCCCNC(=O)c2ccc(-c3c4nc(c(-c5cc(S(=O)(=O)[O-])ccc5F)c5ccc([nH]5)c(-c5cc(S(=O)(=O)[O-])ccc5F)c5nc(c(-c6cc(S(=O)(=O)[O-])ccc6F)c6ccc3[nH]6)C=C5)C=C4)cc2)cccc1C(=O)N1CCOCC1
REMARK SMILES IDX 17 1 16 2 15 3 13 4 14 5 12 7 7 8 8 9 9 10 11 11 10 12 5 13
REMARK SMILES IDX 4 14 6 16 3 17 1 18 2 19 89 20 86 21 88 22 87 23 90 24 91 25
REMARK SMILES IDX 92 26 93 27 97 28 94 29 96 30 95 31 18 32 19 33 20 34 21 35
REMARK SMILES IDX 22 37 23 38 24 39 85 40 25 41 84 42 26 43 27 44 28 45 78 46
REMARK SMILES IDX 29 47 83 48 77 49 79 50 30 51 82 52 76 53 75 54 31 56 63 57
REMARK SMILES IDX 43 58 62 59 44 60 47 61 61 62 80 63 45 64 46 65 60 67 81 68
REMARK SMILES IDX 48 69 32 70 33 71 41 72 34 73 40 74 42 75 39 76 35 77 36 78
REMARK SMILES IDX 37 79 38 80 64 81 65 82 73 83 66 84 72 85 74 86 71 87 67 88
REMARK SMILES IDX 68 89 69 90 70 91 49 92 50 93 58 94 51 95 57 96 59 97 56 98
REMARK SMILES IDX 52 99 53 100 54 101 55 102
REMARK H PARENT 15 6 4 15 20 36 79 55 47 66
REMARK Flexibility Score: inf
ROOT
ATOM      1  C   UNL A   1      37.602  21.512  25.398  1.00  0.00     0.023 C 
ENDROOT
BRANCH   1   2
ATOM      2  C   UNL A   1      36.652  22.725  25.377  1.00  0.00     0.116 C 
BRANCH   2   3
ATOM      3  N   UNL A   1      35.620  22.635  26.400  1.00  0.00    -0.356 N 
ATOM      4  C   UNL A   1      34.357  23.083  26.543  1.00  0.00     0.224 C 
ATOM      5  O   UNL A   1      33.814  22.676  27.589  1.00  0.00    -0.275 OA
ATOM      6  H   UNL A   1      35.919  22.119  27.182  1.00  0.00     0.163 HD
BRANCH   4   7
ATOM      7  C   UNL A   1      33.508  23.982  25.609  1.00  0.00     0.095 C 
ATOM      8  C   UNL A   1      31.993  23.846  25.332  1.00  0.00     0.095 C 
ATOM      9  C   UNL A   1      31.663  22.493  24.707  1.00  0.00     0.041 C 
ATOM     10  C   UNL A   1      32.600  22.170  23.573  1.00  0.00    -0.030 C 
ATOM     11  C   UNL A   1      34.200  23.985  24.217  1.00  0.00     0.041 C 
ATOM     12  C   UNL A   1      33.723  22.865  23.331  1.00  0.00    -0.030 C 
BRANCH   8  13
ATOM     13  C   UNL A   1      31.160  24.345  26.490  1.00  0.00     0.228 C 
ATOM     14  N   UNL A   1      31.021  25.648  26.828  1.00  0.00    -0.326 N 
ATOM     15  H   UNL A   1      30.422  25.748  27.604  1.00  0.00     0.169 HD
ATOM     16  O   UNL A   1      30.607  23.535  27.248  1.00  0.00    -0.274 OA
BRANCH  14  17
ATOM     17  C   UNL A   1      31.488  26.908  26.386  1.00  0.00     0.044 A 
ATOM     18  C   UNL A   1      30.164  26.456  24.314  1.00  0.00     0.047 C 
ATOM     19  C   UNL A   1      30.992  27.393  25.133  1.00  0.00    -0.015 A 
ATOM     20  C   UNL A   1      31.355  28.672  24.647  1.00  0.00     0.045 A 
ATOM     21  C   UNL A   1      32.382  27.693  27.107  1.00  0.00     0.026 A 
ATOM     22  C   UNL A   1      32.294  29.404  25.397  1.00  0.00     0.014 A 
ATOM     23  C   UNL A   1      32.810  28.919  26.600  1.00  0.00     0.003 A 
BRANCH  20  24
ATOM     24  C   UNL A   1      30.992  29.288  23.310  1.00  0.00     0.254 C 
ATOM     25  O   UNL A   1      31.767  29.121  22.361  1.00  0.00    -0.269 OA
ATOM     26  N   UNL A   1      29.794  29.963  23.097  1.00  0.00    -0.334 N 
ATOM     27  C   UNL A   1      29.329  31.140  23.837  1.00  0.00     0.148 C 
ATOM     28  C   UNL A   1      29.144  29.793  21.799  1.00  0.00     0.148 C 
ATOM     29  C   UNL A   1      27.788  31.222  23.866  1.00  0.00     0.181 C 
ATOM     30  C   UNL A   1      27.625  29.822  21.968  1.00  0.00     0.181 C 
ATOM     31  O   UNL A   1      27.219  31.072  22.554  1.00  0.00    -0.378 OA
ENDBRANCH  20  24
ENDBRANCH  14  17
ENDBRANCH   8  13
ENDBRANCH   4   7
ENDBRANCH   2   3
ENDBRANCH   1   2
BRANCH   1  32
ATOM     32  C   UNL A   1      38.994  21.731  25.982  1.00  0.00     0.023 C 
BRANCH  32  33
ATOM     33  C   UNL A   1      39.408  23.192  26.131  1.00  0.00     0.116 C 
BRANCH  33  34
ATOM     34  N   UNL A   1      40.771  23.435  26.610  1.00  0.00    -0.352 N 
ATOM     35  C   UNL A   1      41.325  24.619  27.089  1.00  0.00     0.251 C 
ATOM     36  H   UNL A   1      41.376  22.659  26.588  1.00  0.00     0.163 HD
ATOM     37  O   UNL A   1      42.491  24.678  27.472  1.00  0.00    -0.269 OA
BRANCH  35  38
ATOM     38  C   UNL A   1      40.437  25.795  27.310  1.00  0.00     0.039 A 
ATOM     39  C   UNL A   1      40.768  26.967  26.624  1.00  0.00     0.014 A 
ATOM     40  C   UNL A   1      39.634  25.854  28.437  1.00  0.00     0.014 A 
ATOM     41  C   UNL A   1      40.634  28.186  27.279  1.00  0.00     0.010 A 
ATOM     42  C   UNL A   1      39.652  27.025  29.162  1.00  0.00     0.010 A 
ATOM     43  C   UNL A   1      40.225  28.171  28.609  1.00  0.00    -0.014 A 
BRANCH  43  44
ATOM     44  C   UNL A   1      40.323  29.321  29.492  1.00  0.00     0.031 A 
ATOM     45  C   UNL A   1      39.221  30.291  29.462  1.00  0.00     0.074 A 
ATOM     46  C   UNL A   1      41.377  29.464  30.323  1.00  0.00     0.049 A 
ATOM     47  N   UNL A   1      39.327  31.545  29.727  1.00  0.00    -0.248 NA
ATOM     48  C   UNL A   1      37.881  29.897  29.043  1.00  0.00     0.031 C 
ATOM     49  C   UNL A   1      41.569  30.467  31.367  1.00  0.00     0.029 A 
ATOM     50  N   UNL A   1      42.627  28.856  30.192  1.00  0.00    -0.354 N 
ATOM     51  C   UNL A   1      38.051  32.062  29.783  1.00  0.00     0.074 A 
ATOM     52  C   UNL A   1      37.199  31.018  29.273  1.00  0.00     0.031 C 
ATOM     53  C   UNL A   1      42.889  30.622  31.575  1.00  0.00     0.029 A 
ATOM     54  C   UNL A   1      43.575  29.828  30.569  1.00  0.00     0.049 A 
ATOM     55  H   UNL A   1      42.809  27.934  29.897  1.00  0.00     0.167 HD
ATOM     56  C   UNL A   1      37.849  33.263  30.395  1.00  0.00     0.034 A 
ATOM     57  C   UNL A   1      44.461  30.310  29.648  1.00  0.00     0.034 A 
ATOM     58  C   UNL A   1      39.126  33.862  30.785  1.00  0.00     0.049 A 
ATOM     59  C   UNL A   1      44.315  31.788  29.413  1.00  0.00     0.074 A 
ATOM     60  C   UNL A   1      39.833  33.848  31.976  1.00  0.00     0.029 A 
ATOM     61  N   UNL A   1      40.023  34.263  29.800  1.00  0.00    -0.354 N 
ATOM     62  N   UNL A   1      43.233  32.465  29.688  1.00  0.00    -0.248 NA
ATOM     63  C   UNL A   1      45.384  32.617  28.870  1.00  0.00     0.031 C 
ATOM     64  C   UNL A   1      41.195  34.123  31.674  1.00  0.00     0.029 A 
ATOM     65  C   UNL A   1      41.304  34.360  30.313  1.00  0.00     0.049 A 
ATOM     66  H   UNL A   1      39.779  34.453  28.864  1.00  0.00     0.167 HD
ATOM     67  C   UNL A   1      43.421  33.777  29.348  1.00  0.00     0.074 A 
ATOM     68  C   UNL A   1      44.798  33.826  28.875  1.00  0.00     0.031 C 
ATOM     69  C   UNL A   1      42.431  34.712  29.457  1.00  0.00     0.034 A 
BRANCH  56  70
ATOM     70  C   UNL A   1      36.504  33.700  30.938  1.00  0.00     0.023 A 
ATOM     71  C   UNL A   1      35.591  34.330  30.068  1.00  0.00     0.031 A 
ATOM     72  C   UNL A   1      36.082  33.604  32.279  1.00  0.00     0.131 A 
ATOM     73  C   UNL A   1      34.403  34.914  30.546  1.00  0.00     0.055 A 
ATOM     74  C   UNL A   1      34.935  34.243  32.770  1.00  0.00     0.041 A 
ATOM     75  F   UNL A   1      36.723  32.836  33.170  1.00  0.00    -0.206 F 
ATOM     76  C   UNL A   1      34.091  34.914  31.901  1.00  0.00     0.022 A 
BRANCH  73  77
ATOM     77  S   UNL A   1      33.254  35.666  29.362  1.00  0.00     0.124 S 
ATOM     78  O   UNL A   1      34.160  36.290  28.404  1.00  0.00    -0.237 OA
ATOM     79  O   UNL A   1      32.502  34.510  28.885  1.00  0.00    -0.237 OA
ATOM     80  O   UNL A   1      32.484  36.600  30.184  1.00  0.00    -0.744 OA
ENDBRANCH  73  77
ENDBRANCH  56  70
BRANCH  57  81
ATOM     81  C   UNL A   1      44.842  29.288  28.627  1.00  0.00     0.023 A 
ATOM     82  C   UNL A   1      45.649  28.236  29.097  1.00  0.00     0.031 A 
ATOM     83  C   UNL A   1      44.112  29.056  27.462  1.00  0.00     0.131 A 
ATOM     84  C   UNL A   1      45.547  26.943  28.573  1.00  0.00     0.055 A 
ATOM     85  C   UNL A   1      44.078  27.780  26.877  1.00  0.00     0.041 A 
ATOM     86  F   UNL A   1      43.308  30.003  26.958  1.00  0.00    -0.206 F 
ATOM     87  C   UNL A   1      44.737  26.700  27.472  1.00  0.00     0.022 A 
BRANCH  84  88
ATOM     88  S   UNL A   1      46.249  25.574  29.535  1.00  0.00     0.124 S 
ATOM     89  O   UNL A   1      45.230  24.539  29.370  1.00  0.00    -0.237 OA
ATOM     90  O   UNL A   1      47.514  25.327  28.845  1.00  0.00    -0.237 OA
ATOM     91  O   UNL A   1      46.398  26.112  30.880  1.00  0.00    -0.744 OA
ENDBRANCH  84  88
ENDBRANCH  57  81
BRANCH  69  92
ATOM     92  C   UNL A   1      42.501  36.085  28.834  1.00  0.00     0.023 A 
ATOM     93  C   UNL A   1      43.239  37.131  29.406  1.00  0.00     0.031 A 
ATOM     94  C   UNL A   1      41.873  36.378  27.603  1.00  0.00     0.131 A 
ATOM     95  C   UNL A   1      43.204  38.425  28.868  1.00  0.00     0.055 A 
ATOM     96  C   UNL A   1      41.941  37.640  27.002  1.00  0.00     0.041 A 
ATOM     97  F   UNL A   1      41.172  35.454  26.931  1.00  0.00    -0.206 F 
ATOM     98  C   UNL A   1      42.581  38.684  27.653  1.00  0.00     0.022 A 
BRANCH  95  99
ATOM     99  S   UNL A   1      43.879  39.769  29.874  1.00  0.00     0.124 S 
ATOM    100  O   UNL A   1      43.375  39.424  31.201  1.00  0.00    -0.237 OA
ATOM    101  O   UNL A   1      45.317  39.615  29.685  1.00  0.00    -0.237 OA
ATOM    102  O   UNL A   1      43.294  40.969  29.280  1.00  0.00    -0.744 OA
ENDBRANCH  95  99
ENDBRANCH  69  92
ENDBRANCH  43  44
ENDBRANCH  35  38
ENDBRANCH  33  34
ENDBRANCH  32  33
ENDBRANCH   1  32
TORSDOF 17
ENDMDL
MODEL 3
REMARK VINA RESULT:     -13.9      3.821      9.854
REMARK SMILES Cc1c(NC(=O)[C@@H]2CC=CC[C@@H]2C(=O)NCCCCNC(=O)c2ccc(-c3c4nc(c(-c5cc(S(=O)(=O)[O-])ccc5F)c5ccc([nH]5)c(-c5cc(S(=O)(=O)[O-])ccc5F)c5nc(c(-c6cc(S(=O)(=O)[O-])ccc6F)c6ccc3[nH]6)C=C5)C=C4)cc2)cccc1C(=O)N1CCOCC1
REMARK SMILES IDX 17 1 16 2 15 3 13 4 14 5 12 7 7 8 8 9 9 10 11 11 10 12 5 13
REMARK SMILES IDX 4 14 6 16 3 17 1 18 2 19 89 20 86 21 88 22 87 23 90 24 91 25
REMARK SMILES IDX 92 26 93 27 97 28 94 29 96 30 95 31 18 32 19 33 20 34 21 35
REMARK SMILES IDX 22 37 23 38 24 39 85 40 25 41 84 42 26 43 27 44 28 45 78 46
REMARK SMILES IDX 29 47 83 48 77 49 79 50 30 51 82 52 76 53 75 54 31 56 63 57
REMARK SMILES IDX 43 58 62 59 44 60 47 61 61 62 80 63 45 64 46 65 60 67 81 68
REMARK SMILES IDX 48 69 32 70 33 71 41 72 34 73 40 74 42 75 39 76 35 77 36 78
REMARK SMILES IDX 37 79 38 80 64 81 65 82 73 83 66 84 72 85 74 86 71 87 67 88
REMARK SMILES IDX 68 89 69 90 70 91 49 92 50 93 58 94 51 95 57 96 59 97 56 98
REMARK SMILES IDX 52 99 53 100 54 101 55 102
REMARK H PARENT 15 6 4 15 20 36 79 55 47 66
REMARK Flexibility Score: inf
ROOT
ATOM      1  C   UNL A   1      37.271  23.678  26.122  1.00  0.00     0.023 C 
ENDROOT
BRANCH   1   2
ATOM      2  C   UNL A   1      36.673  23.297  24.754  1.00  0.00     0.116 C 
BRANCH   2   3
ATOM      3  N   UNL A   1      35.988  22.013  24.792  1.00  0.00    -0.356 N 
ATOM      4  C   UNL A   1      34.723  21.585  24.607  1.00  0.00     0.224 C 
ATOM      5  O   UNL A   1      34.620  20.343  24.660  1.00  0.00    -0.275 OA
ATOM      6  H   UNL A   1      36.600  21.273  25.005  1.00  0.00     0.163 HD
BRANCH   4   7
ATOM      7  C   UNL A   1      33.431  22.391  24.324  1.00  0.00     0.095 C 
ATOM      8  C   UNL A   1      33.265  23.924  24.424  1.00  0.00     0.095 C 
ATOM      9  C   UNL A   1      33.536  24.421  25.842  1.00  0.00     0.041 C 
ATOM     10  C   UNL A   1      32.811  23.583  26.863  1.00  0.00    -0.030 C 
ATOM     11  C   UNL A   1      32.304  21.779  25.203  1.00  0.00     0.041 C 
ATOM     12  C   UNL A   1      32.225  22.412  26.567  1.00  0.00    -0.030 C 
BRANCH   8  13
ATOM     13  C   UNL A   1      33.909  24.639  23.258  1.00  0.00     0.228 C 
ATOM     14  N   UNL A   1      33.709  25.943  22.955  1.00  0.00    -0.326 N 
ATOM     15  H   UNL A   1      34.238  26.206  22.166  1.00  0.00     0.169 HD
ATOM     16  O   UNL A   1      34.620  24.009  22.462  1.00  0.00    -0.274 OA
BRANCH  14  17
ATOM     17  C   UNL A   1      32.959  27.037  23.446  1.00  0.00     0.044 A 
ATOM     18  C   UNL A   1      31.075  26.105  22.092  1.00  0.00     0.047 C 
ATOM     19  C   UNL A   1      31.572  27.098  23.093  1.00  0.00    -0.015 A 
ATOM     20  C   UNL A   1      30.733  28.122  23.594  1.00  0.00     0.045 A 
ATOM     21  C   UNL A   1      33.492  28.033  24.257  1.00  0.00     0.026 A 
ATOM     22  C   UNL A   1      31.335  29.125  24.375  1.00  0.00     0.014 A 
ATOM     23  C   UNL A   1      32.694  29.090  24.691  1.00  0.00     0.003 A 
BRANCH  20  24
ATOM     24  C   UNL A   1      29.279  28.377  23.245  1.00  0.00     0.254 C 
ATOM     25  O   UNL A   1      28.475  27.447  23.382  1.00  0.00    -0.269 OA
ATOM     26  N   UNL A   1      28.811  29.627  22.853  1.00  0.00    -0.334 N 
ATOM     27  C   UNL A   1      29.287  30.399  21.702  1.00  0.00     0.148 C 
ATOM     28  C   UNL A   1      27.485  30.028  23.319  1.00  0.00     0.148 C 
ATOM     29  C   UNL A   1      29.107  31.916  21.921  1.00  0.00     0.181 C 
ATOM     30  C   UNL A   1      27.453  31.537  23.566  1.00  0.00     0.181 C 
ATOM     31  O   UNL A   1      27.774  32.240  22.353  1.00  0.00    -0.378 OA
ENDBRANCH  20  24
ENDBRANCH  14  17
ENDBRANCH   8  13
ENDBRANCH   4   7
ENDBRANCH   2   3
ENDBRANCH   1   2
BRANCH   1  32
ATOM     32  C   UNL A   1      38.727  24.133  26.141  1.00  0.00     0.023 C 
BRANCH  32  33
ATOM     33  C   UNL A   1      39.672  23.238  26.936  1.00  0.00     0.116 C 
BRANCH  33  34
ATOM     34  N   UNL A   1      40.286  22.128  26.204  1.00  0.00    -0.352 N 
ATOM     35  C   UNL A   1      41.636  21.806  26.087  1.00  0.00     0.251 C 
ATOM     36  H   UNL A   1      39.662  21.531  25.731  1.00  0.00     0.163 HD
ATOM     37  O   UNL A   1      42.013  20.829  25.444  1.00  0.00    -0.269 OA
BRANCH  35  38
ATOM     38  C   UNL A   1      42.631  22.556  26.903  1.00  0.00     0.039 A 
ATOM     39  C   UNL A   1      42.603  22.335  28.283  1.00  0.00     0.014 A 
ATOM     40  C   UNL A   1      43.218  23.704  26.396  1.00  0.00     0.014 A 
ATOM     41  C   UNL A   1      42.794  23.415  29.138  1.00  0.00     0.010 A 
ATOM     42  C   UNL A   1      43.240  24.813  27.213  1.00  0.00     0.010 A 
ATOM     43  C   UNL A   1      42.950  24.677  28.571  1.00  0.00    -0.014 A 
BRANCH  43  44
ATOM     44  C   UNL A   1      42.863  25.913  29.329  1.00  0.00     0.031 A 
ATOM     45  C   UNL A   1      41.653  26.727  29.156  1.00  0.00     0.074 A 
ATOM     46  C   UNL A   1      43.849  26.272  30.178  1.00  0.00     0.049 A 
ATOM     47  N   UNL A   1      41.590  28.004  29.290  1.00  0.00    -0.248 NA
ATOM     48  C   UNL A   1      40.394  26.125  28.733  1.00  0.00     0.031 C 
ATOM     49  C   UNL A   1      43.864  27.392  31.116  1.00  0.00     0.029 A 
ATOM     50  N   UNL A   1      45.168  25.818  30.159  1.00  0.00    -0.354 N 
ATOM     51  C   UNL A   1      40.259  28.358  29.243  1.00  0.00     0.074 A 
ATOM     52  C   UNL A   1      39.568  27.167  28.817  1.00  0.00     0.031 C 
ATOM     53  C   UNL A   1      45.143  27.734  31.354  1.00  0.00     0.029 A 
ATOM     54  C   UNL A   1      45.970  26.937  30.464  1.00  0.00     0.049 A 
ATOM     55  H   UNL A   1      45.477  24.902  29.971  1.00  0.00     0.167 HD
ATOM     56  C   UNL A   1      39.881  29.579  29.716  1.00  0.00     0.034 A 
ATOM     57  C   UNL A   1      46.835  27.431  29.529  1.00  0.00     0.034 A 
ATOM     58  C   UNL A   1      41.054  30.372  30.087  1.00  0.00     0.049 A 
ATOM     59  C   UNL A   1      46.521  28.848  29.133  1.00  0.00     0.074 A 
ATOM     60  C   UNL A   1      41.698  30.569  31.298  1.00  0.00     0.029 A 
ATOM     61  N   UNL A   1      41.943  30.783  29.097  1.00  0.00    -0.354 N 
ATOM     62  N   UNL A   1      45.351  29.405  29.295  1.00  0.00    -0.248 NA
ATOM     63  C   UNL A   1      47.504  29.747  28.544  1.00  0.00     0.031 C 
ATOM     64  C   UNL A   1      43.029  30.983  31.018  1.00  0.00     0.029 A 
ATOM     65  C   UNL A   1      43.175  31.093  29.643  1.00  0.00     0.049 A 
ATOM     66  H   UNL A   1      41.724  30.844  28.139  1.00  0.00     0.167 HD
ATOM     67  C   UNL A   1      45.393  30.689  28.824  1.00  0.00     0.074 A 
ATOM     68  C   UNL A   1      46.775  30.865  28.399  1.00  0.00     0.031 C 
ATOM     69  C   UNL A   1      44.291  31.497  28.797  1.00  0.00     0.034 A 
BRANCH  56  70
ATOM     70  C   UNL A   1      38.468  29.894  30.160  1.00  0.00     0.023 A 
ATOM     71  C   UNL A   1      37.644  30.665  29.315  1.00  0.00     0.031 A 
ATOM     72  C   UNL A   1      37.892  29.546  31.399  1.00  0.00     0.131 A 
ATOM     73  C   UNL A   1      36.389  31.138  29.741  1.00  0.00     0.055 A 
ATOM     74  C   UNL A   1      36.674  30.071  31.853  1.00  0.00     0.041 A 
ATOM     75  F   UNL A   1      38.448  28.634  32.206  1.00  0.00    -0.206 F 
ATOM     76  C   UNL A   1      35.918  30.883  31.025  1.00  0.00     0.022 A 
BRANCH  73  77
ATOM     77  S   UNL A   1      35.365  32.084  28.582  1.00  0.00     0.124 S 
ATOM     78  O   UNL A   1      36.338  32.985  27.974  1.00  0.00    -0.237 OA
ATOM     79  O   UNL A   1      34.826  31.037  27.721  1.00  0.00    -0.237 OA
ATOM     80  O   UNL A   1      34.381  32.731  29.450  1.00  0.00    -0.744 OA
ENDBRANCH  73  77
ENDBRANCH  56  70
BRANCH  57  81
ATOM     81  C   UNL A   1      47.389  26.368  28.638  1.00  0.00     0.023 A 
ATOM     82  C   UNL A   1      47.007  26.453  27.287  1.00  0.00     0.031 A 
ATOM     83  C   UNL A   1      48.549  25.652  28.926  1.00  0.00     0.131 A 
ATOM     84  C   UNL A   1      47.864  26.054  26.256  1.00  0.00     0.055 A 
ATOM     85  C   UNL A   1      49.370  25.168  27.894  1.00  0.00     0.041 A 
ATOM     86  F   UNL A   1      48.988  25.538  30.188  1.00  0.00    -0.206 F 
ATOM     87  C   UNL A   1      49.068  25.431  26.554  1.00  0.00     0.022 A 
BRANCH  84  88
ATOM     88  S   UNL A   1      47.504  26.632  24.574  1.00  0.00     0.124 S 
ATOM     89  O   UNL A   1      48.031  25.537  23.762  1.00  0.00    -0.237 OA
ATOM     90  O   UNL A   1      46.049  26.757  24.594  1.00  0.00    -0.237 OA
ATOM     91  O   UNL A   1      48.211  27.902  24.466  1.00  0.00    -0.744 OA
ENDBRANCH  84  88
ENDBRANCH  57  81
BRANCH  69  92
ATOM     92  C   UNL A   1      44.223  32.798  28.034  1.00  0.00     0.023 A 
ATOM     93  C   UNL A   1      43.997  34.027  28.667  1.00  0.00     0.031 A 
ATOM     94  C   UNL A   1      44.445  32.857  26.640  1.00  0.00     0.131 A 
ATOM     95  C   UNL A   1      43.832  35.207  27.928  1.00  0.00     0.055 A 
ATOM     96  C   UNL A   1      44.402  34.055  25.919  1.00  0.00     0.041 A 
ATOM     97  F   UNL A   1      44.715  31.758  25.921  1.00  0.00    -0.206 F 
ATOM     98  C   UNL A   1      44.060  35.237  26.558  1.00  0.00     0.022 A 
BRANCH  95  99
ATOM     99  S   UNL A   1      43.183  36.656  28.796  1.00  0.00     0.124 S 
ATOM    100  O   UNL A   1      43.963  37.734  28.193  1.00  0.00    -0.237 OA
ATOM    101  O   UNL A   1      41.767  36.628  28.445  1.00  0.00    -0.237 OA
ATOM    102  O   UNL A   1      43.485  36.380  30.199  1.00  0.00    -0.744 OA
ENDBRANCH  95  99
ENDBRANCH  69  92
ENDBRANCH  43  44
ENDBRANCH  35  38
ENDBRANCH  33  34
ENDBRANCH  32  33
ENDBRANCH   1  32
TORSDOF 17
ENDMDL
