MODEL 1
REMARK VINA RESULT:     -10.8      0.000      0.000
REMARK SMILES C[C@H]([NH2+]CC1CCCC1)[C@H](C)C(=O)NCCCCNC(=O)c1ccc(-c2c3nc(c(-c4cc(S(=O)(=O)[O-])ccc4F)c4ccc([nH]4)c(-c4cc(S(=O)(=O)[O-])ccc4F)c4nc(c(-c5cc(S(=O)(=O)[O-])ccc5F)c5ccc2[nH]5)C=C4)C=C3)cc1
REMARK SMILES IDX 16 1 15 2 14 3 12 4 13 5 10 7 11 8 2 9 1 10 3 11 4 14 5 15
REMARK SMILES IDX 6 16 9 17 7 18 8 19 17 20 18 21 19 22 20 23 21 25 22 26
REMARK SMILES IDX 23 27 84 28 24 29 83 30 25 31 26 32 27 33 77 34 28 35 82 36
REMARK SMILES IDX 76 37 78 38 29 39 81 40 75 41 74 42 30 44 62 45 42 46 61 47
REMARK SMILES IDX 43 48 46 49 60 50 79 51 44 52 45 53 59 55 80 56 47 57 31 58
REMARK SMILES IDX 32 59 40 60 33 61 39 62 41 63 38 64 34 65 35 66 36 67 37 68
REMARK SMILES IDX 63 69 64 70 72 71 65 72 71 73 73 74 70 75 66 76 67 77 68 78
REMARK SMILES IDX 69 79 48 80 49 81 57 82 50 83 56 84 58 85 55 86 51 87 52 88
REMARK SMILES IDX 53 89 54 90
REMARK H PARENT 14 6 3 12 3 13 19 24 78 43 46 54
REMARK Flexibility Score: inf
ROOT
ATOM      1  C   UNL A   1      31.436  27.998  27.142  1.00  0.00     0.023 C 
ENDROOT
BRANCH   1   2
ATOM      2  C   UNL A   1      31.148  26.876  26.155  1.00  0.00     0.116 C 
BRANCH   2   3
ATOM      3  N   UNL A   1      30.932  25.593  26.794  1.00  0.00    -0.356 N 
ATOM      4  C   UNL A   1      31.614  24.422  26.669  1.00  0.00     0.228 C 
ATOM      5  O   UNL A   1      31.350  23.516  27.463  1.00  0.00    -0.275 OA
ATOM      6  H   UNL A   1      30.170  25.563  27.416  1.00  0.00     0.163 HD
BRANCH   4   7
ATOM      7  C   UNL A   1      32.662  24.208  25.580  1.00  0.00     0.133 C 
ATOM      8  C   UNL A   1      34.080  24.307  26.147  1.00  0.00     0.024 C 
BRANCH   7   9
ATOM      9  C   UNL A   1      32.311  23.084  24.554  1.00  0.00     0.191 C 
ATOM     10  C   UNL A   1      31.239  23.356  23.493  1.00  0.00     0.076 C 
BRANCH   9  11
ATOM     11  N   UNL A   1      32.197  21.723  25.116  1.00  0.00    -0.343 N 
ATOM     12  H   UNL A   1      31.364  21.291  24.716  1.00  0.00     0.346 HD
ATOM     13  H   UNL A   1      32.164  21.849  26.128  1.00  0.00     0.346 HD
BRANCH  11  14
ATOM     14  C   UNL A   1      33.324  20.823  24.875  1.00  0.00     0.264 C 
BRANCH  14  15
ATOM     15  C   UNL A   1      32.906  19.449  24.336  1.00  0.00     0.044 C 
ATOM     16  C   UNL A   1      32.367  19.473  22.909  1.00  0.00     0.009 C 
ATOM     17  C   UNL A   1      34.007  18.388  24.271  1.00  0.00     0.009 C 
ATOM     18  C   UNL A   1      32.320  17.997  22.538  1.00  0.00     0.001 C 
ATOM     19  C   UNL A   1      33.501  17.354  23.263  1.00  0.00     0.001 C 
ENDBRANCH  14  15
ENDBRANCH  11  14
ENDBRANCH   9  11
ENDBRANCH   7   9
ENDBRANCH   4   7
ENDBRANCH   2   3
ENDBRANCH   1   2
BRANCH   1  20
ATOM     20  C   UNL A   1      32.920  28.290  27.367  1.00  0.00     0.023 C 
BRANCH  20  21
ATOM     21  C   UNL A   1      33.525  29.365  26.469  1.00  0.00     0.116 C 
BRANCH  21  22
ATOM     22  N   UNL A   1      33.492  30.695  27.057  1.00  0.00    -0.352 N 
ATOM     23  C   UNL A   1      34.377  31.276  27.937  1.00  0.00     0.251 C 
ATOM     24  H   UNL A   1      32.730  31.258  26.789  1.00  0.00     0.163 HD
ATOM     25  O   UNL A   1      34.130  32.377  28.414  1.00  0.00    -0.269 OA
BRANCH  23  26
ATOM     26  C   UNL A   1      35.595  30.538  28.331  1.00  0.00     0.039 A 
ATOM     27  C   UNL A   1      36.717  30.599  27.502  1.00  0.00     0.014 A 
ATOM     28  C   UNL A   1      35.645  29.833  29.537  1.00  0.00     0.014 A 
ATOM     29  C   UNL A   1      37.917  30.020  27.922  1.00  0.00     0.010 A 
ATOM     30  C   UNL A   1      36.859  29.325  29.988  1.00  0.00     0.010 A 
ATOM     31  C   UNL A   1      38.010  29.417  29.188  1.00  0.00    -0.014 A 
BRANCH  31  32
ATOM     32  C   UNL A   1      39.302  28.883  29.692  1.00  0.00     0.031 A 
ATOM     33  C   UNL A   1      39.996  29.557  30.844  1.00  0.00     0.074 A 
ATOM     34  C   UNL A   1      39.880  27.838  29.069  1.00  0.00     0.049 A 
ATOM     35  N   UNL A   1      41.158  29.290  31.381  1.00  0.00    -0.248 NA
ATOM     36  C   UNL A   1      39.302  30.703  31.450  1.00  0.00     0.031 C 
ATOM     37  C   UNL A   1      39.331  27.134  27.908  1.00  0.00     0.029 A 
ATOM     38  N   UNL A   1      41.063  27.187  29.317  1.00  0.00    -0.354 N 
ATOM     39  C   UNL A   1      41.344  30.244  32.377  1.00  0.00     0.074 A 
ATOM     40  C   UNL A   1      40.202  31.132  32.321  1.00  0.00     0.031 C 
ATOM     41  C   UNL A   1      40.161  26.136  27.562  1.00  0.00     0.029 A 
ATOM     42  C   UNL A   1      41.321  26.154  28.447  1.00  0.00     0.049 A 
ATOM     43  H   UNL A   1      41.671  27.437  30.051  1.00  0.00     0.167 HD
ATOM     44  C   UNL A   1      42.359  30.354  33.269  1.00  0.00     0.034 A 
ATOM     45  C   UNL A   1      42.377  25.319  28.365  1.00  0.00     0.034 A 
ATOM     46  C   UNL A   1      43.482  29.450  33.320  1.00  0.00     0.049 A 
ATOM     47  C   UNL A   1      43.495  25.461  29.365  1.00  0.00     0.074 A 
ATOM     48  C   UNL A   1      44.536  29.431  34.218  1.00  0.00     0.029 A 
ATOM     49  N   UNL A   1      43.702  28.403  32.432  1.00  0.00    -0.354 N 
ATOM     50  N   UNL A   1      43.628  26.335  30.337  1.00  0.00    -0.248 NA
ATOM     51  C   UNL A   1      44.597  24.496  29.267  1.00  0.00     0.031 C 
ATOM     52  C   UNL A   1      45.420  28.416  33.837  1.00  0.00     0.029 A 
ATOM     53  C   UNL A   1      44.886  27.752  32.745  1.00  0.00     0.049 A 
ATOM     54  H   UNL A   1      43.104  28.160  31.689  1.00  0.00     0.167 HD
ATOM     55  C   UNL A   1      44.816  26.003  30.983  1.00  0.00     0.074 A 
ATOM     56  C   UNL A   1      45.350  24.843  30.301  1.00  0.00     0.031 C 
ATOM     57  C   UNL A   1      45.410  26.602  32.047  1.00  0.00     0.034 A 
BRANCH  44  58
ATOM     58  C   UNL A   1      42.302  31.507  34.243  1.00  0.00     0.023 A 
ATOM     59  C   UNL A   1      41.453  31.486  35.363  1.00  0.00     0.031 A 
ATOM     60  C   UNL A   1      43.079  32.660  34.030  1.00  0.00     0.131 A 
ATOM     61  C   UNL A   1      41.338  32.622  36.178  1.00  0.00     0.055 A 
ATOM     62  C   UNL A   1      43.023  33.756  34.895  1.00  0.00     0.041 A 
ATOM     63  F   UNL A   1      43.894  32.749  32.968  1.00  0.00    -0.206 F 
ATOM     64  C   UNL A   1      42.135  33.747  35.967  1.00  0.00     0.022 A 
BRANCH  61  65
ATOM     65  S   UNL A   1      40.020  32.660  37.425  1.00  0.00     0.124 S 
ATOM     66  O   UNL A   1      39.458  33.993  37.218  1.00  0.00    -0.237 OA
ATOM     67  O   UNL A   1      39.176  31.541  37.027  1.00  0.00    -0.237 OA
ATOM     68  O   UNL A   1      40.738  32.484  38.686  1.00  0.00    -0.744 OA
ENDBRANCH  61  65
ENDBRANCH  44  58
BRANCH  45  69
ATOM     69  C   UNL A   1      42.436  24.276  27.301  1.00  0.00     0.023 A 
ATOM     70  C   UNL A   1      41.652  23.114  27.383  1.00  0.00     0.031 A 
ATOM     71  C   UNL A   1      43.308  24.407  26.206  1.00  0.00     0.131 A 
ATOM     72  C   UNL A   1      41.790  22.106  26.416  1.00  0.00     0.055 A 
ATOM     73  C   UNL A   1      43.405  23.424  25.219  1.00  0.00     0.041 A 
ATOM     74  F   UNL A   1      44.075  25.502  26.075  1.00  0.00    -0.206 F 
ATOM     75  C   UNL A   1      42.652  22.259  25.328  1.00  0.00     0.022 A 
BRANCH  72  76
ATOM     76  S   UNL A   1      40.879  20.554  26.643  1.00  0.00     0.124 S 
ATOM     77  O   UNL A   1      40.817  20.457  28.097  1.00  0.00    -0.237 OA
ATOM     78  O   UNL A   1      39.621  20.840  25.964  1.00  0.00    -0.237 OA
ATOM     79  O   UNL A   1      41.729  19.563  25.986  1.00  0.00    -0.744 OA
ENDBRANCH  72  76
ENDBRANCH  45  69
BRANCH  57  80
ATOM     80  C   UNL A   1      46.683  25.975  32.560  1.00  0.00     0.023 A 
ATOM     81  C   UNL A   1      46.670  24.979  33.554  1.00  0.00     0.031 A 
ATOM     82  C   UNL A   1      47.929  26.394  32.060  1.00  0.00     0.131 A 
ATOM     83  C   UNL A   1      47.881  24.478  34.056  1.00  0.00     0.055 A 
ATOM     84  C   UNL A   1      49.127  25.849  32.521  1.00  0.00     0.041 A 
ATOM     85  F   UNL A   1      47.999  27.343  31.112  1.00  0.00    -0.206 F 
ATOM     86  C   UNL A   1      49.108  24.895  33.534  1.00  0.00     0.022 A 
BRANCH  83  87
ATOM     87  S   UNL A   1      47.832  23.341  35.468  1.00  0.00     0.124 S 
ATOM     88  O   UNL A   1      48.641  24.049  36.456  1.00  0.00    -0.237 OA
ATOM     89  O   UNL A   1      46.404  23.258  35.754  1.00  0.00    -0.237 OA
ATOM     90  O   UNL A   1      48.431  22.115  34.941  1.00  0.00    -0.744 OA
ENDBRANCH  83  87
ENDBRANCH  57  80
ENDBRANCH  31  32
ENDBRANCH  23  26
ENDBRANCH  21  22
ENDBRANCH  20  21
ENDBRANCH   1  20
TORSDOF 18
ENDMDL
MODEL 2
REMARK VINA RESULT:     -10.6      3.899      9.494
REMARK SMILES C[C@H]([NH2+]CC1CCCC1)[C@H](C)C(=O)NCCCCNC(=O)c1ccc(-c2c3nc(c(-c4cc(S(=O)(=O)[O-])ccc4F)c4ccc([nH]4)c(-c4cc(S(=O)(=O)[O-])ccc4F)c4nc(c(-c5cc(S(=O)(=O)[O-])ccc5F)c5ccc2[nH]5)C=C4)C=C3)cc1
REMARK SMILES IDX 16 1 15 2 14 3 12 4 13 5 10 7 11 8 2 9 1 10 3 11 4 14 5 15
REMARK SMILES IDX 6 16 9 17 7 18 8 19 17 20 18 21 19 22 20 23 21 25 22 26
REMARK SMILES IDX 23 27 84 28 24 29 83 30 25 31 26 32 27 33 77 34 28 35 82 36
REMARK SMILES IDX 76 37 78 38 29 39 81 40 75 41 74 42 30 44 62 45 42 46 61 47
REMARK SMILES IDX 43 48 46 49 60 50 79 51 44 52 45 53 59 55 80 56 47 57 31 58
REMARK SMILES IDX 32 59 40 60 33 61 39 62 41 63 38 64 34 65 35 66 36 67 37 68
REMARK SMILES IDX 63 69 64 70 72 71 65 72 71 73 73 74 70 75 66 76 67 77 68 78
REMARK SMILES IDX 69 79 48 80 49 81 57 82 50 83 56 84 58 85 55 86 51 87 52 88
REMARK SMILES IDX 53 89 54 90
REMARK H PARENT 14 6 3 12 3 13 19 24 78 43 46 54
REMARK Flexibility Score: inf
ROOT
ATOM      1  C   UNL A   1      32.266  30.221  26.236  1.00  0.00     0.023 C 
ENDROOT
BRANCH   1   2
ATOM      2  C   UNL A   1      32.413  29.096  27.250  1.00  0.00     0.116 C 
BRANCH   2   3
ATOM      3  N   UNL A   1      31.387  28.079  27.130  1.00  0.00    -0.356 N 
ATOM      4  C   UNL A   1      31.308  27.002  26.302  1.00  0.00     0.228 C 
ATOM      5  O   UNL A   1      30.419  26.174  26.521  1.00  0.00    -0.275 OA
ATOM      6  H   UNL A   1      30.625  28.185  27.746  1.00  0.00     0.163 HD
BRANCH   4   7
ATOM      7  C   UNL A   1      32.262  26.812  25.127  1.00  0.00     0.133 C 
ATOM      8  C   UNL A   1      33.167  25.596  25.336  1.00  0.00     0.024 C 
BRANCH   7   9
ATOM      9  C   UNL A   1      31.625  27.076  23.725  1.00  0.00     0.191 C 
ATOM     10  C   UNL A   1      32.545  27.386  22.538  1.00  0.00     0.076 C 
BRANCH   9  11
ATOM     11  N   UNL A   1      30.419  27.928  23.725  1.00  0.00    -0.343 N 
ATOM     12  H   UNL A   1      30.523  28.614  24.472  1.00  0.00     0.346 HD
ATOM     13  H   UNL A   1      29.635  27.286  23.846  1.00  0.00     0.346 HD
BRANCH  11  14
ATOM     14  C   UNL A   1      30.136  28.655  22.489  1.00  0.00     0.264 C 
BRANCH  14  15
ATOM     15  C   UNL A   1      29.560  30.058  22.721  1.00  0.00     0.044 C 
ATOM     16  C   UNL A   1      29.119  30.773  21.448  1.00  0.00     0.009 C 
ATOM     17  C   UNL A   1      28.317  30.136  23.609  1.00  0.00     0.009 C 
ATOM     18  C   UNL A   1      28.339  31.967  21.981  1.00  0.00     0.001 C 
ATOM     19  C   UNL A   1      27.668  31.478  23.264  1.00  0.00     0.001 C 
ENDBRANCH  14  15
ENDBRANCH  11  14
ENDBRANCH   9  11
ENDBRANCH   7   9
ENDBRANCH   4   7
ENDBRANCH   2   3
ENDBRANCH   1   2
BRANCH   1  20
ATOM     20  C   UNL A   1      31.854  31.568  26.827  1.00  0.00     0.023 C 
BRANCH  20  21
ATOM     21  C   UNL A   1      32.990  32.422  27.381  1.00  0.00     0.116 C 
BRANCH  21  22
ATOM     22  N   UNL A   1      32.608  33.803  27.630  1.00  0.00    -0.352 N 
ATOM     23  C   UNL A   1      33.135  34.699  28.531  1.00  0.00     0.251 C 
ATOM     24  H   UNL A   1      31.868  34.144  27.076  1.00  0.00     0.163 HD
ATOM     25  O   UNL A   1      32.612  35.797  28.678  1.00  0.00    -0.269 OA
BRANCH  23  26
ATOM     26  C   UNL A   1      34.302  34.304  29.347  1.00  0.00     0.039 A 
ATOM     27  C   UNL A   1      34.084  33.710  30.592  1.00  0.00     0.014 A 
ATOM     28  C   UNL A   1      35.603  34.472  28.863  1.00  0.00     0.014 A 
ATOM     29  C   UNL A   1      35.168  33.209  31.316  1.00  0.00     0.010 A 
ATOM     30  C   UNL A   1      36.672  33.904  29.549  1.00  0.00     0.010 A 
ATOM     31  C   UNL A   1      36.466  33.262  30.780  1.00  0.00    -0.014 A 
BRANCH  31  32
ATOM     32  C   UNL A   1      37.617  32.648  31.492  1.00  0.00     0.031 A 
ATOM     33  C   UNL A   1      38.351  31.489  30.875  1.00  0.00     0.074 A 
ATOM     34  C   UNL A   1      37.955  33.088  32.720  1.00  0.00     0.049 A 
ATOM     35  N   UNL A   1      39.329  30.772  31.365  1.00  0.00    -0.248 NA
ATOM     36  C   UNL A   1      37.901  31.061  29.542  1.00  0.00     0.031 C 
ATOM     37  C   UNL A   1      37.285  34.170  33.445  1.00  0.00     0.029 A 
ATOM     38  N   UNL A   1      38.941  32.677  33.581  1.00  0.00    -0.354 N 
ATOM     39  C   UNL A   1      39.601  29.797  30.410  1.00  0.00     0.074 A 
ATOM     40  C   UNL A   1      38.640  29.980  29.343  1.00  0.00     0.031 C 
ATOM     41  C   UNL A   1      37.894  34.352  34.628  1.00  0.00     0.029 A 
ATOM     42  C   UNL A   1      38.970  33.375  34.766  1.00  0.00     0.049 A 
ATOM     43  H   UNL A   1      39.570  31.948  33.371  1.00  0.00     0.167 HD
ATOM     44  C   UNL A   1      40.577  28.856  30.411  1.00  0.00     0.034 A 
ATOM     45  C   UNL A   1      39.767  33.240  35.845  1.00  0.00     0.034 A 
ATOM     46  C   UNL A   1      41.537  28.699  31.476  1.00  0.00     0.049 A 
ATOM     47  C   UNL A   1      40.843  32.186  35.825  1.00  0.00     0.074 A 
ATOM     48  C   UNL A   1      42.603  27.818  31.555  1.00  0.00     0.029 A 
ATOM     49  N   UNL A   1      41.546  29.436  32.655  1.00  0.00    -0.354 N 
ATOM     50  N   UNL A   1      41.124  31.308  34.888  1.00  0.00    -0.248 NA
ATOM     51  C   UNL A   1      41.719  32.112  37.002  1.00  0.00     0.031 C 
ATOM     52  C   UNL A   1      43.216  27.982  32.803  1.00  0.00     0.029 A 
ATOM     53  C   UNL A   1      42.581  29.013  33.475  1.00  0.00     0.049 A 
ATOM     54  H   UNL A   1      40.910  30.155  32.874  1.00  0.00     0.167 HD
ATOM     55  C   UNL A   1      42.228  30.599  35.353  1.00  0.00     0.074 A 
ATOM     56  C   UNL A   1      42.570  31.161  36.643  1.00  0.00     0.031 C 
ATOM     57  C   UNL A   1      42.901  29.577  34.765  1.00  0.00     0.034 A 
BRANCH  44  58
ATOM     58  C   UNL A   1      40.632  27.915  29.230  1.00  0.00     0.023 A 
ATOM     59  C   UNL A   1      41.567  28.085  28.195  1.00  0.00     0.031 A 
ATOM     60  C   UNL A   1      39.714  26.855  29.118  1.00  0.00     0.131 A 
ATOM     61  C   UNL A   1      41.511  27.266  27.057  1.00  0.00     0.055 A 
ATOM     62  C   UNL A   1      39.719  25.989  28.023  1.00  0.00     0.041 A 
ATOM     63  F   UNL A   1      38.784  26.654  30.065  1.00  0.00    -0.206 F 
ATOM     64  C   UNL A   1      40.610  26.203  26.975  1.00  0.00     0.022 A 
BRANCH  61  65
ATOM     65  S   UNL A   1      42.532  27.707  25.624  1.00  0.00     0.124 S 
ATOM     66  O   UNL A   1      41.966  29.000  25.246  1.00  0.00    -0.237 OA
ATOM     67  O   UNL A   1      43.875  27.738  26.191  1.00  0.00    -0.237 OA
ATOM     68  O   UNL A   1      42.279  26.622  24.677  1.00  0.00    -0.744 OA
ENDBRANCH  61  65
ENDBRANCH  44  58
BRANCH  45  69
ATOM     69  C   UNL A   1      39.585  34.119  37.036  1.00  0.00     0.023 A 
ATOM     70  C   UNL A   1      39.022  33.622  38.221  1.00  0.00     0.031 A 
ATOM     71  C   UNL A   1      39.936  35.480  36.991  1.00  0.00     0.131 A 
ATOM     72  C   UNL A   1      38.780  34.489  39.298  1.00  0.00     0.055 A 
ATOM     73  C   UNL A   1      39.739  36.328  38.083  1.00  0.00     0.041 A 
ATOM     74  F   UNL A   1      40.485  36.004  35.883  1.00  0.00    -0.206 F 
ATOM     75  C   UNL A   1      39.146  35.835  39.241  1.00  0.00     0.022 A 
BRANCH  72  76
ATOM     76  S   UNL A   1      37.905  33.846  40.751  1.00  0.00     0.124 S 
ATOM     77  O   UNL A   1      37.679  35.062  41.525  1.00  0.00    -0.237 OA
ATOM     78  O   UNL A   1      36.723  33.239  40.149  1.00  0.00    -0.237 OA
ATOM     79  O   UNL A   1      38.860  32.903  41.332  1.00  0.00    -0.744 OA
ENDBRANCH  72  76
ENDBRANCH  45  69
BRANCH  57  80
ATOM     80  C   UNL A   1      44.104  29.039  35.500  1.00  0.00     0.023 A 
ATOM     81  C   UNL A   1      43.974  28.150  36.583  1.00  0.00     0.031 A 
ATOM     82  C   UNL A   1      45.399  29.438  35.124  1.00  0.00     0.131 A 
ATOM     83  C   UNL A   1      45.114  27.734  37.287  1.00  0.00     0.055 A 
ATOM     84  C   UNL A   1      46.534  28.973  35.789  1.00  0.00     0.041 A 
ATOM     85  F   UNL A   1      45.581  30.286  34.099  1.00  0.00    -0.206 F 
ATOM     86  C   UNL A   1      46.394  28.128  36.886  1.00  0.00     0.022 A 
BRANCH  83  87
ATOM     87  S   UNL A   1      44.896  26.747  38.791  1.00  0.00     0.124 S 
ATOM     88  O   UNL A   1      43.549  26.214  38.613  1.00  0.00    -0.237 OA
ATOM     89  O   UNL A   1      45.984  25.779  38.691  1.00  0.00    -0.237 OA
ATOM     90  O   UNL A   1      45.037  27.726  39.868  1.00  0.00    -0.744 OA
ENDBRANCH  83  87
ENDBRANCH  57  80
ENDBRANCH  31  32
ENDBRANCH  23  26
ENDBRANCH  21  22
ENDBRANCH  20  21
ENDBRANCH   1  20
TORSDOF 18
ENDMDL
MODEL 3
REMARK VINA RESULT:     -10.6      2.720      4.270
REMARK SMILES C[C@H]([NH2+]CC1CCCC1)[C@H](C)C(=O)NCCCCNC(=O)c1ccc(-c2c3nc(c(-c4cc(S(=O)(=O)[O-])ccc4F)c4ccc([nH]4)c(-c4cc(S(=O)(=O)[O-])ccc4F)c4nc(c(-c5cc(S(=O)(=O)[O-])ccc5F)c5ccc2[nH]5)C=C4)C=C3)cc1
REMARK SMILES IDX 16 1 15 2 14 3 12 4 13 5 10 7 11 8 2 9 1 10 3 11 4 14 5 15
REMARK SMILES IDX 6 16 9 17 7 18 8 19 17 20 18 21 19 22 20 23 21 25 22 26
REMARK SMILES IDX 23 27 84 28 24 29 83 30 25 31 26 32 27 33 77 34 28 35 82 36
REMARK SMILES IDX 76 37 78 38 29 39 81 40 75 41 74 42 30 44 62 45 42 46 61 47
REMARK SMILES IDX 43 48 46 49 60 50 79 51 44 52 45 53 59 55 80 56 47 57 31 58
REMARK SMILES IDX 32 59 40 60 33 61 39 62 41 63 38 64 34 65 35 66 36 67 37 68
REMARK SMILES IDX 63 69 64 70 72 71 65 72 71 73 73 74 70 75 66 76 67 77 68 78
REMARK SMILES IDX 69 79 48 80 49 81 57 82 50 83 56 84 58 85 55 86 51 87 52 88
REMARK SMILES IDX 53 89 54 90
REMARK H PARENT 14 6 3 12 3 13 19 24 78 43 46 54
REMARK Flexibility Score: inf
ROOT
ATOM      1  C   UNL A   1      31.085  27.953  25.862  1.00  0.00     0.023 C 
ENDROOT
BRANCH   1   2
ATOM      2  C   UNL A   1      31.281  26.458  26.068  1.00  0.00     0.116 C 
BRANCH   2   3
ATOM      3  N   UNL A   1      30.868  25.663  24.929  1.00  0.00    -0.356 N 
ATOM      4  C   UNL A   1      31.549  25.320  23.802  1.00  0.00     0.228 C 
ATOM      5  O   UNL A   1      31.042  24.475  23.059  1.00  0.00    -0.275 OA
ATOM      6  H   UNL A   1      29.947  25.317  24.977  1.00  0.00     0.163 HD
BRANCH   4   7
ATOM      7  C   UNL A   1      32.887  25.958  23.439  1.00  0.00     0.133 C 
ATOM      8  C   UNL A   1      33.956  24.895  23.177  1.00  0.00     0.024 C 
BRANCH   7   9
ATOM      9  C   UNL A   1      32.779  27.201  22.500  1.00  0.00     0.191 C 
ATOM     10  C   UNL A   1      33.728  28.384  22.722  1.00  0.00     0.076 C 
BRANCH   9  11
ATOM     11  N   UNL A   1      31.406  27.647  22.189  1.00  0.00    -0.343 N 
ATOM     12  H   UNL A   1      30.762  27.056  22.714  1.00  0.00     0.346 HD
ATOM     13  H   UNL A   1      31.320  27.569  21.174  1.00  0.00     0.346 HD
BRANCH  11  14
ATOM     14  C   UNL A   1      31.087  29.039  22.499  1.00  0.00     0.264 C 
BRANCH  14  15
ATOM     15  C   UNL A   1      29.586  29.351  22.445  1.00  0.00     0.044 C 
ATOM     16  C   UNL A   1      28.696  28.250  23.015  1.00  0.00     0.009 C 
ATOM     17  C   UNL A   1      29.129  30.595  23.209  1.00  0.00     0.009 C 
ATOM     18  C   UNL A   1      27.336  28.928  23.110  1.00  0.00     0.001 C 
ATOM     19  C   UNL A   1      27.630  30.392  23.434  1.00  0.00     0.001 C 
ENDBRANCH  14  15
ENDBRANCH  11  14
ENDBRANCH   9  11
ENDBRANCH   7   9
ENDBRANCH   4   7
ENDBRANCH   2   3
ENDBRANCH   1   2
BRANCH   1  20
ATOM     20  C   UNL A   1      31.963  28.843  26.741  1.00  0.00     0.023 C 
BRANCH  20  21
ATOM     21  C   UNL A   1      32.835  29.850  25.998  1.00  0.00     0.116 C 
BRANCH  21  22
ATOM     22  N   UNL A   1      32.627  31.224  26.429  1.00  0.00    -0.352 N 
ATOM     23  C   UNL A   1      33.386  31.987  27.287  1.00  0.00     0.251 C 
ATOM     24  H   UNL A   1      31.833  31.670  26.055  1.00  0.00     0.163 HD
ATOM     25  O   UNL A   1      32.997  33.099  27.622  1.00  0.00    -0.269 OA
BRANCH  23  26
ATOM     26  C   UNL A   1      34.641  31.431  27.833  1.00  0.00     0.039 A 
ATOM     27  C   UNL A   1      35.733  32.282  28.013  1.00  0.00     0.014 A 
ATOM     28  C   UNL A   1      34.723  30.088  28.212  1.00  0.00     0.014 A 
ATOM     29  C   UNL A   1      36.882  31.806  28.649  1.00  0.00     0.010 A 
ATOM     30  C   UNL A   1      35.836  29.637  28.915  1.00  0.00     0.010 A 
ATOM     31  C   UNL A   1      36.926  30.492  29.145  1.00  0.00    -0.014 A 
BRANCH  31  32
ATOM     32  C   UNL A   1      38.100  29.998  29.911  1.00  0.00     0.031 A 
ATOM     33  C   UNL A   1      38.343  30.487  31.313  1.00  0.00     0.074 A 
ATOM     34  C   UNL A   1      38.981  29.168  29.319  1.00  0.00     0.049 A 
ATOM     35  N   UNL A   1      39.344  30.233  32.116  1.00  0.00    -0.248 NA
ATOM     36  C   UNL A   1      37.342  31.408  31.871  1.00  0.00     0.031 C 
ATOM     37  C   UNL A   1      38.882  28.667  27.947  1.00  0.00     0.029 A 
ATOM     38  N   UNL A   1      40.139  28.602  29.792  1.00  0.00    -0.354 N 
ATOM     39  C   UNL A   1      39.103  30.975  33.268  1.00  0.00     0.074 A 
ATOM     40  C   UNL A   1      37.895  31.736  33.028  1.00  0.00     0.031 C 
ATOM     41  C   UNL A   1      39.919  27.851  27.698  1.00  0.00     0.029 A 
ATOM     42  C   UNL A   1      40.780  27.802  28.876  1.00  0.00     0.049 A 
ATOM     43  H   UNL A   1      40.479  28.756  30.704  1.00  0.00     0.167 HD
ATOM     44  C   UNL A   1      39.809  31.001  34.426  1.00  0.00     0.034 A 
ATOM     45  C   UNL A   1      41.935  27.113  28.970  1.00  0.00     0.034 A 
ATOM     46  C   UNL A   1      41.002  30.223  34.653  1.00  0.00     0.049 A 
ATOM     47  C   UNL A   1      42.705  27.157  30.264  1.00  0.00     0.074 A 
ATOM     48  C   UNL A   1      41.764  30.126  35.805  1.00  0.00     0.029 A 
ATOM     49  N   UNL A   1      41.615  29.410  33.706  1.00  0.00    -0.354 N 
ATOM     50  N   UNL A   1      42.432  27.821  31.365  1.00  0.00    -0.248 NA
ATOM     51  C   UNL A   1      43.929  26.350  30.335  1.00  0.00     0.031 C 
ATOM     52  C   UNL A   1      42.865  29.306  35.536  1.00  0.00     0.029 A 
ATOM     53  C   UNL A   1      42.756  28.831  34.240  1.00  0.00     0.049 A 
ATOM     54  H   UNL A   1      41.285  29.266  32.790  1.00  0.00     0.167 HD
ATOM     55  C   UNL A   1      43.438  27.485  32.267  1.00  0.00     0.074 A 
ATOM     56  C   UNL A   1      44.310  26.550  31.588  1.00  0.00     0.031 C 
ATOM     57  C   UNL A   1      43.622  27.908  33.544  1.00  0.00     0.034 A 
BRANCH  44  58
ATOM     58  C   UNL A   1      39.312  31.917  35.519  1.00  0.00     0.023 A 
ATOM     59  C   UNL A   1      39.770  33.241  35.636  1.00  0.00     0.031 A 
ATOM     60  C   UNL A   1      38.397  31.452  36.480  1.00  0.00     0.131 A 
ATOM     61  C   UNL A   1      39.380  34.024  36.733  1.00  0.00     0.055 A 
ATOM     62  C   UNL A   1      37.945  32.265  37.522  1.00  0.00     0.041 A 
ATOM     63  F   UNL A   1      37.938  30.191  36.433  1.00  0.00    -0.206 F 
ATOM     64  C   UNL A   1      38.451  33.554  37.663  1.00  0.00     0.022 A 
BRANCH  61  65
ATOM     65  S   UNL A   1      40.221  35.607  37.007  1.00  0.00     0.124 S 
ATOM     66  O   UNL A   1      39.631  36.439  35.961  1.00  0.00    -0.237 OA
ATOM     67  O   UNL A   1      39.840  35.934  38.376  1.00  0.00    -0.237 OA
ATOM     68  O   UNL A   1      41.634  35.283  36.812  1.00  0.00    -0.744 OA
ENDBRANCH  61  65
ENDBRANCH  44  58
BRANCH  45  69
ATOM     69  C   UNL A   1      42.441  26.323  27.811  1.00  0.00     0.023 A 
ATOM     70  C   UNL A   1      42.218  24.939  27.726  1.00  0.00     0.031 A 
ATOM     71  C   UNL A   1      43.191  26.934  26.790  1.00  0.00     0.131 A 
ATOM     72  C   UNL A   1      42.779  24.203  26.671  1.00  0.00     0.055 A 
ATOM     73  C   UNL A   1      43.705  26.205  25.716  1.00  0.00     0.041 A 
ATOM     74  F   UNL A   1      43.427  28.255  26.818  1.00  0.00    -0.206 F 
ATOM     75  C   UNL A   1      43.510  24.828  25.660  1.00  0.00     0.022 A 
BRANCH  72  76
ATOM     76  S   UNL A   1      42.604  22.397  26.684  1.00  0.00     0.124 S 
ATOM     77  O   UNL A   1      43.926  21.967  26.244  1.00  0.00    -0.237 OA
ATOM     78  O   UNL A   1      42.274  22.135  28.080  1.00  0.00    -0.237 OA
ATOM     79  O   UNL A   1      41.520  22.155  25.733  1.00  0.00    -0.744 OA
ENDBRANCH  72  76
ENDBRANCH  45  69
BRANCH  57  80
ATOM     80  C   UNL A   1      44.790  27.320  34.297  1.00  0.00     0.023 A 
ATOM     81  C   UNL A   1      44.721  26.049  34.895  1.00  0.00     0.031 A 
ATOM     82  C   UNL A   1      45.983  28.052  34.433  1.00  0.00     0.131 A 
ATOM     83  C   UNL A   1      45.804  25.573  35.650  1.00  0.00     0.055 A 
ATOM     84  C   UNL A   1      47.079  27.548  35.135  1.00  0.00     0.041 A 
ATOM     85  F   UNL A   1      46.102  29.271  33.883  1.00  0.00    -0.206 F 
ATOM     86  C   UNL A   1      46.988  26.308  35.760  1.00  0.00     0.022 A 
BRANCH  83  87
ATOM     87  S   UNL A   1      45.610  24.020  36.567  1.00  0.00     0.124 S 
ATOM     88  O   UNL A   1      44.550  23.354  35.816  1.00  0.00    -0.237 OA
ATOM     89  O   UNL A   1      46.938  23.425  36.459  1.00  0.00    -0.237 OA
ATOM     90  O   UNL A   1      45.236  24.460  37.910  1.00  0.00    -0.744 OA
ENDBRANCH  83  87
ENDBRANCH  57  80
ENDBRANCH  31  32
ENDBRANCH  23  26
ENDBRANCH  21  22
ENDBRANCH  20  21
ENDBRANCH   1  20
TORSDOF 18
ENDMDL
