MODEL 1
REMARK VINA RESULT:     -12.4      0.000      0.000
REMARK SMILES O=C(NCCCCNC(=O)c1cccc(Nc2ccc([N+](=O)[O-])cc2)c1)c1ccc(-c2c3nc(c(-c4cc(S(=O)(=O)[O-])ccc4F)c4ccc([nH]4)c(-c4cc(S(=O)(=O)[O-])ccc4F)c4nc(c(-c5cc(S(=O)(=O)[O-])ccc5F)c5ccc2[nH]5)C=C4)C=C3)cc1
REMARK SMILES IDX 5 1 4 2 3 3 1 4 2 5 27 7 28 8 89 9 29 10 88 11 30 12 31 13
REMARK SMILES IDX 32 14 82 15 33 16 87 17 81 18 83 19 34 20 86 21 80 22 79 23
REMARK SMILES IDX 35 25 67 26 47 27 66 28 48 29 51 30 65 31 84 32 49 33 50 34
REMARK SMILES IDX 64 36 85 37 52 38 36 39 37 40 45 41 38 42 44 43 46 44 43 45
REMARK SMILES IDX 39 46 40 47 41 48 42 49 68 50 69 51 77 52 70 53 76 54 78 55
REMARK SMILES IDX 75 56 71 57 72 58 73 59 74 60 53 61 54 62 62 63 55 64 61 65
REMARK SMILES IDX 63 66 60 67 56 68 57 69 58 70 59 71 6 72 7 73 8 74 9 75
REMARK SMILES IDX 10 77 11 78 12 79 26 80 13 81 15 82 14 83 16 84 17 86 18 87
REMARK SMILES IDX 25 88 19 89 24 90 20 91 21 92 22 93 23 94
REMARK H PARENT 3 6 83 24 51 35 8 76 16 85
REMARK Flexibility Score: inf
ROOT
ATOM      1  C   UNL A   1      31.415  32.118  26.636  1.00  0.00     0.023 C 
ENDROOT
BRANCH   1   2
ATOM      2  C   UNL A   1      32.727  32.632  27.214  1.00  0.00     0.116 C 
BRANCH   2   3
ATOM      3  N   UNL A   1      32.635  34.001  27.702  1.00  0.00    -0.352 N 
ATOM      4  O   UNL A   1      33.048  35.749  29.064  1.00  0.00    -0.269 OA
ATOM      5  C   UNL A   1      33.366  34.625  28.684  1.00  0.00     0.251 C 
ATOM      6  H   UNL A   1      31.951  34.559  27.266  1.00  0.00     0.163 HD
BRANCH   5   7
ATOM      7  C   UNL A   1      34.519  33.929  29.296  1.00  0.00     0.039 A 
ATOM      8  C   UNL A   1      34.319  32.894  30.212  1.00  0.00     0.014 A 
ATOM      9  C   UNL A   1      35.814  34.330  28.960  1.00  0.00     0.014 A 
ATOM     10  C   UNL A   1      35.404  32.368  30.906  1.00  0.00     0.010 A 
ATOM     11  C   UNL A   1      36.908  33.733  29.593  1.00  0.00     0.010 A 
ATOM     12  C   UNL A   1      36.711  32.772  30.596  1.00  0.00    -0.014 A 
BRANCH  12  13
ATOM     13  C   UNL A   1      37.862  32.151  31.305  1.00  0.00     0.031 A 
ATOM     14  C   UNL A   1      38.660  31.049  30.666  1.00  0.00     0.074 A 
ATOM     15  C   UNL A   1      38.186  32.598  32.535  1.00  0.00     0.049 A 
ATOM     16  N   UNL A   1      39.659  30.360  31.158  1.00  0.00    -0.248 NA
ATOM     17  C   UNL A   1      38.280  30.662  29.301  1.00  0.00     0.031 C 
ATOM     18  C   UNL A   1      37.490  33.669  33.250  1.00  0.00     0.029 A 
ATOM     19  N   UNL A   1      39.181  32.214  33.398  1.00  0.00    -0.354 N 
ATOM     20  C   UNL A   1      40.017  29.445  30.172  1.00  0.00     0.074 A 
ATOM     21  C   UNL A   1      39.098  29.646  29.069  1.00  0.00     0.031 C 
ATOM     22  C   UNL A   1      38.095  33.876  34.428  1.00  0.00     0.029 A 
ATOM     23  C   UNL A   1      39.170  32.904  34.586  1.00  0.00     0.049 A 
ATOM     24  H   UNL A   1      39.838  31.513  33.186  1.00  0.00     0.167 HD
ATOM     25  C   UNL A   1      41.021  28.532  30.186  1.00  0.00     0.034 A 
ATOM     26  C   UNL A   1      39.914  32.750  35.699  1.00  0.00     0.034 A 
ATOM     27  C   UNL A   1      41.921  28.346  31.302  1.00  0.00     0.049 A 
ATOM     28  C   UNL A   1      40.978  31.686  35.718  1.00  0.00     0.074 A 
ATOM     29  C   UNL A   1      42.988  27.470  31.413  1.00  0.00     0.029 A 
ATOM     30  N   UNL A   1      41.853  29.037  32.507  1.00  0.00    -0.354 N 
ATOM     31  N   UNL A   1      41.310  30.834  34.776  1.00  0.00    -0.248 NA
ATOM     32  C   UNL A   1      41.769  31.565  36.948  1.00  0.00     0.031 C 
ATOM     33  C   UNL A   1      43.510  27.572  32.707  1.00  0.00     0.029 A 
ATOM     34  C   UNL A   1      42.833  28.579  33.377  1.00  0.00     0.049 A 
ATOM     35  H   UNL A   1      41.204  29.747  32.713  1.00  0.00     0.167 HD
ATOM     36  C   UNL A   1      42.370  30.096  35.289  1.00  0.00     0.074 A 
ATOM     37  C   UNL A   1      42.626  30.610  36.620  1.00  0.00     0.031 C 
ATOM     38  C   UNL A   1      43.073  29.089  34.709  1.00  0.00     0.034 A 
BRANCH  25  39
ATOM     39  C   UNL A   1      41.160  27.631  28.980  1.00  0.00     0.023 A 
ATOM     40  C   UNL A   1      42.166  27.825  28.017  1.00  0.00     0.031 A 
ATOM     41  C   UNL A   1      40.249  26.580  28.769  1.00  0.00     0.131 A 
ATOM     42  C   UNL A   1      42.187  27.041  26.853  1.00  0.00     0.055 A 
ATOM     43  C   UNL A   1      40.329  25.745  27.652  1.00  0.00     0.041 A 
ATOM     44  F   UNL A   1      39.252  26.354  29.638  1.00  0.00    -0.206 F 
ATOM     45  C   UNL A   1      41.291  25.985  26.675  1.00  0.00     0.022 A 
BRANCH  42  46
ATOM     46  S   UNL A   1      43.291  27.531  25.499  1.00  0.00     0.124 S 
ATOM     47  O   UNL A   1      42.364  28.201  24.589  1.00  0.00    -0.237 OA
ATOM     48  O   UNL A   1      44.256  28.390  26.174  1.00  0.00    -0.237 OA
ATOM     49  O   UNL A   1      43.820  26.259  25.010  1.00  0.00    -0.744 OA
ENDBRANCH  42  46
ENDBRANCH  25  39
BRANCH  26  50
ATOM     50  C   UNL A   1      39.649  33.601  36.893  1.00  0.00     0.023 A 
ATOM     51  C   UNL A   1      39.056  33.068  38.047  1.00  0.00     0.031 A 
ATOM     52  C   UNL A   1      39.982  34.968  36.890  1.00  0.00     0.131 A 
ATOM     53  C   UNL A   1      38.781  33.905  39.139  1.00  0.00     0.055 A 
ATOM     54  C   UNL A   1      39.758  35.784  37.999  1.00  0.00     0.041 A 
ATOM     55  F   UNL A   1      40.556  35.526  35.812  1.00  0.00    -0.206 F 
ATOM     56  C   UNL A   1      39.144  35.256  39.130  1.00  0.00     0.022 A 
BRANCH  53  57
ATOM     57  S   UNL A   1      37.877  33.219  40.552  1.00  0.00     0.124 S 
ATOM     58  O   UNL A   1      38.476  31.894  40.672  1.00  0.00    -0.237 OA
ATOM     59  O   UNL A   1      38.202  34.168  41.611  1.00  0.00    -0.237 OA
ATOM     60  O   UNL A   1      36.485  33.238  40.106  1.00  0.00    -0.744 OA
ENDBRANCH  53  57
ENDBRANCH  26  50
BRANCH  38  61
ATOM     61  C   UNL A   1      44.227  28.516  35.496  1.00  0.00     0.023 A 
ATOM     62  C   UNL A   1      44.051  27.489  36.439  1.00  0.00     0.031 A 
ATOM     63  C   UNL A   1      45.527  29.018  35.302  1.00  0.00     0.131 A 
ATOM     64  C   UNL A   1      45.146  27.032  37.189  1.00  0.00     0.055 A 
ATOM     65  C   UNL A   1      46.622  28.517  36.005  1.00  0.00     0.041 A 
ATOM     66  F   UNL A   1      45.754  30.005  34.420  1.00  0.00    -0.206 F 
ATOM     67  C   UNL A   1      46.434  27.527  36.964  1.00  0.00     0.022 A 
BRANCH  64  68
ATOM     68  S   UNL A   1      44.854  25.849  38.532  1.00  0.00     0.124 S 
ATOM     69  O   UNL A   1      44.070  26.645  39.473  1.00  0.00    -0.237 OA
ATOM     70  O   UNL A   1      44.135  24.776  37.852  1.00  0.00    -0.237 OA
ATOM     71  O   UNL A   1      46.199  25.503  38.985  1.00  0.00    -0.744 OA
ENDBRANCH  64  68
ENDBRANCH  38  61
ENDBRANCH  12  13
ENDBRANCH   5   7
ENDBRANCH   2   3
ENDBRANCH   1   2
BRANCH   1  72
ATOM     72  C   UNL A   1      31.442  30.673  26.149  1.00  0.00     0.023 C 
BRANCH  72  73
ATOM     73  C   UNL A   1      32.265  29.714  27.003  1.00  0.00     0.116 C 
BRANCH  73  74
ATOM     74  N   UNL A   1      33.316  29.049  26.249  1.00  0.00    -0.352 N 
ATOM     75  C   UNL A   1      33.258  27.884  25.532  1.00  0.00     0.251 C 
ATOM     76  H   UNL A   1      34.191  29.501  26.254  1.00  0.00     0.163 HD
ATOM     77  O   UNL A   1      34.279  27.383  25.060  1.00  0.00    -0.269 OA
BRANCH  75  78
ATOM     78  C   UNL A   1      31.963  27.208  25.333  1.00  0.00     0.041 A 
ATOM     79  C   UNL A   1      31.646  26.116  26.139  1.00  0.00     0.014 A 
ATOM     80  C   UNL A   1      31.078  27.642  24.339  1.00  0.00     0.039 A 
ATOM     81  C   UNL A   1      30.412  25.493  25.985  1.00  0.00     0.003 A 
ATOM     82  C   UNL A   1      29.829  27.034  24.181  1.00  0.00     0.039 A 
ATOM     83  C   UNL A   1      29.509  25.960  25.024  1.00  0.00     0.026 A 
BRANCH  82  84
ATOM     84  N   UNL A   1      28.945  27.547  23.216  1.00  0.00    -0.356 N 
ATOM     85  H   UNL A   1      28.404  26.872  22.747  1.00  0.00     0.167 HD
BRANCH  84  86
ATOM     86  C   UNL A   1      28.710  28.872  22.817  1.00  0.00     0.039 A 
ATOM     87  C   UNL A   1      27.627  29.563  23.377  1.00  0.00     0.033 A 
ATOM     88  C   UNL A   1      29.583  29.560  21.963  1.00  0.00     0.033 A 
ATOM     89  C   UNL A   1      27.437  30.924  23.125  1.00  0.00     0.088 A 
ATOM     90  C   UNL A   1      29.400  30.919  21.693  1.00  0.00     0.088 A 
ATOM     91  C   UNL A   1      28.336  31.600  22.293  1.00  0.00     0.269 A 
BRANCH  91  92
ATOM     92  N   UNL A   1      28.178  33.043  22.074  1.00  0.00     0.062 N 
ATOM     93  O   UNL A   1      28.655  33.811  22.921  1.00  0.00    -0.258 OA
ATOM     94  O   UNL A   1      27.584  33.409  21.049  1.00  0.00    -0.258 OA
ENDBRANCH  91  92
ENDBRANCH  84  86
ENDBRANCH  82  84
ENDBRANCH  75  78
ENDBRANCH  73  74
ENDBRANCH  72  73
ENDBRANCH   1  72
TORSDOF 17
ENDMDL
MODEL 2
REMARK VINA RESULT:     -12.1      7.189     12.326
REMARK SMILES O=C(NCCCCNC(=O)c1cccc(Nc2ccc([N+](=O)[O-])cc2)c1)c1ccc(-c2c3nc(c(-c4cc(S(=O)(=O)[O-])ccc4F)c4ccc([nH]4)c(-c4cc(S(=O)(=O)[O-])ccc4F)c4nc(c(-c5cc(S(=O)(=O)[O-])ccc5F)c5ccc2[nH]5)C=C4)C=C3)cc1
REMARK SMILES IDX 5 1 4 2 3 3 1 4 2 5 27 7 28 8 89 9 29 10 88 11 30 12 31 13
REMARK SMILES IDX 32 14 82 15 33 16 87 17 81 18 83 19 34 20 86 21 80 22 79 23
REMARK SMILES IDX 35 25 67 26 47 27 66 28 48 29 51 30 65 31 84 32 49 33 50 34
REMARK SMILES IDX 64 36 85 37 52 38 36 39 37 40 45 41 38 42 44 43 46 44 43 45
REMARK SMILES IDX 39 46 40 47 41 48 42 49 68 50 69 51 77 52 70 53 76 54 78 55
REMARK SMILES IDX 75 56 71 57 72 58 73 59 74 60 53 61 54 62 62 63 55 64 61 65
REMARK SMILES IDX 63 66 60 67 56 68 57 69 58 70 59 71 6 72 7 73 8 74 9 75
REMARK SMILES IDX 10 77 11 78 12 79 26 80 13 81 15 82 14 83 16 84 17 86 18 87
REMARK SMILES IDX 25 88 19 89 24 90 20 91 21 92 22 93 23 94
REMARK H PARENT 3 6 83 24 51 35 8 76 16 85
REMARK Flexibility Score: inf
ROOT
ATOM      1  C   UNL A   1      37.963  19.671  24.986  1.00  0.00     0.023 C 
ENDROOT
BRANCH   1   2
ATOM      2  C   UNL A   1      39.166  20.167  25.777  1.00  0.00     0.116 C 
BRANCH   2   3
ATOM      3  N   UNL A   1      40.226  19.175  25.879  1.00  0.00    -0.352 N 
ATOM      4  O   UNL A   1      42.343  18.407  26.005  1.00  0.00    -0.269 OA
ATOM      5  C   UNL A   1      41.571  19.358  26.097  1.00  0.00     0.251 C 
ATOM      6  H   UNL A   1      39.940  18.239  25.776  1.00  0.00     0.163 HD
BRANCH   5   7
ATOM      7  C   UNL A   1      42.086  20.708  26.417  1.00  0.00     0.039 A 
ATOM      8  C   UNL A   1      42.311  21.086  27.742  1.00  0.00     0.014 A 
ATOM      9  C   UNL A   1      42.331  21.609  25.377  1.00  0.00     0.014 A 
ATOM     10  C   UNL A   1      42.629  22.408  28.038  1.00  0.00     0.010 A 
ATOM     11  C   UNL A   1      42.739  22.912  25.674  1.00  0.00     0.010 A 
ATOM     12  C   UNL A   1      42.859  23.333  27.008  1.00  0.00    -0.014 A 
BRANCH  12  13
ATOM     13  C   UNL A   1      43.260  24.725  27.343  1.00  0.00     0.031 A 
ATOM     14  C   UNL A   1      42.281  25.683  27.964  1.00  0.00     0.074 A 
ATOM     15  C   UNL A   1      44.522  25.118  27.086  1.00  0.00     0.049 A 
ATOM     16  N   UNL A   1      42.443  26.944  28.274  1.00  0.00    -0.248 NA
ATOM     17  C   UNL A   1      40.943  25.157  28.268  1.00  0.00     0.031 C 
ATOM     18  C   UNL A   1      45.561  24.273  26.494  1.00  0.00     0.029 A 
ATOM     19  N   UNL A   1      45.149  26.321  27.290  1.00  0.00    -0.354 N 
ATOM     20  C   UNL A   1      41.224  27.372  28.791  1.00  0.00     0.074 A 
ATOM     21  C   UNL A   1      40.323  26.239  28.716  1.00  0.00     0.031 C 
ATOM     22  C   UNL A   1      46.702  24.972  26.410  1.00  0.00     0.029 A 
ATOM     23  C   UNL A   1      46.457  26.335  26.868  1.00  0.00     0.049 A 
ATOM     24  H   UNL A   1      44.706  27.098  27.700  1.00  0.00     0.167 HD
ATOM     25  C   UNL A   1      40.894  28.591  29.288  1.00  0.00     0.034 A 
ATOM     26  C   UNL A   1      47.353  27.339  26.815  1.00  0.00     0.034 A 
ATOM     27  C   UNL A   1      41.809  29.709  29.346  1.00  0.00     0.049 A 
ATOM     28  C   UNL A   1      46.946  28.701  27.308  1.00  0.00     0.074 A 
ATOM     29  C   UNL A   1      41.589  30.979  29.852  1.00  0.00     0.029 A 
ATOM     30  N   UNL A   1      43.116  29.697  28.870  1.00  0.00    -0.354 N 
ATOM     31  N   UNL A   1      45.792  29.088  27.803  1.00  0.00    -0.248 NA
ATOM     32  C   UNL A   1      47.959  29.760  27.241  1.00  0.00     0.031 C 
ATOM     33  C   UNL A   1      42.728  31.754  29.609  1.00  0.00     0.029 A 
ATOM     34  C   UNL A   1      43.697  30.946  29.036  1.00  0.00     0.049 A 
ATOM     35  H   UNL A   1      43.563  28.916  28.473  1.00  0.00     0.167 HD
ATOM     36  C   UNL A   1      45.953  30.429  28.133  1.00  0.00     0.074 A 
ATOM     37  C   UNL A   1      47.317  30.779  27.790  1.00  0.00     0.031 C 
ATOM     38  C   UNL A   1      45.056  31.290  28.678  1.00  0.00     0.034 A 
BRANCH  25  39
ATOM     39  C   UNL A   1      39.469  28.791  29.755  1.00  0.00     0.023 A 
ATOM     40  C   UNL A   1      38.443  29.167  28.870  1.00  0.00     0.031 A 
ATOM     41  C   UNL A   1      39.137  28.638  31.113  1.00  0.00     0.131 A 
ATOM     42  C   UNL A   1      37.161  29.458  29.363  1.00  0.00     0.055 A 
ATOM     43  C   UNL A   1      37.838  28.842  31.584  1.00  0.00     0.041 A 
ATOM     44  F   UNL A   1      40.074  28.301  32.013  1.00  0.00    -0.206 F 
ATOM     45  C   UNL A   1      36.844  29.273  30.710  1.00  0.00     0.022 A 
BRANCH  42  46
ATOM     46  S   UNL A   1      35.964  30.245  28.250  1.00  0.00     0.124 S 
ATOM     47  O   UNL A   1      35.796  31.556  28.874  1.00  0.00    -0.237 OA
ATOM     48  O   UNL A   1      36.664  30.232  26.972  1.00  0.00    -0.237 OA
ATOM     49  O   UNL A   1      34.794  29.373  28.332  1.00  0.00    -0.744 OA
ENDBRANCH  42  46
ENDBRANCH  25  39
BRANCH  26  50
ATOM     50  C   UNL A   1      48.706  27.099  26.240  1.00  0.00     0.023 A 
ATOM     51  C   UNL A   1      48.998  27.424  24.907  1.00  0.00     0.031 A 
ATOM     52  C   UNL A   1      49.729  26.528  27.020  1.00  0.00     0.131 A 
ATOM     53  C   UNL A   1      50.269  27.146  24.383  1.00  0.00     0.055 A 
ATOM     54  C   UNL A   1      51.008  26.305  26.512  1.00  0.00     0.041 A 
ATOM     55  F   UNL A   1      49.503  26.202  28.304  1.00  0.00    -0.206 F 
ATOM     56  C   UNL A   1      51.282  26.604  25.181  1.00  0.00     0.022 A 
BRANCH  53  57
ATOM     57  S   UNL A   1      50.564  27.438  22.619  1.00  0.00     0.124 S 
ATOM     58  O   UNL A   1      50.579  28.896  22.558  1.00  0.00    -0.237 OA
ATOM     59  O   UNL A   1      51.844  26.773  22.410  1.00  0.00    -0.237 OA
ATOM     60  O   UNL A   1      49.419  26.799  21.973  1.00  0.00    -0.744 OA
ENDBRANCH  53  57
ENDBRANCH  26  50
BRANCH  38  61
ATOM     61  C   UNL A   1      45.545  32.685  28.990  1.00  0.00     0.023 A 
ATOM     62  C   UNL A   1      45.480  33.727  28.048  1.00  0.00     0.031 A 
ATOM     63  C   UNL A   1      46.095  32.970  30.253  1.00  0.00     0.131 A 
ATOM     64  C   UNL A   1      46.004  34.990  28.365  1.00  0.00     0.055 A 
ATOM     65  C   UNL A   1      46.557  34.244  30.584  1.00  0.00     0.041 A 
ATOM     66  F   UNL A   1      46.189  32.012  31.189  1.00  0.00    -0.206 F 
ATOM     67  C   UNL A   1      46.525  35.259  29.634  1.00  0.00     0.022 A 
BRANCH  64  68
ATOM     68  S   UNL A   1      46.085  36.253  27.067  1.00  0.00     0.124 S 
ATOM     69  O   UNL A   1      44.762  36.864  27.154  1.00  0.00    -0.237 OA
ATOM     70  O   UNL A   1      47.202  37.084  27.508  1.00  0.00    -0.237 OA
ATOM     71  O   UNL A   1      46.332  35.481  25.850  1.00  0.00    -0.744 OA
ENDBRANCH  64  68
ENDBRANCH  38  61
ENDBRANCH  12  13
ENDBRANCH   5   7
ENDBRANCH   2   3
ENDBRANCH   1   2
BRANCH   1  72
ATOM     72  C   UNL A   1      36.790  20.644  24.911  1.00  0.00     0.023 C 
BRANCH  72  73
ATOM     73  C   UNL A   1      37.134  22.039  24.402  1.00  0.00     0.116 C 
BRANCH  73  74
ATOM     74  N   UNL A   1      36.580  23.094  25.236  1.00  0.00    -0.352 N 
ATOM     75  C   UNL A   1      35.374  23.735  25.128  1.00  0.00     0.251 C 
ATOM     76  H   UNL A   1      37.151  23.389  25.983  1.00  0.00     0.163 HD
ATOM     77  O   UNL A   1      35.111  24.706  25.838  1.00  0.00    -0.269 OA
BRANCH  75  78
ATOM     78  C   UNL A   1      34.382  23.270  24.143  1.00  0.00     0.041 A 
ATOM     79  C   UNL A   1      34.158  24.040  23.002  1.00  0.00     0.014 A 
ATOM     80  C   UNL A   1      33.661  22.090  24.359  1.00  0.00     0.039 A 
ATOM     81  C   UNL A   1      33.251  23.593  22.047  1.00  0.00     0.003 A 
ATOM     82  C   UNL A   1      32.755  21.622  23.403  1.00  0.00     0.039 A 
ATOM     83  C   UNL A   1      32.569  22.388  22.242  1.00  0.00     0.026 A 
BRANCH  82  84
ATOM     84  N   UNL A   1      32.105  20.396  23.630  1.00  0.00    -0.356 N 
ATOM     85  H   UNL A   1      31.128  20.416  23.513  1.00  0.00     0.167 HD
BRANCH  84  86
ATOM     86  C   UNL A   1      32.631  19.148  23.996  1.00  0.00     0.039 A 
ATOM     87  C   UNL A   1      32.558  18.754  25.340  1.00  0.00     0.033 A 
ATOM     88  C   UNL A   1      33.125  18.239  23.051  1.00  0.00     0.033 A 
ATOM     89  C   UNL A   1      32.931  17.465  25.731  1.00  0.00     0.088 A 
ATOM     90  C   UNL A   1      33.513  16.950  23.429  1.00  0.00     0.088 A 
ATOM     91  C   UNL A   1      33.395  16.563  24.768  1.00  0.00     0.269 A 
BRANCH  91  92
ATOM     92  N   UNL A   1      33.732  15.190  25.162  1.00  0.00     0.062 N 
ATOM     93  O   UNL A   1      34.931  14.887  25.233  1.00  0.00    -0.258 OA
ATOM     94  O   UNL A   1      32.796  14.415  25.411  1.00  0.00    -0.258 OA
ENDBRANCH  91  92
ENDBRANCH  84  86
ENDBRANCH  82  84
ENDBRANCH  75  78
ENDBRANCH  73  74
ENDBRANCH  72  73
ENDBRANCH   1  72
TORSDOF 17
ENDMDL
MODEL 3
REMARK VINA RESULT:     -12.1      3.643      5.488
REMARK SMILES O=C(NCCCCNC(=O)c1cccc(Nc2ccc([N+](=O)[O-])cc2)c1)c1ccc(-c2c3nc(c(-c4cc(S(=O)(=O)[O-])ccc4F)c4ccc([nH]4)c(-c4cc(S(=O)(=O)[O-])ccc4F)c4nc(c(-c5cc(S(=O)(=O)[O-])ccc5F)c5ccc2[nH]5)C=C4)C=C3)cc1
REMARK SMILES IDX 5 1 4 2 3 3 1 4 2 5 27 7 28 8 89 9 29 10 88 11 30 12 31 13
REMARK SMILES IDX 32 14 82 15 33 16 87 17 81 18 83 19 34 20 86 21 80 22 79 23
REMARK SMILES IDX 35 25 67 26 47 27 66 28 48 29 51 30 65 31 84 32 49 33 50 34
REMARK SMILES IDX 64 36 85 37 52 38 36 39 37 40 45 41 38 42 44 43 46 44 43 45
REMARK SMILES IDX 39 46 40 47 41 48 42 49 68 50 69 51 77 52 70 53 76 54 78 55
REMARK SMILES IDX 75 56 71 57 72 58 73 59 74 60 53 61 54 62 62 63 55 64 61 65
REMARK SMILES IDX 63 66 60 67 56 68 57 69 58 70 59 71 6 72 7 73 8 74 9 75
REMARK SMILES IDX 10 77 11 78 12 79 26 80 13 81 15 82 14 83 16 84 17 86 18 87
REMARK SMILES IDX 25 88 19 89 24 90 20 91 21 92 22 93 23 94
REMARK H PARENT 3 6 83 24 51 35 8 76 16 85
REMARK Flexibility Score: inf
ROOT
ATOM      1  C   UNL A   1      31.955  28.968  24.437  1.00  0.00     0.023 C 
ENDROOT
BRANCH   1   2
ATOM      2  C   UNL A   1      32.912  29.605  25.436  1.00  0.00     0.116 C 
BRANCH   2   3
ATOM      3  N   UNL A   1      32.440  30.889  25.934  1.00  0.00    -0.352 N 
ATOM      4  O   UNL A   1      32.310  32.647  27.340  1.00  0.00    -0.269 OA
ATOM      5  C   UNL A   1      32.930  31.655  26.966  1.00  0.00     0.251 C 
ATOM      6  H   UNL A   1      31.659  31.262  25.466  1.00  0.00     0.163 HD
BRANCH   5   7
ATOM      7  C   UNL A   1      34.190  31.266  27.636  1.00  0.00     0.039 A 
ATOM      8  C   UNL A   1      34.425  29.935  27.989  1.00  0.00     0.014 A 
ATOM      9  C   UNL A   1      35.139  32.249  27.927  1.00  0.00     0.014 A 
ATOM     10  C   UNL A   1      35.532  29.613  28.768  1.00  0.00     0.010 A 
ATOM     11  C   UNL A   1      36.296  31.905  28.632  1.00  0.00     0.010 A 
ATOM     12  C   UNL A   1      36.486  30.591  29.088  1.00  0.00    -0.014 A 
BRANCH  12  13
ATOM     13  C   UNL A   1      37.694  30.214  29.869  1.00  0.00     0.031 A 
ATOM     14  C   UNL A   1      38.749  29.321  29.277  1.00  0.00     0.074 A 
ATOM     15  C   UNL A   1      37.835  30.691  31.121  1.00  0.00     0.049 A 
ATOM     16  N   UNL A   1      39.838  28.850  29.831  1.00  0.00    -0.248 NA
ATOM     17  C   UNL A   1      38.550  28.893  27.886  1.00  0.00     0.031 C 
ATOM     18  C   UNL A   1      36.880  31.573  31.796  1.00  0.00     0.029 A 
ATOM     19  N   UNL A   1      38.830  30.508  32.047  1.00  0.00    -0.354 N 
ATOM     20  C   UNL A   1      40.446  28.054  28.864  1.00  0.00     0.074 A 
ATOM     21  C   UNL A   1      39.579  28.079  27.703  1.00  0.00     0.031 C 
ATOM     22  C   UNL A   1      37.349  31.878  33.014  1.00  0.00     0.029 A 
ATOM     23  C   UNL A   1      38.595  31.154  33.238  1.00  0.00     0.049 A 
ATOM     24  H   UNL A   1      39.635  29.968  31.875  1.00  0.00     0.167 HD
ATOM     25  C   UNL A   1      41.620  27.376  28.939  1.00  0.00     0.034 A 
ATOM     26  C   UNL A   1      39.281  31.137  34.397  1.00  0.00     0.034 A 
ATOM     27  C   UNL A   1      42.464  27.360  30.113  1.00  0.00     0.049 A 
ATOM     28  C   UNL A   1      40.544  30.324  34.480  1.00  0.00     0.074 A 
ATOM     29  C   UNL A   1      43.684  26.729  30.289  1.00  0.00     0.029 A 
ATOM     30  N   UNL A   1      42.172  27.994  31.316  1.00  0.00    -0.354 N 
ATOM     31  N   UNL A   1      41.111  29.584  33.556  1.00  0.00    -0.248 NA
ATOM     32  C   UNL A   1      41.261  30.346  35.760  1.00  0.00     0.031 C 
ATOM     33  C   UNL A   1      44.087  26.911  31.617  1.00  0.00     0.029 A 
ATOM     34  C   UNL A   1      43.169  27.736  32.247  1.00  0.00     0.049 A 
ATOM     35  H   UNL A   1      41.374  28.545  31.483  1.00  0.00     0.167 HD
ATOM     36  C   UNL A   1      42.268  29.076  34.135  1.00  0.00     0.074 A 
ATOM     37  C   UNL A   1      42.322  29.603  35.484  1.00  0.00     0.031 C 
ATOM     38  C   UNL A   1      43.206  28.255  33.596  1.00  0.00     0.034 A 
BRANCH  25  39
ATOM     39  C   UNL A   1      42.026  26.551  27.738  1.00  0.00     0.023 A 
ATOM     40  C   UNL A   1      41.833  25.159  27.692  1.00  0.00     0.031 A 
ATOM     41  C   UNL A   1      42.648  27.161  26.634  1.00  0.00     0.131 A 
ATOM     42  C   UNL A   1      42.332  24.416  26.610  1.00  0.00     0.055 A 
ATOM     43  C   UNL A   1      43.062  26.427  25.520  1.00  0.00     0.041 A 
ATOM     44  F   UNL A   1      42.881  28.483  26.624  1.00  0.00    -0.206 F 
ATOM     45  C   UNL A   1      42.922  25.043  25.511  1.00  0.00     0.022 A 
BRANCH  42  46
ATOM     46  S   UNL A   1      42.351  22.606  26.739  1.00  0.00     0.124 S 
ATOM     47  O   UNL A   1      42.087  22.407  28.163  1.00  0.00    -0.237 OA
ATOM     48  O   UNL A   1      41.281  22.214  25.831  1.00  0.00    -0.237 OA
ATOM     49  O   UNL A   1      43.701  22.245  26.309  1.00  0.00    -0.744 OA
ENDBRANCH  42  46
ENDBRANCH  25  39
BRANCH  26  50
ATOM     50  C   UNL A   1      38.763  31.885  35.577  1.00  0.00     0.023 A 
ATOM     51  C   UNL A   1      38.167  31.217  36.657  1.00  0.00     0.031 A 
ATOM     52  C   UNL A   1      38.852  33.288  35.635  1.00  0.00     0.131 A 
ATOM     53  C   UNL A   1      37.652  31.953  37.734  1.00  0.00     0.055 A 
ATOM     54  C   UNL A   1      38.388  34.012  36.733  1.00  0.00     0.041 A 
ATOM     55  F   UNL A   1      39.417  33.976  34.629  1.00  0.00    -0.206 F 
ATOM     56  C   UNL A   1      37.774  33.345  37.788  1.00  0.00     0.022 A 
BRANCH  53  57
ATOM     57  S   UNL A   1      36.754  31.070  39.038  1.00  0.00     0.124 S 
ATOM     58  O   UNL A   1      35.510  31.828  39.106  1.00  0.00    -0.237 OA
ATOM     59  O   UNL A   1      36.659  29.725  38.483  1.00  0.00    -0.237 OA
ATOM     60  O   UNL A   1      37.630  31.202  40.201  1.00  0.00    -0.744 OA
ENDBRANCH  53  57
ENDBRANCH  26  50
BRANCH  38  61
ATOM     61  C   UNL A   1      44.403  27.924  34.456  1.00  0.00     0.023 A 
ATOM     62  C   UNL A   1      44.430  26.797  35.295  1.00  0.00     0.031 A 
ATOM     63  C   UNL A   1      45.534  28.760  34.438  1.00  0.00     0.131 A 
ATOM     64  C   UNL A   1      45.542  26.566  36.121  1.00  0.00     0.055 A 
ATOM     65  C   UNL A   1      46.662  28.491  35.213  1.00  0.00     0.041 A 
ATOM     66  F   UNL A   1      45.562  29.855  33.660  1.00  0.00    -0.206 F 
ATOM     67  C   UNL A   1      46.665  27.396  36.070  1.00  0.00     0.022 A 
BRANCH  64  68
ATOM     68  S   UNL A   1      45.465  25.219  37.333  1.00  0.00     0.124 S 
ATOM     69  O   UNL A   1      46.004  24.095  36.573  1.00  0.00    -0.237 OA
ATOM     70  O   UNL A   1      46.309  25.722  38.413  1.00  0.00    -0.237 OA
ATOM     71  O   UNL A   1      44.042  25.125  37.653  1.00  0.00    -0.744 OA
ENDBRANCH  64  68
ENDBRANCH  38  61
ENDBRANCH  12  13
ENDBRANCH   5   7
ENDBRANCH   2   3
ENDBRANCH   1   2
BRANCH   1  72
ATOM     72  C   UNL A   1      32.494  28.837  23.015  1.00  0.00     0.023 C 
BRANCH  72  73
ATOM     73  C   UNL A   1      33.537  27.744  22.813  1.00  0.00     0.116 C 
BRANCH  73  74
ATOM     74  N   UNL A   1      33.361  27.024  21.561  1.00  0.00    -0.352 N 
ATOM     75  C   UNL A   1      32.903  25.749  21.356  1.00  0.00     0.251 C 
ATOM     76  H   UNL A   1      33.604  27.523  20.747  1.00  0.00     0.163 HD
ATOM     77  O   UNL A   1      32.943  25.238  20.237  1.00  0.00    -0.269 OA
BRANCH  75  78
ATOM     78  C   UNL A   1      32.371  24.969  22.488  1.00  0.00     0.041 A 
ATOM     79  C   UNL A   1      31.052  25.180  22.886  1.00  0.00     0.014 A 
ATOM     80  C   UNL A   1      33.182  24.050  23.164  1.00  0.00     0.039 A 
ATOM     81  C   UNL A   1      30.527  24.424  23.929  1.00  0.00     0.003 A 
ATOM     82  C   UNL A   1      32.665  23.274  24.206  1.00  0.00     0.039 A 
ATOM     83  C   UNL A   1      31.325  23.471  24.570  1.00  0.00     0.026 A 
BRANCH  82  84
ATOM     84  N   UNL A   1      33.496  22.314  24.810  1.00  0.00    -0.356 N 
ATOM     85  H   UNL A   1      34.138  22.674  25.464  1.00  0.00     0.167 HD
BRANCH  84  86
ATOM     86  C   UNL A   1      33.553  20.924  24.630  1.00  0.00     0.039 A 
ATOM     87  C   UNL A   1      32.493  20.286  23.971  1.00  0.00     0.033 A 
ATOM     88  C   UNL A   1      34.680  20.171  24.986  1.00  0.00     0.033 A 
ATOM     89  C   UNL A   1      32.568  18.932  23.636  1.00  0.00     0.088 A 
ATOM     90  C   UNL A   1      34.764  18.812  24.668  1.00  0.00     0.088 A 
ATOM     91  C   UNL A   1      33.713  18.203  23.975  1.00  0.00     0.269 A 
BRANCH  91  92
ATOM     92  N   UNL A   1      33.823  16.796  23.573  1.00  0.00     0.062 N 
ATOM     93  O   UNL A   1      34.032  16.553  22.376  1.00  0.00    -0.258 OA
ATOM     94  O   UNL A   1      33.710  15.932  24.455  1.00  0.00    -0.258 OA
ENDBRANCH  91  92
ENDBRANCH  84  86
ENDBRANCH  82  84
ENDBRANCH  75  78
ENDBRANCH  73  74
ENDBRANCH  72  73
ENDBRANCH   1  72
TORSDOF 17
ENDMDL
