MODEL 1
REMARK VINA RESULT:     -12.6      0.000      0.000
REMARK SMILES O=C(NCCCCNC(=O)c1cc(-c2ccccc2)nc(Nc2nc3ccccc3s2)n1)c1ccc(-c2c3nc(c(-c4cc(S(=O)(=O)[O-])ccc4F)c4ccc([nH]4)c(-c4cc(S(=O)(=O)[O-])ccc4F)c4nc(c(-c5cc(S(=O)(=O)[O-])ccc5F)c5ccc2[nH]5)C=C4)C=C3)cc1
REMARK SMILES IDX 5 1 4 2 3 3 1 4 2 5 33 7 34 8 95 9 35 10 94 11 36 12 37 13
REMARK SMILES IDX 38 14 88 15 39 16 93 17 87 18 89 19 40 20 92 21 86 22 85 23
REMARK SMILES IDX 41 25 73 26 53 27 72 28 54 29 57 30 71 31 90 32 55 33 56 34
REMARK SMILES IDX 70 36 91 37 58 38 42 39 43 40 51 41 44 42 50 43 52 44 49 45
REMARK SMILES IDX 45 46 46 47 47 48 48 49 74 50 75 51 83 52 76 53 82 54 84 55
REMARK SMILES IDX 81 56 77 57 78 58 79 59 80 60 59 61 60 62 68 63 61 64 67 65
REMARK SMILES IDX 69 66 66 67 62 68 63 69 64 70 65 71 6 72 7 73 8 74 9 75
REMARK SMILES IDX 10 77 11 78 12 79 32 80 13 81 21 82 20 83 14 84 15 85 19 86
REMARK SMILES IDX 16 87 18 88 17 89 22 90 23 92 24 93 31 94 25 95 30 96 26 97
REMARK SMILES IDX 29 98 27 99 28 100
REMARK H PARENT 3 6 89 24 57 35 8 76 22 91
REMARK Flexibility Score: inf
ROOT
ATOM      1  C   UNL A   1      33.282  31.947  27.767  1.00  0.00     0.023 C 
ENDROOT
BRANCH   1   2
ATOM      2  C   UNL A   1      33.464  33.308  27.108  1.00  0.00     0.116 C 
BRANCH   2   3
ATOM      3  N   UNL A   1      32.862  34.396  27.864  1.00  0.00    -0.352 N 
ATOM      4  O   UNL A   1      32.472  35.702  29.660  1.00  0.00    -0.269 OA
ATOM      5  C   UNL A   1      33.165  34.844  29.130  1.00  0.00     0.251 C 
ATOM      6  H   UNL A   1      32.137  34.880  27.406  1.00  0.00     0.163 HD
BRANCH   5   7
ATOM      7  C   UNL A   1      34.317  34.258  29.854  1.00  0.00     0.039 A 
ATOM      8  C   UNL A   1      35.625  34.543  29.460  1.00  0.00     0.014 A 
ATOM      9  C   UNL A   1      34.078  33.400  30.931  1.00  0.00     0.014 A 
ATOM     10  C   UNL A   1      36.685  33.857  30.040  1.00  0.00     0.010 A 
ATOM     11  C   UNL A   1      35.153  32.778  31.572  1.00  0.00     0.010 A 
ATOM     12  C   UNL A   1      36.464  32.976  31.111  1.00  0.00    -0.014 A 
BRANCH  12  13
ATOM     13  C   UNL A   1      37.625  32.319  31.765  1.00  0.00     0.031 A 
ATOM     14  C   UNL A   1      38.386  31.219  31.079  1.00  0.00     0.074 A 
ATOM     15  C   UNL A   1      38.001  32.744  32.988  1.00  0.00     0.049 A 
ATOM     16  N   UNL A   1      39.421  30.539  31.507  1.00  0.00    -0.248 NA
ATOM     17  C   UNL A   1      37.920  30.822  29.743  1.00  0.00     0.031 C 
ATOM     18  C   UNL A   1      37.327  33.797  33.753  1.00  0.00     0.029 A 
ATOM     19  N   UNL A   1      39.037  32.359  33.797  1.00  0.00    -0.354 N 
ATOM     20  C   UNL A   1      39.720  29.622  30.505  1.00  0.00     0.074 A 
ATOM     21  C   UNL A   1      38.733  29.814  29.460  1.00  0.00     0.031 C 
ATOM     22  C   UNL A   1      37.987  33.997  34.902  1.00  0.00     0.029 A 
ATOM     23  C   UNL A   1      39.086  33.043  34.988  1.00  0.00     0.049 A 
ATOM     24  H   UNL A   1      39.684  31.659  33.550  1.00  0.00     0.167 HD
ATOM     25  C   UNL A   1      40.727  28.714  30.461  1.00  0.00     0.034 A 
ATOM     26  C   UNL A   1      39.906  32.904  36.047  1.00  0.00     0.034 A 
ATOM     27  C   UNL A   1      41.702  28.543  31.514  1.00  0.00     0.049 A 
ATOM     28  C   UNL A   1      40.995  31.870  35.988  1.00  0.00     0.074 A 
ATOM     29  C   UNL A   1      42.790  27.685  31.553  1.00  0.00     0.029 A 
ATOM     30  N   UNL A   1      41.702  29.232  32.721  1.00  0.00    -0.354 N 
ATOM     31  N   UNL A   1      41.281  31.030  35.020  1.00  0.00    -0.248 NA
ATOM     32  C   UNL A   1      41.874  31.767  37.158  1.00  0.00     0.031 C 
ATOM     33  C   UNL A   1      43.402  27.807  32.806  1.00  0.00     0.029 A 
ATOM     34  C   UNL A   1      42.746  28.794  33.524  1.00  0.00     0.049 A 
ATOM     35  H   UNL A   1      41.054  29.930  32.970  1.00  0.00     0.167 HD
ATOM     36  C   UNL A   1      42.383  30.306  35.462  1.00  0.00     0.074 A 
ATOM     37  C   UNL A   1      42.722  30.826  36.772  1.00  0.00     0.031 C 
ATOM     38  C   UNL A   1      43.054  29.303  34.840  1.00  0.00     0.034 A 
BRANCH  25  39
ATOM     39  C   UNL A   1      40.794  27.803  29.254  1.00  0.00     0.023 A 
ATOM     40  C   UNL A   1      41.716  28.012  28.214  1.00  0.00     0.031 A 
ATOM     41  C   UNL A   1      39.903  26.722  29.134  1.00  0.00     0.131 A 
ATOM     42  C   UNL A   1      41.680  27.198  27.070  1.00  0.00     0.055 A 
ATOM     43  C   UNL A   1      39.922  25.868  28.028  1.00  0.00     0.041 A 
ATOM     44  F   UNL A   1      38.985  26.482  30.085  1.00  0.00    -0.206 F 
ATOM     45  C   UNL A   1      40.805  26.113  26.981  1.00  0.00     0.022 A 
BRANCH  42  46
ATOM     46  S   UNL A   1      42.694  27.664  25.641  1.00  0.00     0.124 S 
ATOM     47  O   UNL A   1      41.993  28.850  25.153  1.00  0.00    -0.237 OA
ATOM     48  O   UNL A   1      44.001  27.898  26.244  1.00  0.00    -0.237 OA
ATOM     49  O   UNL A   1      42.611  26.498  24.765  1.00  0.00    -0.744 OA
ENDBRANCH  42  46
ENDBRANCH  25  39
BRANCH  26  50
ATOM     50  C   UNL A   1      39.695  33.738  37.263  1.00  0.00     0.023 A 
ATOM     51  C   UNL A   1      38.949  33.263  38.352  1.00  0.00     0.031 A 
ATOM     52  C   UNL A   1      40.241  35.032  37.347  1.00  0.00     0.131 A 
ATOM     53  C   UNL A   1      38.744  34.091  39.467  1.00  0.00     0.055 A 
ATOM     54  C   UNL A   1      40.077  35.830  38.479  1.00  0.00     0.041 A 
ATOM     55  F   UNL A   1      40.970  35.528  36.335  1.00  0.00    -0.206 F 
ATOM     56  C   UNL A   1      39.314  35.364  39.545  1.00  0.00     0.022 A 
BRANCH  53  57
ATOM     57  S   UNL A   1      37.662  33.500  40.798  1.00  0.00     0.124 S 
ATOM     58  O   UNL A   1      36.604  32.832  40.048  1.00  0.00    -0.237 OA
ATOM     59  O   UNL A   1      38.559  32.633  41.555  1.00  0.00    -0.237 OA
ATOM     60  O   UNL A   1      37.263  34.729  41.482  1.00  0.00    -0.744 OA
ENDBRANCH  53  57
ENDBRANCH  26  50
BRANCH  38  61
ATOM     61  C   UNL A   1      44.240  28.729  35.574  1.00  0.00     0.023 A 
ATOM     62  C   UNL A   1      44.097  27.679  36.499  1.00  0.00     0.031 A 
ATOM     63  C   UNL A   1      45.526  29.259  35.367  1.00  0.00     0.131 A 
ATOM     64  C   UNL A   1      45.211  27.231  37.224  1.00  0.00     0.055 A 
ATOM     65  C   UNL A   1      46.640  28.770  36.050  1.00  0.00     0.041 A 
ATOM     66  F   UNL A   1      45.718  30.265  34.499  1.00  0.00    -0.206 F 
ATOM     67  C   UNL A   1      46.484  27.760  36.994  1.00  0.00     0.022 A 
BRANCH  64  68
ATOM     68  S   UNL A   1      44.960  26.010  38.543  1.00  0.00     0.124 S 
ATOM     69  O   UNL A   1      44.228  24.958  37.845  1.00  0.00    -0.237 OA
ATOM     70  O   UNL A   1      46.327  25.685  38.933  1.00  0.00    -0.237 OA
ATOM     71  O   UNL A   1      44.188  26.743  39.545  1.00  0.00    -0.744 OA
ENDBRANCH  64  68
ENDBRANCH  38  61
ENDBRANCH  12  13
ENDBRANCH   5   7
ENDBRANCH   2   3
ENDBRANCH   1   2
BRANCH   1  72
ATOM     72  C   UNL A   1      34.530  31.072  27.822  1.00  0.00     0.023 C 
BRANCH  72  73
ATOM     73  C   UNL A   1      34.364  29.661  27.271  1.00  0.00     0.116 C 
BRANCH  73  74
ATOM     74  N   UNL A   1      33.274  28.922  27.887  1.00  0.00    -0.351 N 
ATOM     75  C   UNL A   1      32.169  28.359  27.290  1.00  0.00     0.270 C 
ATOM     76  H   UNL A   1      33.335  28.810  28.864  1.00  0.00     0.163 HD
ATOM     77  O   UNL A   1      31.339  27.752  27.959  1.00  0.00    -0.268 OA
BRANCH  75  78
ATOM     78  C   UNL A   1      32.009  28.474  25.823  1.00  0.00     0.134 A 
ATOM     79  C   UNL A   1      31.115  29.366  25.300  1.00  0.00     0.063 A 
ATOM     80  N   UNL A   1      32.721  27.614  25.089  1.00  0.00    -0.207 NA
ATOM     81  C   UNL A   1      30.926  29.270  23.941  1.00  0.00     0.077 A 
ATOM     82  C   UNL A   1      32.526  27.608  23.770  1.00  0.00     0.230 A 
ATOM     83  N   UNL A   1      31.632  28.411  23.163  1.00  0.00    -0.213 NA
BRANCH  81  84
ATOM     84  C   UNL A   1      29.844  30.032  23.302  1.00  0.00     0.000 A 
ATOM     85  C   UNL A   1      29.271  31.140  23.948  1.00  0.00     0.010 A 
ATOM     86  C   UNL A   1      29.438  29.753  21.984  1.00  0.00     0.010 A 
ATOM     87  C   UNL A   1      28.356  31.962  23.286  1.00  0.00     0.001 A 
ATOM     88  C   UNL A   1      28.519  30.572  21.323  1.00  0.00     0.001 A 
ATOM     89  C   UNL A   1      27.986  31.682  21.972  1.00  0.00     0.000 A 
ENDBRANCH  81  84
BRANCH  82  90
ATOM     90  N   UNL A   1      33.323  26.800  22.962  1.00  0.00    -0.300 N 
ATOM     91  H   UNL A   1      33.839  27.221  22.238  1.00  0.00     0.172 HD
BRANCH  90  92
ATOM     92  C   UNL A   1      33.417  25.464  23.132  1.00  0.00     0.190 A 
ATOM     93  N   UNL A   1      32.712  24.569  22.480  1.00  0.00    -0.220 NA
ATOM     94  S   UNL A   1      34.518  24.789  24.278  1.00  0.00    -0.097 S 
ATOM     95  C   UNL A   1      32.847  23.322  23.049  1.00  0.00     0.084 A 
ATOM     96  C   UNL A   1      33.782  23.240  24.078  1.00  0.00     0.056 A 
ATOM     97  C   UNL A   1      32.113  22.174  22.693  1.00  0.00     0.030 A 
ATOM     98  C   UNL A   1      34.004  22.041  24.776  1.00  0.00     0.021 A 
ATOM     99  C   UNL A   1      32.312  20.981  23.392  1.00  0.00     0.002 A 
ATOM    100  C   UNL A   1      33.244  20.918  24.422  1.00  0.00     0.002 A 
ENDBRANCH  90  92
ENDBRANCH  82  90
ENDBRANCH  75  78
ENDBRANCH  73  74
ENDBRANCH  72  73
ENDBRANCH   1  72
TORSDOF 17
ENDMDL
MODEL 2
REMARK VINA RESULT:     -12.5      6.219     11.796
REMARK SMILES O=C(NCCCCNC(=O)c1cc(-c2ccccc2)nc(Nc2nc3ccccc3s2)n1)c1ccc(-c2c3nc(c(-c4cc(S(=O)(=O)[O-])ccc4F)c4ccc([nH]4)c(-c4cc(S(=O)(=O)[O-])ccc4F)c4nc(c(-c5cc(S(=O)(=O)[O-])ccc5F)c5ccc2[nH]5)C=C4)C=C3)cc1
REMARK SMILES IDX 5 1 4 2 3 3 1 4 2 5 33 7 34 8 95 9 35 10 94 11 36 12 37 13
REMARK SMILES IDX 38 14 88 15 39 16 93 17 87 18 89 19 40 20 92 21 86 22 85 23
REMARK SMILES IDX 41 25 73 26 53 27 72 28 54 29 57 30 71 31 90 32 55 33 56 34
REMARK SMILES IDX 70 36 91 37 58 38 42 39 43 40 51 41 44 42 50 43 52 44 49 45
REMARK SMILES IDX 45 46 46 47 47 48 48 49 74 50 75 51 83 52 76 53 82 54 84 55
REMARK SMILES IDX 81 56 77 57 78 58 79 59 80 60 59 61 60 62 68 63 61 64 67 65
REMARK SMILES IDX 69 66 66 67 62 68 63 69 64 70 65 71 6 72 7 73 8 74 9 75
REMARK SMILES IDX 10 77 11 78 12 79 32 80 13 81 21 82 20 83 14 84 15 85 19 86
REMARK SMILES IDX 16 87 18 88 17 89 22 90 23 92 24 93 31 94 25 95 30 96 26 97
REMARK SMILES IDX 29 98 27 99 28 100
REMARK H PARENT 3 6 89 24 57 35 8 76 22 91
REMARK Flexibility Score: inf
ROOT
ATOM      1  C   UNL A   1      38.370  19.617  24.926  1.00  0.00     0.023 C 
ENDROOT
BRANCH   1   2
ATOM      2  C   UNL A   1      39.293  19.907  26.101  1.00  0.00     0.116 C 
BRANCH   2   3
ATOM      3  N   UNL A   1      40.526  19.135  26.066  1.00  0.00    -0.352 N 
ATOM      4  O   UNL A   1      42.754  18.792  26.012  1.00  0.00    -0.269 OA
ATOM      5  C   UNL A   1      41.826  19.572  26.185  1.00  0.00     0.251 C 
ATOM      6  H   UNL A   1      40.415  18.165  25.939  1.00  0.00     0.163 HD
BRANCH   5   7
ATOM      7  C   UNL A   1      42.092  20.995  26.496  1.00  0.00     0.039 A 
ATOM      8  C   UNL A   1      42.097  21.956  25.483  1.00  0.00     0.014 A 
ATOM      9  C   UNL A   1      42.355  21.365  27.818  1.00  0.00     0.014 A 
ATOM     10  C   UNL A   1      42.510  23.253  25.764  1.00  0.00     0.010 A 
ATOM     11  C   UNL A   1      42.685  22.692  28.113  1.00  0.00     0.010 A 
ATOM     12  C   UNL A   1      42.798  23.640  27.084  1.00  0.00    -0.014 A 
BRANCH  12  13
ATOM     13  C   UNL A   1      43.159  25.053  27.366  1.00  0.00     0.031 A 
ATOM     14  C   UNL A   1      42.189  25.987  28.034  1.00  0.00     0.074 A 
ATOM     15  C   UNL A   1      44.392  25.481  27.028  1.00  0.00     0.049 A 
ATOM     16  N   UNL A   1      42.344  27.249  28.351  1.00  0.00    -0.248 NA
ATOM     17  C   UNL A   1      40.871  25.439  28.381  1.00  0.00     0.031 C 
ATOM     18  C   UNL A   1      45.411  24.663  26.364  1.00  0.00     0.029 A 
ATOM     19  N   UNL A   1      45.003  26.695  27.200  1.00  0.00    -0.354 N 
ATOM     20  C   UNL A   1      41.139  27.652  28.918  1.00  0.00     0.074 A 
ATOM     21  C   UNL A   1      40.254  26.506  28.869  1.00  0.00     0.031 C 
ATOM     22  C   UNL A   1      46.529  25.387  26.218  1.00  0.00     0.029 A 
ATOM     23  C   UNL A   1      46.287  26.737  26.712  1.00  0.00     0.049 A 
ATOM     24  H   UNL A   1      44.564  27.464  27.632  1.00  0.00     0.167 HD
ATOM     25  C   UNL A   1      40.810  28.863  29.435  1.00  0.00     0.034 A 
ATOM     26  C   UNL A   1      47.167  27.753  26.643  1.00  0.00     0.034 A 
ATOM     27  C   UNL A   1      41.712  29.991  29.476  1.00  0.00     0.049 A 
ATOM     28  C   UNL A   1      46.769  29.094  27.195  1.00  0.00     0.074 A 
ATOM     29  C   UNL A   1      41.498  31.249  30.018  1.00  0.00     0.029 A 
ATOM     30  N   UNL A   1      42.995  30.007  28.943  1.00  0.00    -0.354 N 
ATOM     31  N   UNL A   1      45.635  29.450  27.753  1.00  0.00    -0.248 NA
ATOM     32  C   UNL A   1      47.767  30.166  27.112  1.00  0.00     0.031 C 
ATOM     33  C   UNL A   1      42.622  32.040  29.751  1.00  0.00     0.029 A 
ATOM     34  C   UNL A   1      43.569  31.260  29.110  1.00  0.00     0.049 A 
ATOM     35  H   UNL A   1      43.434  29.240  28.510  1.00  0.00     0.167 HD
ATOM     36  C   UNL A   1      45.790  30.788  28.100  1.00  0.00     0.074 A 
ATOM     37  C   UNL A   1      47.134  31.165  27.709  1.00  0.00     0.031 C 
ATOM     38  C   UNL A   1      44.901  31.628  28.689  1.00  0.00     0.034 A 
BRANCH  25  39
ATOM     39  C   UNL A   1      39.400  29.040  29.954  1.00  0.00     0.023 A 
ATOM     40  C   UNL A   1      38.378  29.586  29.159  1.00  0.00     0.031 A 
ATOM     41  C   UNL A   1      39.081  28.678  31.275  1.00  0.00     0.131 A 
ATOM     42  C   UNL A   1      37.108  29.818  29.711  1.00  0.00     0.055 A 
ATOM     43  C   UNL A   1      37.795  28.840  31.796  1.00  0.00     0.041 A 
ATOM     44  F   UNL A   1      40.019  28.169  32.091  1.00  0.00    -0.206 F 
ATOM     45  C   UNL A   1      36.803  29.427  31.017  1.00  0.00     0.022 A 
BRANCH  42  46
ATOM     46  S   UNL A   1      35.902  30.769  28.746  1.00  0.00     0.124 S 
ATOM     47  O   UNL A   1      35.254  31.568  29.784  1.00  0.00    -0.237 OA
ATOM     48  O   UNL A   1      36.751  31.501  27.814  1.00  0.00    -0.237 OA
ATOM     49  O   UNL A   1      35.056  29.741  28.144  1.00  0.00    -0.744 OA
ENDBRANCH  42  46
ENDBRANCH  25  39
BRANCH  26  50
ATOM     50  C   UNL A   1      48.490  27.547  25.989  1.00  0.00     0.023 A 
ATOM     51  C   UNL A   1      48.632  27.618  24.595  1.00  0.00     0.031 A 
ATOM     52  C   UNL A   1      49.634  27.272  26.760  1.00  0.00     0.131 A 
ATOM     53  C   UNL A   1      49.888  27.384  24.013  1.00  0.00     0.055 A 
ATOM     54  C   UNL A   1      50.889  27.091  26.179  1.00  0.00     0.041 A 
ATOM     55  F   UNL A   1      49.550  27.202  28.098  1.00  0.00    -0.206 F 
ATOM     56  C   UNL A   1      51.019  27.137  24.795  1.00  0.00     0.022 A 
BRANCH  53  57
ATOM     57  S   UNL A   1      50.011  27.348  22.204  1.00  0.00     0.124 S 
ATOM     58  O   UNL A   1      48.922  26.445  21.848  1.00  0.00    -0.237 OA
ATOM     59  O   UNL A   1      49.820  28.753  21.858  1.00  0.00    -0.237 OA
ATOM     60  O   UNL A   1      51.357  26.828  21.965  1.00  0.00    -0.744 OA
ENDBRANCH  53  57
ENDBRANCH  26  50
BRANCH  38  61
ATOM     61  C   UNL A   1      45.381  33.032  28.965  1.00  0.00     0.023 A 
ATOM     62  C   UNL A   1      45.244  34.057  28.013  1.00  0.00     0.031 A 
ATOM     63  C   UNL A   1      46.009  33.339  30.185  1.00  0.00     0.131 A 
ATOM     64  C   UNL A   1      45.780  35.328  28.274  1.00  0.00     0.055 A 
ATOM     65  C   UNL A   1      46.489  34.620  30.461  1.00  0.00     0.041 A 
ATOM     66  F   UNL A   1      46.170  32.396  31.127  1.00  0.00    -0.206 F 
ATOM     67  C   UNL A   1      46.388  35.619  29.498  1.00  0.00     0.022 A 
BRANCH  64  68
ATOM     68  S   UNL A   1      45.755  36.572  26.953  1.00  0.00     0.124 S 
ATOM     69  O   UNL A   1      46.698  37.565  27.456  1.00  0.00    -0.237 OA
ATOM     70  O   UNL A   1      46.196  35.805  25.793  1.00  0.00    -0.237 OA
ATOM     71  O   UNL A   1      44.359  37.004  26.916  1.00  0.00    -0.744 OA
ENDBRANCH  64  68
ENDBRANCH  38  61
ENDBRANCH  12  13
ENDBRANCH   5   7
ENDBRANCH   2   3
ENDBRANCH   1   2
BRANCH   1  72
ATOM     72  C   UNL A   1      37.036  20.357  24.940  1.00  0.00     0.023 C 
BRANCH  72  73
ATOM     73  C   UNL A   1      37.126  21.873  24.815  1.00  0.00     0.116 C 
BRANCH  73  74
ATOM     74  N   UNL A   1      36.486  22.584  25.909  1.00  0.00    -0.351 N 
ATOM     75  C   UNL A   1      35.149  22.643  26.233  1.00  0.00     0.270 C 
ATOM     76  H   UNL A   1      37.091  23.093  26.497  1.00  0.00     0.163 HD
ATOM     77  O   UNL A   1      34.772  23.286  27.208  1.00  0.00    -0.268 OA
BRANCH  75  78
ATOM     78  C   UNL A   1      34.175  21.898  25.405  1.00  0.00     0.134 A 
ATOM     79  C   UNL A   1      34.016  20.553  25.582  1.00  0.00     0.063 A 
ATOM     80  N   UNL A   1      33.553  22.605  24.457  1.00  0.00    -0.207 NA
ATOM     81  C   UNL A   1      33.214  19.935  24.651  1.00  0.00     0.077 A 
ATOM     82  C   UNL A   1      32.749  21.951  23.618  1.00  0.00     0.230 A 
ATOM     83  N   UNL A   1      32.564  20.619  23.677  1.00  0.00    -0.213 NA
BRANCH  81  84
ATOM     84  C   UNL A   1      33.136  18.468  24.618  1.00  0.00     0.000 A 
ATOM     85  C   UNL A   1      33.790  17.738  23.611  1.00  0.00     0.010 A 
ATOM     86  C   UNL A   1      32.513  17.748  25.655  1.00  0.00     0.010 A 
ATOM     87  C   UNL A   1      33.853  16.343  23.660  1.00  0.00     0.001 A 
ATOM     88  C   UNL A   1      32.572  16.354  25.703  1.00  0.00     0.001 A 
ATOM     89  C   UNL A   1      33.250  15.653  24.709  1.00  0.00     0.000 A 
ENDBRANCH  81  84
BRANCH  82  90
ATOM     90  N   UNL A   1      32.004  22.668  22.684  1.00  0.00    -0.300 N 
ATOM     91  H   UNL A   1      31.758  22.226  21.840  1.00  0.00     0.172 HD
BRANCH  90  92
ATOM     92  C   UNL A   1      31.606  23.941  22.889  1.00  0.00     0.190 A 
ATOM     93  N   UNL A   1      30.566  24.301  23.606  1.00  0.00    -0.220 NA
ATOM     94  S   UNL A   1      32.463  25.265  22.186  1.00  0.00    -0.097 S 
ATOM     95  C   UNL A   1      30.271  25.632  23.417  1.00  0.00     0.084 A 
ATOM     96  C   UNL A   1      31.188  26.337  22.641  1.00  0.00     0.056 A 
ATOM     97  C   UNL A   1      29.135  26.299  23.916  1.00  0.00     0.030 A 
ATOM     98  C   UNL A   1      31.000  27.695  22.333  1.00  0.00     0.021 A 
ATOM     99  C   UNL A   1      28.929  27.644  23.602  1.00  0.00     0.002 A 
ATOM    100  C   UNL A   1      29.850  28.331  22.818  1.00  0.00     0.002 A 
ENDBRANCH  90  92
ENDBRANCH  82  90
ENDBRANCH  75  78
ENDBRANCH  73  74
ENDBRANCH  72  73
ENDBRANCH   1  72
TORSDOF 17
ENDMDL
MODEL 3
REMARK VINA RESULT:     -12.5      5.926     12.206
REMARK SMILES O=C(NCCCCNC(=O)c1cc(-c2ccccc2)nc(Nc2nc3ccccc3s2)n1)c1ccc(-c2c3nc(c(-c4cc(S(=O)(=O)[O-])ccc4F)c4ccc([nH]4)c(-c4cc(S(=O)(=O)[O-])ccc4F)c4nc(c(-c5cc(S(=O)(=O)[O-])ccc5F)c5ccc2[nH]5)C=C4)C=C3)cc1
REMARK SMILES IDX 5 1 4 2 3 3 1 4 2 5 33 7 34 8 95 9 35 10 94 11 36 12 37 13
REMARK SMILES IDX 38 14 88 15 39 16 93 17 87 18 89 19 40 20 92 21 86 22 85 23
REMARK SMILES IDX 41 25 73 26 53 27 72 28 54 29 57 30 71 31 90 32 55 33 56 34
REMARK SMILES IDX 70 36 91 37 58 38 42 39 43 40 51 41 44 42 50 43 52 44 49 45
REMARK SMILES IDX 45 46 46 47 47 48 48 49 74 50 75 51 83 52 76 53 82 54 84 55
REMARK SMILES IDX 81 56 77 57 78 58 79 59 80 60 59 61 60 62 68 63 61 64 67 65
REMARK SMILES IDX 69 66 66 67 62 68 63 69 64 70 65 71 6 72 7 73 8 74 9 75
REMARK SMILES IDX 10 77 11 78 12 79 32 80 13 81 21 82 20 83 14 84 15 85 19 86
REMARK SMILES IDX 16 87 18 88 17 89 22 90 23 92 24 93 31 94 25 95 30 96 26 97
REMARK SMILES IDX 29 98 27 99 28 100
REMARK H PARENT 3 6 89 24 57 35 8 76 22 91
REMARK Flexibility Score: inf
ROOT
ATOM      1  C   UNL A   1      39.163  20.733  25.415  1.00  0.00     0.023 C 
ENDROOT
BRANCH   1   2
ATOM      2  C   UNL A   1      39.816  20.004  26.582  1.00  0.00     0.116 C 
BRANCH   2   3
ATOM      3  N   UNL A   1      40.867  19.088  26.170  1.00  0.00    -0.352 N 
ATOM      4  O   UNL A   1      42.917  18.472  25.459  1.00  0.00    -0.269 OA
ATOM      5  C   UNL A   1      42.195  19.349  25.914  1.00  0.00     0.251 C 
ATOM      6  H   UNL A   1      40.592  18.149  26.059  1.00  0.00     0.163 HD
BRANCH   5   7
ATOM      7  C   UNL A   1      42.732  20.706  26.166  1.00  0.00     0.039 A 
ATOM      8  C   UNL A   1      43.002  21.135  27.467  1.00  0.00     0.014 A 
ATOM      9  C   UNL A   1      42.951  21.563  25.083  1.00  0.00     0.014 A 
ATOM     10  C   UNL A   1      43.346  22.461  27.699  1.00  0.00     0.010 A 
ATOM     11  C   UNL A   1      43.383  22.872  25.314  1.00  0.00     0.010 A 
ATOM     12  C   UNL A   1      43.552  23.343  26.625  1.00  0.00    -0.014 A 
BRANCH  12  13
ATOM     13  C   UNL A   1      43.997  24.734  26.900  1.00  0.00     0.031 A 
ATOM     14  C   UNL A   1      43.053  25.756  27.467  1.00  0.00     0.074 A 
ATOM     15  C   UNL A   1      45.280  25.060  26.649  1.00  0.00     0.049 A 
ATOM     16  N   UNL A   1      43.278  27.012  27.765  1.00  0.00    -0.248 NA
ATOM     17  C   UNL A   1      41.674  25.317  27.724  1.00  0.00     0.031 C 
ATOM     18  C   UNL A   1      46.283  24.150  26.087  1.00  0.00     0.029 A 
ATOM     19  N   UNL A   1      45.967  26.230  26.839  1.00  0.00    -0.354 N 
ATOM     20  C   UNL A   1      42.068  27.520  28.227  1.00  0.00     0.074 A 
ATOM     21  C   UNL A   1      41.104  26.441  28.137  1.00  0.00     0.031 C 
ATOM     22  C   UNL A   1      47.460  24.784  26.010  1.00  0.00     0.029 A 
ATOM     23  C   UNL A   1      47.284  26.163  26.452  1.00  0.00     0.049 A 
ATOM     24  H   UNL A   1      45.556  27.042  27.216  1.00  0.00     0.167 HD
ATOM     25  C   UNL A   1      41.793  28.766  28.688  1.00  0.00     0.034 A 
ATOM     26  C   UNL A   1      48.241  27.109  26.427  1.00  0.00     0.034 A 
ATOM     27  C   UNL A   1      42.772  29.826  28.771  1.00  0.00     0.049 A 
ATOM     28  C   UNL A   1      47.905  28.491  26.913  1.00  0.00     0.074 A 
ATOM     29  C   UNL A   1      42.613  31.112  29.264  1.00  0.00     0.029 A 
ATOM     30  N   UNL A   1      44.089  29.732  28.340  1.00  0.00    -0.354 N 
ATOM     31  N   UNL A   1      46.762  28.946  27.373  1.00  0.00    -0.248 NA
ATOM     32  C   UNL A   1      48.984  29.483  26.883  1.00  0.00     0.031 C 
ATOM     33  C   UNL A   1      43.810  31.810  29.066  1.00  0.00     0.029 A 
ATOM     34  C   UNL A   1      44.742  30.943  28.520  1.00  0.00     0.049 A 
ATOM     35  H   UNL A   1      44.500  28.921  27.960  1.00  0.00     0.167 HD
ATOM     36  C   UNL A   1      46.991  30.279  27.698  1.00  0.00     0.074 A 
ATOM     37  C   UNL A   1      48.386  30.544  27.404  1.00  0.00     0.031 C 
ATOM     38  C   UNL A   1      46.126  31.199  28.195  1.00  0.00     0.034 A 
BRANCH  25  39
ATOM     39  C   UNL A   1      40.365  29.062  29.090  1.00  0.00     0.023 A 
ATOM     40  C   UNL A   1      39.952  29.041  30.434  1.00  0.00     0.031 A 
ATOM     41  C   UNL A   1      39.398  29.349  28.111  1.00  0.00     0.131 A 
ATOM     42  C   UNL A   1      38.597  29.230  30.754  1.00  0.00     0.055 A 
ATOM     43  C   UNL A   1      38.066  29.612  28.441  1.00  0.00     0.041 A 
ATOM     44  F   UNL A   1      39.727  29.365  26.809  1.00  0.00    -0.206 F 
ATOM     45  C   UNL A   1      37.656  29.539  29.769  1.00  0.00     0.022 A 
BRANCH  42  46
ATOM     46  S   UNL A   1      38.057  28.926  32.459  1.00  0.00     0.124 S 
ATOM     47  O   UNL A   1      36.640  29.277  32.389  1.00  0.00    -0.237 OA
ATOM     48  O   UNL A   1      38.355  27.509  32.635  1.00  0.00    -0.237 OA
ATOM     49  O   UNL A   1      38.879  29.839  33.248  1.00  0.00    -0.744 OA
ENDBRANCH  42  46
ENDBRANCH  25  39
BRANCH  26  50
ATOM     50  C   UNL A   1      49.590  26.786  25.883  1.00  0.00     0.023 A 
ATOM     51  C   UNL A   1      49.954  27.146  24.577  1.00  0.00     0.031 A 
ATOM     52  C   UNL A   1      50.536  26.106  26.672  1.00  0.00     0.131 A 
ATOM     53  C   UNL A   1      51.223  26.795  24.088  1.00  0.00     0.055 A 
ATOM     54  C   UNL A   1      51.812  25.805  26.198  1.00  0.00     0.041 A 
ATOM     55  F   UNL A   1      50.237  25.747  27.931  1.00  0.00    -0.206 F 
ATOM     56  C   UNL A   1      52.158  26.141  24.893  1.00  0.00     0.022 A 
BRANCH  53  57
ATOM     57  S   UNL A   1      51.612  27.153  22.354  1.00  0.00     0.124 S 
ATOM     58  O   UNL A   1      50.369  26.787  21.686  1.00  0.00    -0.237 OA
ATOM     59  O   UNL A   1      51.921  28.579  22.400  1.00  0.00    -0.237 OA
ATOM     60  O   UNL A   1      52.752  26.280  22.074  1.00  0.00    -0.744 OA
ENDBRANCH  53  57
ENDBRANCH  26  50
BRANCH  38  61
ATOM     61  C   UNL A   1      46.688  32.571  28.474  1.00  0.00     0.023 A 
ATOM     62  C   UNL A   1      46.786  33.546  27.465  1.00  0.00     0.031 A 
ATOM     63  C   UNL A   1      47.159  32.897  29.758  1.00  0.00     0.131 A 
ATOM     64  C   UNL A   1      47.394  34.780  27.744  1.00  0.00     0.055 A 
ATOM     65  C   UNL A   1      47.709  34.147  30.043  1.00  0.00     0.041 A 
ATOM     66  F   UNL A   1      47.093  32.002  30.757  1.00  0.00    -0.206 F 
ATOM     67  C   UNL A   1      47.842  35.092  29.030  1.00  0.00     0.022 A 
BRANCH  64  68
ATOM     68  S   UNL A   1      47.676  35.940  26.377  1.00  0.00     0.124 S 
ATOM     69  O   UNL A   1      46.376  36.590  26.259  1.00  0.00    -0.237 OA
ATOM     70  O   UNL A   1      48.760  36.770  26.892  1.00  0.00    -0.237 OA
ATOM     71  O   UNL A   1      48.039  35.071  25.259  1.00  0.00    -0.744 OA
ENDBRANCH  64  68
ENDBRANCH  38  61
ENDBRANCH  12  13
ENDBRANCH   5   7
ENDBRANCH   2   3
ENDBRANCH   1   2
BRANCH   1  72
ATOM     72  C   UNL A   1      38.567  22.098  25.743  1.00  0.00     0.023 C 
BRANCH  72  73
ATOM     73  C   UNL A   1      37.108  22.288  25.345  1.00  0.00     0.116 C 
BRANCH  73  74
ATOM     74  N   UNL A   1      36.278  22.810  26.419  1.00  0.00    -0.351 N 
ATOM     75  C   UNL A   1      34.915  22.708  26.581  1.00  0.00     0.270 C 
ATOM     76  H   UNL A   1      36.757  23.303  27.125  1.00  0.00     0.163 HD
ATOM     77  O   UNL A   1      34.365  23.200  27.561  1.00  0.00    -0.268 OA
BRANCH  75  78
ATOM     78  C   UNL A   1      34.124  21.974  25.568  1.00  0.00     0.134 A 
ATOM     79  C   UNL A   1      33.897  20.635  25.717  1.00  0.00     0.063 A 
ATOM     80  N   UNL A   1      33.736  22.683  24.504  1.00  0.00    -0.207 NA
ATOM     81  C   UNL A   1      33.300  20.023  24.640  1.00  0.00     0.077 A 
ATOM     82  C   UNL A   1      33.115  22.037  23.517  1.00  0.00     0.230 A 
ATOM     83  N   UNL A   1      32.890  20.710  23.544  1.00  0.00    -0.213 NA
BRANCH  81  84
ATOM     84  C   UNL A   1      33.196  18.558  24.601  1.00  0.00     0.000 A 
ATOM     85  C   UNL A   1      33.766  17.827  23.546  1.00  0.00     0.010 A 
ATOM     86  C   UNL A   1      32.634  17.840  25.674  1.00  0.00     0.010 A 
ATOM     87  C   UNL A   1      33.809  16.431  23.581  1.00  0.00     0.001 A 
ATOM     88  C   UNL A   1      32.673  16.444  25.707  1.00  0.00     0.001 A 
ATOM     89  C   UNL A   1      33.270  15.741  24.664  1.00  0.00     0.000 A 
ENDBRANCH  81  84
BRANCH  82  90
ATOM     90  N   UNL A   1      32.605  22.758  22.439  1.00  0.00    -0.300 N 
ATOM     91  H   UNL A   1      32.355  22.270  21.622  1.00  0.00     0.172 HD
BRANCH  90  92
ATOM     92  C   UNL A   1      32.439  24.097  22.470  1.00  0.00     0.190 A 
ATOM     93  N   UNL A   1      33.290  24.975  21.990  1.00  0.00    -0.220 NA
ATOM     94  S   UNL A   1      31.032  24.802  23.181  1.00  0.00    -0.097 S 
ATOM     95  C   UNL A   1      32.967  26.250  22.395  1.00  0.00     0.084 A 
ATOM     96  C   UNL A   1      31.765  26.363  23.089  1.00  0.00     0.056 A 
ATOM     97  C   UNL A   1      33.752  27.401  22.186  1.00  0.00     0.030 A 
ATOM     98  C   UNL A   1      31.321  27.597  23.595  1.00  0.00     0.021 A 
ATOM     99  C   UNL A   1      33.330  28.629  22.700  1.00  0.00     0.002 A 
ATOM    100  C   UNL A   1      32.130  28.723  23.397  1.00  0.00     0.002 A 
ENDBRANCH  90  92
ENDBRANCH  82  90
ENDBRANCH  75  78
ENDBRANCH  73  74
ENDBRANCH  72  73
ENDBRANCH   1  72
TORSDOF 17
ENDMDL
