MODEL 1
REMARK VINA RESULT:     -10.1      0.000      0.000
REMARK SMILES CC[C@@H](C)CN(CC)C(=O)N1[C@@H](C(C)C)SC[C@H]1C(=O)NCCCCNC(=O)c1ccc(-c2c3nc(c(-c4cc(S(=O)(=O)[O-])ccc4F)c4ccc([nH]4)c(-c4cc(S(=O)(=O)[O-])ccc4F)c4nc(c(-c5cc(S(=O)(=O)[O-])ccc5F)c5ccc2[nH]5)C=C4)C=C3)cc1
REMARK SMILES IDX 22 1 21 2 19 3 20 4 18 6 11 7 12 8 16 9 17 10 9 11 10 12
REMARK SMILES IDX 6 13 5 14 3 15 4 16 2 17 1 18 7 19 8 20 13 21 14 22 15 23
REMARK SMILES IDX 23 24 24 25 25 26 26 27 27 28 28 30 29 31 30 32 91 33 31 34
REMARK SMILES IDX 90 35 32 36 33 37 34 38 84 39 35 40 89 41 83 42 85 43 36 44
REMARK SMILES IDX 88 45 82 46 81 47 37 49 69 50 49 51 68 52 50 53 53 54 67 55
REMARK SMILES IDX 86 56 51 57 52 58 66 60 87 61 54 62 38 63 39 64 47 65 40 66
REMARK SMILES IDX 46 67 48 68 45 69 41 70 42 71 43 72 44 73 70 74 71 75 79 76
REMARK SMILES IDX 72 77 78 78 80 79 77 80 73 81 74 82 75 83 76 84 55 85 56 86
REMARK SMILES IDX 64 87 57 88 63 89 65 90 62 91 58 92 59 93 60 94 61 95
REMARK H PARENT 21 5 26 29 85 48 53 59
REMARK Flexibility Score: inf
ROOT
ATOM      1  C   UNL A   1      36.986  21.439  24.249  1.00  0.00     0.116 C 
ENDROOT
BRANCH   1   2
ATOM      2  N   UNL A   1      37.432  22.664  24.877  1.00  0.00    -0.354 N 
ATOM      3  C   UNL A   1      36.766  23.597  25.608  1.00  0.00     0.243 C 
ATOM      4  O   UNL A   1      37.468  24.434  26.192  1.00  0.00    -0.273 OA
ATOM      5  H   UNL A   1      38.389  22.856  24.753  1.00  0.00     0.163 HD
BRANCH   3   6
ATOM      6  C   UNL A   1      35.249  23.544  25.920  1.00  0.00     0.187 C 
ATOM      7  N   UNL A   1      34.257  23.270  24.862  1.00  0.00    -0.300 N 
ATOM      8  C   UNL A   1      33.215  22.297  25.208  1.00  0.00     0.148 C 
ATOM      9  S   UNL A   1      33.287  22.165  27.029  1.00  0.00    -0.134 SA
ATOM     10  C   UNL A   1      35.039  22.591  27.093  1.00  0.00     0.107 C 
BRANCH   7  11
ATOM     11  C   UNL A   1      34.314  24.113  23.785  1.00  0.00     0.321 C 
ATOM     12  O   UNL A   1      35.148  23.875  22.908  1.00  0.00    -0.248 OA
BRANCH  11  13
ATOM     13  N   UNL A   1      33.568  25.274  23.729  1.00  0.00    -0.325 N 
BRANCH  13  14
ATOM     14  C   UNL A   1      32.560  25.449  24.796  1.00  0.00     0.124 C 
BRANCH  14  15
ATOM     15  C   UNL A   1      32.579  26.858  25.460  1.00  0.00     0.005 C 
ATOM     16  C   UNL A   1      33.974  27.117  26.040  1.00  0.00     0.009 C 
BRANCH  15  17
ATOM     17  C   UNL A   1      31.477  27.013  26.529  1.00  0.00     0.002 C 
ATOM     18  C   UNL A   1      31.600  28.257  27.401  1.00  0.00     0.004 C 
ENDBRANCH  15  17
ENDBRANCH  14  15
ENDBRANCH  13  14
BRANCH  13  19
ATOM     19  C   UNL A   1      33.489  26.261  22.649  1.00  0.00     0.118 C 
ATOM     20  C   UNL A   1      32.645  25.775  21.474  1.00  0.00     0.027 C 
ENDBRANCH  13  19
ENDBRANCH  11  13
ENDBRANCH   7  11
BRANCH   8  21
ATOM     21  C   UNL A   1      33.381  20.968  24.410  1.00  0.00     0.016 C 
ATOM     22  C   UNL A   1      33.327  19.659  25.201  1.00  0.00     0.010 C 
ATOM     23  C   UNL A   1      32.398  20.889  23.237  1.00  0.00     0.010 C 
ENDBRANCH   8  21
ENDBRANCH   3   6
ENDBRANCH   1   2
BRANCH   1  24
ATOM     24  C   UNL A   1      37.219  20.201  25.119  1.00  0.00     0.023 C 
BRANCH  24  25
ATOM     25  C   UNL A   1      38.595  19.560  24.971  1.00  0.00     0.023 C 
BRANCH  25  26
ATOM     26  C   UNL A   1      39.562  19.754  26.132  1.00  0.00     0.116 C 
BRANCH  26  27
ATOM     27  N   UNL A   1      40.853  19.098  25.985  1.00  0.00    -0.352 N 
ATOM     28  C   UNL A   1      42.108  19.656  26.148  1.00  0.00     0.251 C 
ATOM     29  H   UNL A   1      40.829  18.145  25.740  1.00  0.00     0.163 HD
ATOM     30  O   UNL A   1      43.114  18.984  25.964  1.00  0.00    -0.269 OA
BRANCH  28  31
ATOM     31  C   UNL A   1      42.210  21.098  26.482  1.00  0.00     0.039 A 
ATOM     32  C   UNL A   1      42.437  21.471  27.809  1.00  0.00     0.014 A 
ATOM     33  C   UNL A   1      42.219  22.063  25.471  1.00  0.00     0.014 A 
ATOM     34  C   UNL A   1      42.796  22.790  28.104  1.00  0.00     0.010 A 
ATOM     35  C   UNL A   1      42.669  23.349  25.754  1.00  0.00     0.010 A 
ATOM     36  C   UNL A   1      42.985  23.723  27.070  1.00  0.00    -0.014 A 
BRANCH  36  37
ATOM     37  C   UNL A   1      43.546  25.078  27.335  1.00  0.00     0.031 A 
ATOM     38  C   UNL A   1      42.669  26.164  27.899  1.00  0.00     0.074 A 
ATOM     39  C   UNL A   1      44.818  25.358  26.983  1.00  0.00     0.049 A 
ATOM     40  N   UNL A   1      42.940  27.429  28.099  1.00  0.00    -0.248 NA
ATOM     41  C   UNL A   1      41.292  25.783  28.241  1.00  0.00     0.031 C 
ATOM     42  C   UNL A   1      45.755  24.416  26.365  1.00  0.00     0.029 A 
ATOM     43  N   UNL A   1      45.544  26.520  27.084  1.00  0.00    -0.354 N 
ATOM     44  C   UNL A   1      41.761  27.998  28.571  1.00  0.00     0.074 A 
ATOM     45  C   UNL A   1      40.759  26.953  28.556  1.00  0.00     0.031 C 
ATOM     46  C   UNL A   1      46.938  25.025  26.177  1.00  0.00     0.029 A 
ATOM     47  C   UNL A   1      46.835  26.413  26.616  1.00  0.00     0.049 A 
ATOM     48  H   UNL A   1      45.176  27.353  27.457  1.00  0.00     0.167 HD
ATOM     49  C   UNL A   1      41.539  29.266  29.002  1.00  0.00     0.034 A 
ATOM     50  C   UNL A   1      47.822  27.328  26.544  1.00  0.00     0.034 A 
ATOM     51  C   UNL A   1      42.553  30.291  29.035  1.00  0.00     0.049 A 
ATOM     52  C   UNL A   1      47.559  28.726  27.040  1.00  0.00     0.074 A 
ATOM     53  C   UNL A   1      42.454  31.589  29.506  1.00  0.00     0.029 A 
ATOM     54  N   UNL A   1      43.856  30.136  28.580  1.00  0.00    -0.354 N 
ATOM     55  N   UNL A   1      46.451  29.234  27.528  1.00  0.00    -0.248 NA
ATOM     56  C   UNL A   1      48.683  29.670  26.986  1.00  0.00     0.031 C 
ATOM     57  C   UNL A   1      43.678  32.232  29.288  1.00  0.00     0.029 A 
ATOM     58  C   UNL A   1      44.564  31.318  28.741  1.00  0.00     0.049 A 
ATOM     59  H   UNL A   1      44.224  29.306  28.198  1.00  0.00     0.167 HD
ATOM     60  C   UNL A   1      46.756  30.550  27.867  1.00  0.00     0.074 A 
ATOM     61  C   UNL A   1      48.153  30.751  27.540  1.00  0.00     0.031 C 
ATOM     62  C   UNL A   1      45.953  31.506  28.402  1.00  0.00     0.034 A 
BRANCH  49  63
ATOM     63  C   UNL A   1      40.139  29.603  29.457  1.00  0.00     0.023 A 
ATOM     64  C   UNL A   1      39.815  29.699  30.822  1.00  0.00     0.031 A 
ATOM     65  C   UNL A   1      39.106  29.782  28.522  1.00  0.00     0.131 A 
ATOM     66  C   UNL A   1      38.479  29.873  31.215  1.00  0.00     0.055 A 
ATOM     67  C   UNL A   1      37.792  30.045  28.918  1.00  0.00     0.041 A 
ATOM     68  F   UNL A   1      39.350  29.685  27.205  1.00  0.00    -0.206 F 
ATOM     69  C   UNL A   1      37.469  30.073  30.272  1.00  0.00     0.022 A 
BRANCH  66  70
ATOM     70  S   UNL A   1      38.063  29.675  32.969  1.00  0.00     0.124 S 
ATOM     71  O   UNL A   1      39.026  28.658  33.385  1.00  0.00    -0.237 OA
ATOM     72  O   UNL A   1      38.280  31.016  33.498  1.00  0.00    -0.237 OA
ATOM     73  O   UNL A   1      36.671  29.230  32.943  1.00  0.00    -0.744 OA
ENDBRANCH  66  70
ENDBRANCH  49  63
BRANCH  50  74
ATOM     74  C   UNL A   1      49.155  26.962  25.986  1.00  0.00     0.023 A 
ATOM     75  C   UNL A   1      49.536  27.374  24.698  1.00  0.00     0.031 A 
ATOM     76  C   UNL A   1      50.052  26.159  26.713  1.00  0.00     0.131 A 
ATOM     77  C   UNL A   1      50.757  26.945  24.158  1.00  0.00     0.055 A 
ATOM     78  C   UNL A   1      51.287  25.774  26.189  1.00  0.00     0.041 A 
ATOM     79  F   UNL A   1      49.740  25.745  27.951  1.00  0.00    -0.206 F 
ATOM     80  C   UNL A   1      51.641  26.156  24.898  1.00  0.00     0.022 A 
BRANCH  77  81
ATOM     81  S   UNL A   1      51.143  27.370  22.437  1.00  0.00     0.124 S 
ATOM     82  O   UNL A   1      50.042  26.738  21.719  1.00  0.00    -0.237 OA
ATOM     83  O   UNL A   1      51.128  28.830  22.476  1.00  0.00    -0.237 OA
ATOM     84  O   UNL A   1      52.457  26.769  22.223  1.00  0.00    -0.744 OA
ENDBRANCH  77  81
ENDBRANCH  50  74
BRANCH  62  85
ATOM     85  C   UNL A   1      46.591  32.837  28.706  1.00  0.00     0.023 A 
ATOM     86  C   UNL A   1      46.690  33.850  27.736  1.00  0.00     0.031 A 
ATOM     87  C   UNL A   1      47.125  33.088  29.983  1.00  0.00     0.131 A 
ATOM     88  C   UNL A   1      47.356  35.047  28.042  1.00  0.00     0.055 A 
ATOM     89  C   UNL A   1      47.738  34.301  30.298  1.00  0.00     0.041 A 
ATOM     90  F   UNL A   1      47.059  32.155  30.946  1.00  0.00    -0.206 F 
ATOM     91  C   UNL A   1      47.868  35.284  29.320  1.00  0.00     0.022 A 
BRANCH  88  92
ATOM     92  S   UNL A   1      47.624  36.257  26.718  1.00  0.00     0.124 S 
ATOM     93  O   UNL A   1      48.883  36.875  27.120  1.00  0.00    -0.237 OA
ATOM     94  O   UNL A   1      47.681  35.411  25.529  1.00  0.00    -0.237 OA
ATOM     95  O   UNL A   1      46.451  37.125  26.804  1.00  0.00    -0.744 OA
ENDBRANCH  88  92
ENDBRANCH  62  85
ENDBRANCH  36  37
ENDBRANCH  28  31
ENDBRANCH  26  27
ENDBRANCH  25  26
ENDBRANCH  24  25
ENDBRANCH   1  24
TORSDOF 21
ENDMDL
MODEL 2
REMARK VINA RESULT:      -9.6      2.493      7.982
REMARK SMILES CC[C@@H](C)CN(CC)C(=O)N1[C@@H](C(C)C)SC[C@H]1C(=O)NCCCCNC(=O)c1ccc(-c2c3nc(c(-c4cc(S(=O)(=O)[O-])ccc4F)c4ccc([nH]4)c(-c4cc(S(=O)(=O)[O-])ccc4F)c4nc(c(-c5cc(S(=O)(=O)[O-])ccc5F)c5ccc2[nH]5)C=C4)C=C3)cc1
REMARK SMILES IDX 22 1 21 2 19 3 20 4 18 6 11 7 12 8 16 9 17 10 9 11 10 12
REMARK SMILES IDX 6 13 5 14 3 15 4 16 2 17 1 18 7 19 8 20 13 21 14 22 15 23
REMARK SMILES IDX 23 24 24 25 25 26 26 27 27 28 28 30 29 31 30 32 91 33 31 34
REMARK SMILES IDX 90 35 32 36 33 37 34 38 84 39 35 40 89 41 83 42 85 43 36 44
REMARK SMILES IDX 88 45 82 46 81 47 37 49 69 50 49 51 68 52 50 53 53 54 67 55
REMARK SMILES IDX 86 56 51 57 52 58 66 60 87 61 54 62 38 63 39 64 47 65 40 66
REMARK SMILES IDX 46 67 48 68 45 69 41 70 42 71 43 72 44 73 70 74 71 75 79 76
REMARK SMILES IDX 72 77 78 78 80 79 77 80 73 81 74 82 75 83 76 84 55 85 56 86
REMARK SMILES IDX 64 87 57 88 63 89 65 90 62 91 58 92 59 93 60 94 61 95
REMARK H PARENT 21 5 26 29 85 48 53 59
REMARK Flexibility Score: inf
ROOT
ATOM      1  C   UNL A   1      33.636  22.071  23.801  1.00  0.00     0.116 C 
ENDROOT
BRANCH   1   2
ATOM      2  N   UNL A   1      33.858  23.161  22.876  1.00  0.00    -0.354 N 
ATOM      3  C   UNL A   1      33.640  24.499  22.988  1.00  0.00     0.243 C 
ATOM      4  O   UNL A   1      34.129  25.207  22.097  1.00  0.00    -0.273 OA
ATOM      5  H   UNL A   1      34.236  22.885  22.011  1.00  0.00     0.163 HD
BRANCH   3   6
ATOM      6  C   UNL A   1      33.026  25.183  24.235  1.00  0.00     0.187 C 
ATOM      7  N   UNL A   1      31.592  25.046  24.557  1.00  0.00    -0.300 N 
ATOM      8  C   UNL A   1      31.283  24.754  25.961  1.00  0.00     0.148 C 
ATOM      9  S   UNL A   1      32.816  25.157  26.869  1.00  0.00    -0.134 SA
ATOM     10  C   UNL A   1      33.871  24.806  25.448  1.00  0.00     0.107 C 
BRANCH   7  11
ATOM     11  C   UNL A   1      30.737  25.422  23.555  1.00  0.00     0.321 C 
ATOM     12  O   UNL A   1      30.136  24.534  22.946  1.00  0.00    -0.248 OA
BRANCH  11  13
ATOM     13  N   UNL A   1      30.642  26.733  23.132  1.00  0.00    -0.325 N 
BRANCH  13  14
ATOM     14  C   UNL A   1      29.513  27.512  23.683  1.00  0.00     0.124 C 
BRANCH  14  15
ATOM     15  C   UNL A   1      29.206  28.823  22.899  1.00  0.00     0.005 C 
ATOM     16  C   UNL A   1      29.716  30.020  23.710  1.00  0.00     0.009 C 
BRANCH  15  17
ATOM     17  C   UNL A   1      27.708  28.960  22.558  1.00  0.00     0.002 C 
ATOM     18  C   UNL A   1      26.762  28.273  23.536  1.00  0.00     0.004 C 
ENDBRANCH  15  17
ENDBRANCH  14  15
ENDBRANCH  13  14
BRANCH  13  19
ATOM     19  C   UNL A   1      31.376  27.404  22.056  1.00  0.00     0.118 C 
ATOM     20  C   UNL A   1      32.579  28.189  22.570  1.00  0.00     0.027 C 
ENDBRANCH  13  19
ENDBRANCH  11  13
ENDBRANCH   7  11
BRANCH   8  21
ATOM     21  C   UNL A   1      30.732  23.306  26.138  1.00  0.00     0.016 C 
ATOM     22  C   UNL A   1      31.739  22.207  26.488  1.00  0.00     0.010 C 
ATOM     23  C   UNL A   1      29.573  23.263  27.138  1.00  0.00     0.010 C 
ENDBRANCH   8  21
ENDBRANCH   3   6
ENDBRANCH   1   2
BRANCH   1  24
ATOM     24  C   UNL A   1      34.933  21.387  24.243  1.00  0.00     0.023 C 
BRANCH  24  25
ATOM     25  C   UNL A   1      36.197  22.218  24.050  1.00  0.00     0.023 C 
BRANCH  25  26
ATOM     26  C   UNL A   1      37.087  22.391  25.274  1.00  0.00     0.116 C 
BRANCH  26  27
ATOM     27  N   UNL A   1      38.060  21.331  25.492  1.00  0.00    -0.352 N 
ATOM     28  C   UNL A   1      39.254  21.409  26.187  1.00  0.00     0.251 C 
ATOM     29  H   UNL A   1      37.843  20.455  25.096  1.00  0.00     0.163 HD
ATOM     30  O   UNL A   1      39.991  20.434  26.266  1.00  0.00    -0.269 OA
BRANCH  28  31
ATOM     31  C   UNL A   1      39.655  22.711  26.774  1.00  0.00     0.039 A 
ATOM     32  C   UNL A   1      40.694  22.740  27.708  1.00  0.00     0.014 A 
ATOM     33  C   UNL A   1      39.101  23.904  26.303  1.00  0.00     0.014 A 
ATOM     34  C   UNL A   1      41.259  23.967  28.072  1.00  0.00     0.010 A 
ATOM     35  C   UNL A   1      39.726  25.113  26.593  1.00  0.00     0.010 A 
ATOM     36  C   UNL A   1      40.828  25.158  27.463  1.00  0.00    -0.014 A 
BRANCH  36  37
ATOM     37  C   UNL A   1      41.534  26.450  27.690  1.00  0.00     0.031 A 
ATOM     38  C   UNL A   1      42.949  26.635  27.210  1.00  0.00     0.074 A 
ATOM     39  C   UNL A   1      40.936  27.424  28.409  1.00  0.00     0.049 A 
ATOM     40  N   UNL A   1      43.766  27.640  27.403  1.00  0.00    -0.248 NA
ATOM     41  C   UNL A   1      43.533  25.522  26.449  1.00  0.00     0.031 C 
ATOM     42  C   UNL A   1      39.593  27.347  28.991  1.00  0.00     0.029 A 
ATOM     43  N   UNL A   1      41.383  28.668  28.783  1.00  0.00    -0.354 N 
ATOM     44  C   UNL A   1      44.967  27.270  26.805  1.00  0.00     0.074 A 
ATOM     45  C   UNL A   1      44.787  25.922  26.309  1.00  0.00     0.031 C 
ATOM     46  C   UNL A   1      39.314  28.503  29.615  1.00  0.00     0.029 A 
ATOM     47  C   UNL A   1      40.469  29.389  29.520  1.00  0.00     0.049 A 
ATOM     48  H   UNL A   1      42.274  29.012  28.547  1.00  0.00     0.167 HD
ATOM     49  C   UNL A   1      46.104  27.996  26.659  1.00  0.00     0.034 A 
ATOM     50  C   UNL A   1      40.554  30.620  30.061  1.00  0.00     0.034 A 
ATOM     51  C   UNL A   1      46.261  29.348  27.136  1.00  0.00     0.049 A 
ATOM     52  C   UNL A   1      41.822  31.414  29.875  1.00  0.00     0.074 A 
ATOM     53  C   UNL A   1      47.346  30.195  26.991  1.00  0.00     0.029 A 
ATOM     54  N   UNL A   1      45.303  30.055  27.851  1.00  0.00    -0.354 N 
ATOM     55  N   UNL A   1      42.931  31.067  29.266  1.00  0.00    -0.248 NA
ATOM     56  C   UNL A   1      41.843  32.769  30.441  1.00  0.00     0.031 C 
ATOM     57  C   UNL A   1      47.066  31.390  27.661  1.00  0.00     0.029 A 
ATOM     58  C   UNL A   1      45.779  31.318  28.170  1.00  0.00     0.049 A 
ATOM     59  H   UNL A   1      44.414  29.708  28.097  1.00  0.00     0.167 HD
ATOM     60  C   UNL A   1      43.771  32.174  29.350  1.00  0.00     0.074 A 
ATOM     61  C   UNL A   1      43.034  33.202  30.057  1.00  0.00     0.031 C 
ATOM     62  C   UNL A   1      45.037  32.328  28.883  1.00  0.00     0.034 A 
BRANCH  49  63
ATOM     63  C   UNL A   1      47.264  27.323  25.964  1.00  0.00     0.023 A 
ATOM     64  C   UNL A   1      48.202  26.556  26.678  1.00  0.00     0.031 A 
ATOM     65  C   UNL A   1      47.465  27.487  24.583  1.00  0.00     0.131 A 
ATOM     66  C   UNL A   1      49.344  26.062  26.029  1.00  0.00     0.055 A 
ATOM     67  C   UNL A   1      48.558  26.917  23.925  1.00  0.00     0.041 A 
ATOM     68  F   UNL A   1      46.614  28.223  23.850  1.00  0.00    -0.206 F 
ATOM     69  C   UNL A   1      49.516  26.215  24.652  1.00  0.00     0.022 A 
BRANCH  66  70
ATOM     70  S   UNL A   1      50.674  25.358  27.041  1.00  0.00     0.124 S 
ATOM     71  O   UNL A   1      51.080  26.514  27.837  1.00  0.00    -0.237 OA
ATOM     72  O   UNL A   1      49.991  24.292  27.763  1.00  0.00    -0.237 OA
ATOM     73  O   UNL A   1      51.657  24.915  26.054  1.00  0.00    -0.744 OA
ENDBRANCH  66  70
ENDBRANCH  49  63
BRANCH  50  74
ATOM     74  C   UNL A   1      39.410  31.191  30.828  1.00  0.00     0.023 A 
ATOM     75  C   UNL A   1      39.421  31.210  32.233  1.00  0.00     0.031 A 
ATOM     76  C   UNL A   1      38.270  31.686  30.172  1.00  0.00     0.131 A 
ATOM     77  C   UNL A   1      38.298  31.669  32.936  1.00  0.00     0.055 A 
ATOM     78  C   UNL A   1      37.173  32.187  30.876  1.00  0.00     0.041 A 
ATOM     79  F   UNL A   1      38.211  31.699  28.831  1.00  0.00    -0.206 F 
ATOM     80  C   UNL A   1      37.178  32.168  32.268  1.00  0.00     0.022 A 
BRANCH  77  81
ATOM     81  S   UNL A   1      38.292  31.534  34.746  1.00  0.00     0.124 S 
ATOM     82  O   UNL A   1      39.486  32.289  35.106  1.00  0.00    -0.237 OA
ATOM     83  O   UNL A   1      37.015  32.153  35.090  1.00  0.00    -0.237 OA
ATOM     84  O   UNL A   1      38.366  30.094  34.981  1.00  0.00    -0.744 OA
ENDBRANCH  77  81
ENDBRANCH  50  74
BRANCH  62  85
ATOM     85  C   UNL A   1      45.677  33.678  29.087  1.00  0.00     0.023 A 
ATOM     86  C   UNL A   1      45.341  34.785  28.289  1.00  0.00     0.031 A 
ATOM     87  C   UNL A   1      46.653  33.851  30.086  1.00  0.00     0.131 A 
ATOM     88  C   UNL A   1      46.015  36.003  28.467  1.00  0.00     0.055 A 
ATOM     89  C   UNL A   1      47.280  35.080  30.294  1.00  0.00     0.041 A 
ATOM     90  F   UNL A   1      47.011  32.826  30.875  1.00  0.00    -0.206 F 
ATOM     91  C   UNL A   1      46.972  36.162  29.473  1.00  0.00     0.022 A 
BRANCH  88  92
ATOM     92  S   UNL A   1      45.688  37.356  27.305  1.00  0.00     0.124 S 
ATOM     93  O   UNL A   1      45.855  38.532  28.153  1.00  0.00    -0.237 OA
ATOM     94  O   UNL A   1      46.718  37.153  26.290  1.00  0.00    -0.237 OA
ATOM     95  O   UNL A   1      44.320  37.103  26.858  1.00  0.00    -0.744 OA
ENDBRANCH  88  92
ENDBRANCH  62  85
ENDBRANCH  36  37
ENDBRANCH  28  31
ENDBRANCH  26  27
ENDBRANCH  25  26
ENDBRANCH  24  25
ENDBRANCH   1  24
TORSDOF 21
ENDMDL
MODEL 3
REMARK VINA RESULT:      -9.6      2.395      2.730
REMARK SMILES CC[C@@H](C)CN(CC)C(=O)N1[C@@H](C(C)C)SC[C@H]1C(=O)NCCCCNC(=O)c1ccc(-c2c3nc(c(-c4cc(S(=O)(=O)[O-])ccc4F)c4ccc([nH]4)c(-c4cc(S(=O)(=O)[O-])ccc4F)c4nc(c(-c5cc(S(=O)(=O)[O-])ccc5F)c5ccc2[nH]5)C=C4)C=C3)cc1
REMARK SMILES IDX 22 1 21 2 19 3 20 4 18 6 11 7 12 8 16 9 17 10 9 11 10 12
REMARK SMILES IDX 6 13 5 14 3 15 4 16 2 17 1 18 7 19 8 20 13 21 14 22 15 23
REMARK SMILES IDX 23 24 24 25 25 26 26 27 27 28 28 30 29 31 30 32 91 33 31 34
REMARK SMILES IDX 90 35 32 36 33 37 34 38 84 39 35 40 89 41 83 42 85 43 36 44
REMARK SMILES IDX 88 45 82 46 81 47 37 49 69 50 49 51 68 52 50 53 53 54 67 55
REMARK SMILES IDX 86 56 51 57 52 58 66 60 87 61 54 62 38 63 39 64 47 65 40 66
REMARK SMILES IDX 46 67 48 68 45 69 41 70 42 71 43 72 44 73 70 74 71 75 79 76
REMARK SMILES IDX 72 77 78 78 80 79 77 80 73 81 74 82 75 83 76 84 55 85 56 86
REMARK SMILES IDX 64 87 57 88 63 89 65 90 62 91 58 92 59 93 60 94 61 95
REMARK H PARENT 21 5 26 29 85 48 53 59
REMARK Flexibility Score: inf
ROOT
ATOM      1  C   UNL A   1      36.935  21.545  24.122  1.00  0.00     0.116 C 
ENDROOT
BRANCH   1   2
ATOM      2  N   UNL A   1      37.274  22.787  24.781  1.00  0.00    -0.354 N 
ATOM      3  C   UNL A   1      36.530  23.643  25.530  1.00  0.00     0.243 C 
ATOM      4  O   UNL A   1      37.158  24.522  26.138  1.00  0.00    -0.273 OA
ATOM      5  H   UNL A   1      38.213  23.061  24.667  1.00  0.00     0.163 HD
BRANCH   3   6
ATOM      6  C   UNL A   1      35.022  23.456  25.832  1.00  0.00     0.187 C 
ATOM      7  N   UNL A   1      34.058  23.142  24.760  1.00  0.00    -0.300 N 
ATOM      8  C   UNL A   1      33.097  22.076  25.065  1.00  0.00     0.148 C 
ATOM      9  S   UNL A   1      33.176  21.884  26.881  1.00  0.00    -0.134 SA
ATOM     10  C   UNL A   1      34.887  22.448  26.968  1.00  0.00     0.107 C 
BRANCH   7  11
ATOM     11  C   UNL A   1      34.049  24.025  23.714  1.00  0.00     0.321 C 
ATOM     12  O   UNL A   1      35.063  24.108  23.018  1.00  0.00    -0.248 OA
BRANCH  11  13
ATOM     13  N   UNL A   1      33.002  24.904  23.513  1.00  0.00    -0.325 N 
BRANCH  13  14
ATOM     14  C   UNL A   1      32.736  25.859  24.610  1.00  0.00     0.124 C 
BRANCH  14  15
ATOM     15  C   UNL A   1      33.644  27.124  24.582  1.00  0.00     0.005 C 
ATOM     16  C   UNL A   1      33.864  27.612  26.018  1.00  0.00     0.009 C 
BRANCH  15  17
ATOM     17  C   UNL A   1      33.064  28.236  23.683  1.00  0.00     0.002 C 
ATOM     18  C   UNL A   1      34.095  29.203  23.113  1.00  0.00     0.004 C 
ENDBRANCH  15  17
ENDBRANCH  14  15
ENDBRANCH  13  14
BRANCH  13  19
ATOM     19  C   UNL A   1      31.985  24.892  22.458  1.00  0.00     0.118 C 
ATOM     20  C   UNL A   1      32.391  25.723  21.244  1.00  0.00     0.027 C 
ENDBRANCH  13  19
ENDBRANCH  11  13
ENDBRANCH   7  11
BRANCH   8  21
ATOM     21  C   UNL A   1      33.373  20.795  24.220  1.00  0.00     0.016 C 
ATOM     22  C   UNL A   1      33.616  19.489  24.980  1.00  0.00     0.010 C 
ATOM     23  C   UNL A   1      32.282  20.570  23.168  1.00  0.00     0.010 C 
ENDBRANCH   8  21
ENDBRANCH   3   6
ENDBRANCH   1   2
BRANCH   1  24
ATOM     24  C   UNL A   1      37.302  20.309  24.948  1.00  0.00     0.023 C 
BRANCH  24  25
ATOM     25  C   UNL A   1      38.753  19.857  24.822  1.00  0.00     0.023 C 
BRANCH  25  26
ATOM     26  C   UNL A   1      39.463  19.487  26.117  1.00  0.00     0.116 C 
BRANCH  26  27
ATOM     27  N   UNL A   1      40.796  18.925  25.959  1.00  0.00    -0.352 N 
ATOM     28  C   UNL A   1      42.010  19.554  26.173  1.00  0.00     0.251 C 
ATOM     29  H   UNL A   1      40.839  17.987  25.664  1.00  0.00     0.163 HD
ATOM     30  O   UNL A   1      43.061  18.960  25.972  1.00  0.00    -0.269 OA
BRANCH  28  31
ATOM     31  C   UNL A   1      42.012  20.980  26.584  1.00  0.00     0.039 A 
ATOM     32  C   UNL A   1      42.306  21.300  27.911  1.00  0.00     0.014 A 
ATOM     33  C   UNL A   1      41.861  21.993  25.634  1.00  0.00     0.014 A 
ATOM     34  C   UNL A   1      42.571  22.629  28.258  1.00  0.00     0.010 A 
ATOM     35  C   UNL A   1      42.218  23.299  25.961  1.00  0.00     0.010 A 
ATOM     36  C   UNL A   1      42.600  23.629  27.271  1.00  0.00    -0.014 A 
BRANCH  36  37
ATOM     37  C   UNL A   1      43.060  25.014  27.576  1.00  0.00     0.031 A 
ATOM     38  C   UNL A   1      42.107  26.015  28.171  1.00  0.00     0.074 A 
ATOM     39  C   UNL A   1      44.307  25.397  27.231  1.00  0.00     0.049 A 
ATOM     40  N   UNL A   1      42.284  27.290  28.409  1.00  0.00    -0.248 NA
ATOM     41  C   UNL A   1      40.763  25.523  28.503  1.00  0.00     0.031 C 
ATOM     42  C   UNL A   1      45.310  24.544  26.586  1.00  0.00     0.029 A 
ATOM     43  N   UNL A   1      44.946  26.605  27.367  1.00  0.00    -0.354 N 
ATOM     44  C   UNL A   1      41.068  27.756  28.897  1.00  0.00     0.074 A 
ATOM     45  C   UNL A   1      40.146  26.641  28.852  1.00  0.00     0.031 C 
ATOM     46  C   UNL A   1      46.443  25.244  26.415  1.00  0.00     0.029 A 
ATOM     47  C   UNL A   1      46.240  26.607  26.895  1.00  0.00     0.049 A 
ATOM     48  H   UNL A   1      44.518  27.397  27.764  1.00  0.00     0.167 HD
ATOM     49  C   UNL A   1      40.755  28.991  29.365  1.00  0.00     0.034 A 
ATOM     50  C   UNL A   1      47.157  27.594  26.849  1.00  0.00     0.034 A 
ATOM     51  C   UNL A   1      41.690  30.087  29.428  1.00  0.00     0.049 A 
ATOM     52  C   UNL A   1      46.793  28.954  27.387  1.00  0.00     0.074 A 
ATOM     53  C   UNL A   1      41.497  31.360  29.937  1.00  0.00     0.029 A 
ATOM     54  N   UNL A   1      43.000  30.041  28.969  1.00  0.00    -0.354 N 
ATOM     55  N   UNL A   1      45.652  29.365  27.890  1.00  0.00    -0.248 NA
ATOM     56  C   UNL A   1      47.844  29.980  27.361  1.00  0.00     0.031 C 
ATOM     57  C   UNL A   1      42.670  32.097  29.738  1.00  0.00     0.029 A 
ATOM     58  C   UNL A   1      43.619  31.267  29.164  1.00  0.00     0.049 A 
ATOM     59  H   UNL A   1      43.427  29.253  28.562  1.00  0.00     0.167 HD
ATOM     60  C   UNL A   1      45.860  30.689  28.267  1.00  0.00     0.074 A 
ATOM     61  C   UNL A   1      47.237  31.001  27.946  1.00  0.00     0.031 C 
ATOM     62  C   UNL A   1      44.990  31.567  28.830  1.00  0.00     0.034 A 
BRANCH  49  63
ATOM     63  C   UNL A   1      39.335  29.210  29.830  1.00  0.00     0.023 A 
ATOM     64  C   UNL A   1      38.396  29.886  29.030  1.00  0.00     0.031 A 
ATOM     65  C   UNL A   1      38.924  28.784  31.105  1.00  0.00     0.131 A 
ATOM     66  C   UNL A   1      37.129  30.198  29.546  1.00  0.00     0.055 A 
ATOM     67  C   UNL A   1      37.631  29.019  31.579  1.00  0.00     0.041 A 
ATOM     68  F   UNL A   1      39.779  28.150  31.923  1.00  0.00    -0.206 F 
ATOM     69  C   UNL A   1      36.731  29.747  30.805  1.00  0.00     0.022 A 
BRANCH  66  70
ATOM     70  S   UNL A   1      36.073  31.336  28.609  1.00  0.00     0.124 S 
ATOM     71  O   UNL A   1      35.814  30.564  27.396  1.00  0.00    -0.237 OA
ATOM     72  O   UNL A   1      34.938  31.522  29.503  1.00  0.00    -0.237 OA
ATOM     73  O   UNL A   1      36.921  32.512  28.419  1.00  0.00    -0.744 OA
ENDBRANCH  66  70
ENDBRANCH  49  63
BRANCH  50  74
ATOM     74  C   UNL A   1      48.512  27.344  26.281  1.00  0.00     0.023 A 
ATOM     75  C   UNL A   1      49.580  26.957  27.108  1.00  0.00     0.031 A 
ATOM     76  C   UNL A   1      48.773  27.531  24.913  1.00  0.00     0.131 A 
ATOM     77  C   UNL A   1      50.867  26.814  26.569  1.00  0.00     0.055 A 
ATOM     78  C   UNL A   1      50.046  27.341  24.372  1.00  0.00     0.041 A 
ATOM     79  F   UNL A   1      47.786  27.893  24.078  1.00  0.00    -0.206 F 
ATOM     80  C   UNL A   1      51.106  26.993  25.205  1.00  0.00     0.022 A 
BRANCH  77  81
ATOM     81  S   UNL A   1      52.246  26.464  27.695  1.00  0.00     0.124 S 
ATOM     82  O   UNL A   1      51.546  26.098  28.920  1.00  0.00    -0.237 OA
ATOM     83  O   UNL A   1      52.935  25.379  27.001  1.00  0.00    -0.237 OA
ATOM     84  O   UNL A   1      52.975  27.729  27.745  1.00  0.00    -0.744 OA
ENDBRANCH  77  81
ENDBRANCH  50  74
BRANCH  62  85
ATOM     85  C   UNL A   1      45.529  32.932  29.173  1.00  0.00     0.023 A 
ATOM     86  C   UNL A   1      46.107  33.207  30.425  1.00  0.00     0.031 A 
ATOM     87  C   UNL A   1      45.446  33.979  28.237  1.00  0.00     0.131 A 
ATOM     88  C   UNL A   1      46.529  34.510  30.727  1.00  0.00     0.055 A 
ATOM     89  C   UNL A   1      45.919  35.260  28.523  1.00  0.00     0.041 A 
ATOM     90  F   UNL A   1      44.904  33.771  27.027  1.00  0.00    -0.206 F 
ATOM     91  C   UNL A   1      46.452  35.535  29.780  1.00  0.00     0.022 A 
BRANCH  88  92
ATOM     92  S   UNL A   1      47.102  34.872  32.410  1.00  0.00     0.124 S 
ATOM     93  O   UNL A   1      46.623  33.710  33.151  1.00  0.00    -0.237 OA
ATOM     94  O   UNL A   1      48.548  34.963  32.234  1.00  0.00    -0.237 OA
ATOM     95  O   UNL A   1      46.437  36.132  32.735  1.00  0.00    -0.744 OA
ENDBRANCH  88  92
ENDBRANCH  62  85
ENDBRANCH  36  37
ENDBRANCH  28  31
ENDBRANCH  26  27
ENDBRANCH  25  26
ENDBRANCH  24  25
ENDBRANCH   1  24
TORSDOF 21
ENDMDL
