MODEL 1
REMARK VINA RESULT:     -12.3      0.000      0.000
REMARK SMILES O=C(NCCCCNC(=O)c1cncc(Oc2cc(F)ccc2F)n1)c1ccc(-c2c3nc(c(-c4cc(S(=O)(=O)[O-])ccc4F)c4ccc([nH]4)c(-c4cc(S(=O)(=O)[O-])ccc4F)c4nc(c(-c5cc(S(=O)(=O)[O-])ccc5F)c5ccc2[nH]5)C=C4)C=C3)cc1
REMARK SMILES IDX 5 1 4 2 3 3 1 4 2 5 26 7 27 8 88 9 28 10 87 11 29 12 30 13
REMARK SMILES IDX 31 14 81 15 32 16 86 17 80 18 82 19 33 20 85 21 79 22 78 23
REMARK SMILES IDX 34 25 66 26 46 27 65 28 47 29 50 30 64 31 83 32 48 33 49 34
REMARK SMILES IDX 63 36 84 37 51 38 35 39 36 40 44 41 37 42 43 43 45 44 42 45
REMARK SMILES IDX 38 46 39 47 40 48 41 49 67 50 68 51 76 52 69 53 75 54 77 55
REMARK SMILES IDX 74 56 70 57 71 58 72 59 73 60 52 61 53 62 61 63 54 64 60 65
REMARK SMILES IDX 62 66 59 67 55 68 56 69 57 70 58 71 6 72 7 73 8 74 9 75
REMARK SMILES IDX 10 77 11 78 12 79 25 80 13 81 15 82 14 83 16 84 17 85 18 86
REMARK SMILES IDX 23 87 19 88 22 89 24 90 20 91 21 92
REMARK H PARENT 3 6 82 24 50 35 8 76
REMARK Flexibility Score: inf
ROOT
ATOM      1  C   UNL A   1      31.917  28.301  26.153  1.00  0.00     0.023 C 
ENDROOT
BRANCH   1   2
ATOM      2  C   UNL A   1      32.840  29.427  25.704  1.00  0.00     0.116 C 
BRANCH   2   3
ATOM      3  N   UNL A   1      32.464  30.733  26.225  1.00  0.00    -0.352 N 
ATOM      4  O   UNL A   1      32.594  32.574  27.520  1.00  0.00    -0.269 OA
ATOM      5  C   UNL A   1      33.125  31.538  27.126  1.00  0.00     0.251 C 
ATOM      6  H   UNL A   1      31.612  31.092  25.885  1.00  0.00     0.163 HD
BRANCH   5   7
ATOM      7  C   UNL A   1      34.452  31.139  27.646  1.00  0.00     0.039 A 
ATOM      8  C   UNL A   1      34.720  29.813  27.988  1.00  0.00     0.014 A 
ATOM      9  C   UNL A   1      35.439  32.116  27.819  1.00  0.00     0.014 A 
ATOM     10  C   UNL A   1      35.893  29.498  28.666  1.00  0.00     0.010 A 
ATOM     11  C   UNL A   1      36.658  31.777  28.418  1.00  0.00     0.010 A 
ATOM     12  C   UNL A   1      36.876  30.476  28.897  1.00  0.00    -0.014 A 
BRANCH  12  13
ATOM     13  C   UNL A   1      38.113  30.102  29.635  1.00  0.00     0.031 A 
ATOM     14  C   UNL A   1      38.345  30.571  31.048  1.00  0.00     0.074 A 
ATOM     15  C   UNL A   1      39.006  29.285  29.042  1.00  0.00     0.049 A 
ATOM     16  N   UNL A   1      39.335  30.292  31.860  1.00  0.00    -0.248 NA
ATOM     17  C   UNL A   1      37.344  31.482  31.622  1.00  0.00     0.031 C 
ATOM     18  C   UNL A   1      38.896  28.774  27.673  1.00  0.00     0.029 A 
ATOM     19  N   UNL A   1      40.159  28.715  29.516  1.00  0.00    -0.354 N 
ATOM     20  C   UNL A   1      39.091  31.008  33.028  1.00  0.00     0.074 A 
ATOM     21  C   UNL A   1      37.874  31.761  32.804  1.00  0.00     0.031 C 
ATOM     22  C   UNL A   1      39.903  27.919  27.441  1.00  0.00     0.029 A 
ATOM     23  C   UNL A   1      40.764  27.868  28.617  1.00  0.00     0.049 A 
ATOM     24  H   UNL A   1      40.519  28.895  30.415  1.00  0.00     0.167 HD
ATOM     25  C   UNL A   1      39.808  31.030  34.180  1.00  0.00     0.034 A 
ATOM     26  C   UNL A   1      41.889  27.135  28.722  1.00  0.00     0.034 A 
ATOM     27  C   UNL A   1      41.011  30.258  34.396  1.00  0.00     0.049 A 
ATOM     28  C   UNL A   1      42.668  27.179  30.008  1.00  0.00     0.074 A 
ATOM     29  C   UNL A   1      41.790  30.173  35.538  1.00  0.00     0.029 A 
ATOM     30  N   UNL A   1      41.615  29.441  33.447  1.00  0.00    -0.354 N 
ATOM     31  N   UNL A   1      42.409  27.847  31.108  1.00  0.00    -0.248 NA
ATOM     32  C   UNL A   1      43.889  26.366  30.066  1.00  0.00     0.031 C 
ATOM     33  C   UNL A   1      42.893  29.357  35.261  1.00  0.00     0.029 A 
ATOM     34  C   UNL A   1      42.768  28.873  33.969  1.00  0.00     0.049 A 
ATOM     35  H   UNL A   1      41.273  29.287  32.537  1.00  0.00     0.167 HD
ATOM     36  C   UNL A   1      43.428  27.517  31.998  1.00  0.00     0.074 A 
ATOM     37  C   UNL A   1      44.290  26.576  31.310  1.00  0.00     0.031 C 
ATOM     38  C   UNL A   1      43.631  27.952  33.266  1.00  0.00     0.034 A 
BRANCH  25  39
ATOM     39  C   UNL A   1      39.336  31.955  35.278  1.00  0.00     0.023 A 
ATOM     40  C   UNL A   1      39.758  33.293  35.359  1.00  0.00     0.031 A 
ATOM     41  C   UNL A   1      38.463  31.481  36.275  1.00  0.00     0.131 A 
ATOM     42  C   UNL A   1      39.367  34.088  36.449  1.00  0.00     0.055 A 
ATOM     43  C   UNL A   1      38.017  32.299  37.315  1.00  0.00     0.041 A 
ATOM     44  F   UNL A   1      38.040  30.208  36.262  1.00  0.00    -0.206 F 
ATOM     45  C   UNL A   1      38.481  33.606  37.415  1.00  0.00     0.022 A 
BRANCH  42  46
ATOM     46  S   UNL A   1      40.146  35.713  36.663  1.00  0.00     0.124 S 
ATOM     47  O   UNL A   1      41.566  35.365  36.642  1.00  0.00    -0.237 OA
ATOM     48  O   UNL A   1      39.653  36.453  35.508  1.00  0.00    -0.237 OA
ATOM     49  O   UNL A   1      39.643  36.167  37.957  1.00  0.00    -0.744 OA
ENDBRANCH  42  46
ENDBRANCH  25  39
BRANCH  26  50
ATOM     50  C   UNL A   1      42.352  26.307  27.574  1.00  0.00     0.023 A 
ATOM     51  C   UNL A   1      41.992  24.956  27.463  1.00  0.00     0.031 A 
ATOM     52  C   UNL A   1      43.183  26.855  26.581  1.00  0.00     0.131 A 
ATOM     53  C   UNL A   1      42.491  24.185  26.400  1.00  0.00     0.055 A 
ATOM     54  C   UNL A   1      43.636  26.099  25.499  1.00  0.00     0.041 A 
ATOM     55  F   UNL A   1      43.551  28.145  26.637  1.00  0.00    -0.206 F 
ATOM     56  C   UNL A   1      43.299  24.751  25.411  1.00  0.00     0.022 A 
BRANCH  53  57
ATOM     57  S   UNL A   1      42.122  22.411  26.365  1.00  0.00     0.124 S 
ATOM     58  O   UNL A   1      42.895  21.968  25.210  1.00  0.00    -0.237 OA
ATOM     59  O   UNL A   1      42.610  21.975  27.670  1.00  0.00    -0.237 OA
ATOM     60  O   UNL A   1      40.671  22.369  26.200  1.00  0.00    -0.744 OA
ENDBRANCH  53  57
ENDBRANCH  26  50
BRANCH  38  61
ATOM     61  C   UNL A   1      44.819  27.376  33.996  1.00  0.00     0.023 A 
ATOM     62  C   UNL A   1      44.718  26.193  34.751  1.00  0.00     0.031 A 
ATOM     63  C   UNL A   1      46.057  28.041  33.969  1.00  0.00     0.131 A 
ATOM     64  C   UNL A   1      45.816  25.748  35.500  1.00  0.00     0.055 A 
ATOM     65  C   UNL A   1      47.164  27.561  34.671  1.00  0.00     0.041 A 
ATOM     66  F   UNL A   1      46.208  29.175  33.266  1.00  0.00    -0.206 F 
ATOM     67  C   UNL A   1      47.043  26.416  35.455  1.00  0.00     0.022 A 
BRANCH  64  68
ATOM     68  S   UNL A   1      45.592  24.340  36.622  1.00  0.00     0.124 S 
ATOM     69  O   UNL A   1      46.540  23.369  36.085  1.00  0.00    -0.237 OA
ATOM     70  O   UNL A   1      45.936  24.916  37.918  1.00  0.00    -0.237 OA
ATOM     71  O   UNL A   1      44.183  23.989  36.455  1.00  0.00    -0.744 OA
ENDBRANCH  64  68
ENDBRANCH  38  61
ENDBRANCH  12  13
ENDBRANCH   5   7
ENDBRANCH   2   3
ENDBRANCH   1   2
BRANCH   1  72
ATOM     72  C   UNL A   1      32.574  26.936  26.354  1.00  0.00     0.023 C 
BRANCH  72  73
ATOM     73  C   UNL A   1      32.014  25.796  25.506  1.00  0.00     0.116 C 
BRANCH  73  74
ATOM     74  N   UNL A   1      32.723  25.616  24.251  1.00  0.00    -0.351 N 
ATOM     75  C   UNL A   1      33.490  24.557  23.821  1.00  0.00     0.271 C 
ATOM     76  H   UNL A   1      32.644  26.362  23.613  1.00  0.00     0.163 HD
ATOM     77  O   UNL A   1      34.045  24.608  22.726  1.00  0.00    -0.267 OA
BRANCH  75  78
ATOM     78  C   UNL A   1      33.634  23.349  24.662  1.00  0.00     0.150 A 
ATOM     79  C   UNL A   1      34.667  23.257  25.584  1.00  0.00     0.145 A 
ATOM     80  N   UNL A   1      32.706  22.371  24.500  1.00  0.00    -0.205 NA
ATOM     81  N   UNL A   1      34.851  22.160  26.362  1.00  0.00    -0.257 NA
ATOM     82  C   UNL A   1      32.868  21.291  25.294  1.00  0.00     0.238 A 
ATOM     83  C   UNL A   1      33.925  21.181  26.193  1.00  0.00     0.179 A 
BRANCH  82  84
ATOM     84  O   UNL A   1      31.989  20.217  25.219  1.00  0.00    -0.434 OA
BRANCH  84  85
ATOM     85  C   UNL A   1      32.503  19.054  24.700  1.00  0.00     0.168 A 
ATOM     86  C   UNL A   1      32.918  18.018  25.536  1.00  0.00     0.089 A 
ATOM     87  C   UNL A   1      32.526  18.885  23.315  1.00  0.00     0.166 A 
ATOM     88  C   UNL A   1      33.392  16.841  24.966  1.00  0.00     0.127 A 
ATOM     89  C   UNL A   1      32.998  17.703  22.750  1.00  0.00     0.046 A 
ATOM     90  F   UNL A   1      32.083  19.862  22.510  1.00  0.00    -0.203 F 
ATOM     91  F   UNL A   1      33.800  15.843  25.760  1.00  0.00    -0.207 F 
ATOM     92  C   UNL A   1      33.438  16.674  23.583  1.00  0.00     0.042 A 
ENDBRANCH  84  85
ENDBRANCH  82  84
ENDBRANCH  75  78
ENDBRANCH  73  74
ENDBRANCH  72  73
ENDBRANCH   1  72
TORSDOF 16
ENDMDL
MODEL 2
REMARK VINA RESULT:     -12.2      1.577      2.282
REMARK SMILES O=C(NCCCCNC(=O)c1cncc(Oc2cc(F)ccc2F)n1)c1ccc(-c2c3nc(c(-c4cc(S(=O)(=O)[O-])ccc4F)c4ccc([nH]4)c(-c4cc(S(=O)(=O)[O-])ccc4F)c4nc(c(-c5cc(S(=O)(=O)[O-])ccc5F)c5ccc2[nH]5)C=C4)C=C3)cc1
REMARK SMILES IDX 5 1 4 2 3 3 1 4 2 5 26 7 27 8 88 9 28 10 87 11 29 12 30 13
REMARK SMILES IDX 31 14 81 15 32 16 86 17 80 18 82 19 33 20 85 21 79 22 78 23
REMARK SMILES IDX 34 25 66 26 46 27 65 28 47 29 50 30 64 31 83 32 48 33 49 34
REMARK SMILES IDX 63 36 84 37 51 38 35 39 36 40 44 41 37 42 43 43 45 44 42 45
REMARK SMILES IDX 38 46 39 47 40 48 41 49 67 50 68 51 76 52 69 53 75 54 77 55
REMARK SMILES IDX 74 56 70 57 71 58 72 59 73 60 52 61 53 62 61 63 54 64 60 65
REMARK SMILES IDX 62 66 59 67 55 68 56 69 57 70 58 71 6 72 7 73 8 74 9 75
REMARK SMILES IDX 10 77 11 78 12 79 25 80 13 81 15 82 14 83 16 84 17 85 18 86
REMARK SMILES IDX 23 87 19 88 22 89 24 90 20 91 21 92
REMARK H PARENT 3 6 82 24 50 35 8 76
REMARK Flexibility Score: inf
ROOT
ATOM      1  C   UNL A   1      31.398  29.739  25.368  1.00  0.00     0.023 C 
ENDROOT
BRANCH   1   2
ATOM      2  C   UNL A   1      32.124  30.237  26.612  1.00  0.00     0.116 C 
BRANCH   2   3
ATOM      3  N   UNL A   1      32.010  31.674  26.818  1.00  0.00    -0.352 N 
ATOM      4  O   UNL A   1      32.568  33.717  27.589  1.00  0.00    -0.269 OA
ATOM      5  C   UNL A   1      32.889  32.543  27.425  1.00  0.00     0.251 C 
ATOM      6  H   UNL A   1      31.183  32.084  26.474  1.00  0.00     0.163 HD
BRANCH   5   7
ATOM      7  C   UNL A   1      34.201  32.056  27.911  1.00  0.00     0.039 A 
ATOM      8  C   UNL A   1      34.385  30.717  28.256  1.00  0.00     0.014 A 
ATOM      9  C   UNL A   1      35.257  32.962  28.047  1.00  0.00     0.014 A 
ATOM     10  C   UNL A   1      35.552  30.325  28.904  1.00  0.00     0.010 A 
ATOM     11  C   UNL A   1      36.466  32.543  28.615  1.00  0.00     0.010 A 
ATOM     12  C   UNL A   1      36.607  31.234  29.098  1.00  0.00    -0.014 A 
BRANCH  12  13
ATOM     13  C   UNL A   1      37.836  30.780  29.805  1.00  0.00     0.031 A 
ATOM     14  C   UNL A   1      38.101  31.177  31.234  1.00  0.00     0.074 A 
ATOM     15  C   UNL A   1      38.689  29.953  29.167  1.00  0.00     0.049 A 
ATOM     16  N   UNL A   1      39.088  30.825  32.020  1.00  0.00    -0.248 NA
ATOM     17  C   UNL A   1      37.144  32.101  31.858  1.00  0.00     0.031 C 
ATOM     18  C   UNL A   1      38.544  29.507  27.779  1.00  0.00     0.029 A 
ATOM     19  N   UNL A   1      39.823  29.318  29.601  1.00  0.00    -0.354 N 
ATOM     20  C   UNL A   1      38.885  31.498  33.221  1.00  0.00     0.074 A 
ATOM     21  C   UNL A   1      37.697  32.308  33.045  1.00  0.00     0.031 C 
ATOM     22  C   UNL A   1      39.513  28.624  27.497  1.00  0.00     0.029 A 
ATOM     23  C   UNL A   1      40.384  28.488  28.660  1.00  0.00     0.049 A 
ATOM     24  H   UNL A   1      40.200  29.445  30.503  1.00  0.00     0.167 HD
ATOM     25  C   UNL A   1      39.615  31.442  34.364  1.00  0.00     0.034 A 
ATOM     26  C   UNL A   1      41.480  27.707  28.720  1.00  0.00     0.034 A 
ATOM     27  C   UNL A   1      40.788  30.614  34.532  1.00  0.00     0.049 A 
ATOM     28  C   UNL A   1      42.273  27.664  29.996  1.00  0.00     0.074 A 
ATOM     29  C   UNL A   1      41.575  30.449  35.660  1.00  0.00     0.029 A 
ATOM     30  N   UNL A   1      41.348  29.816  33.542  1.00  0.00    -0.354 N 
ATOM     31  N   UNL A   1      42.053  28.294  31.127  1.00  0.00    -0.248 NA
ATOM     32  C   UNL A   1      43.461  26.802  30.004  1.00  0.00     0.031 C 
ATOM     33  C   UNL A   1      42.641  29.602  35.334  1.00  0.00     0.029 A 
ATOM     34  C   UNL A   1      42.483  29.180  34.024  1.00  0.00     0.049 A 
ATOM     35  H   UNL A   1      40.991  29.714  32.630  1.00  0.00     0.167 HD
ATOM     36  C   UNL A   1      43.067  27.886  31.989  1.00  0.00     0.074 A 
ATOM     37  C   UNL A   1      43.883  26.942  31.252  1.00  0.00     0.031 C 
ATOM     38  C   UNL A   1      43.301  28.257  33.273  1.00  0.00     0.034 A 
BRANCH  25  39
ATOM     39  C   UNL A   1      39.192  32.337  35.506  1.00  0.00     0.023 A 
ATOM     40  C   UNL A   1      39.632  33.667  35.614  1.00  0.00     0.031 A 
ATOM     41  C   UNL A   1      38.349  31.840  36.518  1.00  0.00     0.131 A 
ATOM     42  C   UNL A   1      39.288  34.431  36.741  1.00  0.00     0.055 A 
ATOM     43  C   UNL A   1      37.949  32.630  37.598  1.00  0.00     0.041 A 
ATOM     44  F   UNL A   1      37.911  30.573  36.480  1.00  0.00    -0.206 F 
ATOM     45  C   UNL A   1      38.431  33.928  37.722  1.00  0.00     0.022 A 
BRANCH  42  46
ATOM     46  S   UNL A   1      40.093  36.041  36.978  1.00  0.00     0.124 S 
ATOM     47  O   UNL A   1      39.388  36.553  38.151  1.00  0.00    -0.237 OA
ATOM     48  O   UNL A   1      41.487  35.668  37.183  1.00  0.00    -0.237 OA
ATOM     49  O   UNL A   1      39.812  36.752  35.733  1.00  0.00    -0.744 OA
ENDBRANCH  42  46
ENDBRANCH  25  39
BRANCH  26  50
ATOM     50  C   UNL A   1      41.897  26.912  27.531  1.00  0.00     0.023 A 
ATOM     51  C   UNL A   1      41.648  25.533  27.458  1.00  0.00     0.031 A 
ATOM     52  C   UNL A   1      42.573  27.520  26.459  1.00  0.00     0.131 A 
ATOM     53  C   UNL A   1      42.104  24.799  26.351  1.00  0.00     0.055 A 
ATOM     54  C   UNL A   1      42.981  26.796  25.338  1.00  0.00     0.041 A 
ATOM     55  F   UNL A   1      42.830  28.838  26.478  1.00  0.00    -0.206 F 
ATOM     56  C   UNL A   1      42.756  25.424  25.286  1.00  0.00     0.022 A 
BRANCH  53  57
ATOM     57  S   UNL A   1      41.891  22.999  26.355  1.00  0.00     0.124 S 
ATOM     58  O   UNL A   1      42.586  22.619  27.580  1.00  0.00    -0.237 OA
ATOM     59  O   UNL A   1      40.437  22.866  26.374  1.00  0.00    -0.237 OA
ATOM     60  O   UNL A   1      42.536  22.578  25.114  1.00  0.00    -0.744 OA
ENDBRANCH  53  57
ENDBRANCH  26  50
BRANCH  38  61
ATOM     61  C   UNL A   1      44.472  27.603  33.962  1.00  0.00     0.023 A 
ATOM     62  C   UNL A   1      44.335  26.386  34.653  1.00  0.00     0.031 A 
ATOM     63  C   UNL A   1      45.732  28.227  33.963  1.00  0.00     0.131 A 
ATOM     64  C   UNL A   1      45.422  25.864  35.371  1.00  0.00     0.055 A 
ATOM     65  C   UNL A   1      46.826  27.673  34.630  1.00  0.00     0.041 A 
ATOM     66  F   UNL A   1      45.917  29.391  33.321  1.00  0.00    -0.206 F 
ATOM     67  C   UNL A   1      46.670  26.493  35.353  1.00  0.00     0.022 A 
BRANCH  64  68
ATOM     68  S   UNL A   1      45.156  24.406  36.417  1.00  0.00     0.124 S 
ATOM     69  O   UNL A   1      43.902  23.878  35.889  1.00  0.00    -0.237 OA
ATOM     70  O   UNL A   1      46.347  23.608  36.148  1.00  0.00    -0.237 OA
ATOM     71  O   UNL A   1      45.074  24.962  37.766  1.00  0.00    -0.744 OA
ENDBRANCH  64  68
ENDBRANCH  38  61
ENDBRANCH  12  13
ENDBRANCH   5   7
ENDBRANCH   2   3
ENDBRANCH   1   2
BRANCH   1  72
ATOM     72  C   UNL A   1      32.165  28.743  24.499  1.00  0.00     0.023 C 
BRANCH  72  73
ATOM     73  C   UNL A   1      31.549  28.436  23.136  1.00  0.00     0.116 C 
BRANCH  73  74
ATOM     74  N   UNL A   1      32.489  27.836  22.206  1.00  0.00    -0.351 N 
ATOM     75  C   UNL A   1      32.934  26.536  22.123  1.00  0.00     0.271 C 
ATOM     76  H   UNL A   1      32.865  28.451  21.535  1.00  0.00     0.163 HD
ATOM     77  O   UNL A   1      33.770  26.228  21.277  1.00  0.00    -0.267 OA
BRANCH  75  78
ATOM     78  C   UNL A   1      32.396  25.504  23.035  1.00  0.00     0.150 A 
ATOM     79  C   UNL A   1      31.127  24.981  22.829  1.00  0.00     0.145 A 
ATOM     80  N   UNL A   1      33.205  25.090  24.044  1.00  0.00    -0.205 NA
ATOM     81  N   UNL A   1      30.583  24.048  23.652  1.00  0.00    -0.257 NA
ATOM     82  C   UNL A   1      32.679  24.139  24.846  1.00  0.00     0.238 A 
ATOM     83  C   UNL A   1      31.393  23.641  24.664  1.00  0.00     0.179 A 
BRANCH  82  84
ATOM     84  O   UNL A   1      33.404  23.637  25.921  1.00  0.00    -0.434 OA
BRANCH  84  85
ATOM     85  C   UNL A   1      34.450  22.805  25.605  1.00  0.00     0.168 A 
ATOM     86  C   UNL A   1      34.229  21.467  25.279  1.00  0.00     0.089 A 
ATOM     87  C   UNL A   1      35.738  23.338  25.532  1.00  0.00     0.166 A 
ATOM     88  C   UNL A   1      35.314  20.672  24.925  1.00  0.00     0.127 A 
ATOM     89  C   UNL A   1      36.819  22.538  25.172  1.00  0.00     0.046 A 
ATOM     90  F   UNL A   1      35.946  24.636  25.799  1.00  0.00    -0.203 F 
ATOM     91  F   UNL A   1      35.113  19.384  24.617  1.00  0.00    -0.207 F 
ATOM     92  C   UNL A   1      36.606  21.193  24.870  1.00  0.00     0.042 A 
ENDBRANCH  84  85
ENDBRANCH  82  84
ENDBRANCH  75  78
ENDBRANCH  73  74
ENDBRANCH  72  73
ENDBRANCH   1  72
TORSDOF 16
ENDMDL
MODEL 3
REMARK VINA RESULT:     -12.0      2.147      2.802
REMARK SMILES O=C(NCCCCNC(=O)c1cncc(Oc2cc(F)ccc2F)n1)c1ccc(-c2c3nc(c(-c4cc(S(=O)(=O)[O-])ccc4F)c4ccc([nH]4)c(-c4cc(S(=O)(=O)[O-])ccc4F)c4nc(c(-c5cc(S(=O)(=O)[O-])ccc5F)c5ccc2[nH]5)C=C4)C=C3)cc1
REMARK SMILES IDX 5 1 4 2 3 3 1 4 2 5 26 7 27 8 88 9 28 10 87 11 29 12 30 13
REMARK SMILES IDX 31 14 81 15 32 16 86 17 80 18 82 19 33 20 85 21 79 22 78 23
REMARK SMILES IDX 34 25 66 26 46 27 65 28 47 29 50 30 64 31 83 32 48 33 49 34
REMARK SMILES IDX 63 36 84 37 51 38 35 39 36 40 44 41 37 42 43 43 45 44 42 45
REMARK SMILES IDX 38 46 39 47 40 48 41 49 67 50 68 51 76 52 69 53 75 54 77 55
REMARK SMILES IDX 74 56 70 57 71 58 72 59 73 60 52 61 53 62 61 63 54 64 60 65
REMARK SMILES IDX 62 66 59 67 55 68 56 69 57 70 58 71 6 72 7 73 8 74 9 75
REMARK SMILES IDX 10 77 11 78 12 79 25 80 13 81 15 82 14 83 16 84 17 85 18 86
REMARK SMILES IDX 23 87 19 88 22 89 24 90 20 91 21 92
REMARK H PARENT 3 6 82 24 50 35 8 76
REMARK Flexibility Score: inf
ROOT
ATOM      1  C   UNL A   1      31.837  29.970  25.568  1.00  0.00     0.023 C 
ENDROOT
BRANCH   1   2
ATOM      2  C   UNL A   1      32.621  30.409  26.798  1.00  0.00     0.116 C 
BRANCH   2   3
ATOM      3  N   UNL A   1      32.607  31.848  27.017  1.00  0.00    -0.352 N 
ATOM      4  O   UNL A   1      33.311  33.844  27.794  1.00  0.00    -0.269 OA
ATOM      5  C   UNL A   1      33.550  32.652  27.617  1.00  0.00     0.251 C 
ATOM      6  H   UNL A   1      31.804  32.316  26.688  1.00  0.00     0.163 HD
BRANCH   5   7
ATOM      7  C   UNL A   1      34.833  32.074  28.080  1.00  0.00     0.039 A 
ATOM      8  C   UNL A   1      34.912  30.746  28.499  1.00  0.00     0.014 A 
ATOM      9  C   UNL A   1      35.972  32.886  28.118  1.00  0.00     0.014 A 
ATOM     10  C   UNL A   1      36.067  30.286  29.122  1.00  0.00     0.010 A 
ATOM     11  C   UNL A   1      37.163  32.390  28.662  1.00  0.00     0.010 A 
ATOM     12  C   UNL A   1      37.207  31.103  29.219  1.00  0.00    -0.014 A 
BRANCH  12  13
ATOM     13  C   UNL A   1      38.421  30.579  29.903  1.00  0.00     0.031 A 
ATOM     14  C   UNL A   1      38.729  30.951  31.330  1.00  0.00     0.074 A 
ATOM     15  C   UNL A   1      39.218  29.713  29.246  1.00  0.00     0.049 A 
ATOM     16  N   UNL A   1      39.708  30.540  32.098  1.00  0.00    -0.248 NA
ATOM     17  C   UNL A   1      37.832  31.920  31.975  1.00  0.00     0.031 C 
ATOM     18  C   UNL A   1      39.028  29.286  27.857  1.00  0.00     0.029 A 
ATOM     19  N   UNL A   1      40.323  29.015  29.658  1.00  0.00    -0.354 N 
ATOM     20  C   UNL A   1      39.560  31.215  33.306  1.00  0.00     0.074 A 
ATOM     21  C   UNL A   1      38.414  32.088  33.154  1.00  0.00     0.031 C 
ATOM     22  C   UNL A   1      39.945  28.354  27.555  1.00  0.00     0.029 A 
ATOM     23  C   UNL A   1      40.825  28.163  28.702  1.00  0.00     0.049 A 
ATOM     24  H   UNL A   1      40.721  29.114  30.554  1.00  0.00     0.167 HD
ATOM     25  C   UNL A   1      40.303  31.111  34.437  1.00  0.00     0.034 A 
ATOM     26  C   UNL A   1      41.878  27.324  28.739  1.00  0.00     0.034 A 
ATOM     27  C   UNL A   1      41.433  30.221  34.581  1.00  0.00     0.049 A 
ATOM     28  C   UNL A   1      42.688  27.230  30.003  1.00  0.00     0.074 A 
ATOM     29  C   UNL A   1      42.227  30.006  35.695  1.00  0.00     0.029 A 
ATOM     30  N   UNL A   1      41.934  29.401  33.577  1.00  0.00    -0.354 N 
ATOM     31  N   UNL A   1      42.519  27.862  31.141  1.00  0.00    -0.248 NA
ATOM     32  C   UNL A   1      43.827  26.305  29.986  1.00  0.00     0.031 C 
ATOM     33  C   UNL A   1      43.242  29.105  35.347  1.00  0.00     0.029 A 
ATOM     34  C   UNL A   1      43.041  28.703  34.037  1.00  0.00     0.049 A 
ATOM     35  H   UNL A   1      41.558  29.326  32.670  1.00  0.00     0.167 HD
ATOM     36  C   UNL A   1      43.523  27.394  31.984  1.00  0.00     0.074 A 
ATOM     37  C   UNL A   1      44.276  26.413  31.228  1.00  0.00     0.031 C 
ATOM     38  C   UNL A   1      43.797  27.743  33.266  1.00  0.00     0.034 A 
BRANCH  25  39
ATOM     39  C   UNL A   1      39.946  32.019  35.592  1.00  0.00     0.023 A 
ATOM     40  C   UNL A   1      39.000  31.651  36.564  1.00  0.00     0.031 A 
ATOM     41  C   UNL A   1      40.550  33.285  35.709  1.00  0.00     0.131 A 
ATOM     42  C   UNL A   1      38.632  32.565  37.566  1.00  0.00     0.055 A 
ATOM     43  C   UNL A   1      40.235  34.159  36.752  1.00  0.00     0.041 A 
ATOM     44  F   UNL A   1      41.448  33.699  34.802  1.00  0.00    -0.206 F 
ATOM     45  C   UNL A   1      39.260  33.807  37.679  1.00  0.00     0.022 A 
BRANCH  42  46
ATOM     46  S   UNL A   1      37.219  32.163  38.632  1.00  0.00     0.124 S 
ATOM     47  O   UNL A   1      37.694  32.621  39.936  1.00  0.00    -0.237 OA
ATOM     48  O   UNL A   1      36.142  32.942  38.034  1.00  0.00    -0.237 OA
ATOM     49  O   UNL A   1      37.090  30.713  38.499  1.00  0.00    -0.744 OA
ENDBRANCH  42  46
ENDBRANCH  25  39
BRANCH  26  50
ATOM     50  C   UNL A   1      42.233  26.517  27.539  1.00  0.00     0.023 A 
ATOM     51  C   UNL A   1      41.931  25.148  27.471  1.00  0.00     0.031 A 
ATOM     52  C   UNL A   1      42.903  27.103  26.450  1.00  0.00     0.131 A 
ATOM     53  C   UNL A   1      42.330  24.400  26.351  1.00  0.00     0.055 A 
ATOM     54  C   UNL A   1      43.253  26.366  25.318  1.00  0.00     0.041 A 
ATOM     55  F   UNL A   1      43.208  28.410  26.464  1.00  0.00    -0.206 F 
ATOM     56  C   UNL A   1      42.977  25.003  25.270  1.00  0.00     0.022 A 
BRANCH  53  57
ATOM     57  S   UNL A   1      42.051  22.609  26.358  1.00  0.00     0.124 S 
ATOM     58  O   UNL A   1      42.882  22.183  27.479  1.00  0.00    -0.237 OA
ATOM     59  O   UNL A   1      40.608  22.529  26.563  1.00  0.00    -0.237 OA
ATOM     60  O   UNL A   1      42.516  22.188  25.039  1.00  0.00    -0.744 OA
ENDBRANCH  53  57
ENDBRANCH  26  50
BRANCH  38  61
ATOM     61  C   UNL A   1      44.942  27.022  33.933  1.00  0.00     0.023 A 
ATOM     62  C   UNL A   1      44.746  25.824  34.643  1.00  0.00     0.031 A 
ATOM     63  C   UNL A   1      46.239  27.562  33.891  1.00  0.00     0.131 A 
ATOM     64  C   UNL A   1      45.815  25.241  35.338  1.00  0.00     0.055 A 
ATOM     65  C   UNL A   1      47.312  26.947  34.537  1.00  0.00     0.041 A 
ATOM     66  F   UNL A   1      46.481  28.705  33.230  1.00  0.00    -0.206 F 
ATOM     67  C   UNL A   1      47.101  25.787  35.278  1.00  0.00     0.022 A 
BRANCH  64  68
ATOM     68  S   UNL A   1      45.485  23.816  36.410  1.00  0.00     0.124 S 
ATOM     69  O   UNL A   1      44.546  23.041  35.605  1.00  0.00    -0.237 OA
ATOM     70  O   UNL A   1      46.814  23.235  36.575  1.00  0.00    -0.237 OA
ATOM     71  O   UNL A   1      44.918  24.417  37.616  1.00  0.00    -0.744 OA
ENDBRANCH  64  68
ENDBRANCH  38  61
ENDBRANCH  12  13
ENDBRANCH   5   7
ENDBRANCH   2   3
ENDBRANCH   1   2
BRANCH   1  72
ATOM     72  C   UNL A   1      32.616  29.163  24.530  1.00  0.00     0.023 C 
BRANCH  72  73
ATOM     73  C   UNL A   1      31.773  28.369  23.534  1.00  0.00     0.116 C 
BRANCH  73  74
ATOM     74  N   UNL A   1      32.548  27.838  22.427  1.00  0.00    -0.351 N 
ATOM     75  C   UNL A   1      32.887  26.535  22.138  1.00  0.00     0.271 C 
ATOM     76  H   UNL A   1      32.880  28.509  21.786  1.00  0.00     0.163 HD
ATOM     77  O   UNL A   1      33.589  26.288  21.160  1.00  0.00    -0.267 OA
BRANCH  75  78
ATOM     78  C   UNL A   1      32.395  25.430  22.988  1.00  0.00     0.150 A 
ATOM     79  C   UNL A   1      31.140  24.881  22.765  1.00  0.00     0.145 A 
ATOM     80  N   UNL A   1      33.232  24.979  23.958  1.00  0.00    -0.205 NA
ATOM     81  N   UNL A   1      30.639  23.880  23.534  1.00  0.00    -0.257 NA
ATOM     82  C   UNL A   1      32.748  23.962  24.704  1.00  0.00     0.238 A 
ATOM     83  C   UNL A   1      31.475  23.436  24.507  1.00  0.00     0.179 A 
BRANCH  82  84
ATOM     84  O   UNL A   1      33.504  23.416  25.735  1.00  0.00    -0.434 OA
BRANCH  84  85
ATOM     85  C   UNL A   1      34.794  23.071  25.417  1.00  0.00     0.168 A 
ATOM     86  C   UNL A   1      35.860  23.913  25.733  1.00  0.00     0.089 A 
ATOM     87  C   UNL A   1      35.038  21.822  24.846  1.00  0.00     0.166 A 
ATOM     88  C   UNL A   1      37.155  23.504  25.431  1.00  0.00     0.127 A 
ATOM     89  C   UNL A   1      36.337  21.415  24.549  1.00  0.00     0.046 A 
ATOM     90  F   UNL A   1      34.018  20.990  24.584  1.00  0.00    -0.203 F 
ATOM     91  F   UNL A   1      38.185  24.308  25.724  1.00  0.00    -0.207 F 
ATOM     92  C   UNL A   1      37.404  22.266  24.841  1.00  0.00     0.042 A 
ENDBRANCH  84  85
ENDBRANCH  82  84
ENDBRANCH  75  78
ENDBRANCH  73  74
ENDBRANCH  72  73
ENDBRANCH   1  72
TORSDOF 16
ENDMDL
