MODEL 1
REMARK VINA RESULT:     -11.4      0.000      0.000
REMARK SMILES Cc1ccc(CN2/C(=[NH+]/C(=O)CCC(=O)NCCCCNC(=O)c3ccc(-c4c5nc(c(-c6cc(S(=O)(=O)[O-])ccc6F)c6ccc([nH]6)c(-c6cc(S(=O)(=O)[O-])ccc6F)c6nc(c(-c7cc(S(=O)(=O)[O-])ccc7F)c7ccc4[nH]7)C=C6)C=C5)cc3)S[C@H]3CS(=O)(=O)C[C@@H]32)cc1
REMARK SMILES IDX 18 1 17 2 16 3 14 4 15 5 13 7 12 8 10 9 7 10 8 11 94 12 9 13
REMARK SMILES IDX 87 14 88 15 93 16 89 18 90 19 11 20 91 21 92 22 6 23 5 24
REMARK SMILES IDX 1 25 2 26 3 27 96 28 4 29 95 30 19 31 20 32 21 33 22 34
REMARK SMILES IDX 23 36 24 37 25 38 86 39 26 40 85 41 27 42 28 43 29 44 79 45
REMARK SMILES IDX 30 46 84 47 78 48 80 49 31 50 83 51 77 52 76 53 32 55 64 56
REMARK SMILES IDX 44 57 63 58 45 59 48 60 62 61 81 62 46 63 47 64 61 66 82 67
REMARK SMILES IDX 49 68 33 69 34 70 42 71 35 72 41 73 43 74 40 75 36 76 37 77
REMARK SMILES IDX 38 78 39 79 65 80 66 81 74 82 67 83 73 84 75 85 72 86 68 87
REMARK SMILES IDX 69 88 70 89 71 90 50 91 51 92 59 93 52 94 58 95 60 96 57 97
REMARK SMILES IDX 53 98 54 99 55 100 56 101
REMARK H PARENT 16 6 9 17 21 35 80 54 48 65
REMARK Flexibility Score: inf
ROOT
ATOM      1  C   UNL A   1      43.062  22.655  26.603  1.00  0.00     0.023 C 
ENDROOT
BRANCH   1   2
ATOM      2  C   UNL A   1      42.386  22.121  25.385  1.00  0.00     0.116 C 
BRANCH   2   3
ATOM      3  N   UNL A   1      41.796  20.874  25.819  1.00  0.00    -0.356 N 
ATOM      4  C   UNL A   1      40.592  20.827  26.478  1.00  0.00     0.220 C 
ATOM      5  O   UNL A   1      40.403  19.952  27.322  1.00  0.00    -0.275 OA
ATOM      6  H   UNL A   1      42.272  20.032  25.636  1.00  0.00     0.163 HD
BRANCH   4   7
ATOM      7  C   UNL A   1      39.528  21.865  26.116  1.00  0.00     0.112 C 
BRANCH   7   8
ATOM      8  C   UNL A   1      38.249  21.333  25.420  1.00  0.00     0.138 C 
BRANCH   8   9
ATOM      9  C   UNL A   1      36.941  22.157  25.581  1.00  0.00     0.308 C 
ATOM     10  N   UNL A   1      33.287  22.022  24.551  1.00  0.00    -0.247 N 
ATOM     11  C   UNL A   1      34.703  22.384  24.778  1.00  0.00     0.314 C 
ATOM     12  C   UNL A   1      32.490  23.327  24.561  1.00  0.00     0.206 C 
ATOM     13  N   UNL A   1      35.781  21.669  24.932  1.00  0.00    -0.205 N 
ATOM     14  S   UNL A   1      34.825  24.223  24.823  1.00  0.00    -0.030 SA
ATOM     15  C   UNL A   1      33.194  24.272  25.554  1.00  0.00     0.120 C 
ATOM     16  C   UNL A   1      31.019  23.366  24.893  1.00  0.00     0.187 C 
ATOM     17  H   UNL A   1      35.790  20.750  24.581  1.00  0.00     0.316 HD
ATOM     18  C   UNL A   1      32.396  25.534  25.812  1.00  0.00     0.156 C 
ATOM     19  S   UNL A   1      30.724  25.079  25.355  1.00  0.00     0.155 S 
ATOM     20  O   UNL A   1      36.997  23.122  26.341  1.00  0.00    -0.247 OA
ATOM     21  O   UNL A   1      29.819  25.105  26.501  1.00  0.00    -0.229 OA
ATOM     22  O   UNL A   1      30.383  25.793  24.146  1.00  0.00    -0.229 OA
BRANCH  10  23
ATOM     23  C   UNL A   1      32.656  20.807  23.803  1.00  0.00     0.273 C 
BRANCH  23  24
ATOM     24  C   UNL A   1      32.836  19.251  24.107  1.00  0.00    -0.007 A 
ATOM     25  C   UNL A   1      34.853  15.525  25.077  1.00  0.00     0.044 C 
ATOM     26  C   UNL A   1      33.826  16.590  24.736  1.00  0.00    -0.051 A 
ATOM     27  C   UNL A   1      33.580  16.978  23.417  1.00  0.00     0.004 A 
ATOM     28  C   UNL A   1      33.253  17.391  25.719  1.00  0.00     0.004 A 
ATOM     29  C   UNL A   1      33.077  18.285  23.108  1.00  0.00     0.008 A 
ATOM     30  C   UNL A   1      32.705  18.673  25.392  1.00  0.00     0.008 A 
ENDBRANCH  23  24
ENDBRANCH  10  23
ENDBRANCH   8   9
ENDBRANCH   7   8
ENDBRANCH   4   7
ENDBRANCH   2   3
ENDBRANCH   1   2
BRANCH   1  31
ATOM     31  C   UNL A   1      42.518  23.935  27.139  1.00  0.00     0.023 C 
BRANCH  31  32
ATOM     32  C   UNL A   1      41.594  24.985  26.572  1.00  0.00     0.116 C 
BRANCH  32  33
ATOM     33  N   UNL A   1      41.946  25.964  25.552  1.00  0.00    -0.352 N 
ATOM     34  C   UNL A   1      41.817  27.364  25.543  1.00  0.00     0.251 C 
ATOM     35  H   UNL A   1      42.340  25.582  24.735  1.00  0.00     0.163 HD
ATOM     36  O   UNL A   1      42.278  28.037  24.623  1.00  0.00    -0.269 OA
BRANCH  34  37
ATOM     37  C   UNL A   1      41.145  28.209  26.574  1.00  0.00     0.039 A 
ATOM     38  C   UNL A   1      41.770  29.420  26.849  1.00  0.00     0.014 A 
ATOM     39  C   UNL A   1      40.499  27.603  27.598  1.00  0.00     0.014 A 
ATOM     40  C   UNL A   1      42.412  29.508  28.061  1.00  0.00     0.010 A 
ATOM     41  C   UNL A   1      41.258  27.474  28.703  1.00  0.00     0.010 A 
ATOM     42  C   UNL A   1      42.283  28.398  28.870  1.00  0.00    -0.014 A 
BRANCH  42  43
ATOM     43  C   UNL A   1      43.170  27.985  29.911  1.00  0.00     0.031 A 
ATOM     44  C   UNL A   1      44.208  27.063  29.458  1.00  0.00     0.074 A 
ATOM     45  C   UNL A   1      43.147  28.822  30.974  1.00  0.00     0.049 A 
ATOM     46  N   UNL A   1      44.838  26.237  30.200  1.00  0.00    -0.248 NA
ATOM     47  C   UNL A   1      44.585  26.935  28.040  1.00  0.00     0.031 C 
ATOM     48  C   UNL A   1      44.154  29.124  31.977  1.00  0.00     0.029 A 
ATOM     49  N   UNL A   1      42.023  29.518  31.426  1.00  0.00    -0.354 N 
ATOM     50  C   UNL A   1      45.987  25.945  29.500  1.00  0.00     0.074 A 
ATOM     51  C   UNL A   1      45.668  26.163  28.119  1.00  0.00     0.031 C 
ATOM     52  C   UNL A   1      43.544  29.653  33.059  1.00  0.00     0.029 A 
ATOM     53  C   UNL A   1      42.107  29.601  32.823  1.00  0.00     0.049 A 
ATOM     54  H   UNL A   1      41.302  29.885  30.865  1.00  0.00     0.167 HD
ATOM     55  C   UNL A   1      47.150  25.866  30.198  1.00  0.00     0.034 A 
ATOM     56  C   UNL A   1      41.218  28.848  33.542  1.00  0.00     0.034 A 
ATOM     57  C   UNL A   1      46.892  26.175  31.612  1.00  0.00     0.049 A 
ATOM     58  C   UNL A   1      41.884  27.621  34.134  1.00  0.00     0.074 A 
ATOM     59  C   UNL A   1      47.163  27.269  32.416  1.00  0.00     0.029 A 
ATOM     60  N   UNL A   1      45.948  25.421  32.291  1.00  0.00    -0.354 N 
ATOM     61  N   UNL A   1      43.024  27.132  33.722  1.00  0.00    -0.248 NA
ATOM     62  C   UNL A   1      41.356  26.896  35.281  1.00  0.00     0.031 C 
ATOM     63  C   UNL A   1      46.324  27.181  33.567  1.00  0.00     0.029 A 
ATOM     64  C   UNL A   1      45.552  26.037  33.455  1.00  0.00     0.049 A 
ATOM     65  H   UNL A   1      45.604  24.553  31.979  1.00  0.00     0.167 HD
ATOM     66  C   UNL A   1      43.399  26.078  34.511  1.00  0.00     0.074 A 
ATOM     67  C   UNL A   1      42.321  25.981  35.482  1.00  0.00     0.031 C 
ATOM     68  C   UNL A   1      44.560  25.380  34.294  1.00  0.00     0.034 A 
BRANCH  55  69
ATOM     69  C   UNL A   1      48.547  25.800  29.636  1.00  0.00     0.023 A 
ATOM     70  C   UNL A   1      49.570  26.385  30.406  1.00  0.00     0.031 A 
ATOM     71  C   UNL A   1      48.971  25.188  28.441  1.00  0.00     0.131 A 
ATOM     72  C   UNL A   1      50.907  26.386  29.987  1.00  0.00     0.055 A 
ATOM     73  C   UNL A   1      50.306  25.198  28.012  1.00  0.00     0.041 A 
ATOM     74  F   UNL A   1      48.144  24.510  27.640  1.00  0.00    -0.206 F 
ATOM     75  C   UNL A   1      51.285  25.798  28.789  1.00  0.00     0.022 A 
BRANCH  72  76
ATOM     76  S   UNL A   1      52.134  27.152  31.069  1.00  0.00     0.124 S 
ATOM     77  O   UNL A   1      53.303  26.309  30.843  1.00  0.00    -0.237 OA
ATOM     78  O   UNL A   1      52.204  28.512  30.546  1.00  0.00    -0.237 OA
ATOM     79  O   UNL A   1      51.532  27.032  32.396  1.00  0.00    -0.744 OA
ENDBRANCH  72  76
ENDBRANCH  55  69
BRANCH  56  80
ATOM     80  C   UNL A   1      39.838  28.939  32.952  1.00  0.00     0.023 A 
ATOM     81  C   UNL A   1      39.153  30.158  33.169  1.00  0.00     0.031 A 
ATOM     82  C   UNL A   1      39.440  28.159  31.853  1.00  0.00     0.131 A 
ATOM     83  C   UNL A   1      38.259  30.653  32.207  1.00  0.00     0.055 A 
ATOM     84  C   UNL A   1      38.466  28.617  30.950  1.00  0.00     0.041 A 
ATOM     85  F   UNL A   1      40.089  27.027  31.547  1.00  0.00    -0.206 F 
ATOM     86  C   UNL A   1      37.894  29.881  31.106  1.00  0.00     0.022 A 
BRANCH  83  87
ATOM     87  S   UNL A   1      37.811  32.419  32.292  1.00  0.00     0.124 S 
ATOM     88  O   UNL A   1      37.253  32.655  30.963  1.00  0.00    -0.237 OA
ATOM     89  O   UNL A   1      36.840  32.430  33.391  1.00  0.00    -0.237 OA
ATOM     90  O   UNL A   1      39.075  33.101  32.558  1.00  0.00    -0.744 OA
ENDBRANCH  83  87
ENDBRANCH  56  80
BRANCH  68  91
ATOM     91  C   UNL A   1      44.907  24.012  34.857  1.00  0.00     0.023 A 
ATOM     92  C   UNL A   1      45.434  23.832  36.136  1.00  0.00     0.031 A 
ATOM     93  C   UNL A   1      44.640  22.809  34.145  1.00  0.00     0.131 A 
ATOM     94  C   UNL A   1      45.766  22.557  36.619  1.00  0.00     0.055 A 
ATOM     95  C   UNL A   1      44.858  21.536  34.673  1.00  0.00     0.041 A 
ATOM     96  F   UNL A   1      44.146  22.800  32.900  1.00  0.00    -0.206 F 
ATOM     97  C   UNL A   1      45.452  21.401  35.912  1.00  0.00     0.022 A 
BRANCH  94  98
ATOM     98  S   UNL A   1      46.722  22.471  38.148  1.00  0.00     0.124 S 
ATOM     99  O   UNL A   1      45.667  22.354  39.153  1.00  0.00    -0.237 OA
ATOM    100  O   UNL A   1      47.533  21.276  37.943  1.00  0.00    -0.237 OA
ATOM    101  O   UNL A   1      47.459  23.733  38.164  1.00  0.00    -0.744 OA
ENDBRANCH  94  98
ENDBRANCH  68  91
ENDBRANCH  42  43
ENDBRANCH  34  37
ENDBRANCH  32  33
ENDBRANCH  31  32
ENDBRANCH   1  31
TORSDOF 18
ENDMDL
MODEL 2
REMARK VINA RESULT:     -11.4      5.406     10.250
REMARK SMILES Cc1ccc(CN2/C(=[NH+]/C(=O)CCC(=O)NCCCCNC(=O)c3ccc(-c4c5nc(c(-c6cc(S(=O)(=O)[O-])ccc6F)c6ccc([nH]6)c(-c6cc(S(=O)(=O)[O-])ccc6F)c6nc(c(-c7cc(S(=O)(=O)[O-])ccc7F)c7ccc4[nH]7)C=C6)C=C5)cc3)S[C@H]3CS(=O)(=O)C[C@@H]32)cc1
REMARK SMILES IDX 18 1 17 2 16 3 14 4 15 5 13 7 12 8 10 9 7 10 8 11 94 12 9 13
REMARK SMILES IDX 87 14 88 15 93 16 89 18 90 19 11 20 91 21 92 22 6 23 5 24
REMARK SMILES IDX 1 25 2 26 3 27 96 28 4 29 95 30 19 31 20 32 21 33 22 34
REMARK SMILES IDX 23 36 24 37 25 38 86 39 26 40 85 41 27 42 28 43 29 44 79 45
REMARK SMILES IDX 30 46 84 47 78 48 80 49 31 50 83 51 77 52 76 53 32 55 64 56
REMARK SMILES IDX 44 57 63 58 45 59 48 60 62 61 81 62 46 63 47 64 61 66 82 67
REMARK SMILES IDX 49 68 33 69 34 70 42 71 35 72 41 73 43 74 40 75 36 76 37 77
REMARK SMILES IDX 38 78 39 79 65 80 66 81 74 82 67 83 73 84 75 85 72 86 68 87
REMARK SMILES IDX 69 88 70 89 71 90 50 91 51 92 59 93 52 94 58 95 60 96 57 97
REMARK SMILES IDX 53 98 54 99 55 100 56 101
REMARK H PARENT 16 6 9 17 21 35 80 54 48 65
REMARK Flexibility Score: inf
ROOT
ATOM      1  C   UNL A   1      41.230  27.980  27.644  1.00  0.00     0.023 C 
ENDROOT
BRANCH   1   2
ATOM      2  C   UNL A   1      39.997  28.021  28.482  1.00  0.00     0.116 C 
BRANCH   2   3
ATOM      3  N   UNL A   1      39.273  29.177  28.000  1.00  0.00    -0.356 N 
ATOM      4  C   UNL A   1      38.270  29.766  28.728  1.00  0.00     0.220 C 
ATOM      5  O   UNL A   1      37.323  30.285  28.139  1.00  0.00    -0.275 OA
ATOM      6  H   UNL A   1      39.508  29.553  27.121  1.00  0.00     0.163 HD
BRANCH   4   7
ATOM      7  C   UNL A   1      38.387  29.764  30.254  1.00  0.00     0.112 C 
BRANCH   7   8
ATOM      8  C   UNL A   1      37.071  29.575  31.050  1.00  0.00     0.138 C 
BRANCH   8   9
ATOM      9  C   UNL A   1      36.303  30.852  31.494  1.00  0.00     0.308 C 
ATOM     10  N   UNL A   1      34.110  33.576  30.012  1.00  0.00    -0.247 N 
ATOM     11  C   UNL A   1      35.168  32.791  30.683  1.00  0.00     0.314 C 
ATOM     12  C   UNL A   1      33.982  34.892  30.782  1.00  0.00     0.206 C 
ATOM     13  N   UNL A   1      35.628  31.587  30.490  1.00  0.00    -0.205 N 
ATOM     14  S   UNL A   1      35.897  33.832  32.019  1.00  0.00    -0.030 SA
ATOM     15  C   UNL A   1      34.289  34.577  32.259  1.00  0.00     0.120 C 
ATOM     16  C   UNL A   1      32.714  35.709  30.768  1.00  0.00     0.187 C 
ATOM     17  H   UNL A   1      35.500  31.171  29.608  1.00  0.00     0.316 HD
ATOM     18  C   UNL A   1      34.004  35.753  33.170  1.00  0.00     0.156 C 
ATOM     19  S   UNL A   1      32.851  36.751  32.228  1.00  0.00     0.155 S 
ATOM     20  O   UNL A   1      36.266  31.070  32.704  1.00  0.00    -0.247 OA
ATOM     21  O   UNL A   1      31.544  36.827  32.873  1.00  0.00    -0.229 OA
ATOM     22  O   UNL A   1      33.534  37.959  31.825  1.00  0.00    -0.229 OA
BRANCH  10  23
ATOM     23  C   UNL A   1      33.622  33.568  28.531  1.00  0.00     0.273 C 
BRANCH  23  24
ATOM     24  C   UNL A   1      33.226  32.316  27.623  1.00  0.00    -0.007 A 
ATOM     25  C   UNL A   1      31.621  28.410  26.597  1.00  0.00     0.044 C 
ATOM     26  C   UNL A   1      32.261  29.786  26.564  1.00  0.00    -0.051 A 
ATOM     27  C   UNL A   1      33.612  29.976  26.867  1.00  0.00     0.004 A 
ATOM     28  C   UNL A   1      31.496  30.943  26.460  1.00  0.00     0.004 A 
ATOM     29  C   UNL A   1      34.089  31.229  27.376  1.00  0.00     0.008 A 
ATOM     30  C   UNL A   1      32.003  32.200  26.922  1.00  0.00     0.008 A 
ENDBRANCH  23  24
ENDBRANCH  10  23
ENDBRANCH   8   9
ENDBRANCH   7   8
ENDBRANCH   4   7
ENDBRANCH   2   3
ENDBRANCH   1   2
BRANCH   1  31
ATOM     31  C   UNL A   1      42.422  27.345  28.274  1.00  0.00     0.023 C 
BRANCH  31  32
ATOM     32  C   UNL A   1      43.852  27.157  27.828  1.00  0.00     0.116 C 
BRANCH  32  33
ATOM     33  N   UNL A   1      45.014  27.827  28.395  1.00  0.00    -0.352 N 
ATOM     34  C   UNL A   1      46.124  27.309  29.086  1.00  0.00     0.251 C 
ATOM     35  H   UNL A   1      45.024  28.803  28.274  1.00  0.00     0.163 HD
ATOM     36  O   UNL A   1      47.071  28.030  29.396  1.00  0.00    -0.269 OA
BRANCH  34  37
ATOM     37  C   UNL A   1      46.325  25.898  29.530  1.00  0.00     0.039 A 
ATOM     38  C   UNL A   1      45.202  25.084  29.452  1.00  0.00     0.014 A 
ATOM     39  C   UNL A   1      47.199  25.647  30.533  1.00  0.00     0.014 A 
ATOM     40  C   UNL A   1      44.616  24.745  30.647  1.00  0.00     0.010 A 
ATOM     41  C   UNL A   1      46.612  25.576  31.744  1.00  0.00     0.010 A 
ATOM     42  C   UNL A   1      45.273  25.205  31.769  1.00  0.00    -0.014 A 
BRANCH  42  43
ATOM     43  C   UNL A   1      44.709  25.440  33.061  1.00  0.00     0.031 A 
ATOM     44  C   UNL A   1      44.305  26.828  33.274  1.00  0.00     0.074 A 
ATOM     45  C   UNL A   1      44.277  24.303  33.653  1.00  0.00     0.049 A 
ATOM     46  N   UNL A   1      44.179  27.394  34.411  1.00  0.00    -0.248 NA
ATOM     47  C   UNL A   1      44.074  27.762  32.159  1.00  0.00     0.031 C 
ATOM     48  C   UNL A   1      43.242  24.075  34.646  1.00  0.00     0.029 A 
ATOM     49  N   UNL A   1      44.871  23.046  33.511  1.00  0.00    -0.354 N 
ATOM     50  C   UNL A   1      43.359  28.475  34.174  1.00  0.00     0.074 A 
ATOM     51  C   UNL A   1      43.544  28.808  32.791  1.00  0.00     0.031 C 
ATOM     52  C   UNL A   1      43.471  22.887  35.247  1.00  0.00     0.029 A 
ATOM     53  C   UNL A   1      44.732  22.370  34.732  1.00  0.00     0.049 A 
ATOM     54  H   UNL A   1      45.309  22.697  32.701  1.00  0.00     0.167 HD
ATOM     55  C   UNL A   1      42.392  28.747  35.089  1.00  0.00     0.034 A 
ATOM     56  C   UNL A   1      45.869  22.187  35.471  1.00  0.00     0.034 A 
ATOM     57  C   UNL A   1      42.428  27.734  36.153  1.00  0.00     0.049 A 
ATOM     58  C   UNL A   1      45.923  23.143  36.647  1.00  0.00     0.074 A 
ATOM     59  C   UNL A   1      41.617  26.660  36.478  1.00  0.00     0.029 A 
ATOM     60  N   UNL A   1      43.614  27.546  36.846  1.00  0.00    -0.354 N 
ATOM     61  N   UNL A   1      45.207  24.233  36.744  1.00  0.00    -0.248 NA
ATOM     62  C   UNL A   1      46.730  22.907  37.838  1.00  0.00     0.031 C 
ATOM     63  C   UNL A   1      42.360  25.800  37.340  1.00  0.00     0.029 A 
ATOM     64  C   UNL A   1      43.614  26.354  37.533  1.00  0.00     0.049 A 
ATOM     65  H   UNL A   1      44.362  28.185  36.846  1.00  0.00     0.167 HD
ATOM     66  C   UNL A   1      45.417  24.831  37.958  1.00  0.00     0.074 A 
ATOM     67  C   UNL A   1      46.373  23.950  38.609  1.00  0.00     0.031 C 
ATOM     68  C   UNL A   1      44.788  25.996  38.315  1.00  0.00     0.034 A 
BRANCH  55  69
ATOM     69  C   UNL A   1      41.241  29.708  34.937  1.00  0.00     0.023 A 
ATOM     70  C   UNL A   1      41.152  30.747  35.883  1.00  0.00     0.031 A 
ATOM     71  C   UNL A   1      40.250  29.722  33.937  1.00  0.00     0.131 A 
ATOM     72  C   UNL A   1      40.127  31.701  35.845  1.00  0.00     0.055 A 
ATOM     73  C   UNL A   1      39.214  30.667  33.904  1.00  0.00     0.041 A 
ATOM     74  F   UNL A   1      40.241  28.862  32.914  1.00  0.00    -0.206 F 
ATOM     75  C   UNL A   1      39.149  31.667  34.861  1.00  0.00     0.022 A 
BRANCH  72  76
ATOM     76  S   UNL A   1      40.128  32.999  37.102  1.00  0.00     0.124 S 
ATOM     77  O   UNL A   1      39.439  32.345  38.210  1.00  0.00    -0.237 OA
ATOM     78  O   UNL A   1      41.553  33.253  37.285  1.00  0.00    -0.237 OA
ATOM     79  O   UNL A   1      39.385  34.083  36.464  1.00  0.00    -0.744 OA
ENDBRANCH  72  76
ENDBRANCH  55  69
BRANCH  56  80
ATOM     80  C   UNL A   1      47.013  21.755  34.598  1.00  0.00     0.023 A 
ATOM     81  C   UNL A   1      48.103  22.655  34.517  1.00  0.00     0.031 A 
ATOM     82  C   UNL A   1      47.267  20.404  34.308  1.00  0.00     0.131 A 
ATOM     83  C   UNL A   1      49.412  22.175  34.357  1.00  0.00     0.055 A 
ATOM     84  C   UNL A   1      48.569  19.948  34.044  1.00  0.00     0.041 A 
ATOM     85  F   UNL A   1      46.299  19.485  34.430  1.00  0.00    -0.206 F 
ATOM     86  C   UNL A   1      49.653  20.827  34.099  1.00  0.00     0.022 A 
BRANCH  83  87
ATOM     87  S   UNL A   1      50.787  23.301  34.767  1.00  0.00     0.124 S 
ATOM     88  O   UNL A   1      51.061  23.929  33.477  1.00  0.00    -0.237 OA
ATOM     89  O   UNL A   1      50.171  24.174  35.771  1.00  0.00    -0.237 OA
ATOM     90  O   UNL A   1      51.843  22.420  35.259  1.00  0.00    -0.744 OA
ENDBRANCH  83  87
ENDBRANCH  56  80
BRANCH  68  91
ATOM     91  C   UNL A   1      45.188  26.923  39.451  1.00  0.00     0.023 A 
ATOM     92  C   UNL A   1      45.890  28.111  39.246  1.00  0.00     0.031 A 
ATOM     93  C   UNL A   1      44.801  26.682  40.799  1.00  0.00     0.131 A 
ATOM     94  C   UNL A   1      46.265  28.935  40.319  1.00  0.00     0.055 A 
ATOM     95  C   UNL A   1      45.070  27.561  41.849  1.00  0.00     0.041 A 
ATOM     96  F   UNL A   1      44.134  25.582  41.174  1.00  0.00    -0.206 F 
ATOM     97  C   UNL A   1      45.833  28.689  41.618  1.00  0.00     0.022 A 
BRANCH  94  98
ATOM     98  S   UNL A   1      47.428  30.271  39.972  1.00  0.00     0.124 S 
ATOM     99  O   UNL A   1      48.504  29.559  39.286  1.00  0.00    -0.237 OA
ATOM    100  O   UNL A   1      46.634  31.168  39.139  1.00  0.00    -0.237 OA
ATOM    101  O   UNL A   1      47.769  30.784  41.297  1.00  0.00    -0.744 OA
ENDBRANCH  94  98
ENDBRANCH  68  91
ENDBRANCH  42  43
ENDBRANCH  34  37
ENDBRANCH  32  33
ENDBRANCH  31  32
ENDBRANCH   1  31
TORSDOF 18
ENDMDL
MODEL 3
REMARK VINA RESULT:     -11.3      7.418     13.744
REMARK SMILES Cc1ccc(CN2/C(=[NH+]/C(=O)CCC(=O)NCCCCNC(=O)c3ccc(-c4c5nc(c(-c6cc(S(=O)(=O)[O-])ccc6F)c6ccc([nH]6)c(-c6cc(S(=O)(=O)[O-])ccc6F)c6nc(c(-c7cc(S(=O)(=O)[O-])ccc7F)c7ccc4[nH]7)C=C6)C=C5)cc3)S[C@H]3CS(=O)(=O)C[C@@H]32)cc1
REMARK SMILES IDX 18 1 17 2 16 3 14 4 15 5 13 7 12 8 10 9 7 10 8 11 94 12 9 13
REMARK SMILES IDX 87 14 88 15 93 16 89 18 90 19 11 20 91 21 92 22 6 23 5 24
REMARK SMILES IDX 1 25 2 26 3 27 96 28 4 29 95 30 19 31 20 32 21 33 22 34
REMARK SMILES IDX 23 36 24 37 25 38 86 39 26 40 85 41 27 42 28 43 29 44 79 45
REMARK SMILES IDX 30 46 84 47 78 48 80 49 31 50 83 51 77 52 76 53 32 55 64 56
REMARK SMILES IDX 44 57 63 58 45 59 48 60 62 61 81 62 46 63 47 64 61 66 82 67
REMARK SMILES IDX 49 68 33 69 34 70 42 71 35 72 41 73 43 74 40 75 36 76 37 77
REMARK SMILES IDX 38 78 39 79 65 80 66 81 74 82 67 83 73 84 75 85 72 86 68 87
REMARK SMILES IDX 69 88 70 89 71 90 50 91 51 92 59 93 52 94 58 95 60 96 57 97
REMARK SMILES IDX 53 98 54 99 55 100 56 101
REMARK H PARENT 16 6 9 17 21 35 80 54 48 65
REMARK Flexibility Score: inf
ROOT
ATOM      1  C   UNL A   1      45.532  37.379  29.326  1.00  0.00     0.023 C 
ENDROOT
BRANCH   1   2
ATOM      2  C   UNL A   1      45.285  38.569  28.462  1.00  0.00     0.116 C 
BRANCH   2   3
ATOM      3  N   UNL A   1      46.435  39.418  28.683  1.00  0.00    -0.356 N 
ATOM      4  C   UNL A   1      47.256  39.816  27.658  1.00  0.00     0.220 C 
ATOM      5  O   UNL A   1      48.455  39.983  27.877  1.00  0.00    -0.275 OA
ATOM      6  H   UNL A   1      46.635  39.721  29.598  1.00  0.00     0.163 HD
BRANCH   4   7
ATOM      7  C   UNL A   1      46.632  40.050  26.280  1.00  0.00     0.112 C 
BRANCH   7   8
ATOM      8  C   UNL A   1      47.177  39.186  25.116  1.00  0.00     0.138 C 
BRANCH   8   9
ATOM      9  C   UNL A   1      47.609  37.727  25.435  1.00  0.00     0.308 C 
ATOM     10  N   UNL A   1      46.057  34.371  26.302  1.00  0.00    -0.247 N 
ATOM     11  C   UNL A   1      46.827  35.633  26.276  1.00  0.00     0.314 C 
ATOM     12  C   UNL A   1      46.938  33.330  26.996  1.00  0.00     0.206 C 
ATOM     13  N   UNL A   1      46.586  36.800  25.750  1.00  0.00    -0.205 N 
ATOM     14  S   UNL A   1      48.398  35.367  27.204  1.00  0.00    -0.030 SA
ATOM     15  C   UNL A   1      48.397  33.671  26.637  1.00  0.00     0.120 C 
ATOM     16  C   UNL A   1      46.769  31.850  26.759  1.00  0.00     0.187 C 
ATOM     17  H   UNL A   1      45.652  37.049  25.564  1.00  0.00     0.316 HD
ATOM     18  C   UNL A   1      49.368  32.602  27.096  1.00  0.00     0.156 C 
ATOM     19  S   UNL A   1      48.341  31.144  27.274  1.00  0.00     0.155 S 
ATOM     20  O   UNL A   1      48.804  37.472  25.297  1.00  0.00    -0.247 OA
ATOM     21  O   UNL A   1      48.715  30.096  26.329  1.00  0.00    -0.229 OA
ATOM     22  O   UNL A   1      48.233  30.846  28.683  1.00  0.00    -0.229 OA
BRANCH  10  23
ATOM     23  C   UNL A   1      44.518  34.118  26.310  1.00  0.00     0.273 C 
BRANCH  23  24
ATOM     24  C   UNL A   1      43.416  34.730  27.291  1.00  0.00    -0.007 A 
ATOM     25  C   UNL A   1      39.727  34.986  29.573  1.00  0.00     0.044 C 
ATOM     26  C   UNL A   1      41.082  35.253  28.944  1.00  0.00    -0.051 A 
ATOM     27  C   UNL A   1      41.202  35.804  27.665  1.00  0.00     0.004 A 
ATOM     28  C   UNL A   1      42.255  34.754  29.500  1.00  0.00     0.004 A 
ATOM     29  C   UNL A   1      42.361  35.557  26.856  1.00  0.00     0.008 A 
ATOM     30  C   UNL A   1      43.424  34.562  28.695  1.00  0.00     0.008 A 
ENDBRANCH  23  24
ENDBRANCH  10  23
ENDBRANCH   8   9
ENDBRANCH   7   8
ENDBRANCH   4   7
ENDBRANCH   2   3
ENDBRANCH   1   2
BRANCH   1  31
ATOM     31  C   UNL A   1      44.859  37.392  30.657  1.00  0.00     0.023 C 
BRANCH  31  32
ATOM     32  C   UNL A   1      44.742  36.376  31.766  1.00  0.00     0.116 C 
BRANCH  32  33
ATOM     33  N   UNL A   1      45.428  35.092  31.818  1.00  0.00    -0.352 N 
ATOM     34  C   UNL A   1      45.330  34.037  32.743  1.00  0.00     0.251 C 
ATOM     35  H   UNL A   1      46.064  34.937  31.084  1.00  0.00     0.163 HD
ATOM     36  O   UNL A   1      45.917  32.973  32.556  1.00  0.00    -0.269 OA
BRANCH  34  37
ATOM     37  C   UNL A   1      44.554  34.032  34.019  1.00  0.00     0.039 A 
ATOM     38  C   UNL A   1      44.508  32.812  34.682  1.00  0.00     0.014 A 
ATOM     39  C   UNL A   1      43.468  34.833  34.127  1.00  0.00     0.014 A 
ATOM     40  C   UNL A   1      43.305  32.149  34.646  1.00  0.00     0.010 A 
ATOM     41  C   UNL A   1      42.313  34.205  33.830  1.00  0.00     0.010 A 
ATOM     42  C   UNL A   1      42.284  32.828  34.014  1.00  0.00    -0.014 A 
BRANCH  42  43
ATOM     43  C   UNL A   1      41.122  32.262  33.406  1.00  0.00     0.031 A 
ATOM     44  C   UNL A   1      41.297  31.961  31.987  1.00  0.00     0.074 A 
ATOM     45  C   UNL A   1      40.267  31.735  34.312  1.00  0.00     0.049 A 
ATOM     46  N   UNL A   1      40.356  31.860  31.131  1.00  0.00    -0.248 NA
ATOM     47  C   UNL A   1      42.627  31.820  31.369  1.00  0.00     0.031 C 
ATOM     48  C   UNL A   1      39.287  30.669  34.196  1.00  0.00     0.029 A 
ATOM     49  N   UNL A   1      40.050  32.234  35.599  1.00  0.00    -0.354 N 
ATOM     50  C   UNL A   1      40.899  31.128  30.099  1.00  0.00     0.074 A 
ATOM     51  C   UNL A   1      42.313  31.362  30.158  1.00  0.00     0.031 C 
ATOM     52  C   UNL A   1      38.386  30.797  35.194  1.00  0.00     0.029 A 
ATOM     53  C   UNL A   1      38.701  32.023  35.915  1.00  0.00     0.049 A 
ATOM     54  H   UNL A   1      40.723  32.657  36.180  1.00  0.00     0.167 HD
ATOM     55  C   UNL A   1      40.124  30.170  29.527  1.00  0.00     0.034 A 
ATOM     56  C   UNL A   1      37.898  33.131  35.972  1.00  0.00     0.034 A 
ATOM     57  C   UNL A   1      38.830  30.111  30.221  1.00  0.00     0.049 A 
ATOM     58  C   UNL A   1      37.015  33.238  34.745  1.00  0.00     0.074 A 
ATOM     59  C   UNL A   1      38.262  29.215  31.111  1.00  0.00     0.029 A 
ATOM     60  N   UNL A   1      38.069  31.267  30.300  1.00  0.00    -0.354 N 
ATOM     61  N   UNL A   1      37.235  32.606  33.622  1.00  0.00    -0.248 NA
ATOM     62  C   UNL A   1      35.776  34.004  34.710  1.00  0.00     0.031 C 
ATOM     63  C   UNL A   1      37.177  29.876  31.760  1.00  0.00     0.029 A 
ATOM     64  C   UNL A   1      37.093  31.165  31.262  1.00  0.00     0.049 A 
ATOM     65  H   UNL A   1      38.211  32.062  29.737  1.00  0.00     0.167 HD
ATOM     66  C   UNL A   1      36.216  32.840  32.738  1.00  0.00     0.074 A 
ATOM     67  C   UNL A   1      35.321  33.715  33.478  1.00  0.00     0.031 C 
ATOM     68  C   UNL A   1      36.202  32.295  31.480  1.00  0.00     0.034 A 
BRANCH  55  69
ATOM     69  C   UNL A   1      40.565  29.098  28.564  1.00  0.00     0.023 A 
ATOM     70  C   UNL A   1      41.551  28.202  29.020  1.00  0.00     0.031 A 
ATOM     71  C   UNL A   1      40.086  28.851  27.264  1.00  0.00     0.131 A 
ATOM     72  C   UNL A   1      42.040  27.164  28.216  1.00  0.00     0.055 A 
ATOM     73  C   UNL A   1      40.583  27.822  26.451  1.00  0.00     0.041 A 
ATOM     74  F   UNL A   1      39.089  29.550  26.714  1.00  0.00    -0.206 F 
ATOM     75  C   UNL A   1      41.565  26.968  26.927  1.00  0.00     0.022 A 
BRANCH  72  76
ATOM     76  S   UNL A   1      43.292  26.065  28.917  1.00  0.00     0.124 S 
ATOM     77  O   UNL A   1      43.356  26.526  30.299  1.00  0.00    -0.237 OA
ATOM     78  O   UNL A   1      42.705  24.747  28.700  1.00  0.00    -0.237 OA
ATOM     79  O   UNL A   1      44.478  26.353  28.112  1.00  0.00    -0.744 OA
ENDBRANCH  72  76
ENDBRANCH  55  69
BRANCH  56  80
ATOM     80  C   UNL A   1      38.585  34.254  36.699  1.00  0.00     0.023 A 
ATOM     81  C   UNL A   1      38.786  34.059  38.086  1.00  0.00     0.031 A 
ATOM     82  C   UNL A   1      39.429  35.166  36.044  1.00  0.00     0.131 A 
ATOM     83  C   UNL A   1      39.912  34.602  38.725  1.00  0.00     0.055 A 
ATOM     84  C   UNL A   1      40.493  35.787  36.719  1.00  0.00     0.041 A 
ATOM     85  F   UNL A   1      39.340  35.350  34.719  1.00  0.00    -0.206 F 
ATOM     86  C   UNL A   1      40.759  35.482  38.055  1.00  0.00     0.022 A 
BRANCH  83  87
ATOM     87  S   UNL A   1      40.385  33.912  40.346  1.00  0.00     0.124 S 
ATOM     88  O   UNL A   1      41.548  34.723  40.694  1.00  0.00    -0.237 OA
ATOM     89  O   UNL A   1      39.181  34.166  41.143  1.00  0.00    -0.237 OA
ATOM     90  O   UNL A   1      40.676  32.506  40.071  1.00  0.00    -0.744 OA
ENDBRANCH  83  87
ENDBRANCH  56  80
BRANCH  68  91
ATOM     91  C   UNL A   1      35.337  32.746  30.313  1.00  0.00     0.023 A 
ATOM     92  C   UNL A   1      34.952  34.074  30.126  1.00  0.00     0.031 A 
ATOM     93  C   UNL A   1      34.926  31.853  29.284  1.00  0.00     0.131 A 
ATOM     94  C   UNL A   1      34.134  34.454  29.051  1.00  0.00     0.055 A 
ATOM     95  C   UNL A   1      34.214  32.254  28.153  1.00  0.00     0.041 A 
ATOM     96  F   UNL A   1      35.198  30.542  29.314  1.00  0.00    -0.206 F 
ATOM     97  C   UNL A   1      33.787  33.562  28.043  1.00  0.00     0.022 A 
BRANCH  94  98
ATOM     98  S   UNL A   1      33.448  36.124  29.082  1.00  0.00     0.124 S 
ATOM     99  O   UNL A   1      33.533  36.455  30.502  1.00  0.00    -0.237 OA
ATOM    100  O   UNL A   1      34.362  36.853  28.208  1.00  0.00    -0.237 OA
ATOM    101  O   UNL A   1      32.093  35.950  28.563  1.00  0.00    -0.744 OA
ENDBRANCH  94  98
ENDBRANCH  68  91
ENDBRANCH  42  43
ENDBRANCH  34  37
ENDBRANCH  32  33
ENDBRANCH  31  32
ENDBRANCH   1  31
TORSDOF 18
ENDMDL
