MODEL 1
REMARK VINA RESULT:     -13.3      0.000      0.000
REMARK SMILES O=C(NCCCCNC(=O)C1(Cc2ccccc2Cl)CCN(c2ncnc3[nH]ccc23)CC1)c1ccc(-c2c3nc(c(-c4cc(S(=O)(=O)[O-])ccc4F)c4ccc([nH]4)c(-c4cc(S(=O)(=O)[O-])ccc4F)c4nc(c(-c5cc(S(=O)(=O)[O-])ccc5F)c5ccc2[nH]5)C=C4)C=C3)cc1
REMARK SMILES IDX 5 1 4 2 3 3 1 4 2 5 34 7 35 8 96 9 36 10 95 11 37 12 38 13
REMARK SMILES IDX 39 14 89 15 40 16 94 17 88 18 90 19 41 20 93 21 87 22 86 23
REMARK SMILES IDX 42 25 74 26 54 27 73 28 55 29 58 30 72 31 91 32 56 33 57 34
REMARK SMILES IDX 71 36 92 37 59 38 43 39 44 40 52 41 45 42 51 43 53 44 50 45
REMARK SMILES IDX 46 46 47 47 48 48 49 49 75 50 76 51 84 52 77 53 83 54 85 55
REMARK SMILES IDX 82 56 78 57 79 58 80 59 81 60 60 61 61 62 69 63 62 64 68 65
REMARK SMILES IDX 70 66 67 67 63 68 64 69 65 70 66 71 6 72 7 73 8 74 9 75
REMARK SMILES IDX 10 77 11 78 20 79 33 80 21 81 32 82 22 83 12 84 13 85 14 86
REMARK SMILES IDX 18 87 15 88 17 89 19 90 16 91 23 92 24 93 31 94 25 95 27 96
REMARK SMILES IDX 30 97 26 98 28 99 29 100
REMARK H PARENT 3 6 90 24 58 35 8 76 28 101
REMARK Flexibility Score: inf
ROOT
ATOM      1  C   UNL A   1      31.751  28.961  25.950  1.00  0.00     0.023 C 
ENDROOT
BRANCH   1   2
ATOM      2  C   UNL A   1      32.868  29.985  25.955  1.00  0.00     0.116 C 
BRANCH   2   3
ATOM      3  N   UNL A   1      32.439  31.315  26.366  1.00  0.00    -0.352 N 
ATOM      4  O   UNL A   1      32.523  33.229  27.572  1.00  0.00    -0.269 OA
ATOM      5  C   UNL A   1      33.060  32.174  27.247  1.00  0.00     0.251 C 
ATOM      6  H   UNL A   1      31.602  31.641  25.966  1.00  0.00     0.163 HD
BRANCH   5   7
ATOM      7  C   UNL A   1      34.366  31.783  27.816  1.00  0.00     0.039 A 
ATOM      8  C   UNL A   1      34.545  30.487  28.301  1.00  0.00     0.014 A 
ATOM      9  C   UNL A   1      35.383  32.733  27.938  1.00  0.00     0.014 A 
ATOM     10  C   UNL A   1      35.658  30.198  29.075  1.00  0.00     0.010 A 
ATOM     11  C   UNL A   1      36.561  32.398  28.613  1.00  0.00     0.010 A 
ATOM     12  C   UNL A   1      36.693  31.138  29.216  1.00  0.00    -0.014 A 
BRANCH  12  13
ATOM     13  C   UNL A   1      37.924  30.722  29.933  1.00  0.00     0.031 A 
ATOM     14  C   UNL A   1      38.203  31.162  31.344  1.00  0.00     0.074 A 
ATOM     15  C   UNL A   1      38.758  29.870  29.302  1.00  0.00     0.049 A 
ATOM     16  N   UNL A   1      39.213  30.850  32.116  1.00  0.00    -0.248 NA
ATOM     17  C   UNL A   1      37.233  32.075  31.967  1.00  0.00     0.031 C 
ATOM     18  C   UNL A   1      38.578  29.389  27.927  1.00  0.00     0.029 A 
ATOM     19  N   UNL A   1      39.888  29.227  29.729  1.00  0.00    -0.354 N 
ATOM     20  C   UNL A   1      39.016  31.539  33.307  1.00  0.00     0.074 A 
ATOM     21  C   UNL A   1      37.798  32.306  33.146  1.00  0.00     0.031 C 
ATOM     22  C   UNL A   1      39.515  28.472  27.654  1.00  0.00     0.029 A 
ATOM     23  C   UNL A   1      40.414  28.366  28.793  1.00  0.00     0.049 A 
ATOM     24  H   UNL A   1      40.285  29.366  30.619  1.00  0.00     0.167 HD
ATOM     25  C   UNL A   1      39.781  31.525  34.427  1.00  0.00     0.034 A 
ATOM     26  C   UNL A   1      41.514  27.592  28.836  1.00  0.00     0.034 A 
ATOM     27  C   UNL A   1      40.989  30.744  34.565  1.00  0.00     0.049 A 
ATOM     28  C   UNL A   1      42.344  27.606  30.089  1.00  0.00     0.074 A 
ATOM     29  C   UNL A   1      41.841  30.653  35.653  1.00  0.00     0.029 A 
ATOM     30  N   UNL A   1      41.519  29.915  33.581  1.00  0.00    -0.354 N 
ATOM     31  N   UNL A   1      42.147  28.277  31.200  1.00  0.00    -0.248 NA
ATOM     32  C   UNL A   1      43.542  26.762  30.092  1.00  0.00     0.031 C 
ATOM     33  C   UNL A   1      42.910  29.817  35.310  1.00  0.00     0.029 A 
ATOM     34  C   UNL A   1      42.694  29.330  34.030  1.00  0.00     0.049 A 
ATOM     35  H   UNL A   1      41.118  29.766  32.694  1.00  0.00     0.167 HD
ATOM     36  C   UNL A   1      43.202  27.935  32.036  1.00  0.00     0.074 A 
ATOM     37  C   UNL A   1      44.003  26.965  31.316  1.00  0.00     0.031 C 
ATOM     38  C   UNL A   1      43.494  28.389  33.282  1.00  0.00     0.034 A 
BRANCH  25  39
ATOM     39  C   UNL A   1      39.363  32.415  35.574  1.00  0.00     0.023 A 
ATOM     40  C   UNL A   1      39.802  33.746  35.681  1.00  0.00     0.031 A 
ATOM     41  C   UNL A   1      38.503  31.922  36.573  1.00  0.00     0.131 A 
ATOM     42  C   UNL A   1      39.419  34.522  36.788  1.00  0.00     0.055 A 
ATOM     43  C   UNL A   1      38.073  32.720  37.636  1.00  0.00     0.041 A 
ATOM     44  F   UNL A   1      38.067  30.653  36.534  1.00  0.00    -0.206 F 
ATOM     45  C   UNL A   1      38.538  34.026  37.753  1.00  0.00     0.022 A 
BRANCH  42  46
ATOM     46  S   UNL A   1      40.165  36.162  37.002  1.00  0.00     0.124 S 
ATOM     47  O   UNL A   1      39.431  36.672  38.157  1.00  0.00    -0.237 OA
ATOM     48  O   UNL A   1      41.571  35.844  37.229  1.00  0.00    -0.237 OA
ATOM     49  O   UNL A   1      39.875  36.839  35.739  1.00  0.00    -0.744 OA
ENDBRANCH  42  46
ENDBRANCH  25  39
BRANCH  26  50
ATOM     50  C   UNL A   1      41.913  26.787  27.649  1.00  0.00     0.023 A 
ATOM     51  C   UNL A   1      41.834  25.386  27.658  1.00  0.00     0.031 A 
ATOM     52  C   UNL A   1      42.409  27.413  26.489  1.00  0.00     0.131 A 
ATOM     53  C   UNL A   1      42.283  24.656  26.547  1.00  0.00     0.055 A 
ATOM     54  C   UNL A   1      42.798  26.685  25.366  1.00  0.00     0.041 A 
ATOM     55  F   UNL A   1      42.501  28.751  26.425  1.00  0.00    -0.206 F 
ATOM     56  C   UNL A   1      42.750  25.295  25.396  1.00  0.00     0.022 A 
BRANCH  53  57
ATOM     57  S   UNL A   1      42.341  22.847  26.665  1.00  0.00     0.124 S 
ATOM     58  O   UNL A   1      42.033  22.447  25.298  1.00  0.00    -0.237 OA
ATOM     59  O   UNL A   1      43.712  22.619  27.108  1.00  0.00    -0.237 OA
ATOM     60  O   UNL A   1      41.309  22.539  27.654  1.00  0.00    -0.744 OA
ENDBRANCH  53  57
ENDBRANCH  26  50
BRANCH  38  61
ATOM     61  C   UNL A   1      44.730  27.817  33.924  1.00  0.00     0.023 A 
ATOM     62  C   UNL A   1      44.679  26.628  34.675  1.00  0.00     0.031 A 
ATOM     63  C   UNL A   1      45.957  28.496  33.837  1.00  0.00     0.131 A 
ATOM     64  C   UNL A   1      45.815  26.195  35.372  1.00  0.00     0.055 A 
ATOM     65  C   UNL A   1      47.101  28.026  34.485  1.00  0.00     0.041 A 
ATOM     66  F   UNL A   1      46.059  29.635  33.135  1.00  0.00    -0.206 F 
ATOM     67  C   UNL A   1      47.028  26.879  35.271  1.00  0.00     0.022 A 
BRANCH  64  68
ATOM     68  S   UNL A   1      45.652  24.789  36.507  1.00  0.00     0.124 S 
ATOM     69  O   UNL A   1      46.268  25.308  37.724  1.00  0.00    -0.237 OA
ATOM     70  O   UNL A   1      44.207  24.595  36.557  1.00  0.00    -0.237 OA
ATOM     71  O   UNL A   1      46.397  23.723  35.841  1.00  0.00    -0.744 OA
ENDBRANCH  64  68
ENDBRANCH  38  61
ENDBRANCH  12  13
ENDBRANCH   5   7
ENDBRANCH   2   3
ENDBRANCH   1   2
BRANCH   1  72
ATOM     72  C   UNL A   1      31.928  27.822  26.936  1.00  0.00     0.023 C 
BRANCH  72  73
ATOM     73  C   UNL A   1      32.196  26.443  26.333  1.00  0.00     0.116 C 
BRANCH  73  74
ATOM     74  N   UNL A   1      31.419  25.336  26.884  1.00  0.00    -0.356 N 
ATOM     75  C   UNL A   1      31.206  24.039  26.494  1.00  0.00     0.226 C 
ATOM     76  H   UNL A   1      30.946  25.572  27.714  1.00  0.00     0.163 HD
ATOM     77  O   UNL A   1      30.571  23.320  27.269  1.00  0.00    -0.274 OA
BRANCH  75  78
ATOM     78  C   UNL A   1      31.747  23.476  25.168  1.00  0.00     0.057 C 
ATOM     79  C   UNL A   1      31.971  21.919  25.239  1.00  0.00     0.039 C 
ATOM     80  C   UNL A   1      33.130  24.142  24.889  1.00  0.00     0.039 C 
ATOM     81  C   UNL A   1      33.192  21.434  26.033  1.00  0.00     0.119 C 
ATOM     82  C   UNL A   1      34.192  23.679  25.886  1.00  0.00     0.119 C 
ATOM     83  N   UNL A   1      34.322  22.262  25.689  1.00  0.00    -0.356 N 
BRANCH  78  84
ATOM     84  C   UNL A   1      30.718  23.754  24.020  1.00  0.00     0.054 C 
BRANCH  84  85
ATOM     85  C   UNL A   1      30.605  25.178  23.475  1.00  0.00    -0.028 A 
ATOM     86  C   UNL A   1      29.553  25.978  23.968  1.00  0.00     0.005 A 
ATOM     87  C   UNL A   1      31.458  25.761  22.519  1.00  0.00     0.044 A 
ATOM     88  C   UNL A   1      29.385  27.304  23.558  1.00  0.00     0.000 A 
ATOM     89  C   UNL A   1      31.295  27.094  22.121  1.00  0.00     0.021 A 
ATOM     90  Cl  UNL A   1      32.723  24.922  21.715  1.00  0.00    -0.084 Cl
ATOM     91  C   UNL A   1      30.264  27.868  22.642  1.00  0.00     0.002 A 
ENDBRANCH  84  85
ENDBRANCH  78  84
BRANCH  83  92
ATOM     92  C   UNL A   1      35.563  21.770  25.389  1.00  0.00     0.141 A 
ATOM     93  N   UNL A   1      35.706  20.473  25.031  1.00  0.00    -0.219 NA
ATOM     94  C   UNL A   1      36.727  22.520  25.637  1.00  0.00     0.061 A 
ATOM     95  C   UNL A   1      36.951  19.970  24.914  1.00  0.00     0.226 A 
ATOM     96  C   UNL A   1      37.938  21.863  25.496  1.00  0.00     0.142 A 
ATOM     97  C   UNL A   1      37.026  23.842  26.073  1.00  0.00     0.033 A 
ATOM     98  N   UNL A   1      38.128  20.587  25.129  1.00  0.00    -0.218 NA
ATOM     99  N   UNL A   1      38.936  22.737  25.832  1.00  0.00    -0.346 N 
ATOM    100  C   UNL A   1      38.396  23.947  26.190  1.00  0.00     0.085 A 
ATOM    101  H   UNL A   1      39.899  22.529  25.818  1.00  0.00     0.167 HD
ENDBRANCH  83  92
ENDBRANCH  75  78
ENDBRANCH  73  74
ENDBRANCH  72  73
ENDBRANCH   1  72
TORSDOF 17
ENDMDL
MODEL 2
REMARK VINA RESULT:     -13.2      1.429      7.376
REMARK SMILES O=C(NCCCCNC(=O)C1(Cc2ccccc2Cl)CCN(c2ncnc3[nH]ccc23)CC1)c1ccc(-c2c3nc(c(-c4cc(S(=O)(=O)[O-])ccc4F)c4ccc([nH]4)c(-c4cc(S(=O)(=O)[O-])ccc4F)c4nc(c(-c5cc(S(=O)(=O)[O-])ccc5F)c5ccc2[nH]5)C=C4)C=C3)cc1
REMARK SMILES IDX 5 1 4 2 3 3 1 4 2 5 34 7 35 8 96 9 36 10 95 11 37 12 38 13
REMARK SMILES IDX 39 14 89 15 40 16 94 17 88 18 90 19 41 20 93 21 87 22 86 23
REMARK SMILES IDX 42 25 74 26 54 27 73 28 55 29 58 30 72 31 91 32 56 33 57 34
REMARK SMILES IDX 71 36 92 37 59 38 43 39 44 40 52 41 45 42 51 43 53 44 50 45
REMARK SMILES IDX 46 46 47 47 48 48 49 49 75 50 76 51 84 52 77 53 83 54 85 55
REMARK SMILES IDX 82 56 78 57 79 58 80 59 81 60 60 61 61 62 69 63 62 64 68 65
REMARK SMILES IDX 70 66 67 67 63 68 64 69 65 70 66 71 6 72 7 73 8 74 9 75
REMARK SMILES IDX 10 77 11 78 20 79 33 80 21 81 32 82 22 83 12 84 13 85 14 86
REMARK SMILES IDX 18 87 15 88 17 89 19 90 16 91 23 92 24 93 31 94 25 95 27 96
REMARK SMILES IDX 30 97 26 98 28 99 29 100
REMARK H PARENT 3 6 90 24 58 35 8 76 28 101
REMARK Flexibility Score: inf
ROOT
ATOM      1  C   UNL A   1      31.772  28.847  25.707  1.00  0.00     0.023 C 
ENDROOT
BRANCH   1   2
ATOM      2  C   UNL A   1      32.974  29.741  25.936  1.00  0.00     0.116 C 
BRANCH   2   3
ATOM      3  N   UNL A   1      32.626  31.096  26.342  1.00  0.00    -0.352 N 
ATOM      4  O   UNL A   1      32.806  32.996  27.560  1.00  0.00    -0.269 OA
ATOM      5  C   UNL A   1      33.279  31.908  27.244  1.00  0.00     0.251 C 
ATOM      6  H   UNL A   1      31.824  31.479  25.920  1.00  0.00     0.163 HD
BRANCH   5   7
ATOM      7  C   UNL A   1      34.538  31.426  27.847  1.00  0.00     0.039 A 
ATOM      8  C   UNL A   1      34.619  30.117  28.323  1.00  0.00     0.014 A 
ATOM      9  C   UNL A   1      35.611  32.307  28.010  1.00  0.00     0.014 A 
ATOM     10  C   UNL A   1      35.686  29.749  29.125  1.00  0.00     0.010 A 
ATOM     11  C   UNL A   1      36.744  31.889  28.715  1.00  0.00     0.010 A 
ATOM     12  C   UNL A   1      36.775  30.617  29.307  1.00  0.00    -0.014 A 
BRANCH  12  13
ATOM     13  C   UNL A   1      37.955  30.115  30.056  1.00  0.00     0.031 A 
ATOM     14  C   UNL A   1      38.962  29.197  29.420  1.00  0.00     0.074 A 
ATOM     15  C   UNL A   1      38.136  30.568  31.313  1.00  0.00     0.049 A 
ATOM     16  N   UNL A   1      40.062  28.707  29.931  1.00  0.00    -0.248 NA
ATOM     17  C   UNL A   1      38.700  28.765  28.039  1.00  0.00     0.031 C 
ATOM     18  C   UNL A   1      37.210  31.458  32.023  1.00  0.00     0.029 A 
ATOM     19  N   UNL A   1      39.162  30.387  32.201  1.00  0.00    -0.354 N 
ATOM     20  C   UNL A   1      40.616  27.895  28.949  1.00  0.00     0.074 A 
ATOM     21  C   UNL A   1      39.716  27.941  27.815  1.00  0.00     0.031 C 
ATOM     22  C   UNL A   1      37.746  31.805  33.201  1.00  0.00     0.029 A 
ATOM     23  C   UNL A   1      39.004  31.094  33.371  1.00  0.00     0.049 A 
ATOM     24  H   UNL A   1      39.937  29.807  32.020  1.00  0.00     0.167 HD
ATOM     25  C   UNL A   1      41.771  27.183  28.992  1.00  0.00     0.034 A 
ATOM     26  C   UNL A   1      39.776  31.148  34.472  1.00  0.00     0.034 A 
ATOM     27  C   UNL A   1      42.657  27.161  30.134  1.00  0.00     0.049 A 
ATOM     28  C   UNL A   1      41.043  30.343  34.491  1.00  0.00     0.074 A 
ATOM     29  C   UNL A   1      43.852  26.477  30.288  1.00  0.00     0.029 A 
ATOM     30  N   UNL A   1      42.446  27.855  31.321  1.00  0.00    -0.354 N 
ATOM     31  N   UNL A   1      41.542  29.569  33.555  1.00  0.00    -0.248 NA
ATOM     32  C   UNL A   1      41.850  30.415  35.714  1.00  0.00     0.031 C 
ATOM     33  C   UNL A   1      44.333  26.713  31.581  1.00  0.00     0.029 A 
ATOM     34  C   UNL A   1      43.475  27.597  32.216  1.00  0.00     0.049 A 
ATOM     35  H   UNL A   1      41.677  28.443  31.501  1.00  0.00     0.167 HD
ATOM     36  C   UNL A   1      42.724  29.061  34.079  1.00  0.00     0.074 A 
ATOM     37  C   UNL A   1      42.883  29.653  35.393  1.00  0.00     0.031 C 
ATOM     38  C   UNL A   1      43.596  28.175  33.533  1.00  0.00     0.034 A 
BRANCH  25  39
ATOM     39  C   UNL A   1      42.119  26.335  27.792  1.00  0.00     0.023 A 
ATOM     40  C   UNL A   1      41.914  24.945  27.780  1.00  0.00     0.031 A 
ATOM     41  C   UNL A   1      42.658  26.932  26.638  1.00  0.00     0.131 A 
ATOM     42  C   UNL A   1      42.291  24.192  26.655  1.00  0.00     0.055 A 
ATOM     43  C   UNL A   1      42.970  26.187  25.499  1.00  0.00     0.041 A 
ATOM     44  F   UNL A   1      42.895  28.253  26.599  1.00  0.00    -0.206 F 
ATOM     45  C   UNL A   1      42.795  24.806  25.506  1.00  0.00     0.022 A 
BRANCH  42  46
ATOM     46  S   UNL A   1      42.204  22.382  26.749  1.00  0.00     0.124 S 
ATOM     47  O   UNL A   1      43.551  22.045  27.201  1.00  0.00    -0.237 OA
ATOM     48  O   UNL A   1      41.132  22.165  27.714  1.00  0.00    -0.237 OA
ATOM     49  O   UNL A   1      41.897  21.981  25.376  1.00  0.00    -0.744 OA
ENDBRANCH  42  46
ENDBRANCH  25  39
BRANCH  26  50
ATOM     50  C   UNL A   1      39.347  31.950  35.651  1.00  0.00     0.023 A 
ATOM     51  C   UNL A   1      38.591  31.379  36.686  1.00  0.00     0.031 A 
ATOM     52  C   UNL A   1      39.667  33.318  35.746  1.00  0.00     0.131 A 
ATOM     53  C   UNL A   1      38.145  32.180  37.748  1.00  0.00     0.055 A 
ATOM     54  C   UNL A   1      39.272  34.096  36.833  1.00  0.00     0.041 A 
ATOM     55  F   UNL A   1      40.392  33.914  34.786  1.00  0.00    -0.206 F 
ATOM     56  C   UNL A   1      38.493  33.530  37.837  1.00  0.00     0.022 A 
BRANCH  53  57
ATOM     57  S   UNL A   1      37.017  31.453  38.968  1.00  0.00     0.124 S 
ATOM     58  O   UNL A   1      36.846  30.101  38.450  1.00  0.00    -0.237 OA
ATOM     59  O   UNL A   1      37.787  31.576  40.201  1.00  0.00    -0.237 OA
ATOM     60  O   UNL A   1      35.834  32.307  38.887  1.00  0.00    -0.744 OA
ENDBRANCH  53  57
ENDBRANCH  26  50
BRANCH  38  61
ATOM     61  C   UNL A   1      44.793  27.818  34.374  1.00  0.00     0.023 A 
ATOM     62  C   UNL A   1      44.765  26.722  35.255  1.00  0.00     0.031 A 
ATOM     63  C   UNL A   1      45.949  28.616  34.343  1.00  0.00     0.131 A 
ATOM     64  C   UNL A   1      45.843  26.497  36.123  1.00  0.00     0.055 A 
ATOM     65  C   UNL A   1      47.044  28.351  35.167  1.00  0.00     0.041 A 
ATOM     66  F   UNL A   1      46.026  29.676  33.522  1.00  0.00    -0.206 F 
ATOM     67  C   UNL A   1      46.987  27.297  36.075  1.00  0.00     0.022 A 
BRANCH  64  68
ATOM     68  S   UNL A   1      45.678  25.216  37.396  1.00  0.00     0.124 S 
ATOM     69  O   UNL A   1      46.170  24.030  36.700  1.00  0.00    -0.237 OA
ATOM     70  O   UNL A   1      46.530  25.727  38.464  1.00  0.00    -0.237 OA
ATOM     71  O   UNL A   1      44.248  25.210  37.694  1.00  0.00    -0.744 OA
ENDBRANCH  64  68
ENDBRANCH  38  61
ENDBRANCH  12  13
ENDBRANCH   5   7
ENDBRANCH   2   3
ENDBRANCH   1   2
BRANCH   1  72
ATOM     72  C   UNL A   1      31.592  27.749  26.738  1.00  0.00     0.023 C 
BRANCH  72  73
ATOM     73  C   UNL A   1      32.071  26.355  26.328  1.00  0.00     0.116 C 
BRANCH  73  74
ATOM     74  N   UNL A   1      31.320  25.229  26.876  1.00  0.00    -0.356 N 
ATOM     75  C   UNL A   1      31.130  23.931  26.477  1.00  0.00     0.226 C 
ATOM     76  H   UNL A   1      30.848  25.448  27.711  1.00  0.00     0.163 HD
ATOM     77  O   UNL A   1      30.515  23.193  27.251  1.00  0.00    -0.274 OA
BRANCH  75  78
ATOM     78  C   UNL A   1      31.673  23.389  25.143  1.00  0.00     0.057 C 
ATOM     79  C   UNL A   1      31.878  21.828  25.183  1.00  0.00     0.039 C 
ATOM     80  C   UNL A   1      33.065  24.045  24.886  1.00  0.00     0.039 C 
ATOM     81  C   UNL A   1      33.090  21.313  25.974  1.00  0.00     0.119 C 
ATOM     82  C   UNL A   1      34.116  23.549  25.880  1.00  0.00     0.119 C 
ATOM     83  N   UNL A   1      34.231  22.135  25.654  1.00  0.00    -0.356 N 
BRANCH  78  84
ATOM     84  C   UNL A   1      30.654  23.702  23.995  1.00  0.00     0.054 C 
BRANCH  84  85
ATOM     85  C   UNL A   1      30.590  25.130  23.451  1.00  0.00    -0.028 A 
ATOM     86  C   UNL A   1      29.541  25.952  23.914  1.00  0.00     0.005 A 
ATOM     87  C   UNL A   1      31.485  25.695  22.523  1.00  0.00     0.044 A 
ATOM     88  C   UNL A   1      29.416  27.282  23.502  1.00  0.00     0.000 A 
ATOM     89  C   UNL A   1      31.364  27.034  22.124  1.00  0.00     0.021 A 
ATOM     90  Cl  UNL A   1      32.755  24.831  21.756  1.00  0.00    -0.084 Cl
ATOM     91  C   UNL A   1      30.335  27.828  22.615  1.00  0.00     0.002 A 
ENDBRANCH  84  85
ENDBRANCH  78  84
BRANCH  83  92
ATOM     92  C   UNL A   1      35.468  21.634  25.351  1.00  0.00     0.141 A 
ATOM     93  N   UNL A   1      35.603  20.335  25.001  1.00  0.00    -0.219 NA
ATOM     94  C   UNL A   1      36.636  22.380  25.589  1.00  0.00     0.061 A 
ATOM     95  C   UNL A   1      36.844  19.825  24.881  1.00  0.00     0.226 A 
ATOM     96  C   UNL A   1      37.844  21.717  25.447  1.00  0.00     0.142 A 
ATOM     97  C   UNL A   1      36.945  23.703  26.015  1.00  0.00     0.033 A 
ATOM     98  N   UNL A   1      38.026  20.438  25.087  1.00  0.00    -0.218 NA
ATOM     99  N   UNL A   1      38.848  22.587  25.772  1.00  0.00    -0.346 N 
ATOM    100  C   UNL A   1      38.316  23.802  26.125  1.00  0.00     0.085 A 
ATOM    101  H   UNL A   1      39.809  22.374  25.756  1.00  0.00     0.167 HD
ENDBRANCH  83  92
ENDBRANCH  75  78
ENDBRANCH  73  74
ENDBRANCH  72  73
ENDBRANCH   1  72
TORSDOF 17
ENDMDL
MODEL 3
REMARK VINA RESULT:     -13.1      2.492      3.551
REMARK SMILES O=C(NCCCCNC(=O)C1(Cc2ccccc2Cl)CCN(c2ncnc3[nH]ccc23)CC1)c1ccc(-c2c3nc(c(-c4cc(S(=O)(=O)[O-])ccc4F)c4ccc([nH]4)c(-c4cc(S(=O)(=O)[O-])ccc4F)c4nc(c(-c5cc(S(=O)(=O)[O-])ccc5F)c5ccc2[nH]5)C=C4)C=C3)cc1
REMARK SMILES IDX 5 1 4 2 3 3 1 4 2 5 34 7 35 8 96 9 36 10 95 11 37 12 38 13
REMARK SMILES IDX 39 14 89 15 40 16 94 17 88 18 90 19 41 20 93 21 87 22 86 23
REMARK SMILES IDX 42 25 74 26 54 27 73 28 55 29 58 30 72 31 91 32 56 33 57 34
REMARK SMILES IDX 71 36 92 37 59 38 43 39 44 40 52 41 45 42 51 43 53 44 50 45
REMARK SMILES IDX 46 46 47 47 48 48 49 49 75 50 76 51 84 52 77 53 83 54 85 55
REMARK SMILES IDX 82 56 78 57 79 58 80 59 81 60 60 61 61 62 69 63 62 64 68 65
REMARK SMILES IDX 70 66 67 67 63 68 64 69 65 70 66 71 6 72 7 73 8 74 9 75
REMARK SMILES IDX 10 77 11 78 20 79 33 80 21 81 32 82 22 83 12 84 13 85 14 86
REMARK SMILES IDX 18 87 15 88 17 89 19 90 16 91 23 92 24 93 31 94 25 95 27 96
REMARK SMILES IDX 30 97 26 98 28 99 29 100
REMARK H PARENT 3 6 90 24 58 35 8 76 28 101
REMARK Flexibility Score: inf
ROOT
ATOM      1  C   UNL A   1      31.732  31.959  26.913  1.00  0.00     0.023 C 
ENDROOT
BRANCH   1   2
ATOM      2  C   UNL A   1      32.892  32.804  27.401  1.00  0.00     0.116 C 
BRANCH   2   3
ATOM      3  N   UNL A   1      32.517  34.170  27.741  1.00  0.00    -0.352 N 
ATOM      4  O   UNL A   1      32.564  36.083  28.952  1.00  0.00    -0.269 OA
ATOM      5  C   UNL A   1      33.054  34.982  28.717  1.00  0.00     0.251 C 
ATOM      6  H   UNL A   1      31.790  34.563  27.206  1.00  0.00     0.163 HD
BRANCH   5   7
ATOM      7  C   UNL A   1      34.207  34.485  29.495  1.00  0.00     0.039 A 
ATOM      8  C   UNL A   1      35.494  34.602  28.971  1.00  0.00     0.014 A 
ATOM      9  C   UNL A   1      33.993  33.831  30.711  1.00  0.00     0.014 A 
ATOM     10  C   UNL A   1      36.535  33.903  29.559  1.00  0.00     0.010 A 
ATOM     11  C   UNL A   1      35.072  33.231  31.369  1.00  0.00     0.010 A 
ATOM     12  C   UNL A   1      36.346  33.234  30.780  1.00  0.00    -0.014 A 
BRANCH  12  13
ATOM     13  C   UNL A   1      37.530  32.625  31.437  1.00  0.00     0.031 A 
ATOM     14  C   UNL A   1      37.990  33.065  32.800  1.00  0.00     0.074 A 
ATOM     15  C   UNL A   1      38.142  31.606  30.801  1.00  0.00     0.049 A 
ATOM     16  N   UNL A   1      38.981  32.603  33.519  1.00  0.00    -0.248 NA
ATOM     17  C   UNL A   1      37.255  34.170  33.433  1.00  0.00     0.031 C 
ATOM     18  C   UNL A   1      37.774  31.109  29.470  1.00  0.00     0.029 A 
ATOM     19  N   UNL A   1      39.163  30.781  31.188  1.00  0.00    -0.354 N 
ATOM     20  C   UNL A   1      39.004  33.366  34.680  1.00  0.00     0.074 A 
ATOM     21  C   UNL A   1      37.940  34.341  34.557  1.00  0.00     0.031 C 
ATOM     22  C   UNL A   1      38.503  30.022  29.188  1.00  0.00     0.029 A 
ATOM     23  C   UNL A   1      39.451  29.798  30.269  1.00  0.00     0.049 A 
ATOM     24  H   UNL A   1      39.645  30.882  32.041  1.00  0.00     0.167 HD
ATOM     25  C   UNL A   1      39.836  33.258  35.747  1.00  0.00     0.034 A 
ATOM     26  C   UNL A   1      40.390  28.834  30.283  1.00  0.00     0.034 A 
ATOM     27  C   UNL A   1      40.886  32.270  35.847  1.00  0.00     0.049 A 
ATOM     28  C   UNL A   1      41.299  28.745  31.475  1.00  0.00     0.074 A 
ATOM     29  C   UNL A   1      41.787  32.068  36.881  1.00  0.00     0.029 A 
ATOM     30  N   UNL A   1      41.179  31.315  34.879  1.00  0.00    -0.354 N 
ATOM     31  N   UNL A   1      41.313  29.489  32.557  1.00  0.00    -0.248 NA
ATOM     32  C   UNL A   1      42.319  27.693  31.446  1.00  0.00     0.031 C 
ATOM     33  C   UNL A   1      42.654  31.032  36.515  1.00  0.00     0.029 A 
ATOM     34  C   UNL A   1      42.257  30.540  35.282  1.00  0.00     0.049 A 
ATOM     35  H   UNL A   1      40.692  31.206  34.030  1.00  0.00     0.167 HD
ATOM     36  C   UNL A   1      42.348  28.991  33.340  1.00  0.00     0.074 A 
ATOM     37  C   UNL A   1      42.900  27.858  32.624  1.00  0.00     0.031 C 
ATOM     38  C   UNL A   1      42.811  29.435  34.536  1.00  0.00     0.034 A 
BRANCH  25  39
ATOM     39  C   UNL A   1      39.676  34.258  36.867  1.00  0.00     0.023 A 
ATOM     40  C   UNL A   1      39.189  33.888  38.132  1.00  0.00     0.031 A 
ATOM     41  C   UNL A   1      40.026  35.606  36.665  1.00  0.00     0.131 A 
ATOM     42  C   UNL A   1      39.020  34.862  39.129  1.00  0.00     0.055 A 
ATOM     43  C   UNL A   1      39.917  36.557  37.681  1.00  0.00     0.041 A 
ATOM     44  F   UNL A   1      40.479  36.023  35.471  1.00  0.00    -0.206 F 
ATOM     45  C   UNL A   1      39.403  36.189  38.921  1.00  0.00     0.022 A 
BRANCH  42  46
ATOM     46  S   UNL A   1      38.199  34.391  40.677  1.00  0.00     0.124 S 
ATOM     47  O   UNL A   1      39.267  33.679  41.374  1.00  0.00    -0.237 OA
ATOM     48  O   UNL A   1      37.818  35.682  41.240  1.00  0.00    -0.237 OA
ATOM     49  O   UNL A   1      37.086  33.552  40.235  1.00  0.00    -0.744 OA
ENDBRANCH  42  46
ENDBRANCH  25  39
BRANCH  26  50
ATOM     50  C   UNL A   1      40.543  27.918  29.119  1.00  0.00     0.023 A 
ATOM     51  C   UNL A   1      41.465  28.187  28.095  1.00  0.00     0.031 A 
ATOM     52  C   UNL A   1      39.743  26.765  29.000  1.00  0.00     0.131 A 
ATOM     53  C   UNL A   1      41.534  27.340  26.979  1.00  0.00     0.055 A 
ATOM     54  C   UNL A   1      39.858  25.894  27.918  1.00  0.00     0.041 A 
ATOM     55  F   UNL A   1      38.849  26.458  29.953  1.00  0.00    -0.206 F 
ATOM     56  C   UNL A   1      40.749  26.188  26.890  1.00  0.00     0.022 A 
BRANCH  53  57
ATOM     57  S   UNL A   1      42.600  27.819  25.593  1.00  0.00     0.124 S 
ATOM     58  O   UNL A   1      42.545  26.633  24.748  1.00  0.00    -0.237 OA
ATOM     59  O   UNL A   1      41.916  29.003  25.083  1.00  0.00    -0.237 OA
ATOM     60  O   UNL A   1      43.891  28.073  26.229  1.00  0.00    -0.744 OA
ENDBRANCH  53  57
ENDBRANCH  26  50
BRANCH  38  61
ATOM     61  C   UNL A   1      43.966  28.669  35.126  1.00  0.00     0.023 A 
ATOM     62  C   UNL A   1      43.753  27.551  35.954  1.00  0.00     0.031 A 
ATOM     63  C   UNL A   1      45.287  29.095  34.912  1.00  0.00     0.131 A 
ATOM     64  C   UNL A   1      44.840  26.943  36.596  1.00  0.00     0.055 A 
ATOM     65  C   UNL A   1      46.371  28.448  35.507  1.00  0.00     0.041 A 
ATOM     66  F   UNL A   1      45.545  30.158  34.133  1.00  0.00    -0.206 F 
ATOM     67  C   UNL A   1      46.148  27.376  36.368  1.00  0.00     0.022 A 
BRANCH  64  68
ATOM     68  S   UNL A   1      44.508  25.653  37.827  1.00  0.00     0.124 S 
ATOM     69  O   UNL A   1      44.328  26.434  39.046  1.00  0.00    -0.237 OA
ATOM     70  O   UNL A   1      43.308  25.016  37.295  1.00  0.00    -0.237 OA
ATOM     71  O   UNL A   1      45.714  24.827  37.793  1.00  0.00    -0.744 OA
ENDBRANCH  64  68
ENDBRANCH  38  61
ENDBRANCH  12  13
ENDBRANCH   5   7
ENDBRANCH   2   3
ENDBRANCH   1   2
BRANCH   1  72
ATOM     72  C   UNL A   1      32.060  30.494  26.698  1.00  0.00     0.023 C 
BRANCH  72  73
ATOM     73  C   UNL A   1      31.592  29.886  25.375  1.00  0.00     0.116 C 
BRANCH  73  74
ATOM     74  N   UNL A   1      32.622  29.677  24.362  1.00  0.00    -0.356 N 
ATOM     75  C   UNL A   1      32.860  28.691  23.439  1.00  0.00     0.226 C 
ATOM     76  H   UNL A   1      33.291  30.399  24.335  1.00  0.00     0.163 HD
ATOM     77  O   UNL A   1      33.777  28.886  22.637  1.00  0.00    -0.274 OA
BRANCH  75  78
ATOM     78  C   UNL A   1      32.017  27.406  23.368  1.00  0.00     0.057 C 
ATOM     79  C   UNL A   1      31.285  27.107  24.730  1.00  0.00     0.039 C 
ATOM     80  C   UNL A   1      32.980  26.213  23.075  1.00  0.00     0.039 C 
ATOM     81  C   UNL A   1      32.154  26.568  25.875  1.00  0.00     0.119 C 
ATOM     82  C   UNL A   1      33.899  25.924  24.262  1.00  0.00     0.119 C 
ATOM     83  N   UNL A   1      33.033  25.553  25.347  1.00  0.00    -0.356 N 
BRANCH  78  84
ATOM     84  C   UNL A   1      30.917  27.558  22.263  1.00  0.00     0.054 C 
BRANCH  84  85
ATOM     85  C   UNL A   1      29.777  28.549  22.506  1.00  0.00    -0.028 A 
ATOM     86  C   UNL A   1      29.985  29.884  22.104  1.00  0.00     0.005 A 
ATOM     87  C   UNL A   1      28.539  28.244  23.101  1.00  0.00     0.044 A 
ATOM     88  C   UNL A   1      28.992  30.858  22.252  1.00  0.00     0.000 A 
ATOM     89  C   UNL A   1      27.541  29.219  23.234  1.00  0.00     0.021 A 
ATOM     90  Cl  UNL A   1      28.134  26.710  23.759  1.00  0.00    -0.084 Cl
ATOM     91  C   UNL A   1      27.763  30.523  22.807  1.00  0.00     0.002 A 
ENDBRANCH  84  85
ENDBRANCH  78  84
BRANCH  83  92
ATOM     92  C   UNL A   1      33.238  24.339  25.942  1.00  0.00     0.141 A 
ATOM     93  N   UNL A   1      32.276  23.800  26.726  1.00  0.00    -0.219 NA
ATOM     94  C   UNL A   1      34.502  23.723  25.929  1.00  0.00     0.061 A 
ATOM     95  C   UNL A   1      32.569  22.695  27.439  1.00  0.00     0.226 A 
ATOM     96  C   UNL A   1      34.664  22.604  26.730  1.00  0.00     0.142 A 
ATOM     97  C   UNL A   1      35.765  23.976  25.321  1.00  0.00     0.033 A 
ATOM     98  N   UNL A   1      33.736  22.027  27.508  1.00  0.00    -0.218 NA
ATOM     99  N   UNL A   1      35.963  22.189  26.623  1.00  0.00    -0.346 N 
ATOM    100  C   UNL A   1      36.649  23.018  25.771  1.00  0.00     0.085 A 
ATOM    101  H   UNL A   1      36.349  21.411  27.089  1.00  0.00     0.167 HD
ENDBRANCH  83  92
ENDBRANCH  75  78
ENDBRANCH  73  74
ENDBRANCH  72  73
ENDBRANCH   1  72
TORSDOF 17
ENDMDL
