MODEL 1
REMARK VINA RESULT:     -13.2      0.000      0.000
REMARK SMILES Cc1ccc(-c2cc(OCC(=O)NCCCCNC(=O)c3ccc(-c4c5nc(c(-c6cc(S(=O)(=O)[O-])ccc6F)c6ccc([nH]6)c(-c6cc(S(=O)(=O)[O-])ccc6F)c6nc(c(-c7cc(S(=O)(=O)[O-])ccc7F)c7ccc4[nH]7)C=C6)C=C5)cc3)nc(NCc3ccc4c(c3)OCO4)n2)cc1
REMARK SMILES IDX 14 1 13 2 11 3 12 4 10 6 9 7 8 8 6 9 7 10 97 11 85 12 84 13
REMARK SMILES IDX 5 14 1 15 2 16 3 17 99 18 4 19 98 20 86 21 87 23 88 24 89 25
REMARK SMILES IDX 93 26 90 27 92 28 91 29 94 30 96 31 95 32 15 33 16 34 17 35
REMARK SMILES IDX 18 36 19 37 20 39 21 40 22 41 83 42 23 43 82 44 24 45 25 46
REMARK SMILES IDX 26 47 76 48 27 49 81 50 75 51 77 52 28 53 80 54 74 55 73 56
REMARK SMILES IDX 29 58 61 59 41 60 60 61 42 62 45 63 59 64 78 65 43 66 44 67
REMARK SMILES IDX 58 69 79 70 46 71 30 72 31 73 39 74 32 75 38 76 40 77 37 78
REMARK SMILES IDX 33 79 34 80 35 81 36 82 62 83 63 84 71 85 64 86 70 87 72 88
REMARK SMILES IDX 69 89 65 90 66 91 67 92 68 93 47 94 48 95 56 96 49 97 55 98
REMARK SMILES IDX 57 99 54 100 50 101 51 102 52 103 53 104
REMARK H PARENT 13 5 86 22 18 38 77 57 45 68
REMARK Flexibility Score: inf
ROOT
ATOM      1  C   UNL A   1      35.976  23.476  25.608  1.00  0.00     0.116 C 
ENDROOT
BRANCH   1   2
ATOM      2  N   UNL A   1      35.233  22.672  26.574  1.00  0.00    -0.353 N 
ATOM      3  C   UNL A   1      34.058  22.958  27.201  1.00  0.00     0.258 C 
ATOM      4  O   UNL A   1      33.586  22.142  27.999  1.00  0.00    -0.271 OA
ATOM      5  H   UNL A   1      35.637  21.805  26.806  1.00  0.00     0.163 HD
BRANCH   3   6
ATOM      6  C   UNL A   1      33.344  24.285  26.920  1.00  0.00     0.331 C 
BRANCH   6   7
ATOM      7  O   UNL A   1      31.928  24.263  26.925  1.00  0.00    -0.467 OA
BRANCH   7   8
ATOM      8  C   UNL A   1      31.289  24.561  25.758  1.00  0.00     0.219 A 
ATOM      9  C   UNL A   1      30.077  25.845  24.235  1.00  0.00     0.080 A 
ATOM     10  C   UNL A   1      30.645  25.740  25.488  1.00  0.00     0.097 A 
ATOM     11  N   UNL A   1      30.092  24.839  23.336  1.00  0.00    -0.213 NA
ATOM     12  C   UNL A   1      30.755  23.733  23.688  1.00  0.00     0.226 A 
ATOM     13  N   UNL A   1      31.345  23.560  24.872  1.00  0.00    -0.177 NA
BRANCH   9  14
ATOM     14  C   UNL A   1      29.471  27.106  23.796  1.00  0.00     0.000 A 
ATOM     15  C   UNL A   1      27.704  30.907  22.717  1.00  0.00     0.044 C 
ATOM     16  C   UNL A   1      28.323  29.586  23.065  1.00  0.00    -0.051 A 
ATOM     17  C   UNL A   1      27.521  28.451  23.232  1.00  0.00     0.004 A 
ATOM     18  C   UNL A   1      29.703  29.475  23.255  1.00  0.00     0.004 A 
ATOM     19  C   UNL A   1      28.090  27.221  23.586  1.00  0.00     0.010 A 
ATOM     20  C   UNL A   1      30.268  28.250  23.617  1.00  0.00     0.010 A 
ENDBRANCH   9  14
BRANCH  12  21
ATOM     21  N   UNL A   1      30.904  22.684  22.822  1.00  0.00    -0.350 N 
ATOM     22  H   UNL A   1      30.104  22.302  22.394  1.00  0.00     0.164 HD
BRANCH  21  23
ATOM     23  C   UNL A   1      32.189  22.125  22.516  1.00  0.00     0.152 C 
BRANCH  23  24
ATOM     24  C   UNL A   1      32.447  20.800  23.216  1.00  0.00    -0.025 A 
ATOM     25  C   UNL A   1      32.746  20.813  24.601  1.00  0.00     0.009 A 
ATOM     26  C   UNL A   1      32.376  19.562  22.549  1.00  0.00     0.056 A 
ATOM     27  C   UNL A   1      33.018  19.631  25.300  1.00  0.00     0.051 A 
ATOM     28  C   UNL A   1      32.671  18.418  23.257  1.00  0.00     0.166 A 
ATOM     29  C   UNL A   1      32.990  18.450  24.593  1.00  0.00     0.165 A 
ATOM     30  O   UNL A   1      32.704  17.157  22.746  1.00  0.00    -0.454 OA
ATOM     31  O   UNL A   1      33.274  17.215  25.086  1.00  0.00    -0.454 OA
ATOM     32  C   UNL A   1      33.224  16.430  23.876  1.00  0.00     0.468 C 
ENDBRANCH  23  24
ENDBRANCH  21  23
ENDBRANCH  12  21
ENDBRANCH   7   8
ENDBRANCH   6   7
ENDBRANCH   3   6
ENDBRANCH   1   2
BRANCH   1  33
ATOM     33  C   UNL A   1      37.491  23.468  25.850  1.00  0.00     0.023 C 
BRANCH  33  34
ATOM     34  C   UNL A   1      38.184  22.110  25.714  1.00  0.00     0.023 C 
BRANCH  34  35
ATOM     35  C   UNL A   1      39.468  21.971  26.519  1.00  0.00     0.116 C 
BRANCH  35  36
ATOM     36  N   UNL A   1      40.348  20.885  26.116  1.00  0.00    -0.352 N 
ATOM     37  C   UNL A   1      41.737  20.844  26.113  1.00  0.00     0.251 C 
ATOM     38  H   UNL A   1      39.898  20.067  25.803  1.00  0.00     0.163 HD
ATOM     39  O   UNL A   1      42.343  19.916  25.607  1.00  0.00    -0.269 OA
BRANCH  37  40
ATOM     40  C   UNL A   1      42.484  21.893  26.859  1.00  0.00     0.039 A 
ATOM     41  C   UNL A   1      42.435  21.840  28.259  1.00  0.00     0.014 A 
ATOM     42  C   UNL A   1      43.003  23.015  26.222  1.00  0.00     0.014 A 
ATOM     43  C   UNL A   1      42.669  22.998  28.999  1.00  0.00     0.010 A 
ATOM     44  C   UNL A   1      43.133  24.187  26.941  1.00  0.00     0.010 A 
ATOM     45  C   UNL A   1      42.906  24.193  28.320  1.00  0.00    -0.014 A 
BRANCH  45  46
ATOM     46  C   UNL A   1      42.780  25.503  28.945  1.00  0.00     0.031 A 
ATOM     47  C   UNL A   1      41.569  26.324  28.769  1.00  0.00     0.074 A 
ATOM     48  C   UNL A   1      43.758  25.956  29.759  1.00  0.00     0.049 A 
ATOM     49  N   UNL A   1      41.561  27.614  28.814  1.00  0.00    -0.248 NA
ATOM     50  C   UNL A   1      40.257  25.747  28.503  1.00  0.00     0.031 C 
ATOM     51  C   UNL A   1      43.704  27.105  30.659  1.00  0.00     0.029 A 
ATOM     52  N   UNL A   1      45.100  25.591  29.746  1.00  0.00    -0.354 N 
ATOM     53  C   UNL A   1      40.249  28.011  28.912  1.00  0.00     0.074 A 
ATOM     54  C   UNL A   1      39.474  26.823  28.629  1.00  0.00     0.031 C 
ATOM     55  C   UNL A   1      44.956  27.522  30.905  1.00  0.00     0.029 A 
ATOM     56  C   UNL A   1      45.845  26.737  30.070  1.00  0.00     0.049 A 
ATOM     57  H   UNL A   1      45.460  24.697  29.544  1.00  0.00     0.167 HD
ATOM     58  C   UNL A   1      39.947  29.254  29.381  1.00  0.00     0.034 A 
ATOM     59  C   UNL A   1      46.778  27.238  29.209  1.00  0.00     0.034 A 
ATOM     60  C   UNL A   1      41.144  30.017  29.730  1.00  0.00     0.049 A 
ATOM     61  C   UNL A   1      46.491  28.658  28.777  1.00  0.00     0.074 A 
ATOM     62  C   UNL A   1      41.749  30.316  30.941  1.00  0.00     0.029 A 
ATOM     63  N   UNL A   1      42.055  30.374  28.741  1.00  0.00    -0.354 N 
ATOM     64  N   UNL A   1      45.339  29.251  28.930  1.00  0.00    -0.248 NA
ATOM     65  C   UNL A   1      47.471  29.518  28.126  1.00  0.00     0.031 C 
ATOM     66  C   UNL A   1      43.040  30.836  30.675  1.00  0.00     0.029 A 
ATOM     67  C   UNL A   1      43.215  30.873  29.303  1.00  0.00     0.049 A 
ATOM     68  H   UNL A   1      41.895  30.282  27.775  1.00  0.00     0.167 HD
ATOM     69  C   UNL A   1      45.397  30.529  28.427  1.00  0.00     0.074 A 
ATOM     70  C   UNL A   1      46.762  30.647  27.945  1.00  0.00     0.031 C 
ATOM     71  C   UNL A   1      44.305  31.357  28.461  1.00  0.00     0.034 A 
BRANCH  58  72
ATOM     72  C   UNL A   1      38.556  29.639  29.831  1.00  0.00     0.023 A 
ATOM     73  C   UNL A   1      37.879  30.694  29.187  1.00  0.00     0.031 A 
ATOM     74  C   UNL A   1      37.864  29.036  30.898  1.00  0.00     0.131 A 
ATOM     75  C   UNL A   1      36.652  31.182  29.670  1.00  0.00     0.055 A 
ATOM     76  C   UNL A   1      36.672  29.558  31.420  1.00  0.00     0.041 A 
ATOM     77  F   UNL A   1      38.298  27.894  31.454  1.00  0.00    -0.206 F 
ATOM     78  C   UNL A   1      36.067  30.650  30.815  1.00  0.00     0.022 A 
BRANCH  75  79
ATOM     79  S   UNL A   1      35.825  32.523  28.770  1.00  0.00     0.124 S 
ATOM     80  O   UNL A   1      36.901  33.494  28.600  1.00  0.00    -0.237 OA
ATOM     81  O   UNL A   1      35.371  31.846  27.560  1.00  0.00    -0.237 OA
ATOM     82  O   UNL A   1      34.759  32.936  29.681  1.00  0.00    -0.744 OA
ENDBRANCH  75  79
ENDBRANCH  58  72
BRANCH  59  83
ATOM     83  C   UNL A   1      47.443  26.174  28.400  1.00  0.00     0.023 A 
ATOM     84  C   UNL A   1      47.122  26.145  27.024  1.00  0.00     0.031 A 
ATOM     85  C   UNL A   1      48.626  25.547  28.810  1.00  0.00     0.131 A 
ATOM     86  C   UNL A   1      48.070  25.710  26.089  1.00  0.00     0.055 A 
ATOM     87  C   UNL A   1      49.523  25.014  27.874  1.00  0.00     0.041 A 
ATOM     88  F   UNL A   1      48.996  25.560  30.099  1.00  0.00    -0.206 F 
ATOM     89  C   UNL A   1      49.273  25.144  26.504  1.00  0.00     0.022 A 
BRANCH  86  90
ATOM     90  S   UNL A   1      47.842  26.212  24.352  1.00  0.00     0.124 S 
ATOM     91  O   UNL A   1      47.678  24.929  23.682  1.00  0.00    -0.237 OA
ATOM     92  O   UNL A   1      46.647  27.056  24.417  1.00  0.00    -0.237 OA
ATOM     93  O   UNL A   1      49.066  26.942  24.036  1.00  0.00    -0.744 OA
ENDBRANCH  86  90
ENDBRANCH  59  83
BRANCH  71  94
ATOM     94  C   UNL A   1      44.156  32.727  27.812  1.00  0.00     0.023 A 
ATOM     95  C   UNL A   1      43.770  33.887  28.498  1.00  0.00     0.031 A 
ATOM     96  C   UNL A   1      44.454  32.918  26.436  1.00  0.00     0.131 A 
ATOM     97  C   UNL A   1      43.637  35.126  27.836  1.00  0.00     0.055 A 
ATOM     98  C   UNL A   1      44.379  34.158  25.792  1.00  0.00     0.041 A 
ATOM     99  F   UNL A   1      44.848  31.910  25.644  1.00  0.00    -0.206 F 
ATOM    100  C   UNL A   1      43.957  35.274  26.491  1.00  0.00     0.022 A 
BRANCH  97 101
ATOM    101  S   UNL A   1      42.995  36.537  28.775  1.00  0.00     0.124 S 
ATOM    102  O   UNL A   1      43.590  37.666  28.065  1.00  0.00    -0.237 OA
ATOM    103  O   UNL A   1      41.553  36.385  28.622  1.00  0.00    -0.237 OA
ATOM    104  O   UNL A   1      43.504  36.315  30.127  1.00  0.00    -0.744 OA
ENDBRANCH  97 101
ENDBRANCH  71  94
ENDBRANCH  45  46
ENDBRANCH  37  40
ENDBRANCH  35  36
ENDBRANCH  34  35
ENDBRANCH  33  34
ENDBRANCH   1  33
TORSDOF 20
ENDMDL
MODEL 2
REMARK VINA RESULT:     -12.8      2.342      3.030
REMARK SMILES Cc1ccc(-c2cc(OCC(=O)NCCCCNC(=O)c3ccc(-c4c5nc(c(-c6cc(S(=O)(=O)[O-])ccc6F)c6ccc([nH]6)c(-c6cc(S(=O)(=O)[O-])ccc6F)c6nc(c(-c7cc(S(=O)(=O)[O-])ccc7F)c7ccc4[nH]7)C=C6)C=C5)cc3)nc(NCc3ccc4c(c3)OCO4)n2)cc1
REMARK SMILES IDX 14 1 13 2 11 3 12 4 10 6 9 7 8 8 6 9 7 10 97 11 85 12 84 13
REMARK SMILES IDX 5 14 1 15 2 16 3 17 99 18 4 19 98 20 86 21 87 23 88 24 89 25
REMARK SMILES IDX 93 26 90 27 92 28 91 29 94 30 96 31 95 32 15 33 16 34 17 35
REMARK SMILES IDX 18 36 19 37 20 39 21 40 22 41 83 42 23 43 82 44 24 45 25 46
REMARK SMILES IDX 26 47 76 48 27 49 81 50 75 51 77 52 28 53 80 54 74 55 73 56
REMARK SMILES IDX 29 58 61 59 41 60 60 61 42 62 45 63 59 64 78 65 43 66 44 67
REMARK SMILES IDX 58 69 79 70 46 71 30 72 31 73 39 74 32 75 38 76 40 77 37 78
REMARK SMILES IDX 33 79 34 80 35 81 36 82 62 83 63 84 71 85 64 86 70 87 72 88
REMARK SMILES IDX 69 89 65 90 66 91 67 92 68 93 47 94 48 95 56 96 49 97 55 98
REMARK SMILES IDX 57 99 54 100 50 101 51 102 52 103 53 104
REMARK H PARENT 13 5 86 22 18 38 77 57 45 68
REMARK Flexibility Score: inf
ROOT
ATOM      1  C   UNL A   1      38.762  20.910  25.622  1.00  0.00     0.116 C 
ENDROOT
BRANCH   1   2
ATOM      2  N   UNL A   1      39.005  22.282  26.054  1.00  0.00    -0.353 N 
ATOM      3  C   UNL A   1      38.131  23.325  26.124  1.00  0.00     0.258 C 
ATOM      4  O   UNL A   1      38.534  24.424  26.516  1.00  0.00    -0.271 OA
ATOM      5  H   UNL A   1      39.927  22.483  26.335  1.00  0.00     0.163 HD
BRANCH   3   6
ATOM      6  C   UNL A   1      36.670  23.127  25.706  1.00  0.00     0.331 C 
BRANCH   6   7
ATOM      7  O   UNL A   1      36.120  24.091  24.827  1.00  0.00    -0.467 OA
BRANCH   7   8
ATOM      8  C   UNL A   1      34.856  24.534  25.089  1.00  0.00     0.219 A 
ATOM      9  C   UNL A   1      33.178  26.062  25.625  1.00  0.00     0.080 A 
ATOM     10  C   UNL A   1      34.521  25.821  25.417  1.00  0.00     0.097 A 
ATOM     11  N   UNL A   1      32.242  25.093  25.569  1.00  0.00    -0.213 NA
ATOM     12  C   UNL A   1      32.666  23.871  25.229  1.00  0.00     0.226 A 
ATOM     13  N   UNL A   1      33.943  23.560  24.996  1.00  0.00    -0.177 NA
BRANCH   9  14
ATOM     14  C   UNL A   1      32.695  27.426  25.861  1.00  0.00     0.000 A 
ATOM     15  C   UNL A   1      31.436  31.529  26.417  1.00  0.00     0.044 C 
ATOM     16  C   UNL A   1      31.848  30.100  26.231  1.00  0.00    -0.051 A 
ATOM     17  C   UNL A   1      32.573  29.436  27.229  1.00  0.00     0.004 A 
ATOM     18  C   UNL A   1      31.539  29.418  25.051  1.00  0.00     0.004 A 
ATOM     19  C   UNL A   1      32.985  28.111  27.049  1.00  0.00     0.010 A 
ATOM     20  C   UNL A   1      31.960  28.098  24.869  1.00  0.00     0.010 A 
ENDBRANCH   9  14
BRANCH  12  21
ATOM     21  N   UNL A   1      31.790  22.833  25.061  1.00  0.00    -0.350 N 
ATOM     22  H   UNL A   1      31.068  22.922  24.398  1.00  0.00     0.164 HD
BRANCH  21  23
ATOM     23  C   UNL A   1      31.890  21.620  25.819  1.00  0.00     0.152 C 
BRANCH  23  24
ATOM     24  C   UNL A   1      32.288  20.418  24.978  1.00  0.00    -0.025 A 
ATOM     25  C   UNL A   1      32.122  20.491  23.573  1.00  0.00     0.009 A 
ATOM     26  C   UNL A   1      32.837  19.248  25.537  1.00  0.00     0.056 A 
ATOM     27  C   UNL A   1      32.445  19.410  22.743  1.00  0.00     0.051 A 
ATOM     28  C   UNL A   1      33.124  18.193  24.699  1.00  0.00     0.166 A 
ATOM     29  C   UNL A   1      32.927  18.268  23.341  1.00  0.00     0.165 A 
ATOM     30  O   UNL A   1      33.601  16.980  25.088  1.00  0.00    -0.454 OA
ATOM     31  O   UNL A   1      33.247  17.107  22.708  1.00  0.00    -0.454 OA
ATOM     32  C   UNL A   1      33.538  16.261  23.841  1.00  0.00     0.468 C 
ENDBRANCH  23  24
ENDBRANCH  21  23
ENDBRANCH  12  21
ENDBRANCH   7   8
ENDBRANCH   6   7
ENDBRANCH   3   6
ENDBRANCH   1   2
BRANCH   1  33
ATOM     33  C   UNL A   1      39.993  20.004  25.758  1.00  0.00     0.023 C 
BRANCH  33  34
ATOM     34  C   UNL A   1      40.889  20.270  26.971  1.00  0.00     0.023 C 
BRANCH  34  35
ATOM     35  C   UNL A   1      42.192  20.988  26.649  1.00  0.00     0.116 C 
BRANCH  35  36
ATOM     36  N   UNL A   1      43.018  20.362  25.627  1.00  0.00    -0.352 N 
ATOM     37  C   UNL A   1      44.003  20.934  24.832  1.00  0.00     0.251 C 
ATOM     38  H   UNL A   1      42.858  19.402  25.480  1.00  0.00     0.163 HD
ATOM     39  O   UNL A   1      44.513  20.320  23.913  1.00  0.00    -0.269 OA
BRANCH  37  40
ATOM     40  C   UNL A   1      44.529  22.277  25.202  1.00  0.00     0.039 A 
ATOM     41  C   UNL A   1      45.345  22.354  26.338  1.00  0.00     0.014 A 
ATOM     42  C   UNL A   1      44.047  23.440  24.610  1.00  0.00     0.014 A 
ATOM     43  C   UNL A   1      45.467  23.565  27.016  1.00  0.00     0.010 A 
ATOM     44  C   UNL A   1      44.078  24.616  25.333  1.00  0.00     0.010 A 
ATOM     45  C   UNL A   1      44.736  24.664  26.566  1.00  0.00    -0.014 A 
BRANCH  45  46
ATOM     46  C   UNL A   1      44.478  25.841  27.386  1.00  0.00     0.031 A 
ATOM     47  C   UNL A   1      43.169  26.519  27.365  1.00  0.00     0.074 A 
ATOM     48  C   UNL A   1      45.427  26.287  28.237  1.00  0.00     0.049 A 
ATOM     49  N   UNL A   1      43.007  27.777  27.607  1.00  0.00    -0.248 NA
ATOM     50  C   UNL A   1      41.927  25.827  27.044  1.00  0.00     0.031 C 
ATOM     51  C   UNL A   1      45.271  27.274  29.303  1.00  0.00     0.029 A 
ATOM     52  N   UNL A   1      46.801  26.101  28.137  1.00  0.00    -0.354 N 
ATOM     53  C   UNL A   1      41.662  27.985  27.793  1.00  0.00     0.074 A 
ATOM     54  C   UNL A   1      41.026  26.765  27.351  1.00  0.00     0.031 C 
ATOM     55  C   UNL A   1      46.472  27.805  29.581  1.00  0.00     0.029 A 
ATOM     56  C   UNL A   1      47.415  27.271  28.616  1.00  0.00     0.049 A 
ATOM     57  H   UNL A   1      47.258  25.300  27.794  1.00  0.00     0.167 HD
ATOM     58  C   UNL A   1      41.230  29.097  28.453  1.00  0.00     0.034 A 
ATOM     59  C   UNL A   1      48.243  28.009  27.820  1.00  0.00     0.034 A 
ATOM     60  C   UNL A   1      42.339  29.945  28.887  1.00  0.00     0.049 A 
ATOM     61  C   UNL A   1      47.768  29.429  27.616  1.00  0.00     0.074 A 
ATOM     62  C   UNL A   1      42.954  30.135  30.116  1.00  0.00     0.029 A 
ATOM     63  N   UNL A   1      43.158  30.556  27.944  1.00  0.00    -0.354 N 
ATOM     64  N   UNL A   1      46.560  29.843  27.884  1.00  0.00    -0.248 NA
ATOM     65  C   UNL A   1      48.608  30.493  27.082  1.00  0.00     0.031 C 
ATOM     66  C   UNL A   1      44.160  30.847  29.902  1.00  0.00     0.029 A 
ATOM     67  C   UNL A   1      44.272  31.110  28.548  1.00  0.00     0.049 A 
ATOM     68  H   UNL A   1      42.971  30.590  26.979  1.00  0.00     0.167 HD
ATOM     69  C   UNL A   1      46.441  31.178  27.581  1.00  0.00     0.074 A 
ATOM     70  C   UNL A   1      47.760  31.538  27.091  1.00  0.00     0.031 C 
ATOM     71  C   UNL A   1      45.259  31.847  27.766  1.00  0.00     0.034 A 
BRANCH  58  72
ATOM     72  C   UNL A   1      39.823  29.232  28.988  1.00  0.00     0.023 A 
ATOM     73  C   UNL A   1      39.596  29.192  30.379  1.00  0.00     0.031 A 
ATOM     74  C   UNL A   1      38.672  29.366  28.189  1.00  0.00     0.131 A 
ATOM     75  C   UNL A   1      38.295  29.161  30.909  1.00  0.00     0.055 A 
ATOM     76  C   UNL A   1      37.374  29.273  28.710  1.00  0.00     0.041 A 
ATOM     77  F   UNL A   1      38.761  29.627  26.876  1.00  0.00    -0.206 F 
ATOM     78  C   UNL A   1      37.179  29.152  30.078  1.00  0.00     0.022 A 
BRANCH  75  79
ATOM     79  S   UNL A   1      38.082  29.140  32.711  1.00  0.00     0.124 S 
ATOM     80  O   UNL A   1      37.724  27.749  32.967  1.00  0.00    -0.237 OA
ATOM     81  O   UNL A   1      39.397  29.565  33.180  1.00  0.00    -0.237 OA
ATOM     82  O   UNL A   1      37.007  30.105  32.936  1.00  0.00    -0.744 OA
ENDBRANCH  75  79
ENDBRANCH  58  72
BRANCH  59  83
ATOM     83  C   UNL A   1      48.998  27.169  26.843  1.00  0.00     0.023 A 
ATOM     84  C   UNL A   1      48.465  27.101  25.536  1.00  0.00     0.031 A 
ATOM     85  C   UNL A   1      50.349  26.846  27.016  1.00  0.00     0.131 A 
ATOM     86  C   UNL A   1      49.316  26.946  24.435  1.00  0.00     0.055 A 
ATOM     87  C   UNL A   1      51.176  26.582  25.916  1.00  0.00     0.041 A 
ATOM     88  F   UNL A   1      50.918  26.912  28.229  1.00  0.00    -0.206 F 
ATOM     89  C   UNL A   1      50.674  26.686  24.615  1.00  0.00     0.022 A 
BRANCH  86  90
ATOM     90  S   UNL A   1      48.683  27.426  22.796  1.00  0.00     0.124 S 
ATOM     91  O   UNL A   1      48.652  26.150  22.094  1.00  0.00    -0.237 OA
ATOM     92  O   UNL A   1      47.379  28.011  23.116  1.00  0.00    -0.237 OA
ATOM     93  O   UNL A   1      49.664  28.394  22.312  1.00  0.00    -0.744 OA
ENDBRANCH  86  90
ENDBRANCH  59  83
BRANCH  71  94
ATOM     94  C   UNL A   1      44.917  33.268  27.337  1.00  0.00     0.023 A 
ATOM     95  C   UNL A   1      45.327  34.420  28.023  1.00  0.00     0.031 A 
ATOM     96  C   UNL A   1      44.176  33.512  26.149  1.00  0.00     0.131 A 
ATOM     97  C   UNL A   1      44.966  35.710  27.581  1.00  0.00     0.055 A 
ATOM     98  C   UNL A   1      43.868  34.794  25.679  1.00  0.00     0.041 A 
ATOM     99  F   UNL A   1      43.721  32.518  25.374  1.00  0.00    -0.206 F 
ATOM    100  C   UNL A   1      44.255  35.906  26.402  1.00  0.00     0.022 A 
BRANCH  97 101
ATOM    101  S   UNL A   1      45.420  37.129  28.613  1.00  0.00     0.124 S 
ATOM    102  O   UNL A   1      46.736  37.478  28.082  1.00  0.00    -0.237 OA
ATOM    103  O   UNL A   1      44.351  38.080  28.325  1.00  0.00    -0.237 OA
ATOM    104  O   UNL A   1      45.421  36.587  29.970  1.00  0.00    -0.744 OA
ENDBRANCH  97 101
ENDBRANCH  71  94
ENDBRANCH  45  46
ENDBRANCH  37  40
ENDBRANCH  35  36
ENDBRANCH  34  35
ENDBRANCH  33  34
ENDBRANCH   1  33
TORSDOF 20
ENDMDL
MODEL 3
REMARK VINA RESULT:     -12.7      2.326      5.173
REMARK SMILES Cc1ccc(-c2cc(OCC(=O)NCCCCNC(=O)c3ccc(-c4c5nc(c(-c6cc(S(=O)(=O)[O-])ccc6F)c6ccc([nH]6)c(-c6cc(S(=O)(=O)[O-])ccc6F)c6nc(c(-c7cc(S(=O)(=O)[O-])ccc7F)c7ccc4[nH]7)C=C6)C=C5)cc3)nc(NCc3ccc4c(c3)OCO4)n2)cc1
REMARK SMILES IDX 14 1 13 2 11 3 12 4 10 6 9 7 8 8 6 9 7 10 97 11 85 12 84 13
REMARK SMILES IDX 5 14 1 15 2 16 3 17 99 18 4 19 98 20 86 21 87 23 88 24 89 25
REMARK SMILES IDX 93 26 90 27 92 28 91 29 94 30 96 31 95 32 15 33 16 34 17 35
REMARK SMILES IDX 18 36 19 37 20 39 21 40 22 41 83 42 23 43 82 44 24 45 25 46
REMARK SMILES IDX 26 47 76 48 27 49 81 50 75 51 77 52 28 53 80 54 74 55 73 56
REMARK SMILES IDX 29 58 61 59 41 60 60 61 42 62 45 63 59 64 78 65 43 66 44 67
REMARK SMILES IDX 58 69 79 70 46 71 30 72 31 73 39 74 32 75 38 76 40 77 37 78
REMARK SMILES IDX 33 79 34 80 35 81 36 82 62 83 63 84 71 85 64 86 70 87 72 88
REMARK SMILES IDX 69 89 65 90 66 91 67 92 68 93 47 94 48 95 56 96 49 97 55 98
REMARK SMILES IDX 57 99 54 100 50 101 51 102 52 103 53 104
REMARK H PARENT 13 5 86 22 18 38 77 57 45 68
REMARK Flexibility Score: inf
ROOT
ATOM      1  C   UNL A   1      37.306  23.258  25.716  1.00  0.00     0.116 C 
ENDROOT
BRANCH   1   2
ATOM      2  N   UNL A   1      36.220  22.668  26.492  1.00  0.00    -0.353 N 
ATOM      3  C   UNL A   1      34.910  23.039  26.551  1.00  0.00     0.258 C 
ATOM      4  O   UNL A   1      34.137  22.408  27.279  1.00  0.00    -0.271 OA
ATOM      5  H   UNL A   1      36.467  21.895  27.050  1.00  0.00     0.163 HD
BRANCH   3   6
ATOM      6  C   UNL A   1      34.416  24.232  25.726  1.00  0.00     0.331 C 
BRANCH   6   7
ATOM      7  O   UNL A   1      33.060  24.604  25.889  1.00  0.00    -0.467 OA
BRANCH   7   8
ATOM      8  C   UNL A   1      32.736  25.914  25.685  1.00  0.00     0.219 A 
ATOM      9  C   UNL A   1      31.691  27.743  24.686  1.00  0.00     0.080 A 
ATOM     10  C   UNL A   1      31.899  26.379  24.706  1.00  0.00     0.097 A 
ATOM     11  N   UNL A   1      32.309  28.591  25.533  1.00  0.00    -0.213 NA
ATOM     12  C   UNL A   1      33.099  28.041  26.461  1.00  0.00     0.226 A 
ATOM     13  N   UNL A   1      33.339  26.732  26.557  1.00  0.00    -0.177 NA
BRANCH   9  14
ATOM     14  C   UNL A   1      30.719  28.334  23.760  1.00  0.00     0.000 A 
ATOM     15  C   UNL A   1      27.854  30.268  21.156  1.00  0.00     0.044 C 
ATOM     16  C   UNL A   1      28.854  29.582  22.038  1.00  0.00    -0.051 A 
ATOM     17  C   UNL A   1      28.437  28.610  22.957  1.00  0.00     0.004 A 
ATOM     18  C   UNL A   1      30.209  29.919  21.976  1.00  0.00     0.004 A 
ATOM     19  C   UNL A   1      29.362  27.987  23.804  1.00  0.00     0.010 A 
ATOM     20  C   UNL A   1      31.128  29.303  22.828  1.00  0.00     0.010 A 
ENDBRANCH   9  14
BRANCH  12  21
ATOM     21  N   UNL A   1      33.709  28.801  27.421  1.00  0.00    -0.350 N 
ATOM     22  H   UNL A   1      33.294  28.864  28.312  1.00  0.00     0.164 HD
BRANCH  21  23
ATOM     23  C   UNL A   1      34.930  29.509  27.172  1.00  0.00     0.152 C 
BRANCH  23  24
ATOM     24  C   UNL A   1      34.869  30.971  27.582  1.00  0.00    -0.025 A 
ATOM     25  C   UNL A   1      36.069  31.616  27.972  1.00  0.00     0.009 A 
ATOM     26  C   UNL A   1      33.674  31.715  27.564  1.00  0.00     0.056 A 
ATOM     27  C   UNL A   1      36.078  32.954  28.385  1.00  0.00     0.051 A 
ATOM     28  C   UNL A   1      33.709  33.023  27.997  1.00  0.00     0.166 A 
ATOM     29  C   UNL A   1      34.876  33.624  28.403  1.00  0.00     0.165 A 
ATOM     30  O   UNL A   1      32.636  33.853  28.096  1.00  0.00    -0.454 OA
ATOM     31  O   UNL A   1      34.680  34.905  28.817  1.00  0.00    -0.454 OA
ATOM     32  C   UNL A   1      33.240  34.987  28.747  1.00  0.00     0.468 C 
ENDBRANCH  23  24
ENDBRANCH  21  23
ENDBRANCH  12  21
ENDBRANCH   7   8
ENDBRANCH   6   7
ENDBRANCH   3   6
ENDBRANCH   1   2
BRANCH   1  33
ATOM     33  C   UNL A   1      38.376  23.930  26.587  1.00  0.00     0.023 C 
BRANCH  33  34
ATOM     34  C   UNL A   1      39.795  23.369  26.457  1.00  0.00     0.023 C 
BRANCH  34  35
ATOM     35  C   UNL A   1      39.998  22.006  27.104  1.00  0.00     0.116 C 
BRANCH  35  36
ATOM     36  N   UNL A   1      40.886  21.100  26.391  1.00  0.00    -0.352 N 
ATOM     37  C   UNL A   1      42.240  21.243  26.118  1.00  0.00     0.251 C 
ATOM     38  H   UNL A   1      40.470  20.272  26.059  1.00  0.00     0.163 HD
ATOM     39  O   UNL A   1      42.825  20.469  25.382  1.00  0.00    -0.269 OA
BRANCH  37  40
ATOM     40  C   UNL A   1      43.010  22.288  26.848  1.00  0.00     0.039 A 
ATOM     41  C   UNL A   1      43.016  22.217  28.247  1.00  0.00     0.014 A 
ATOM     42  C   UNL A   1      43.495  23.421  26.205  1.00  0.00     0.014 A 
ATOM     43  C   UNL A   1      43.272  23.367  28.992  1.00  0.00     0.010 A 
ATOM     44  C   UNL A   1      43.646  24.586  26.933  1.00  0.00     0.010 A 
ATOM     45  C   UNL A   1      43.474  24.572  28.320  1.00  0.00    -0.014 A 
BRANCH  45  46
ATOM     46  C   UNL A   1      43.364  25.874  28.967  1.00  0.00     0.031 A 
ATOM     47  C   UNL A   1      42.100  26.632  28.956  1.00  0.00     0.074 A 
ATOM     48  C   UNL A   1      44.416  26.375  29.650  1.00  0.00     0.049 A 
ATOM     49  N   UNL A   1      42.033  27.920  29.012  1.00  0.00    -0.248 NA
ATOM     50  C   UNL A   1      40.796  25.988  28.859  1.00  0.00     0.031 C 
ATOM     51  C   UNL A   1      44.422  27.519  30.558  1.00  0.00     0.029 A 
ATOM     52  N   UNL A   1      45.761  26.079  29.459  1.00  0.00    -0.354 N 
ATOM     53  C   UNL A   1      40.727  28.248  29.283  1.00  0.00     0.074 A 
ATOM     54  C   UNL A   1      39.983  27.023  29.095  1.00  0.00     0.031 C 
ATOM     55  C   UNL A   1      45.672  28.000  30.642  1.00  0.00     0.029 A 
ATOM     56  C   UNL A   1      46.483  27.262  29.692  1.00  0.00     0.049 A 
ATOM     57  H   UNL A   1      46.137  25.205  29.205  1.00  0.00     0.167 HD
ATOM     58  C   UNL A   1      40.425  29.474  29.797  1.00  0.00     0.034 A 
ATOM     59  C   UNL A   1      47.269  27.812  28.721  1.00  0.00     0.034 A 
ATOM     60  C   UNL A   1      41.617  30.297  29.993  1.00  0.00     0.049 A 
ATOM     61  C   UNL A   1      46.857  29.215  28.340  1.00  0.00     0.074 A 
ATOM     62  C   UNL A   1      42.360  30.625  31.117  1.00  0.00     0.029 A 
ATOM     63  N   UNL A   1      42.372  30.701  28.897  1.00  0.00    -0.354 N 
ATOM     64  N   UNL A   1      45.706  29.748  28.648  1.00  0.00    -0.248 NA
ATOM     65  C   UNL A   1      47.698  30.126  27.574  1.00  0.00     0.031 C 
ATOM     66  C   UNL A   1      43.577  31.211  30.689  1.00  0.00     0.029 A 
ATOM     67  C   UNL A   1      43.569  31.259  29.306  1.00  0.00     0.049 A 
ATOM     68  H   UNL A   1      42.092  30.602  27.959  1.00  0.00     0.167 HD
ATOM     69  C   UNL A   1      45.632  31.028  28.151  1.00  0.00     0.074 A 
ATOM     70  C   UNL A   1      46.915  31.216  27.496  1.00  0.00     0.031 C 
ATOM     71  C   UNL A   1      44.514  31.799  28.334  1.00  0.00     0.034 A 
BRANCH  58  72
ATOM     72  C   UNL A   1      39.088  29.786  30.427  1.00  0.00     0.023 A 
ATOM     73  C   UNL A   1      39.033  30.539  31.617  1.00  0.00     0.031 A 
ATOM     74  C   UNL A   1      37.846  29.346  29.930  1.00  0.00     0.131 A 
ATOM     75  C   UNL A   1      37.827  30.722  32.316  1.00  0.00     0.055 A 
ATOM     76  C   UNL A   1      36.652  29.473  30.654  1.00  0.00     0.041 A 
ATOM     77  F   UNL A   1      37.736  28.807  28.707  1.00  0.00    -0.206 F 
ATOM     78  C   UNL A   1      36.641  30.150  31.865  1.00  0.00     0.022 A 
BRANCH  75  79
ATOM     79  S   UNL A   1      37.831  31.730  33.825  1.00  0.00     0.124 S 
ATOM     80  O   UNL A   1      38.493  30.853  34.784  1.00  0.00    -0.237 OA
ATOM     81  O   UNL A   1      38.580  32.909  33.404  1.00  0.00    -0.237 OA
ATOM     82  O   UNL A   1      36.410  31.963  34.080  1.00  0.00    -0.744 OA
ENDBRANCH  75  79
ENDBRANCH  58  72
BRANCH  59  83
ATOM     83  C   UNL A   1      47.876  26.784  27.823  1.00  0.00     0.023 A 
ATOM     84  C   UNL A   1      47.500  26.844  26.463  1.00  0.00     0.031 A 
ATOM     85  C   UNL A   1      49.059  26.108  28.147  1.00  0.00     0.131 A 
ATOM     86  C   UNL A   1      48.399  26.446  25.465  1.00  0.00     0.055 A 
ATOM     87  C   UNL A   1      49.905  25.613  27.145  1.00  0.00     0.041 A 
ATOM     88  F   UNL A   1      49.480  26.035  29.418  1.00  0.00    -0.206 F 
ATOM     89  C   UNL A   1      49.605  25.830  25.797  1.00  0.00     0.022 A 
BRANCH  86  90
ATOM     90  S   UNL A   1      48.115  27.057  23.772  1.00  0.00     0.124 S 
ATOM     91  O   UNL A   1      49.174  28.046  23.622  1.00  0.00    -0.237 OA
ATOM     92  O   UNL A   1      48.257  25.843  22.967  1.00  0.00    -0.237 OA
ATOM     93  O   UNL A   1      46.754  27.584  23.815  1.00  0.00    -0.744 OA
ENDBRANCH  86  90
ENDBRANCH  59  83
BRANCH  71  94
ATOM     94  C   UNL A   1      44.211  33.160  27.721  1.00  0.00     0.023 A 
ATOM     95  C   UNL A   1      44.192  34.363  28.440  1.00  0.00     0.031 A 
ATOM     96  C   UNL A   1      43.969  33.294  26.326  1.00  0.00     0.131 A 
ATOM     97  C   UNL A   1      43.892  35.591  27.815  1.00  0.00     0.055 A 
ATOM     98  C   UNL A   1      43.729  34.520  25.697  1.00  0.00     0.041 A 
ATOM     99  F   UNL A   1      43.965  32.240  25.498  1.00  0.00    -0.206 F 
ATOM    100  C   UNL A   1      43.679  35.682  26.444  1.00  0.00     0.022 A 
BRANCH  97 101
ATOM    101  S   UNL A   1      43.749  37.071  28.854  1.00  0.00     0.124 S 
ATOM    102  O   UNL A   1      43.240  36.513  30.104  1.00  0.00    -0.237 OA
ATOM    103  O   UNL A   1      45.123  37.558  28.894  1.00  0.00    -0.237 OA
ATOM    104  O   UNL A   1      42.810  37.918  28.123  1.00  0.00    -0.744 OA
ENDBRANCH  97 101
ENDBRANCH  71  94
ENDBRANCH  45  46
ENDBRANCH  37  40
ENDBRANCH  35  36
ENDBRANCH  34  35
ENDBRANCH  33  34
ENDBRANCH   1  33
TORSDOF 20
ENDMDL
