MODEL 1
REMARK VINA RESULT:     -12.5      0.000      0.000
REMARK SMILES O=C(CCCN1C(=O)C(=O)/C(=C(/[O-])c2ccccc2)[C@@H]1/C=C/c1ccccc1)NCCCCNC(=O)c1ccc(-c2c3nc(c(-c4cc(S(=O)(=O)[O-])ccc4F)c4ccc([nH]4)c(-c4cc(S(=O)(=O)[O-])ccc4F)c4nc(c(-c5cc(S(=O)(=O)[O-])ccc5F)c5ccc2[nH]5)C=C4)C=C3)cc1
REMARK SMILES IDX 30 1 29 2 1 3 2 4 3 6 4 7 5 8 6 9 7 10 20 11 8 12 9 13 11 14
REMARK SMILES IDX 10 15 12 16 13 17 21 18 22 19 23 20 24 21 28 22 25 23 27 24
REMARK SMILES IDX 26 25 14 26 15 27 19 28 16 29 18 30 17 31 31 32 32 33 33 34
REMARK SMILES IDX 34 35 35 36 36 38 37 39 38 40 99 41 39 42 98 43 40 44 41 45
REMARK SMILES IDX 42 46 92 47 43 48 97 49 91 50 93 51 44 52 96 53 90 54 89 55
REMARK SMILES IDX 45 57 77 58 57 59 76 60 58 61 61 62 75 63 94 64 59 65 60 66
REMARK SMILES IDX 74 68 95 69 62 70 46 71 47 72 55 73 48 74 54 75 56 76 53 77
REMARK SMILES IDX 49 78 50 79 51 80 52 81 78 82 79 83 87 84 80 85 86 86 88 87
REMARK SMILES IDX 85 88 81 89 82 90 83 91 84 92 63 93 64 94 72 95 65 96 71 97
REMARK SMILES IDX 73 98 70 99 66 100 67 101 68 102 69 103
REMARK H PARENT 29 5 34 37 93 56 61 67
REMARK Flexibility Score: inf
ROOT
ATOM      1  C   UNL A   1      35.655  23.861  24.303  1.00  0.00     0.116 C 
ENDROOT
BRANCH   1   2
ATOM      2  N   UNL A   1      34.249  23.512  24.237  1.00  0.00    -0.356 N 
ATOM      3  O   UNL A   1      33.757  24.753  22.376  1.00  0.00    -0.275 OA
ATOM      4  C   UNL A   1      33.407  23.960  23.245  1.00  0.00     0.220 C 
ATOM      5  H   UNL A   1      33.880  22.924  24.936  1.00  0.00     0.163 HD
BRANCH   4   6
ATOM      6  C   UNL A   1      31.978  23.460  23.339  1.00  0.00     0.102 C 
BRANCH   6   7
ATOM      7  C   UNL A   1      30.944  24.435  22.788  1.00  0.00     0.031 C 
BRANCH   7   8
ATOM      8  C   UNL A   1      29.996  25.081  23.803  1.00  0.00     0.121 C 
BRANCH   8   9
ATOM      9  N   UNL A   1      30.541  26.263  24.459  1.00  0.00    -0.325 N 
ATOM     10  C   UNL A   1      30.536  26.334  25.843  1.00  0.00     0.295 C 
ATOM     11  C   UNL A   1      31.399  27.264  23.831  1.00  0.00     0.143 C 
ATOM     12  O   UNL A   1      29.999  25.597  26.629  1.00  0.00    -0.265 OA
ATOM     13  C   UNL A   1      31.429  27.510  26.222  1.00  0.00     0.248 C 
ATOM     14  C   UNL A   1      32.129  27.929  24.972  1.00  0.00     0.024 C 
ATOM     15  O   UNL A   1      31.463  27.997  27.323  1.00  0.00    -0.283 OA
ATOM     16  C   UNL A   1      33.207  28.734  24.922  1.00  0.00    -0.092 C 
ATOM     17  O   UNL A   1      33.830  29.116  23.751  1.00  0.00    -0.872 OA
BRANCH  11  18
ATOM     18  C   UNL A   1      30.572  28.265  23.039  1.00  0.00     0.003 C 
ATOM     19  C   UNL A   1      29.760  29.173  23.610  1.00  0.00     0.006 C 
BRANCH  19  20
ATOM     20  C   UNL A   1      28.950  30.237  22.986  1.00  0.00    -0.026 A 
ATOM     21  C   UNL A   1      28.440  30.075  21.691  1.00  0.00     0.008 A 
ATOM     22  C   UNL A   1      28.908  31.509  23.557  1.00  0.00     0.008 A 
ATOM     23  C   UNL A   1      28.020  31.170  20.931  1.00  0.00     0.001 A 
ATOM     24  C   UNL A   1      28.449  32.605  22.811  1.00  0.00     0.001 A 
ATOM     25  C   UNL A   1      28.039  32.442  21.487  1.00  0.00     0.000 A 
ENDBRANCH  19  20
ENDBRANCH  11  18
BRANCH  16  26
ATOM     26  C   UNL A   1      33.815  29.362  26.105  1.00  0.00    -0.033 A 
ATOM     27  C   UNL A   1      34.888  28.721  26.738  1.00  0.00     0.007 A 
ATOM     28  C   UNL A   1      33.364  30.591  26.607  1.00  0.00     0.007 A 
ATOM     29  C   UNL A   1      35.533  29.320  27.821  1.00  0.00     0.001 A 
ATOM     30  C   UNL A   1      34.017  31.195  27.683  1.00  0.00     0.001 A 
ATOM     31  C   UNL A   1      35.104  30.563  28.285  1.00  0.00     0.000 A 
ENDBRANCH  16  26
ENDBRANCH   8   9
ENDBRANCH   7   8
ENDBRANCH   6   7
ENDBRANCH   4   6
ENDBRANCH   1   2
BRANCH   1  32
ATOM     32  C   UNL A   1      36.537  22.891  23.517  1.00  0.00     0.023 C 
BRANCH  32  33
ATOM     33  C   UNL A   1      37.110  21.735  24.334  1.00  0.00     0.023 C 
BRANCH  33  34
ATOM     34  C   UNL A   1      37.828  22.172  25.593  1.00  0.00     0.116 C 
BRANCH  34  35
ATOM     35  N   UNL A   1      38.676  21.127  26.140  1.00  0.00    -0.352 N 
ATOM     36  C   UNL A   1      39.914  21.259  26.720  1.00  0.00     0.251 C 
ATOM     37  H   UNL A   1      38.319  20.210  26.089  1.00  0.00     0.163 HD
ATOM     38  O   UNL A   1      40.582  20.266  26.984  1.00  0.00    -0.269 OA
BRANCH  36  39
ATOM     39  C   UNL A   1      40.430  22.619  26.972  1.00  0.00     0.039 A 
ATOM     40  C   UNL A   1      39.954  23.682  26.203  1.00  0.00     0.014 A 
ATOM     41  C   UNL A   1      41.332  22.841  28.016  1.00  0.00     0.014 A 
ATOM     42  C   UNL A   1      40.354  24.980  26.516  1.00  0.00     0.010 A 
ATOM     43  C   UNL A   1      41.629  24.138  28.399  1.00  0.00     0.010 A 
ATOM     44  C   UNL A   1      41.173  25.219  27.633  1.00  0.00    -0.014 A 
BRANCH  44  45
ATOM     45  C   UNL A   1      41.635  26.584  27.977  1.00  0.00     0.031 A 
ATOM     46  C   UNL A   1      43.030  27.002  27.592  1.00  0.00     0.074 A 
ATOM     47  C   UNL A   1      40.832  27.412  28.673  1.00  0.00     0.049 A 
ATOM     48  N   UNL A   1      43.672  28.105  27.870  1.00  0.00    -0.248 NA
ATOM     49  C   UNL A   1      43.828  26.021  26.837  1.00  0.00     0.031 C 
ATOM     50  C   UNL A   1      39.482  27.086  29.142  1.00  0.00     0.029 A 
ATOM     51  N   UNL A   1      41.032  28.694  29.111  1.00  0.00    -0.354 N 
ATOM     52  C   UNL A   1      44.949  27.940  27.343  1.00  0.00     0.074 A 
ATOM     53  C   UNL A   1      45.018  26.596  26.817  1.00  0.00     0.031 C 
ATOM     54  C   UNL A   1      38.964  28.156  29.767  1.00  0.00     0.029 A 
ATOM     55  C   UNL A   1      39.957  29.224  29.786  1.00  0.00     0.049 A 
ATOM     56  H   UNL A   1      41.869  29.191  28.956  1.00  0.00     0.167 HD
ATOM     57  C   UNL A   1      45.957  28.842  27.266  1.00  0.00     0.034 A 
ATOM     58  C   UNL A   1      39.798  30.434  30.356  1.00  0.00     0.034 A 
ATOM     59  C   UNL A   1      45.848  30.187  27.769  1.00  0.00     0.049 A 
ATOM     60  C   UNL A   1      40.931  31.425  30.259  1.00  0.00     0.074 A 
ATOM     61  C   UNL A   1      46.775  31.211  27.707  1.00  0.00     0.029 A 
ATOM     62  N   UNL A   1      44.735  30.697  28.429  1.00  0.00    -0.354 N 
ATOM     63  N   UNL A   1      42.117  31.273  29.711  1.00  0.00    -0.248 NA
ATOM     64  C   UNL A   1      40.702  32.752  30.840  1.00  0.00     0.031 C 
ATOM     65  C   UNL A   1      46.250  32.316  28.385  1.00  0.00     0.029 A 
ATOM     66  C   UNL A   1      44.964  32.011  28.800  1.00  0.00     0.049 A 
ATOM     67  H   UNL A   1      43.906  30.196  28.607  1.00  0.00     0.167 HD
ATOM     68  C   UNL A   1      42.763  32.497  29.858  1.00  0.00     0.074 A 
ATOM     69  C   UNL A   1      41.827  33.378  30.526  1.00  0.00     0.031 C 
ATOM     70  C   UNL A   1      44.012  32.865  29.474  1.00  0.00     0.034 A 
BRANCH  57  71
ATOM     71  C   UNL A   1      47.250  28.386  26.629  1.00  0.00     0.023 A 
ATOM     72  C   UNL A   1      47.411  28.346  25.232  1.00  0.00     0.031 A 
ATOM     73  C   UNL A   1      48.318  27.934  27.424  1.00  0.00     0.131 A 
ATOM     74  C   UNL A   1      48.565  27.780  24.673  1.00  0.00     0.055 A 
ATOM     75  C   UNL A   1      49.505  27.459  26.860  1.00  0.00     0.041 A 
ATOM     76  F   UNL A   1      48.218  27.923  28.762  1.00  0.00    -0.206 F 
ATOM     77  C   UNL A   1      49.627  27.361  25.477  1.00  0.00     0.022 A 
BRANCH  74  78
ATOM     78  S   UNL A   1      48.585  27.441  22.891  1.00  0.00     0.124 S 
ATOM     79  O   UNL A   1      49.892  27.972  22.507  1.00  0.00    -0.237 OA
ATOM     80  O   UNL A   1      48.445  25.991  22.843  1.00  0.00    -0.237 OA
ATOM     81  O   UNL A   1      47.441  28.197  22.385  1.00  0.00    -0.744 OA
ENDBRANCH  74  78
ENDBRANCH  57  71
BRANCH  58  82
ATOM     82  C   UNL A   1      38.529  30.780  31.059  1.00  0.00     0.023 A 
ATOM     83  C   UNL A   1      37.666  31.767  30.555  1.00  0.00     0.031 A 
ATOM     84  C   UNL A   1      38.172  30.149  32.264  1.00  0.00     0.131 A 
ATOM     85  C   UNL A   1      36.517  32.128  31.275  1.00  0.00     0.055 A 
ATOM     86  C   UNL A   1      37.000  30.474  32.950  1.00  0.00     0.041 A 
ATOM     87  F   UNL A   1      38.956  29.192  32.786  1.00  0.00    -0.206 F 
ATOM     88  C   UNL A   1      36.171  31.478  32.463  1.00  0.00     0.022 A 
BRANCH  85  89
ATOM     89  S   UNL A   1      35.522  33.524  30.681  1.00  0.00     0.124 S 
ATOM     90  O   UNL A   1      36.097  33.758  29.362  1.00  0.00    -0.237 OA
ATOM     91  O   UNL A   1      34.174  32.964  30.704  1.00  0.00    -0.237 OA
ATOM     92  O   UNL A   1      35.778  34.570  31.669  1.00  0.00    -0.744 OA
ENDBRANCH  85  89
ENDBRANCH  58  82
BRANCH  70  93
ATOM     93  C   UNL A   1      44.414  34.295  29.735  1.00  0.00     0.023 A 
ATOM     94  C   UNL A   1      44.130  35.320  28.816  1.00  0.00     0.031 A 
ATOM     95  C   UNL A   1      45.092  34.633  30.919  1.00  0.00     0.131 A 
ATOM     96  C   UNL A   1      44.576  36.625  29.071  1.00  0.00     0.055 A 
ATOM     97  C   UNL A   1      45.473  35.945  31.197  1.00  0.00     0.041 A 
ATOM     98  F   UNL A   1      45.389  33.691  31.830  1.00  0.00    -0.206 F 
ATOM     99  C   UNL A   1      45.228  36.948  30.264  1.00  0.00     0.022 A 
BRANCH  96 100
ATOM    100  S   UNL A   1      44.378  37.877  27.775  1.00  0.00     0.124 S 
ATOM    101  O   UNL A   1      44.330  39.112  28.552  1.00  0.00    -0.237 OA
ATOM    102  O   UNL A   1      45.575  37.680  26.965  1.00  0.00    -0.237 OA
ATOM    103  O   UNL A   1      43.122  37.504  27.127  1.00  0.00    -0.744 OA
ENDBRANCH  96 100
ENDBRANCH  70  93
ENDBRANCH  44  45
ENDBRANCH  36  39
ENDBRANCH  34  35
ENDBRANCH  33  34
ENDBRANCH  32  33
ENDBRANCH   1  32
TORSDOF 20
ENDMDL
MODEL 2
REMARK VINA RESULT:     -11.7      1.823      2.304
REMARK SMILES O=C(CCCN1C(=O)C(=O)/C(=C(/[O-])c2ccccc2)[C@@H]1/C=C/c1ccccc1)NCCCCNC(=O)c1ccc(-c2c3nc(c(-c4cc(S(=O)(=O)[O-])ccc4F)c4ccc([nH]4)c(-c4cc(S(=O)(=O)[O-])ccc4F)c4nc(c(-c5cc(S(=O)(=O)[O-])ccc5F)c5ccc2[nH]5)C=C4)C=C3)cc1
REMARK SMILES IDX 30 1 29 2 1 3 2 4 3 6 4 7 5 8 6 9 7 10 20 11 8 12 9 13 11 14
REMARK SMILES IDX 10 15 12 16 13 17 21 18 22 19 23 20 24 21 28 22 25 23 27 24
REMARK SMILES IDX 26 25 14 26 15 27 19 28 16 29 18 30 17 31 31 32 32 33 33 34
REMARK SMILES IDX 34 35 35 36 36 38 37 39 38 40 99 41 39 42 98 43 40 44 41 45
REMARK SMILES IDX 42 46 92 47 43 48 97 49 91 50 93 51 44 52 96 53 90 54 89 55
REMARK SMILES IDX 45 57 77 58 57 59 76 60 58 61 61 62 75 63 94 64 59 65 60 66
REMARK SMILES IDX 74 68 95 69 62 70 46 71 47 72 55 73 48 74 54 75 56 76 53 77
REMARK SMILES IDX 49 78 50 79 51 80 52 81 78 82 79 83 87 84 80 85 86 86 88 87
REMARK SMILES IDX 85 88 81 89 82 90 83 91 84 92 63 93 64 94 72 95 65 96 71 97
REMARK SMILES IDX 73 98 70 99 66 100 67 101 68 102 69 103
REMARK H PARENT 29 5 34 37 93 56 61 67
REMARK Flexibility Score: inf
ROOT
ATOM      1  C   UNL A   1      36.231  22.564  23.741  1.00  0.00     0.116 C 
ENDROOT
BRANCH   1   2
ATOM      2  N   UNL A   1      34.802  22.526  23.981  1.00  0.00    -0.356 N 
ATOM      3  O   UNL A   1      34.284  24.409  22.784  1.00  0.00    -0.275 OA
ATOM      4  C   UNL A   1      33.924  23.441  23.446  1.00  0.00     0.220 C 
ATOM      5  H   UNL A   1      34.442  21.809  24.553  1.00  0.00     0.163 HD
BRANCH   4   6
ATOM      6  C   UNL A   1      32.465  23.213  23.795  1.00  0.00     0.102 C 
BRANCH   6   7
ATOM      7  C   UNL A   1      31.493  24.039  22.961  1.00  0.00     0.031 C 
BRANCH   7   8
ATOM      8  C   UNL A   1      30.347  24.724  23.714  1.00  0.00     0.121 C 
BRANCH   8   9
ATOM      9  N   UNL A   1      30.739  25.937  24.420  1.00  0.00    -0.325 N 
ATOM     10  C   UNL A   1      30.798  25.928  25.804  1.00  0.00     0.295 C 
ATOM     11  C   UNL A   1      31.398  27.094  23.821  1.00  0.00     0.143 C 
ATOM     12  O   UNL A   1      30.424  25.072  26.564  1.00  0.00    -0.265 OA
ATOM     13  C   UNL A   1      31.519  27.206  26.218  1.00  0.00     0.248 C 
ATOM     14  C   UNL A   1      32.078  27.800  24.968  1.00  0.00     0.024 C 
ATOM     15  O   UNL A   1      31.538  27.629  27.346  1.00  0.00    -0.283 OA
ATOM     16  C   UNL A   1      33.015  28.764  24.922  1.00  0.00    -0.092 C 
ATOM     17  O   UNL A   1      33.507  29.305  23.751  1.00  0.00    -0.872 OA
BRANCH  11  18
ATOM     18  C   UNL A   1      30.385  27.997  23.133  1.00  0.00     0.003 C 
ATOM     19  C   UNL A   1      30.037  29.211  23.597  1.00  0.00     0.006 C 
BRANCH  19  20
ATOM     20  C   UNL A   1      29.127  30.216  23.017  1.00  0.00    -0.026 A 
ATOM     21  C   UNL A   1      28.629  30.059  21.716  1.00  0.00     0.008 A 
ATOM     22  C   UNL A   1      28.966  31.455  23.638  1.00  0.00     0.008 A 
ATOM     23  C   UNL A   1      28.103  31.137  21.000  1.00  0.00     0.001 A 
ATOM     24  C   UNL A   1      28.401  32.530  22.937  1.00  0.00     0.001 A 
ATOM     25  C   UNL A   1      28.004  32.382  21.608  1.00  0.00     0.000 A 
ENDBRANCH  19  20
ENDBRANCH  11  18
BRANCH  16  26
ATOM     26  C   UNL A   1      33.583  29.412  26.115  1.00  0.00    -0.033 A 
ATOM     27  C   UNL A   1      34.711  28.846  26.723  1.00  0.00     0.007 A 
ATOM     28  C   UNL A   1      33.039  30.588  26.651  1.00  0.00     0.007 A 
ATOM     29  C   UNL A   1      35.317  29.469  27.815  1.00  0.00     0.001 A 
ATOM     30  C   UNL A   1      33.652  31.217  27.736  1.00  0.00     0.001 A 
ATOM     31  C   UNL A   1      34.793  30.662  28.313  1.00  0.00     0.000 A 
ENDBRANCH  16  26
ENDBRANCH   8   9
ENDBRANCH   7   8
ENDBRANCH   6   7
ENDBRANCH   4   6
ENDBRANCH   1   2
BRANCH   1  32
ATOM     32  C   UNL A   1      37.044  22.541  25.036  1.00  0.00     0.023 C 
BRANCH  32  33
ATOM     33  C   UNL A   1      38.012  21.367  25.169  1.00  0.00     0.023 C 
BRANCH  33  34
ATOM     34  C   UNL A   1      39.142  21.614  26.145  1.00  0.00     0.116 C 
BRANCH  34  35
ATOM     35  N   UNL A   1      40.119  20.539  26.147  1.00  0.00    -0.352 N 
ATOM     36  C   UNL A   1      41.486  20.638  26.239  1.00  0.00     0.251 C 
ATOM     37  H   UNL A   1      39.756  19.626  26.072  1.00  0.00     0.163 HD
ATOM     38  O   UNL A   1      42.190  19.652  26.059  1.00  0.00    -0.269 OA
BRANCH  36  39
ATOM     39  C   UNL A   1      42.077  21.962  26.515  1.00  0.00     0.039 A 
ATOM     40  C   UNL A   1      42.254  22.862  25.463  1.00  0.00     0.014 A 
ATOM     41  C   UNL A   1      42.387  22.328  27.827  1.00  0.00     0.014 A 
ATOM     42  C   UNL A   1      42.705  24.152  25.741  1.00  0.00     0.010 A 
ATOM     43  C   UNL A   1      42.715  23.643  28.112  1.00  0.00     0.010 A 
ATOM     44  C   UNL A   1      42.912  24.559  27.070  1.00  0.00    -0.014 A 
BRANCH  44  45
ATOM     45  C   UNL A   1      43.414  25.915  27.395  1.00  0.00     0.031 A 
ATOM     46  C   UNL A   1      44.826  26.281  27.020  1.00  0.00     0.074 A 
ATOM     47  C   UNL A   1      42.630  26.780  28.067  1.00  0.00     0.049 A 
ATOM     48  N   UNL A   1      45.500  27.369  27.286  1.00  0.00    -0.248 NA
ATOM     49  C   UNL A   1      45.600  25.262  26.291  1.00  0.00     0.031 C 
ATOM     50  C   UNL A   1      41.265  26.506  28.526  1.00  0.00     0.029 A 
ATOM     51  N   UNL A   1      42.866  28.063  28.485  1.00  0.00    -0.354 N 
ATOM     52  C   UNL A   1      46.776  27.153  26.776  1.00  0.00     0.074 A 
ATOM     53  C   UNL A   1      46.808  25.799  26.275  1.00  0.00     0.031 C 
ATOM     54  C   UNL A   1      40.774  27.602  29.126  1.00  0.00     0.029 A 
ATOM     55  C   UNL A   1      41.801  28.638  29.138  1.00  0.00     0.049 A 
ATOM     56  H   UNL A   1      43.720  28.530  28.332  1.00  0.00     0.167 HD
ATOM     57  C   UNL A   1      47.814  28.022  26.696  1.00  0.00     0.034 A 
ATOM     58  C   UNL A   1      41.674  29.863  29.685  1.00  0.00     0.034 A 
ATOM     59  C   UNL A   1      47.742  29.378  27.174  1.00  0.00     0.049 A 
ATOM     60  C   UNL A   1      42.840  30.816  29.584  1.00  0.00     0.074 A 
ATOM     61  C   UNL A   1      48.702  30.370  27.105  1.00  0.00     0.029 A 
ATOM     62  N   UNL A   1      46.639  29.934  27.812  1.00  0.00    -0.354 N 
ATOM     63  N   UNL A   1      44.026  30.616  29.053  1.00  0.00    -0.248 NA
ATOM     64  C   UNL A   1      42.647  32.160  30.139  1.00  0.00     0.031 C 
ATOM     65  C   UNL A   1      48.205  31.504  27.757  1.00  0.00     0.029 A 
ATOM     66  C   UNL A   1      46.905  31.247  28.163  1.00  0.00     0.049 A 
ATOM     67  H   UNL A   1      45.792  29.463  27.989  1.00  0.00     0.167 HD
ATOM     68  C   UNL A   1      44.709  31.822  29.186  1.00  0.00     0.074 A 
ATOM     69  C   UNL A   1      43.794  32.744  29.828  1.00  0.00     0.031 C 
ATOM     70  C   UNL A   1      45.974  32.142  28.811  1.00  0.00     0.034 A 
BRANCH  57  71
ATOM     71  C   UNL A   1      49.098  27.513  26.082  1.00  0.00     0.023 A 
ATOM     72  C   UNL A   1      49.450  27.811  24.753  1.00  0.00     0.031 A 
ATOM     73  C   UNL A   1      49.958  26.676  26.815  1.00  0.00     0.131 A 
ATOM     74  C   UNL A   1      50.571  27.203  24.170  1.00  0.00     0.055 A 
ATOM     75  C   UNL A   1      51.126  26.151  26.256  1.00  0.00     0.041 A 
ATOM     76  F   UNL A   1      49.667  26.335  28.079  1.00  0.00    -0.206 F 
ATOM     77  C   UNL A   1      51.428  26.397  24.920  1.00  0.00     0.022 A 
BRANCH  74  78
ATOM     78  S   UNL A   1      50.794  27.345  22.375  1.00  0.00     0.124 S 
ATOM     79  O   UNL A   1      49.597  26.670  21.877  1.00  0.00    -0.237 OA
ATOM     80  O   UNL A   1      50.843  28.789  22.176  1.00  0.00    -0.237 OA
ATOM     81  O   UNL A   1      52.048  26.637  22.127  1.00  0.00    -0.744 OA
ENDBRANCH  74  78
ENDBRANCH  57  71
BRANCH  58  82
ATOM     82  C   UNL A   1      40.409  30.261  30.367  1.00  0.00     0.023 A 
ATOM     83  C   UNL A   1      40.353  30.411  31.762  1.00  0.00     0.031 A 
ATOM     84  C   UNL A   1      39.226  30.470  29.636  1.00  0.00     0.131 A 
ATOM     85  C   UNL A   1      39.132  30.710  32.387  1.00  0.00     0.055 A 
ATOM     86  C   UNL A   1      38.025  30.821  30.256  1.00  0.00     0.041 A 
ATOM     87  F   UNL A   1      39.225  30.349  28.298  1.00  0.00    -0.206 F 
ATOM     88  C   UNL A   1      37.971  30.929  31.642  1.00  0.00     0.022 A 
BRANCH  85  89
ATOM     89  S   UNL A   1      39.063  30.724  34.199  1.00  0.00     0.124 S 
ATOM     90  O   UNL A   1      39.849  31.911  34.517  1.00  0.00    -0.237 OA
ATOM     91  O   UNL A   1      37.628  30.819  34.446  1.00  0.00    -0.237 OA
ATOM     92  O   UNL A   1      39.676  29.451  34.573  1.00  0.00    -0.744 OA
ENDBRANCH  85  89
ENDBRANCH  58  82
BRANCH  70  93
ATOM     93  C   UNL A   1      46.418  33.564  29.051  1.00  0.00     0.023 A 
ATOM     94  C   UNL A   1      46.188  34.578  28.107  1.00  0.00     0.031 A 
ATOM     95  C   UNL A   1      47.084  33.903  30.243  1.00  0.00     0.131 A 
ATOM     96  C   UNL A   1      46.673  35.873  28.345  1.00  0.00     0.055 A 
ATOM     97  C   UNL A   1      47.503  35.207  30.502  1.00  0.00     0.041 A 
ATOM     98  F   UNL A   1      47.330  32.971  31.178  1.00  0.00    -0.206 F 
ATOM     99  C   UNL A   1      47.311  36.198  29.544  1.00  0.00     0.022 A 
BRANCH  96 100
ATOM    100  S   UNL A   1      46.543  37.104  27.020  1.00  0.00     0.124 S 
ATOM    101  O   UNL A   1      45.101  37.322  26.950  1.00  0.00    -0.237 OA
ATOM    102  O   UNL A   1      47.330  38.213  27.548  1.00  0.00    -0.237 OA
ATOM    103  O   UNL A   1      47.124  36.426  25.864  1.00  0.00    -0.744 OA
ENDBRANCH  96 100
ENDBRANCH  70  93
ENDBRANCH  44  45
ENDBRANCH  36  39
ENDBRANCH  34  35
ENDBRANCH  33  34
ENDBRANCH  32  33
ENDBRANCH   1  32
TORSDOF 20
ENDMDL
MODEL 3
REMARK VINA RESULT:     -11.6      1.860      2.226
REMARK SMILES O=C(CCCN1C(=O)C(=O)/C(=C(/[O-])c2ccccc2)[C@@H]1/C=C/c1ccccc1)NCCCCNC(=O)c1ccc(-c2c3nc(c(-c4cc(S(=O)(=O)[O-])ccc4F)c4ccc([nH]4)c(-c4cc(S(=O)(=O)[O-])ccc4F)c4nc(c(-c5cc(S(=O)(=O)[O-])ccc5F)c5ccc2[nH]5)C=C4)C=C3)cc1
REMARK SMILES IDX 30 1 29 2 1 3 2 4 3 6 4 7 5 8 6 9 7 10 20 11 8 12 9 13 11 14
REMARK SMILES IDX 10 15 12 16 13 17 21 18 22 19 23 20 24 21 28 22 25 23 27 24
REMARK SMILES IDX 26 25 14 26 15 27 19 28 16 29 18 30 17 31 31 32 32 33 33 34
REMARK SMILES IDX 34 35 35 36 36 38 37 39 38 40 99 41 39 42 98 43 40 44 41 45
REMARK SMILES IDX 42 46 92 47 43 48 97 49 91 50 93 51 44 52 96 53 90 54 89 55
REMARK SMILES IDX 45 57 77 58 57 59 76 60 58 61 61 62 75 63 94 64 59 65 60 66
REMARK SMILES IDX 74 68 95 69 62 70 46 71 47 72 55 73 48 74 54 75 56 76 53 77
REMARK SMILES IDX 49 78 50 79 51 80 52 81 78 82 79 83 87 84 80 85 86 86 88 87
REMARK SMILES IDX 85 88 81 89 82 90 83 91 84 92 63 93 64 94 72 95 65 96 71 97
REMARK SMILES IDX 73 98 70 99 66 100 67 101 68 102 69 103
REMARK H PARENT 29 5 34 37 93 56 61 67
REMARK Flexibility Score: inf
ROOT
ATOM      1  C   UNL A   1      35.931  23.031  23.080  1.00  0.00     0.116 C 
ENDROOT
BRANCH   1   2
ATOM      2  N   UNL A   1      34.655  23.306  23.711  1.00  0.00    -0.356 N 
ATOM      3  O   UNL A   1      33.431  23.441  21.781  1.00  0.00    -0.275 OA
ATOM      4  C   UNL A   1      33.482  23.454  23.006  1.00  0.00     0.220 C 
ATOM      5  H   UNL A   1      34.626  23.390  24.692  1.00  0.00     0.163 HD
BRANCH   4   6
ATOM      6  C   UNL A   1      32.250  23.712  23.853  1.00  0.00     0.102 C 
BRANCH   6   7
ATOM      7  C   UNL A   1      31.003  24.047  23.044  1.00  0.00     0.031 C 
BRANCH   7   8
ATOM      8  C   UNL A   1      29.916  24.858  23.758  1.00  0.00     0.121 C 
BRANCH   8   9
ATOM      9  N   UNL A   1      30.409  26.054  24.430  1.00  0.00    -0.325 N 
ATOM     10  C   UNL A   1      30.477  26.075  25.814  1.00  0.00     0.295 C 
ATOM     11  C   UNL A   1      31.153  27.139  23.797  1.00  0.00     0.143 C 
ATOM     12  O   UNL A   1      30.041  25.271  26.598  1.00  0.00    -0.265 OA
ATOM     13  C   UNL A   1      31.300  27.301  26.191  1.00  0.00     0.248 C 
ATOM     14  C   UNL A   1      31.896  27.816  24.923  1.00  0.00     0.024 C 
ATOM     15  O   UNL A   1      31.361  27.749  27.307  1.00  0.00    -0.283 OA
ATOM     16  C   UNL A   1      32.907  28.701  24.847  1.00  0.00    -0.092 C 
ATOM     17  O   UNL A   1      33.432  29.171  23.660  1.00  0.00    -0.872 OA
BRANCH  11  18
ATOM     18  C   UNL A   1      30.211  28.101  23.091  1.00  0.00     0.003 C 
ATOM     19  C   UNL A   1      29.887  29.314  23.578  1.00  0.00     0.006 C 
BRANCH  19  20
ATOM     20  C   UNL A   1      29.046  30.372  22.988  1.00  0.00    -0.026 A 
ATOM     21  C   UNL A   1      28.452  30.191  21.731  1.00  0.00     0.008 A 
ATOM     22  C   UNL A   1      29.049  31.655  23.536  1.00  0.00     0.008 A 
ATOM     23  C   UNL A   1      27.991  31.275  20.979  1.00  0.00     0.001 A 
ATOM     24  C   UNL A   1      28.550  32.740  22.802  1.00  0.00     0.001 A 
ATOM     25  C   UNL A   1      28.055  32.556  21.510  1.00  0.00     0.000 A 
ENDBRANCH  19  20
ENDBRANCH  11  18
BRANCH  16  26
ATOM     26  C   UNL A   1      33.533  29.331  26.020  1.00  0.00    -0.033 A 
ATOM     27  C   UNL A   1      34.644  28.714  26.610  1.00  0.00     0.007 A 
ATOM     28  C   UNL A   1      33.062  30.539  26.553  1.00  0.00     0.007 A 
ATOM     29  C   UNL A   1      35.304  29.317  27.681  1.00  0.00     0.001 A 
ATOM     30  C   UNL A   1      33.730  31.147  27.618  1.00  0.00     0.001 A 
ATOM     31  C   UNL A   1      34.854  30.540  28.176  1.00  0.00     0.000 A 
ENDBRANCH  16  26
ENDBRANCH   8   9
ENDBRANCH   7   8
ENDBRANCH   6   7
ENDBRANCH   4   6
ENDBRANCH   1   2
BRANCH   1  32
ATOM     32  C   UNL A   1      37.057  22.835  24.096  1.00  0.00     0.023 C 
BRANCH  32  33
ATOM     33  C   UNL A   1      37.373  21.380  24.436  1.00  0.00     0.023 C 
BRANCH  33  34
ATOM     34  C   UNL A   1      37.742  21.157  25.887  1.00  0.00     0.116 C 
BRANCH  34  35
ATOM     35  N   UNL A   1      38.791  20.165  26.047  1.00  0.00    -0.352 N 
ATOM     36  C   UNL A   1      40.107  20.372  26.383  1.00  0.00     0.251 C 
ATOM     37  H   UNL A   1      38.526  19.228  25.895  1.00  0.00     0.163 HD
ATOM     38  O   UNL A   1      40.914  19.453  26.317  1.00  0.00    -0.269 OA
BRANCH  36  39
ATOM     39  C   UNL A   1      40.524  21.731  26.779  1.00  0.00     0.039 A 
ATOM     40  C   UNL A   1      41.497  21.885  27.767  1.00  0.00     0.014 A 
ATOM     41  C   UNL A   1      39.996  22.844  26.118  1.00  0.00     0.014 A 
ATOM     42  C   UNL A   1      41.973  23.162  28.060  1.00  0.00     0.010 A 
ATOM     43  C   UNL A   1      40.558  24.093  26.325  1.00  0.00     0.010 A 
ATOM     44  C   UNL A   1      41.526  24.271  27.322  1.00  0.00    -0.014 A 
BRANCH  44  45
ATOM     45  C   UNL A   1      41.995  25.644  27.626  1.00  0.00     0.031 A 
ATOM     46  C   UNL A   1      43.354  26.076  27.141  1.00  0.00     0.074 A 
ATOM     47  C   UNL A   1      41.233  26.465  28.374  1.00  0.00     0.049 A 
ATOM     48  N   UNL A   1      44.000  27.188  27.368  1.00  0.00    -0.248 NA
ATOM     49  C   UNL A   1      44.108  25.100  26.336  1.00  0.00     0.031 C 
ATOM     50  C   UNL A   1      39.924  26.126  28.939  1.00  0.00     0.029 A 
ATOM     51  N   UNL A   1      41.448  27.753  28.791  1.00  0.00    -0.354 N 
ATOM     52  C   UNL A   1      45.238  27.035  26.752  1.00  0.00     0.074 A 
ATOM     53  C   UNL A   1      45.286  25.690  26.229  1.00  0.00     0.031 C 
ATOM     54  C   UNL A   1      39.438  27.193  29.595  1.00  0.00     0.029 A 
ATOM     55  C   UNL A   1      40.418  28.273  29.538  1.00  0.00     0.049 A 
ATOM     56  H   UNL A   1      42.266  28.259  28.575  1.00  0.00     0.167 HD
ATOM     57  C   UNL A   1      46.228  27.949  26.600  1.00  0.00     0.034 A 
ATOM     58  C   UNL A   1      40.284  29.485  30.113  1.00  0.00     0.034 A 
ATOM     59  C   UNL A   1      46.138  29.295  27.103  1.00  0.00     0.049 A 
ATOM     60  C   UNL A   1      41.396  30.488  29.931  1.00  0.00     0.074 A 
ATOM     61  C   UNL A   1      47.046  30.329  26.970  1.00  0.00     0.029 A 
ATOM     62  N   UNL A   1      45.069  29.795  27.838  1.00  0.00    -0.354 N 
ATOM     63  N   UNL A   1      42.542  30.347  29.300  1.00  0.00    -0.248 NA
ATOM     64  C   UNL A   1      41.192  31.816  30.520  1.00  0.00     0.031 C 
ATOM     65  C   UNL A   1      46.557  31.432  27.679  1.00  0.00     0.029 A 
ATOM     66  C   UNL A   1      45.307  31.114  28.186  1.00  0.00     0.049 A 
ATOM     67  H   UNL A   1      44.261  29.285  28.077  1.00  0.00     0.167 HD
ATOM     68  C   UNL A   1      43.181  31.580  29.396  1.00  0.00     0.074 A 
ATOM     69  C   UNL A   1      42.284  32.453  30.125  1.00  0.00     0.031 C 
ATOM     70  C   UNL A   1      44.396  31.960  28.922  1.00  0.00     0.034 A 
BRANCH  57  71
ATOM     71  C   UNL A   1      47.477  27.504  25.875  1.00  0.00     0.023 A 
ATOM     72  C   UNL A   1      48.591  26.995  26.567  1.00  0.00     0.031 A 
ATOM     73  C   UNL A   1      47.580  27.638  24.479  1.00  0.00     0.131 A 
ATOM     74  C   UNL A   1      49.785  26.731  25.881  1.00  0.00     0.055 A 
ATOM     75  C   UNL A   1      48.741  27.282  23.789  1.00  0.00     0.041 A 
ATOM     76  F   UNL A   1      46.562  28.141  23.764  1.00  0.00    -0.206 F 
ATOM     77  C   UNL A   1      49.860  26.844  24.492  1.00  0.00     0.022 A 
BRANCH  74  78
ATOM     78  S   UNL A   1      51.283  26.404  26.850  1.00  0.00     0.124 S 
ATOM     79  O   UNL A   1      51.311  24.942  26.862  1.00  0.00    -0.237 OA
ATOM     80  O   UNL A   1      52.320  27.056  26.058  1.00  0.00    -0.237 OA
ATOM     81  O   UNL A   1      51.000  27.025  28.142  1.00  0.00    -0.744 OA
ENDBRANCH  74  78
ENDBRANCH  57  71
BRANCH  58  82
ATOM     82  C   UNL A   1      39.064  29.819  30.902  1.00  0.00     0.023 A 
ATOM     83  C   UNL A   1      38.228  30.884  30.530  1.00  0.00     0.031 A 
ATOM     84  C   UNL A   1      38.730  29.096  32.062  1.00  0.00     0.131 A 
ATOM     85  C   UNL A   1      37.130  31.227  31.333  1.00  0.00     0.055 A 
ATOM     86  C   UNL A   1      37.606  29.407  32.828  1.00  0.00     0.041 A 
ATOM     87  F   UNL A   1      39.490  28.063  32.459  1.00  0.00    -0.206 F 
ATOM     88  C   UNL A   1      36.805  30.487  32.472  1.00  0.00     0.022 A 
BRANCH  85  89
ATOM     89  S   UNL A   1      36.177  32.713  30.914  1.00  0.00     0.124 S 
ATOM     90  O   UNL A   1      36.690  33.677  31.880  1.00  0.00    -0.237 OA
ATOM     91  O   UNL A   1      36.559  32.934  29.523  1.00  0.00    -0.237 OA
ATOM     92  O   UNL A   1      34.791  32.299  31.120  1.00  0.00    -0.744 OA
ENDBRANCH  85  89
ENDBRANCH  58  82
BRANCH  70  93
ATOM     93  C   UNL A   1      44.797  33.396  29.147  1.00  0.00     0.023 A 
ATOM     94  C   UNL A   1      45.508  33.793  30.293  1.00  0.00     0.031 A 
ATOM     95  C   UNL A   1      44.460  34.380  28.201  1.00  0.00     0.131 A 
ATOM     96  C   UNL A   1      45.808  35.149  30.491  1.00  0.00     0.055 A 
ATOM     97  C   UNL A   1      44.820  35.716  28.371  1.00  0.00     0.041 A 
ATOM     98  F   UNL A   1      43.780  34.055  27.089  1.00  0.00    -0.206 F 
ATOM     99  C   UNL A   1      45.486  36.109  29.529  1.00  0.00     0.022 A 
BRANCH  96 100
ATOM    100  S   UNL A   1      46.539  35.653  32.071  1.00  0.00     0.124 S 
ATOM    101  O   UNL A   1      47.517  36.650  31.647  1.00  0.00    -0.237 OA
ATOM    102  O   UNL A   1      45.383  36.165  32.800  1.00  0.00    -0.237 OA
ATOM    103  O   UNL A   1      47.105  34.413  32.598  1.00  0.00    -0.744 OA
ENDBRANCH  96 100
ENDBRANCH  70  93
ENDBRANCH  44  45
ENDBRANCH  36  39
ENDBRANCH  34  35
ENDBRANCH  33  34
ENDBRANCH  32  33
ENDBRANCH   1  32
TORSDOF 20
ENDMDL
