MODEL 1
REMARK VINA RESULT:     -10.1      0.000      0.000
REMARK SMILES C=CCC(=O)N[C@@](C)(CC)C(=O)NCCCCNC(=O)c1ccc(-c2c3nc(c(-c4cc(S(=O)(=O)[O-])ccc4F)c4ccc([nH]4)c(-c4cc(S(=O)(=O)[O-])ccc4F)c4nc(c(-c5cc(S(=O)(=O)[O-])ccc5F)c5ccc2[nH]5)C=C4)C=C3)cc1
REMARK SMILES IDX 15 1 14 2 13 3 11 4 12 5 7 7 8 8 6 9 4 10 5 11 3 13 2 14
REMARK SMILES IDX 1 15 9 16 10 17 16 18 17 19 18 20 19 21 20 23 21 24 22 25
REMARK SMILES IDX 83 26 23 27 82 28 24 29 25 30 26 31 76 32 27 33 81 34 75 35
REMARK SMILES IDX 77 36 28 37 80 38 74 39 73 40 29 42 61 43 41 44 60 45 42 46
REMARK SMILES IDX 45 47 59 48 78 49 43 50 44 51 58 53 79 54 46 55 30 56 31 57
REMARK SMILES IDX 39 58 32 59 38 60 40 61 37 62 33 63 34 64 35 65 36 66 62 67
REMARK SMILES IDX 63 68 71 69 64 70 70 71 72 72 69 73 65 74 66 75 67 76 68 77
REMARK SMILES IDX 47 78 48 79 56 80 49 81 55 82 57 83 54 84 50 85 51 86 52 87
REMARK SMILES IDX 53 88
REMARK H PARENT 13 6 6 12 18 22 77 41 45 52
REMARK Flexibility Score: inf
ROOT
ATOM      1  C   UNL A   1      35.035  24.529  24.451  1.00  0.00     0.023 C 
ENDROOT
BRANCH   1   2
ATOM      2  C   UNL A   1      33.867  23.553  24.295  1.00  0.00     0.116 C 
BRANCH   2   3
ATOM      3  N   UNL A   1      34.361  22.213  24.042  1.00  0.00    -0.354 N 
ATOM      4  C   UNL A   1      34.514  21.175  24.913  1.00  0.00     0.245 C 
ATOM      5  O   UNL A   1      35.580  20.561  24.833  1.00  0.00    -0.272 OA
ATOM      6  H   UNL A   1      34.624  22.027  23.111  1.00  0.00     0.163 HD
BRANCH   4   7
ATOM      7  C   UNL A   1      33.437  20.832  25.987  1.00  0.00     0.116 C 
ATOM      8  C   UNL A   1      32.038  21.365  25.615  1.00  0.00     0.045 C 
BRANCH   7   9
ATOM      9  N   UNL A   1      33.278  19.365  26.214  1.00  0.00    -0.342 N 
ATOM     10  C   UNL A   1      32.772  18.378  25.424  1.00  0.00     0.224 C 
ATOM     11  O   UNL A   1      32.152  17.474  25.998  1.00  0.00    -0.275 OA
ATOM     12  H   UNL A   1      33.595  19.056  27.093  1.00  0.00     0.164 HD
BRANCH  10  13
ATOM     13  C   UNL A   1      33.030  18.302  23.922  1.00  0.00     0.126 C 
BRANCH  13  14
ATOM     14  C   UNL A   1      33.289  16.923  23.393  1.00  0.00    -0.025 C 
ATOM     15  C   UNL A   1      34.414  16.578  22.751  1.00  0.00     0.004 C 
ENDBRANCH  13  14
ENDBRANCH  10  13
ENDBRANCH   7   9
BRANCH   7  16
ATOM     16  C   UNL A   1      33.880  21.454  27.344  1.00  0.00     0.035 C 
ATOM     17  C   UNL A   1      32.975  22.580  27.846  1.00  0.00     0.007 C 
ENDBRANCH   7  16
ENDBRANCH   4   7
ENDBRANCH   2   3
ENDBRANCH   1   2
BRANCH   1  18
ATOM     18  C   UNL A   1      36.403  23.858  24.617  1.00  0.00     0.023 C 
BRANCH  18  19
ATOM     19  C   UNL A   1      36.826  23.606  26.060  1.00  0.00     0.116 C 
BRANCH  19  20
ATOM     20  N   UNL A   1      37.797  22.530  26.174  1.00  0.00    -0.352 N 
ATOM     21  C   UNL A   1      39.132  22.618  26.484  1.00  0.00     0.251 C 
ATOM     22  H   UNL A   1      37.453  21.621  26.010  1.00  0.00     0.163 HD
ATOM     23  O   UNL A   1      39.854  21.630  26.393  1.00  0.00    -0.269 OA
BRANCH  21  24
ATOM     24  C   UNL A   1      39.687  23.925  26.892  1.00  0.00     0.039 A 
ATOM     25  C   UNL A   1      40.100  24.826  25.909  1.00  0.00     0.014 A 
ATOM     26  C   UNL A   1      39.747  24.271  28.245  1.00  0.00     0.014 A 
ATOM     27  C   UNL A   1      40.515  26.108  26.280  1.00  0.00     0.010 A 
ATOM     28  C   UNL A   1      40.100  25.566  28.606  1.00  0.00     0.010 A 
ATOM     29  C   UNL A   1      40.486  26.498  27.628  1.00  0.00    -0.014 A 
BRANCH  29  30
ATOM     30  C   UNL A   1      40.870  27.868  28.057  1.00  0.00     0.031 A 
ATOM     31  C   UNL A   1      42.323  28.259  28.059  1.00  0.00     0.074 A 
ATOM     32  C   UNL A   1      39.936  28.716  28.529  1.00  0.00     0.049 A 
ATOM     33  N   UNL A   1      42.895  29.325  28.555  1.00  0.00    -0.248 NA
ATOM     34  C   UNL A   1      43.256  27.299  27.454  1.00  0.00     0.031 C 
ATOM     35  C   UNL A   1      38.499  28.441  28.596  1.00  0.00     0.029 A 
ATOM     36  N   UNL A   1      40.057  29.974  29.064  1.00  0.00    -0.354 N 
ATOM     37  C   UNL A   1      44.259  29.152  28.347  1.00  0.00     0.074 A 
ATOM     38  C   UNL A   1      44.426  27.854  27.728  1.00  0.00     0.031 C 
ATOM     39  C   UNL A   1      37.874  29.502  29.134  1.00  0.00     0.029 A 
ATOM     40  C   UNL A   1      38.866  30.508  29.498  1.00  0.00     0.049 A 
ATOM     41  H   UNL A   1      40.917  30.449  29.132  1.00  0.00     0.167 HD
ATOM     42  C   UNL A   1      45.274  30.005  28.632  1.00  0.00     0.034 A 
ATOM     43  C   UNL A   1      38.607  31.666  30.138  1.00  0.00     0.034 A 
ATOM     44  C   UNL A   1      45.083  31.303  29.231  1.00  0.00     0.049 A 
ATOM     45  C   UNL A   1      39.753  32.593  30.461  1.00  0.00     0.074 A 
ATOM     46  C   UNL A   1      46.033  32.266  29.524  1.00  0.00     0.029 A 
ATOM     47  N   UNL A   1      43.858  31.821  29.631  1.00  0.00    -0.354 N 
ATOM     48  N   UNL A   1      41.037  32.426  30.239  1.00  0.00    -0.248 NA
ATOM     49  C   UNL A   1      39.416  33.865  31.113  1.00  0.00     0.031 C 
ATOM     50  C   UNL A   1      45.392  33.339  30.154  1.00  0.00     0.029 A 
ATOM     51  C   UNL A   1      44.031  33.079  30.186  1.00  0.00     0.049 A 
ATOM     52  H   UNL A   1      42.992  31.360  29.535  1.00  0.00     0.167 HD
ATOM     53  C   UNL A   1      41.653  33.591  30.688  1.00  0.00     0.074 A 
ATOM     54  C   UNL A   1      40.601  34.451  31.191  1.00  0.00     0.031 C 
ATOM     55  C   UNL A   1      42.968  33.925  30.677  1.00  0.00     0.034 A 
BRANCH  42  56
ATOM     56  C   UNL A   1      46.677  29.538  28.323  1.00  0.00     0.023 A 
ATOM     57  C   UNL A   1      47.443  28.828  29.264  1.00  0.00     0.031 A 
ATOM     58  C   UNL A   1      47.272  29.842  27.085  1.00  0.00     0.131 A 
ATOM     59  C   UNL A   1      48.785  28.524  28.988  1.00  0.00     0.055 A 
ATOM     60  C   UNL A   1      48.580  29.457  26.783  1.00  0.00     0.041 A 
ATOM     61  F   UNL A   1      46.598  30.536  26.155  1.00  0.00    -0.206 F 
ATOM     62  C   UNL A   1      49.351  28.809  27.744  1.00  0.00     0.022 A 
BRANCH  59  63
ATOM     63  S   UNL A   1      49.821  27.891  30.335  1.00  0.00     0.124 S 
ATOM     64  O   UNL A   1      50.844  27.155  29.597  1.00  0.00    -0.237 OA
ATOM     65  O   UNL A   1      50.265  29.114  30.994  1.00  0.00    -0.237 OA
ATOM     66  O   UNL A   1      48.904  27.060  31.112  1.00  0.00    -0.744 OA
ENDBRANCH  59  63
ENDBRANCH  42  56
BRANCH  43  67
ATOM     67  C   UNL A   1      37.213  32.016  30.534  1.00  0.00     0.023 A 
ATOM     68  C   UNL A   1      36.348  32.658  29.634  1.00  0.00     0.031 A 
ATOM     69  C   UNL A   1      36.737  31.750  31.830  1.00  0.00     0.131 A 
ATOM     70  C   UNL A   1      35.069  33.056  30.055  1.00  0.00     0.055 A 
ATOM     71  C   UNL A   1      35.447  32.102  32.229  1.00  0.00     0.041 A 
ATOM     72  F   UNL A   1      37.522  31.132  32.727  1.00  0.00    -0.206 F 
ATOM     73  C   UNL A   1      34.608  32.771  31.342  1.00  0.00     0.022 A 
BRANCH  70  74
ATOM     74  S   UNL A   1      34.045  34.027  28.916  1.00  0.00     0.124 S 
ATOM     75  O   UNL A   1      35.016  34.967  28.370  1.00  0.00    -0.237 OA
ATOM     76  O   UNL A   1      33.557  33.002  28.000  1.00  0.00    -0.237 OA
ATOM     77  O   UNL A   1      33.030  34.614  29.789  1.00  0.00    -0.744 OA
ENDBRANCH  70  74
ENDBRANCH  43  67
BRANCH  55  78
ATOM     78  C   UNL A   1      43.332  35.307  31.159  1.00  0.00     0.023 A 
ATOM     79  C   UNL A   1      43.402  36.407  30.289  1.00  0.00     0.031 A 
ATOM     80  C   UNL A   1      43.608  35.520  32.523  1.00  0.00     0.131 A 
ATOM     81  C   UNL A   1      43.781  37.665  30.784  1.00  0.00     0.055 A 
ATOM     82  C   UNL A   1      43.932  36.783  33.018  1.00  0.00     0.041 A 
ATOM     83  F   UNL A   1      43.556  34.502  33.397  1.00  0.00    -0.206 F 
ATOM     84  C   UNL A   1      44.031  37.862  32.145  1.00  0.00     0.022 A 
BRANCH  81  85
ATOM     85  S   UNL A   1      44.014  39.030  29.613  1.00  0.00     0.124 S 
ATOM     86  O   UNL A   1      43.046  38.706  28.571  1.00  0.00    -0.237 OA
ATOM     87  O   UNL A   1      43.703  40.200  30.429  1.00  0.00    -0.237 OA
ATOM     88  O   UNL A   1      45.415  38.908  29.217  1.00  0.00    -0.744 OA
ENDBRANCH  81  85
ENDBRANCH  55  78
ENDBRANCH  29  30
ENDBRANCH  21  24
ENDBRANCH  19  20
ENDBRANCH  18  19
ENDBRANCH   1  18
TORSDOF 18
ENDMDL
MODEL 2
REMARK VINA RESULT:     -10.1      6.110      9.407
REMARK SMILES C=CCC(=O)N[C@@](C)(CC)C(=O)NCCCCNC(=O)c1ccc(-c2c3nc(c(-c4cc(S(=O)(=O)[O-])ccc4F)c4ccc([nH]4)c(-c4cc(S(=O)(=O)[O-])ccc4F)c4nc(c(-c5cc(S(=O)(=O)[O-])ccc5F)c5ccc2[nH]5)C=C4)C=C3)cc1
REMARK SMILES IDX 15 1 14 2 13 3 11 4 12 5 7 7 8 8 6 9 4 10 5 11 3 13 2 14
REMARK SMILES IDX 1 15 9 16 10 17 16 18 17 19 18 20 19 21 20 23 21 24 22 25
REMARK SMILES IDX 83 26 23 27 82 28 24 29 25 30 26 31 76 32 27 33 81 34 75 35
REMARK SMILES IDX 77 36 28 37 80 38 74 39 73 40 29 42 61 43 41 44 60 45 42 46
REMARK SMILES IDX 45 47 59 48 78 49 43 50 44 51 58 53 79 54 46 55 30 56 31 57
REMARK SMILES IDX 39 58 32 59 38 60 40 61 37 62 33 63 34 64 35 65 36 66 62 67
REMARK SMILES IDX 63 68 71 69 64 70 70 71 72 72 69 73 65 74 66 75 67 76 68 77
REMARK SMILES IDX 47 78 48 79 56 80 49 81 55 82 57 83 54 84 50 85 51 86 52 87
REMARK SMILES IDX 53 88
REMARK H PARENT 13 6 6 12 18 22 77 41 45 52
REMARK Flexibility Score: inf
ROOT
ATOM      1  C   UNL A   1      32.648  30.347  26.382  1.00  0.00     0.023 C 
ENDROOT
BRANCH   1   2
ATOM      2  C   UNL A   1      31.638  29.688  25.439  1.00  0.00     0.116 C 
BRANCH   2   3
ATOM      3  N   UNL A   1      31.714  28.243  25.549  1.00  0.00    -0.354 N 
ATOM      4  C   UNL A   1      31.355  27.293  24.640  1.00  0.00     0.245 C 
ATOM      5  O   UNL A   1      30.706  26.344  25.086  1.00  0.00    -0.272 OA
ATOM      6  H   UNL A   1      32.075  27.902  26.400  1.00  0.00     0.163 HD
BRANCH   4   7
ATOM      7  C   UNL A   1      31.686  27.433  23.123  1.00  0.00     0.116 C 
ATOM      8  C   UNL A   1      31.030  26.328  22.270  1.00  0.00     0.045 C 
BRANCH   7   9
ATOM      9  N   UNL A   1      31.236  28.732  22.540  1.00  0.00    -0.342 N 
ATOM     10  C   UNL A   1      29.995  29.209  22.242  1.00  0.00     0.224 C 
ATOM     11  O   UNL A   1      29.904  29.923  21.237  1.00  0.00    -0.275 OA
ATOM     12  H   UNL A   1      31.968  29.357  22.333  1.00  0.00     0.164 HD
BRANCH  10  13
ATOM     13  C   UNL A   1      28.782  28.984  23.140  1.00  0.00     0.126 C 
BRANCH  13  14
ATOM     14  C   UNL A   1      27.655  29.950  22.936  1.00  0.00    -0.025 C 
ATOM     15  C   UNL A   1      27.598  31.154  23.522  1.00  0.00     0.004 C 
ENDBRANCH  13  14
ENDBRANCH  10  13
ENDBRANCH   7   9
BRANCH   7  16
ATOM     16  C   UNL A   1      33.231  27.370  22.947  1.00  0.00     0.035 C 
ATOM     17  C   UNL A   1      33.890  26.156  23.603  1.00  0.00     0.007 C 
ENDBRANCH   7  16
ENDBRANCH   4   7
ENDBRANCH   2   3
ENDBRANCH   1   2
BRANCH   1  18
ATOM     18  C   UNL A   1      32.206  31.707  26.932  1.00  0.00     0.023 C 
BRANCH  18  19
ATOM     19  C   UNL A   1      33.329  32.566  27.503  1.00  0.00     0.116 C 
BRANCH  19  20
ATOM     20  N   UNL A   1      32.889  33.915  27.823  1.00  0.00    -0.352 N 
ATOM     21  C   UNL A   1      33.339  34.741  28.824  1.00  0.00     0.251 C 
ATOM     22  H   UNL A   1      32.179  34.284  27.248  1.00  0.00     0.163 HD
ATOM     23  O   UNL A   1      32.760  35.796  29.060  1.00  0.00    -0.269 OA
BRANCH  21  24
ATOM     24  C   UNL A   1      34.504  34.320  29.629  1.00  0.00     0.039 A 
ATOM     25  C   UNL A   1      34.293  33.608  30.811  1.00  0.00     0.014 A 
ATOM     26  C   UNL A   1      35.800  34.589  29.182  1.00  0.00     0.014 A 
ATOM     27  C   UNL A   1      35.390  33.104  31.516  1.00  0.00     0.010 A 
ATOM     28  C   UNL A   1      36.885  34.034  29.851  1.00  0.00     0.010 A 
ATOM     29  C   UNL A   1      36.691  33.285  31.024  1.00  0.00    -0.014 A 
BRANCH  29  30
ATOM     30  C   UNL A   1      37.878  32.721  31.717  1.00  0.00     0.031 A 
ATOM     31  C   UNL A   1      38.654  31.610  31.066  1.00  0.00     0.074 A 
ATOM     32  C   UNL A   1      38.196  33.136  32.959  1.00  0.00     0.049 A 
ATOM     33  N   UNL A   1      39.602  30.858  31.560  1.00  0.00    -0.248 NA
ATOM     34  C   UNL A   1      38.281  31.280  29.683  1.00  0.00     0.031 C 
ATOM     35  C   UNL A   1      37.504  34.192  33.702  1.00  0.00     0.029 A 
ATOM     36  N   UNL A   1      39.170  32.705  33.825  1.00  0.00    -0.354 N 
ATOM     37  C   UNL A   1      39.922  29.947  30.559  1.00  0.00     0.074 A 
ATOM     38  C   UNL A   1      39.027  30.211  29.452  1.00  0.00     0.031 C 
ATOM     39  C   UNL A   1      38.080  34.328  34.909  1.00  0.00     0.029 A 
ATOM     40  C   UNL A   1      39.145  33.339  35.045  1.00  0.00     0.049 A 
ATOM     41  H   UNL A   1      39.823  32.005  33.595  1.00  0.00     0.167 HD
ATOM     42  C   UNL A   1      40.884  28.990  30.559  1.00  0.00     0.034 A 
ATOM     43  C   UNL A   1      39.880  33.131  36.156  1.00  0.00     0.034 A 
ATOM     44  C   UNL A   1      41.779  28.757  31.666  1.00  0.00     0.049 A 
ATOM     45  C   UNL A   1      40.933  32.051  36.141  1.00  0.00     0.074 A 
ATOM     46  C   UNL A   1      42.816  27.846  31.760  1.00  0.00     0.029 A 
ATOM     47  N   UNL A   1      41.741  29.439  32.876  1.00  0.00    -0.354 N 
ATOM     48  N   UNL A   1      41.240  31.210  35.179  1.00  0.00    -0.248 NA
ATOM     49  C   UNL A   1      41.743  31.895  37.356  1.00  0.00     0.031 C 
ATOM     50  C   UNL A   1      43.366  27.937  33.043  1.00  0.00     0.029 A 
ATOM     51  C   UNL A   1      42.723  28.956  33.726  1.00  0.00     0.049 A 
ATOM     52  H   UNL A   1      41.108  30.161  33.097  1.00  0.00     0.167 HD
ATOM     53  C   UNL A   1      42.305  30.456  35.662  1.00  0.00     0.074 A 
ATOM     54  C   UNL A   1      42.589  30.941  36.997  1.00  0.00     0.031 C 
ATOM     55  C   UNL A   1      42.995  29.457  35.053  1.00  0.00     0.034 A 
BRANCH  42  56
ATOM     56  C   UNL A   1      40.988  28.113  29.334  1.00  0.00     0.023 A 
ATOM     57  C   UNL A   1      42.006  28.293  28.381  1.00  0.00     0.031 A 
ATOM     58  C   UNL A   1      40.031  27.110  29.092  1.00  0.00     0.131 A 
ATOM     59  C   UNL A   1      41.995  27.545  27.194  1.00  0.00     0.055 A 
ATOM     60  C   UNL A   1      40.078  26.309  27.951  1.00  0.00     0.041 A 
ATOM     61  F   UNL A   1      39.023  26.906  29.954  1.00  0.00    -0.206 F 
ATOM     62  C   UNL A   1      41.054  26.535  26.984  1.00  0.00     0.022 A 
BRANCH  59  63
ATOM     63  S   UNL A   1      43.133  28.020  25.864  1.00  0.00     0.124 S 
ATOM     64  O   UNL A   1      42.279  27.885  24.686  1.00  0.00    -0.237 OA
ATOM     65  O   UNL A   1      43.500  29.383  26.234  1.00  0.00    -0.237 OA
ATOM     66  O   UNL A   1      44.207  27.034  25.964  1.00  0.00    -0.744 OA
ENDBRANCH  59  63
ENDBRANCH  42  56
BRANCH  43  67
ATOM     67  C   UNL A   1      39.645  33.945  37.383  1.00  0.00     0.023 A 
ATOM     68  C   UNL A   1      38.936  33.418  38.473  1.00  0.00     0.031 A 
ATOM     69  C   UNL A   1      40.090  35.276  37.467  1.00  0.00     0.131 A 
ATOM     70  C   UNL A   1      38.651  34.230  39.583  1.00  0.00     0.055 A 
ATOM     71  C   UNL A   1      39.848  36.065  38.594  1.00  0.00     0.041 A 
ATOM     72  F   UNL A   1      40.779  35.828  36.455  1.00  0.00    -0.206 F 
ATOM     73  C   UNL A   1      39.113  35.545  39.655  1.00  0.00     0.022 A 
BRANCH  70  74
ATOM     74  S   UNL A   1      37.593  33.563  40.896  1.00  0.00     0.124 S 
ATOM     75  O   UNL A   1      36.543  32.905  40.127  1.00  0.00    -0.237 OA
ATOM     76  O   UNL A   1      38.514  32.683  41.608  1.00  0.00    -0.237 OA
ATOM     77  O   UNL A   1      37.176  34.754  41.633  1.00  0.00    -0.744 OA
ENDBRANCH  70  74
ENDBRANCH  43  67
BRANCH  55  78
ATOM     78  C   UNL A   1      44.168  28.875  35.800  1.00  0.00     0.023 A 
ATOM     79  C   UNL A   1      44.030  27.785  36.676  1.00  0.00     0.031 A 
ATOM     80  C   UNL A   1      45.451  29.425  35.621  1.00  0.00     0.131 A 
ATOM     81  C   UNL A   1      45.149  27.306  37.374  1.00  0.00     0.055 A 
ATOM     82  C   UNL A   1      46.569  28.909  36.277  1.00  0.00     0.041 A 
ATOM     83  F   UNL A   1      45.639  30.467  34.796  1.00  0.00    -0.206 F 
ATOM     84  C   UNL A   1      46.419  27.851  37.168  1.00  0.00     0.022 A 
BRANCH  81  85
ATOM     85  S   UNL A   1      44.913  26.002  38.612  1.00  0.00     0.124 S 
ATOM     86  O   UNL A   1      44.304  24.938  37.822  1.00  0.00    -0.237 OA
ATOM     87  O   UNL A   1      46.276  25.754  39.071  1.00  0.00    -0.237 OA
ATOM     88  O   UNL A   1      44.032  26.622  39.600  1.00  0.00    -0.744 OA
ENDBRANCH  81  85
ENDBRANCH  55  78
ENDBRANCH  29  30
ENDBRANCH  21  24
ENDBRANCH  19  20
ENDBRANCH  18  19
ENDBRANCH   1  18
TORSDOF 18
ENDMDL
MODEL 3
REMARK VINA RESULT:     -10.1      5.675      8.951
REMARK SMILES C=CCC(=O)N[C@@](C)(CC)C(=O)NCCCCNC(=O)c1ccc(-c2c3nc(c(-c4cc(S(=O)(=O)[O-])ccc4F)c4ccc([nH]4)c(-c4cc(S(=O)(=O)[O-])ccc4F)c4nc(c(-c5cc(S(=O)(=O)[O-])ccc5F)c5ccc2[nH]5)C=C4)C=C3)cc1
REMARK SMILES IDX 15 1 14 2 13 3 11 4 12 5 7 7 8 8 6 9 4 10 5 11 3 13 2 14
REMARK SMILES IDX 1 15 9 16 10 17 16 18 17 19 18 20 19 21 20 23 21 24 22 25
REMARK SMILES IDX 83 26 23 27 82 28 24 29 25 30 26 31 76 32 27 33 81 34 75 35
REMARK SMILES IDX 77 36 28 37 80 38 74 39 73 40 29 42 61 43 41 44 60 45 42 46
REMARK SMILES IDX 45 47 59 48 78 49 43 50 44 51 58 53 79 54 46 55 30 56 31 57
REMARK SMILES IDX 39 58 32 59 38 60 40 61 37 62 33 63 34 64 35 65 36 66 62 67
REMARK SMILES IDX 63 68 71 69 64 70 70 71 72 72 69 73 65 74 66 75 67 76 68 77
REMARK SMILES IDX 47 78 48 79 56 80 49 81 55 82 57 83 54 84 50 85 51 86 52 87
REMARK SMILES IDX 53 88
REMARK H PARENT 13 6 6 12 18 22 77 41 45 52
REMARK Flexibility Score: inf
ROOT
ATOM      1  C   UNL A   1      31.788  30.604  26.439  1.00  0.00     0.023 C 
ENDROOT
BRANCH   1   2
ATOM      2  C   UNL A   1      31.043  30.147  25.183  1.00  0.00     0.116 C 
BRANCH   2   3
ATOM      3  N   UNL A   1      31.985  29.715  24.167  1.00  0.00    -0.354 N 
ATOM      4  C   UNL A   1      32.465  28.463  23.919  1.00  0.00     0.245 C 
ATOM      5  O   UNL A   1      33.682  28.383  23.732  1.00  0.00    -0.272 OA
ATOM      6  H   UNL A   1      32.326  30.425  23.576  1.00  0.00     0.163 HD
BRANCH   4   7
ATOM      7  C   UNL A   1      31.545  27.205  23.939  1.00  0.00     0.116 C 
ATOM      8  C   UNL A   1      32.085  26.062  23.055  1.00  0.00     0.045 C 
BRANCH   7   9
ATOM      9  N   UNL A   1      31.366  26.628  25.305  1.00  0.00    -0.342 N 
ATOM     10  C   UNL A   1      32.100  25.718  26.005  1.00  0.00     0.224 C 
ATOM     11  O   UNL A   1      31.470  24.942  26.733  1.00  0.00    -0.275 OA
ATOM     12  H   UNL A   1      30.576  26.964  25.785  1.00  0.00     0.164 HD
BRANCH  10  13
ATOM     13  C   UNL A   1      33.626  25.701  25.998  1.00  0.00     0.126 C 
BRANCH  13  14
ATOM     14  C   UNL A   1      34.244  24.364  25.719  1.00  0.00    -0.025 C 
ATOM     15  C   UNL A   1      35.548  24.192  25.465  1.00  0.00     0.004 C 
ENDBRANCH  13  14
ENDBRANCH  10  13
ENDBRANCH   7   9
BRANCH   7  16
ATOM     16  C   UNL A   1      30.131  27.620  23.437  1.00  0.00     0.035 C 
ATOM     17  C   UNL A   1      29.014  26.651  23.825  1.00  0.00     0.007 C 
ENDBRANCH   7  16
ENDBRANCH   4   7
ENDBRANCH   2   3
ENDBRANCH   1   2
BRANCH   1  18
ATOM     18  C   UNL A   1      31.590  32.083  26.789  1.00  0.00     0.023 C 
BRANCH  18  19
ATOM     19  C   UNL A   1      32.867  32.841  27.133  1.00  0.00     0.116 C 
BRANCH  19  20
ATOM     20  N   UNL A   1      32.601  34.120  27.770  1.00  0.00    -0.352 N 
ATOM     21  C   UNL A   1      33.243  34.684  28.846  1.00  0.00     0.251 C 
ATOM     22  H   UNL A   1      31.867  34.650  27.381  1.00  0.00     0.163 HD
ATOM     23  O   UNL A   1      32.800  35.705  29.362  1.00  0.00    -0.269 OA
BRANCH  21  24
ATOM     24  C   UNL A   1      34.448  34.023  29.387  1.00  0.00     0.039 A 
ATOM     25  C   UNL A   1      35.708  34.475  28.990  1.00  0.00     0.014 A 
ATOM     26  C   UNL A   1      34.323  32.993  30.323  1.00  0.00     0.014 A 
ATOM     27  C   UNL A   1      36.851  33.935  29.586  1.00  0.00     0.010 A 
ATOM     28  C   UNL A   1      35.458  32.502  30.958  1.00  0.00     0.010 A 
ATOM     29  C   UNL A   1      36.733  32.970  30.597  1.00  0.00    -0.014 A 
BRANCH  29  30
ATOM     30  C   UNL A   1      37.923  32.409  31.289  1.00  0.00     0.031 A 
ATOM     31  C   UNL A   1      38.658  31.251  30.672  1.00  0.00     0.074 A 
ATOM     32  C   UNL A   1      38.280  32.873  32.503  1.00  0.00     0.049 A 
ATOM     33  N   UNL A   1      39.599  30.499  31.180  1.00  0.00    -0.248 NA
ATOM     34  C   UNL A   1      38.245  30.867  29.315  1.00  0.00     0.031 C 
ATOM     35  C   UNL A   1      37.631  33.978  33.212  1.00  0.00     0.029 A 
ATOM     36  N   UNL A   1      39.263  32.458  33.366  1.00  0.00    -0.354 N 
ATOM     37  C   UNL A   1      39.874  29.536  30.215  1.00  0.00     0.074 A 
ATOM     38  C   UNL A   1      38.960  29.771  29.117  1.00  0.00     0.031 C 
ATOM     39  C   UNL A   1      38.238  34.156  34.398  1.00  0.00     0.029 A 
ATOM     40  C   UNL A   1      39.282  33.148  34.556  1.00  0.00     0.049 A 
ATOM     41  H   UNL A   1      39.895  31.733  33.154  1.00  0.00     0.167 HD
ATOM     42  C   UNL A   1      40.813  28.557  30.238  1.00  0.00     0.034 A 
ATOM     43  C   UNL A   1      40.039  32.973  35.658  1.00  0.00     0.034 A 
ATOM     44  C   UNL A   1      41.728  28.353  31.334  1.00  0.00     0.049 A 
ATOM     45  C   UNL A   1      41.065  31.868  35.670  1.00  0.00     0.074 A 
ATOM     46  C   UNL A   1      42.746  27.423  31.446  1.00  0.00     0.029 A 
ATOM     47  N   UNL A   1      41.735  29.091  32.511  1.00  0.00    -0.354 N 
ATOM     48  N   UNL A   1      41.329  30.977  34.741  1.00  0.00    -0.248 NA
ATOM     49  C   UNL A   1      41.900  31.748  36.872  1.00  0.00     0.031 C 
ATOM     50  C   UNL A   1      43.329  27.558  32.711  1.00  0.00     0.029 A 
ATOM     51  C   UNL A   1      42.725  28.623  33.360  1.00  0.00     0.049 A 
ATOM     52  H   UNL A   1      41.125  29.838  32.712  1.00  0.00     0.167 HD
ATOM     53  C   UNL A   1      42.388  30.219  35.234  1.00  0.00     0.074 A 
ATOM     54  C   UNL A   1      42.714  30.759  36.538  1.00  0.00     0.031 C 
ATOM     55  C   UNL A   1      43.040  29.178  34.656  1.00  0.00     0.034 A 
BRANCH  42  56
ATOM     56  C   UNL A   1      40.868  27.624  29.052  1.00  0.00     0.023 A 
ATOM     57  C   UNL A   1      41.820  27.783  28.029  1.00  0.00     0.031 A 
ATOM     58  C   UNL A   1      39.929  26.584  28.920  1.00  0.00     0.131 A 
ATOM     59  C   UNL A   1      41.758  26.976  26.883  1.00  0.00     0.055 A 
ATOM     60  C   UNL A   1      39.930  25.727  27.818  1.00  0.00     0.041 A 
ATOM     61  F   UNL A   1      38.983  26.395  29.853  1.00  0.00    -0.206 F 
ATOM     62  C   UNL A   1      40.837  25.932  26.782  1.00  0.00     0.022 A 
BRANCH  59  63
ATOM     63  S   UNL A   1      42.797  27.414  25.463  1.00  0.00     0.124 S 
ATOM     64  O   UNL A   1      44.053  27.771  26.117  1.00  0.00    -0.237 OA
ATOM     65  O   UNL A   1      42.809  26.179  24.687  1.00  0.00    -0.237 OA
ATOM     66  O   UNL A   1      42.083  28.532  24.848  1.00  0.00    -0.744 OA
ENDBRANCH  59  63
ENDBRANCH  42  56
BRANCH  43  67
ATOM     67  C   UNL A   1      39.851  33.848  36.851  1.00  0.00     0.023 A 
ATOM     68  C   UNL A   1      39.214  33.366  38.005  1.00  0.00     0.031 A 
ATOM     69  C   UNL A   1      40.270  35.190  36.840  1.00  0.00     0.131 A 
ATOM     70  C   UNL A   1      38.971  34.232  39.084  1.00  0.00     0.055 A 
ATOM     71  C   UNL A   1      40.072  36.033  37.935  1.00  0.00     0.041 A 
ATOM     72  F   UNL A   1      40.891  35.699  35.764  1.00  0.00    -0.206 F 
ATOM     73  C   UNL A   1      39.406  35.558  39.061  1.00  0.00     0.022 A 
BRANCH  70  74
ATOM     74  S   UNL A   1      38.000  33.616  40.487  1.00  0.00     0.124 S 
ATOM     75  O   UNL A   1      38.980  32.796  41.189  1.00  0.00    -0.237 OA
ATOM     76  O   UNL A   1      37.608  34.855  41.149  1.00  0.00    -0.237 OA
ATOM     77  O   UNL A   1      36.911  32.881  39.849  1.00  0.00    -0.744 OA
ENDBRANCH  70  74
ENDBRANCH  43  67
BRANCH  55  78
ATOM     78  C   UNL A   1      44.217  28.602  35.403  1.00  0.00     0.023 A 
ATOM     79  C   UNL A   1      44.067  27.594  36.370  1.00  0.00     0.031 A 
ATOM     80  C   UNL A   1      45.514  29.073  35.130  1.00  0.00     0.131 A 
ATOM     81  C   UNL A   1      45.192  27.119  37.061  1.00  0.00     0.055 A 
ATOM     82  C   UNL A   1      46.635  28.559  35.782  1.00  0.00     0.041 A 
ATOM     83  F   UNL A   1      45.713  30.036  34.215  1.00  0.00    -0.206 F 
ATOM     84  C   UNL A   1      46.476  27.584  36.762  1.00  0.00     0.022 A 
BRANCH  81  85
ATOM     85  S   UNL A   1      44.951  25.932  38.411  1.00  0.00     0.124 S 
ATOM     86  O   UNL A   1      44.220  24.859  37.746  1.00  0.00    -0.237 OA
ATOM     87  O   UNL A   1      46.322  25.621  38.805  1.00  0.00    -0.237 OA
ATOM     88  O   UNL A   1      44.181  26.686  39.398  1.00  0.00    -0.744 OA
ENDBRANCH  81  85
ENDBRANCH  55  78
ENDBRANCH  29  30
ENDBRANCH  21  24
ENDBRANCH  19  20
ENDBRANCH  18  19
ENDBRANCH   1  18
TORSDOF 18
ENDMDL
