MODEL 1
REMARK VINA RESULT:     -11.9      0.000      0.000
REMARK SMILES O=C(NCCCCNC(=O)c1ccc(Br)c(NC(=S)NC(=O)c2ccc(F)cc2)c1)c1ccc(-c2c3nc(c(-c4cc(S(=O)(=O)[O-])ccc4F)c4ccc([nH]4)c(-c4cc(S(=O)(=O)[O-])ccc4F)c4nc(c(-c5cc(S(=O)(=O)[O-])ccc5F)c5ccc2[nH]5)C=C4)C=C3)cc1
REMARK SMILES IDX 6 1 5 2 4 3 3 4 1 5 2 6 31 8 32 9 93 10 33 11 92 12 34 13
REMARK SMILES IDX 35 14 36 15 86 16 37 17 91 18 85 19 87 20 38 21 90 22 84 23
REMARK SMILES IDX 83 24 39 26 71 27 51 28 70 29 52 30 55 31 69 32 88 33 53 34
REMARK SMILES IDX 54 35 68 37 89 38 56 39 40 40 41 41 49 42 42 43 48 44 50 45
REMARK SMILES IDX 47 46 43 47 44 48 45 49 46 50 72 51 73 52 81 53 74 54 80 55
REMARK SMILES IDX 82 56 79 57 75 58 76 59 77 60 78 61 57 62 58 63 66 64 59 65
REMARK SMILES IDX 65 66 67 67 64 68 60 69 61 70 62 71 63 72 7 73 8 74 9 75
REMARK SMILES IDX 10 77 11 78 12 79 30 80 13 81 16 82 14 83 15 84 17 85 18 87
REMARK SMILES IDX 19 88 20 89 21 90 22 92 23 93 24 94 29 95 25 96 28 97 26 98
REMARK SMILES IDX 27 99
REMARK H PARENT 3 7 87 25 55 36 8 76 17 86 20 91
REMARK Flexibility Score: inf
ROOT
ATOM      1  C   UNL A   1      39.022  22.222  26.355  1.00  0.00     0.023 C 
ENDROOT
BRANCH   1   2
ATOM      2  C   UNL A   1      39.426  20.880  25.736  1.00  0.00     0.023 C 
BRANCH   2   3
ATOM      3  C   UNL A   1      40.059  19.882  26.695  1.00  0.00     0.116 C 
BRANCH   3   4
ATOM      4  N   UNL A   1      41.220  19.219  26.129  1.00  0.00    -0.352 N 
ATOM      5  O   UNL A   1      43.288  19.071  25.251  1.00  0.00    -0.269 OA
ATOM      6  C   UNL A   1      42.448  19.753  25.832  1.00  0.00     0.251 C 
ATOM      7  H   UNL A   1      41.111  18.260  25.932  1.00  0.00     0.163 HD
BRANCH   6   8
ATOM      8  C   UNL A   1      42.738  21.155  26.191  1.00  0.00     0.039 A 
ATOM      9  C   UNL A   1      42.928  21.527  27.525  1.00  0.00     0.014 A 
ATOM     10  C   UNL A   1      42.828  22.103  25.170  1.00  0.00     0.014 A 
ATOM     11  C   UNL A   1      43.130  22.866  27.846  1.00  0.00     0.010 A 
ATOM     12  C   UNL A   1      43.088  23.438  25.488  1.00  0.00     0.010 A 
ATOM     13  C   UNL A   1      43.234  23.827  26.827  1.00  0.00    -0.014 A 
BRANCH  13  14
ATOM     14  C   UNL A   1      43.605  25.220  27.168  1.00  0.00     0.031 A 
ATOM     15  C   UNL A   1      45.005  25.722  26.975  1.00  0.00     0.074 A 
ATOM     16  C   UNL A   1      42.646  26.033  27.649  1.00  0.00     0.049 A 
ATOM     17  N   UNL A   1      45.509  26.888  27.283  1.00  0.00    -0.248 NA
ATOM     18  C   UNL A   1      45.964  24.792  26.361  1.00  0.00     0.031 C 
ATOM     19  C   UNL A   1      41.244  25.652  27.847  1.00  0.00     0.029 A 
ATOM     20  N   UNL A   1      42.692  27.345  28.036  1.00  0.00    -0.354 N 
ATOM     21  C   UNL A   1      46.846  26.838  26.906  1.00  0.00     0.074 A 
ATOM     22  C   UNL A   1      47.078  25.511  26.370  1.00  0.00     0.031 C 
ATOM     23  C   UNL A   1      40.555  26.722  28.271  1.00  0.00     0.029 A 
ATOM     24  C   UNL A   1      41.475  27.839  28.440  1.00  0.00     0.049 A 
ATOM     25  H   UNL A   1      43.517  27.882  28.028  1.00  0.00     0.167 HD
ATOM     26  C   UNL A   1      47.785  27.812  26.999  1.00  0.00     0.034 A 
ATOM     27  C   UNL A   1      41.138  29.052  28.913  1.00  0.00     0.034 A 
ATOM     28  C   UNL A   1      47.536  29.121  27.554  1.00  0.00     0.049 A 
ATOM     29  C   UNL A   1      42.210  30.089  29.072  1.00  0.00     0.074 A 
ATOM     30  C   UNL A   1      48.423  30.168  27.733  1.00  0.00     0.029 A 
ATOM     31  N   UNL A   1      46.304  29.565  28.020  1.00  0.00    -0.354 N 
ATOM     32  N   UNL A   1      43.488  30.000  28.790  1.00  0.00    -0.248 NA
ATOM     33  C   UNL A   1      41.797  31.384  29.624  1.00  0.00     0.031 C 
ATOM     34  C   UNL A   1      47.740  31.225  28.349  1.00  0.00     0.029 A 
ATOM     35  C   UNL A   1      46.411  30.863  28.496  1.00  0.00     0.049 A 
ATOM     36  H   UNL A   1      45.474  29.035  28.012  1.00  0.00     0.167 HD
ATOM     37  C   UNL A   1      44.034  31.234  29.122  1.00  0.00     0.074 A 
ATOM     38  C   UNL A   1      42.943  32.051  29.617  1.00  0.00     0.031 C 
ATOM     39  C   UNL A   1      45.320  31.653  29.017  1.00  0.00     0.034 A 
BRANCH  26  40
ATOM     40  C   UNL A   1      49.180  27.473  26.533  1.00  0.00     0.023 A 
ATOM     41  C   UNL A   1      49.632  27.821  25.249  1.00  0.00     0.031 A 
ATOM     42  C   UNL A   1      50.065  26.785  27.381  1.00  0.00     0.131 A 
ATOM     43  C   UNL A   1      50.916  27.436  24.831  1.00  0.00     0.055 A 
ATOM     44  C   UNL A   1      51.364  26.460  26.983  1.00  0.00     0.041 A 
ATOM     45  F   UNL A   1      49.679  26.409  28.611  1.00  0.00    -0.206 F 
ATOM     46  C   UNL A   1      51.793  26.777  25.698  1.00  0.00     0.022 A 
BRANCH  43  47
ATOM     47  S   UNL A   1      51.391  27.715  23.104  1.00  0.00     0.124 S 
ATOM     48  O   UNL A   1      51.306  29.170  23.007  1.00  0.00    -0.237 OA
ATOM     49  O   UNL A   1      52.734  27.148  23.048  1.00  0.00    -0.237 OA
ATOM     50  O   UNL A   1      50.375  26.987  22.346  1.00  0.00    -0.744 OA
ENDBRANCH  43  47
ENDBRANCH  26  40
BRANCH  27  51
ATOM     51  C   UNL A   1      39.726  29.325  29.283  1.00  0.00     0.023 A 
ATOM     52  C   UNL A   1      39.333  29.359  30.628  1.00  0.00     0.031 A 
ATOM     53  C   UNL A   1      38.767  29.614  28.296  1.00  0.00     0.131 A 
ATOM     54  C   UNL A   1      38.004  29.672  30.954  1.00  0.00     0.055 A 
ATOM     55  C   UNL A   1      37.455  29.954  28.627  1.00  0.00     0.041 A 
ATOM     56  F   UNL A   1      39.107  29.611  26.998  1.00  0.00    -0.206 F 
ATOM     57  C   UNL A   1      37.068  29.983  29.963  1.00  0.00     0.022 A 
BRANCH  54  58
ATOM     58  S   UNL A   1      37.514  29.682  32.699  1.00  0.00     0.124 S 
ATOM     59  O   UNL A   1      36.253  30.413  32.649  1.00  0.00    -0.237 OA
ATOM     60  O   UNL A   1      37.420  28.258  33.000  1.00  0.00    -0.237 OA
ATOM     61  O   UNL A   1      38.617  30.380  33.357  1.00  0.00    -0.744 OA
ENDBRANCH  54  58
ENDBRANCH  27  51
BRANCH  39  62
ATOM     62  C   UNL A   1      45.601  33.073  29.425  1.00  0.00     0.023 A 
ATOM     63  C   UNL A   1      45.412  34.145  28.537  1.00  0.00     0.031 A 
ATOM     64  C   UNL A   1      46.077  33.352  30.718  1.00  0.00     0.131 A 
ATOM     65  C   UNL A   1      45.739  35.448  28.941  1.00  0.00     0.055 A 
ATOM     66  C   UNL A   1      46.356  34.655  31.130  1.00  0.00     0.041 A 
ATOM     67  F   UNL A   1      46.277  32.361  31.601  1.00  0.00    -0.206 F 
ATOM     68  C   UNL A   1      46.196  35.711  30.235  1.00  0.00     0.022 A 
BRANCH  65  69
ATOM     69  S   UNL A   1      45.614  36.793  27.732  1.00  0.00     0.124 S 
ATOM     70  O   UNL A   1      44.380  36.454  27.030  1.00  0.00    -0.237 OA
ATOM     71  O   UNL A   1      45.559  37.978  28.581  1.00  0.00    -0.237 OA
ATOM     72  O   UNL A   1      46.835  36.658  26.939  1.00  0.00    -0.744 OA
ENDBRANCH  65  69
ENDBRANCH  39  62
ENDBRANCH  13  14
ENDBRANCH   6   8
ENDBRANCH   3   4
ENDBRANCH   2   3
ENDBRANCH   1   2
BRANCH   1  73
ATOM     73  C   UNL A   1      37.682  22.783  25.872  1.00  0.00     0.116 C 
BRANCH  73  74
ATOM     74  N   UNL A   1      37.610  22.819  24.427  1.00  0.00    -0.352 N 
ATOM     75  C   UNL A   1      36.550  22.885  23.566  1.00  0.00     0.251 C 
ATOM     76  H   UNL A   1      38.487  22.788  23.980  1.00  0.00     0.163 HD
ATOM     77  O   UNL A   1      36.787  22.836  22.361  1.00  0.00    -0.269 OA
BRANCH  75  78
ATOM     78  C   UNL A   1      35.140  23.204  24.078  1.00  0.00     0.041 A 
ATOM     79  C   UNL A   1      34.357  21.607  24.458  1.00  0.00     0.015 A 
ATOM     80  C   UNL A   1      34.061  24.832  24.579  1.00  0.00     0.041 A 
ATOM     81  C   UNL A   1      32.760  21.626  25.258  1.00  0.00     0.018 A 
ATOM     82  C   UNL A   1      32.588  24.744  25.440  1.00  0.00     0.055 A 
ATOM     83  C   UNL A   1      31.925  23.146  25.733  1.00  0.00     0.041 A 
ATOM     84  Br  UNL A   1      30.408  22.992  26.862  1.00  0.00    -0.049 Br
BRANCH  82  85
ATOM     85  N   UNL A   1      32.454  25.887  26.256  1.00  0.00    -0.331 N 
ATOM     86  H   UNL A   1      32.411  25.698  27.222  1.00  0.00     0.169 HD
BRANCH  85  87
ATOM     87  C   UNL A   1      32.373  27.225  25.930  1.00  0.00     0.177 C 
ATOM     88  S   UNL A   1      31.627  28.210  27.075  1.00  0.00    -0.040 S 
BRANCH  87  89
ATOM     89  N   UNL A   1      32.847  27.906  24.758  1.00  0.00    -0.299 N 
ATOM     90  C   UNL A   1      32.747  28.437  23.355  1.00  0.00     0.257 C 
ATOM     91  H   UNL A   1      33.753  28.181  25.025  1.00  0.00     0.172 HD
ATOM     92  O   UNL A   1      33.587  29.241  22.961  1.00  0.00    -0.269 OA
BRANCH  90  93
ATOM     93  C   UNL A   1      31.578  28.062  22.448  1.00  0.00     0.040 A 
ATOM     94  C   UNL A   1      30.137  29.100  22.774  1.00  0.00     0.017 A 
ATOM     95  C   UNL A   1      31.548  26.319  22.535  1.00  0.00     0.017 A 
ATOM     96  C   UNL A   1      28.632  28.465  23.503  1.00  0.00     0.040 A 
ATOM     97  C   UNL A   1      30.117  25.554  23.241  1.00  0.00     0.040 A 
ATOM     98  C   UNL A   1      28.546  26.687  23.829  1.00  0.00     0.123 A 
ATOM     99  F   UNL A   1      27.408  26.340  24.488  1.00  0.00    -0.207 F 
ENDBRANCH  90  93
ENDBRANCH  87  89
ENDBRANCH  85  87
ENDBRANCH  82  85
ENDBRANCH  75  78
ENDBRANCH  73  74
ENDBRANCH   1  73
TORSDOF 18
ENDMDL
MODEL 2
REMARK VINA RESULT:     -11.8      1.349      7.752
REMARK SMILES O=C(NCCCCNC(=O)c1ccc(Br)c(NC(=S)NC(=O)c2ccc(F)cc2)c1)c1ccc(-c2c3nc(c(-c4cc(S(=O)(=O)[O-])ccc4F)c4ccc([nH]4)c(-c4cc(S(=O)(=O)[O-])ccc4F)c4nc(c(-c5cc(S(=O)(=O)[O-])ccc5F)c5ccc2[nH]5)C=C4)C=C3)cc1
REMARK SMILES IDX 6 1 5 2 4 3 3 4 1 5 2 6 31 8 32 9 93 10 33 11 92 12 34 13
REMARK SMILES IDX 35 14 36 15 86 16 37 17 91 18 85 19 87 20 38 21 90 22 84 23
REMARK SMILES IDX 83 24 39 26 71 27 51 28 70 29 52 30 55 31 69 32 88 33 53 34
REMARK SMILES IDX 54 35 68 37 89 38 56 39 40 40 41 41 49 42 42 43 48 44 50 45
REMARK SMILES IDX 47 46 43 47 44 48 45 49 46 50 72 51 73 52 81 53 74 54 80 55
REMARK SMILES IDX 82 56 79 57 75 58 76 59 77 60 78 61 57 62 58 63 66 64 59 65
REMARK SMILES IDX 65 66 67 67 64 68 60 69 61 70 62 71 63 72 7 73 8 74 9 75
REMARK SMILES IDX 10 77 11 78 12 79 30 80 13 81 16 82 14 83 15 84 17 85 18 87
REMARK SMILES IDX 19 88 20 89 21 90 22 92 23 93 24 94 29 95 25 96 28 97 26 98
REMARK SMILES IDX 27 99
REMARK H PARENT 3 7 87 25 55 36 8 76 17 86 20 91
REMARK Flexibility Score: inf
ROOT
ATOM      1  C   UNL A   1      38.927  22.287  26.206  1.00  0.00     0.023 C 
ENDROOT
BRANCH   1   2
ATOM      2  C   UNL A   1      39.238  20.872  25.707  1.00  0.00     0.023 C 
BRANCH   2   3
ATOM      3  C   UNL A   1      39.966  19.975  26.698  1.00  0.00     0.116 C 
BRANCH   3   4
ATOM      4  N   UNL A   1      41.051  19.229  26.086  1.00  0.00    -0.352 N 
ATOM      5  O   UNL A   1      43.068  18.931  25.128  1.00  0.00    -0.269 OA
ATOM      6  C   UNL A   1      42.305  19.670  25.742  1.00  0.00     0.251 C 
ATOM      7  H   UNL A   1      40.863  18.282  25.891  1.00  0.00     0.163 HD
BRANCH   6   8
ATOM      8  C   UNL A   1      42.713  21.045  26.093  1.00  0.00     0.039 A 
ATOM      9  C   UNL A   1      43.025  21.384  27.413  1.00  0.00     0.014 A 
ATOM     10  C   UNL A   1      42.792  22.000  25.077  1.00  0.00     0.014 A 
ATOM     11  C   UNL A   1      43.338  22.701  27.731  1.00  0.00     0.010 A 
ATOM     12  C   UNL A   1      43.163  23.310  25.389  1.00  0.00     0.010 A 
ATOM     13  C   UNL A   1      43.433  23.669  26.717  1.00  0.00    -0.014 A 
BRANCH  13  14
ATOM     14  C   UNL A   1      43.919  25.029  27.043  1.00  0.00     0.031 A 
ATOM     15  C   UNL A   1      43.013  26.052  27.660  1.00  0.00     0.074 A 
ATOM     16  C   UNL A   1      45.206  25.324  26.780  1.00  0.00     0.049 A 
ATOM     17  N   UNL A   1      43.260  27.304  27.946  1.00  0.00    -0.248 NA
ATOM     18  C   UNL A   1      41.650  25.614  27.995  1.00  0.00     0.031 C 
ATOM     19  C   UNL A   1      46.180  24.391  26.207  1.00  0.00     0.029 A 
ATOM     20  N   UNL A   1      45.921  26.475  26.975  1.00  0.00    -0.354 N 
ATOM     21  C   UNL A   1      42.087  27.810  28.492  1.00  0.00     0.074 A 
ATOM     22  C   UNL A   1      41.118  26.731  28.471  1.00  0.00     0.031 C 
ATOM     23  C   UNL A   1      47.378  24.991  26.145  1.00  0.00     0.029 A 
ATOM     24  C   UNL A   1      47.241  26.367  26.607  1.00  0.00     0.049 A 
ATOM     25  H   UNL A   1      45.528  27.298  27.343  1.00  0.00     0.167 HD
ATOM     26  C   UNL A   1      41.848  29.058  28.966  1.00  0.00     0.034 A 
ATOM     27  C   UNL A   1      48.228  27.280  26.619  1.00  0.00     0.034 A 
ATOM     28  C   UNL A   1      42.823  30.122  28.959  1.00  0.00     0.049 A 
ATOM     29  C   UNL A   1      47.920  28.672  27.083  1.00  0.00     0.074 A 
ATOM     30  C   UNL A   1      42.676  31.434  29.377  1.00  0.00     0.029 A 
ATOM     31  N   UNL A   1      44.133  29.998  28.512  1.00  0.00    -0.354 N 
ATOM     32  N   UNL A   1      46.783  29.160  27.518  1.00  0.00    -0.248 NA
ATOM     33  C   UNL A   1      49.023  29.637  27.045  1.00  0.00     0.031 C 
ATOM     34  C   UNL A   1      43.879  32.111  29.140  1.00  0.00     0.029 A 
ATOM     35  C   UNL A   1      44.799  31.208  28.633  1.00  0.00     0.049 A 
ATOM     36  H   UNL A   1      44.532  29.168  28.161  1.00  0.00     0.167 HD
ATOM     37  C   UNL A   1      47.035  30.493  27.817  1.00  0.00     0.074 A 
ATOM     38  C   UNL A   1      48.435  30.727  27.519  1.00  0.00     0.031 C 
ATOM     39  C   UNL A   1      46.186  31.434  28.301  1.00  0.00     0.034 A 
BRANCH  26  40
ATOM     40  C   UNL A   1      40.461  29.346  29.485  1.00  0.00     0.023 A 
ATOM     41  C   UNL A   1      40.169  29.330  30.859  1.00  0.00     0.031 A 
ATOM     42  C   UNL A   1      39.413  29.632  28.591  1.00  0.00     0.131 A 
ATOM     43  C   UNL A   1      38.853  29.544  31.298  1.00  0.00     0.055 A 
ATOM     44  C   UNL A   1      38.119  29.907  29.037  1.00  0.00     0.041 A 
ATOM     45  F   UNL A   1      39.629  29.640  27.266  1.00  0.00    -0.206 F 
ATOM     46  C   UNL A   1      37.831  29.855  30.398  1.00  0.00     0.022 A 
BRANCH  43  47
ATOM     47  S   UNL A   1      38.471  29.311  33.055  1.00  0.00     0.124 S 
ATOM     48  O   UNL A   1      39.735  28.784  33.563  1.00  0.00    -0.237 OA
ATOM     49  O   UNL A   1      38.121  30.660  33.486  1.00  0.00    -0.237 OA
ATOM     50  O   UNL A   1      37.366  28.354  33.042  1.00  0.00    -0.744 OA
ENDBRANCH  43  47
ENDBRANCH  26  40
BRANCH  27  51
ATOM     51  C   UNL A   1      49.586  26.893  26.158  1.00  0.00     0.023 A 
ATOM     52  C   UNL A   1      50.016  27.204  24.861  1.00  0.00     0.031 A 
ATOM     53  C   UNL A   1      50.489  26.259  27.029  1.00  0.00     0.131 A 
ATOM     54  C   UNL A   1      51.322  26.876  24.466  1.00  0.00     0.055 A 
ATOM     55  C   UNL A   1      51.796  25.961  26.642  1.00  0.00     0.041 A 
ATOM     56  F   UNL A   1      50.122  25.960  28.285  1.00  0.00    -0.206 F 
ATOM     57  C   UNL A   1      52.218  26.270  25.352  1.00  0.00     0.022 A 
BRANCH  54  58
ATOM     58  S   UNL A   1      51.845  27.265  22.774  1.00  0.00     0.124 S 
ATOM     59  O   UNL A   1      50.628  26.992  22.018  1.00  0.00    -0.237 OA
ATOM     60  O   UNL A   1      52.231  28.667  22.886  1.00  0.00    -0.237 OA
ATOM     61  O   UNL A   1      52.949  26.337  22.538  1.00  0.00    -0.744 OA
ENDBRANCH  54  58
ENDBRANCH  27  51
BRANCH  39  62
ATOM     62  C   UNL A   1      46.767  32.796  28.563  1.00  0.00     0.023 A 
ATOM     63  C   UNL A   1      46.770  33.796  27.577  1.00  0.00     0.031 A 
ATOM     64  C   UNL A   1      47.335  33.091  29.814  1.00  0.00     0.131 A 
ATOM     65  C   UNL A   1      47.372  35.035  27.844  1.00  0.00     0.055 A 
ATOM     66  C   UNL A   1      47.890  34.340  30.091  1.00  0.00     0.041 A 
ATOM     67  F   UNL A   1      47.357  32.166  30.788  1.00  0.00    -0.206 F 
ATOM     68  C   UNL A   1      47.918  35.318  29.099  1.00  0.00     0.022 A 
BRANCH  65  69
ATOM     69  S   UNL A   1      47.484  36.258  26.510  1.00  0.00     0.124 S 
ATOM     70  O   UNL A   1      46.078  36.561  26.261  1.00  0.00    -0.237 OA
ATOM     71  O   UNL A   1      48.267  37.325  27.123  1.00  0.00    -0.237 OA
ATOM     72  O   UNL A   1      48.162  35.534  25.436  1.00  0.00    -0.744 OA
ENDBRANCH  65  69
ENDBRANCH  39  62
ENDBRANCH  13  14
ENDBRANCH   6   8
ENDBRANCH   3   4
ENDBRANCH   2   3
ENDBRANCH   1   2
BRANCH   1  73
ATOM     73  C   UNL A   1      37.594  22.867  25.728  1.00  0.00     0.116 C 
BRANCH  73  74
ATOM     74  N   UNL A   1      37.508  22.881  24.283  1.00  0.00    -0.352 N 
ATOM     75  C   UNL A   1      36.442  22.973  23.431  1.00  0.00     0.251 C 
ATOM     76  H   UNL A   1      38.379  22.811  23.829  1.00  0.00     0.163 HD
ATOM     77  O   UNL A   1      36.665  22.895  22.226  1.00  0.00    -0.269 OA
BRANCH  75  78
ATOM     78  C   UNL A   1      35.051  23.353  23.952  1.00  0.00     0.041 A 
ATOM     79  C   UNL A   1      34.204  21.792  24.344  1.00  0.00     0.015 A 
ATOM     80  C   UNL A   1      34.045  25.027  24.452  1.00  0.00     0.041 A 
ATOM     81  C   UNL A   1      32.615  21.881  25.155  1.00  0.00     0.018 A 
ATOM     82  C   UNL A   1      32.576  25.005  25.324  1.00  0.00     0.055 A 
ATOM     83  C   UNL A   1      31.848  23.437  25.630  1.00  0.00     0.041 A 
ATOM     84  Br  UNL A   1      30.334  23.351  26.769  1.00  0.00    -0.049 Br
BRANCH  82  85
ATOM     85  N   UNL A   1      32.495  26.156  26.136  1.00  0.00    -0.331 N 
ATOM     86  H   UNL A   1      32.777  26.019  27.070  1.00  0.00     0.169 HD
BRANCH  85  87
ATOM     87  C   UNL A   1      32.088  27.441  25.842  1.00  0.00     0.177 C 
ATOM     88  S   UNL A   1      31.788  28.431  27.171  1.00  0.00    -0.040 S 
BRANCH  87  89
ATOM     89  N   UNL A   1      31.897  28.065  24.563  1.00  0.00    -0.299 N 
ATOM     90  C   UNL A   1      31.166  28.900  23.550  1.00  0.00     0.257 C 
ATOM     91  H   UNL A   1      32.701  27.786  24.069  1.00  0.00     0.172 HD
ATOM     92  O   UNL A   1      31.758  29.258  22.535  1.00  0.00    -0.269 OA
BRANCH  90  93
ATOM     93  C   UNL A   1      29.739  29.380  23.799  1.00  0.00     0.040 A 
ATOM     94  C   UNL A   1      28.674  29.030  22.384  1.00  0.00     0.017 A 
ATOM     95  C   UNL A   1      29.965  30.979  24.461  1.00  0.00     0.017 A 
ATOM     96  C   UNL A   1      27.989  30.316  21.347  1.00  0.00     0.040 A 
ATOM     97  C   UNL A   1      29.341  32.350  23.535  1.00  0.00     0.040 A 
ATOM     98  C   UNL A   1      28.318  32.033  21.816  1.00  0.00     0.123 A 
ATOM     99  F   UNL A   1      27.850  32.916  20.894  1.00  0.00    -0.207 F 
ENDBRANCH  90  93
ENDBRANCH  87  89
ENDBRANCH  85  87
ENDBRANCH  82  85
ENDBRANCH  75  78
ENDBRANCH  73  74
ENDBRANCH   1  73
TORSDOF 18
ENDMDL
MODEL 3
REMARK VINA RESULT:     -11.6      2.823      8.088
REMARK SMILES O=C(NCCCCNC(=O)c1ccc(Br)c(NC(=S)NC(=O)c2ccc(F)cc2)c1)c1ccc(-c2c3nc(c(-c4cc(S(=O)(=O)[O-])ccc4F)c4ccc([nH]4)c(-c4cc(S(=O)(=O)[O-])ccc4F)c4nc(c(-c5cc(S(=O)(=O)[O-])ccc5F)c5ccc2[nH]5)C=C4)C=C3)cc1
REMARK SMILES IDX 6 1 5 2 4 3 3 4 1 5 2 6 31 8 32 9 93 10 33 11 92 12 34 13
REMARK SMILES IDX 35 14 36 15 86 16 37 17 91 18 85 19 87 20 38 21 90 22 84 23
REMARK SMILES IDX 83 24 39 26 71 27 51 28 70 29 52 30 55 31 69 32 88 33 53 34
REMARK SMILES IDX 54 35 68 37 89 38 56 39 40 40 41 41 49 42 42 43 48 44 50 45
REMARK SMILES IDX 47 46 43 47 44 48 45 49 46 50 72 51 73 52 81 53 74 54 80 55
REMARK SMILES IDX 82 56 79 57 75 58 76 59 77 60 78 61 57 62 58 63 66 64 59 65
REMARK SMILES IDX 65 66 67 67 64 68 60 69 61 70 62 71 63 72 7 73 8 74 9 75
REMARK SMILES IDX 10 77 11 78 12 79 30 80 13 81 16 82 14 83 15 84 17 85 18 87
REMARK SMILES IDX 19 88 20 89 21 90 22 92 23 93 24 94 29 95 25 96 28 97 26 98
REMARK SMILES IDX 27 99
REMARK H PARENT 3 7 87 25 55 36 8 76 17 86 20 91
REMARK Flexibility Score: inf
ROOT
ATOM      1  C   UNL A   1      37.704  23.480  25.373  1.00  0.00     0.023 C 
ENDROOT
BRANCH   1   2
ATOM      2  C   UNL A   1      38.479  22.267  25.896  1.00  0.00     0.023 C 
BRANCH   2   3
ATOM      3  C   UNL A   1      39.767  22.586  26.642  1.00  0.00     0.116 C 
BRANCH   3   4
ATOM      4  N   UNL A   1      40.947  22.075  25.967  1.00  0.00    -0.352 N 
ATOM      5  O   UNL A   1      43.004  22.163  25.055  1.00  0.00    -0.269 OA
ATOM      6  C   UNL A   1      42.145  22.705  25.744  1.00  0.00     0.251 C 
ATOM      7  H   UNL A   1      40.878  21.154  25.623  1.00  0.00     0.163 HD
BRANCH   6   8
ATOM      8  C   UNL A   1      42.378  24.047  26.316  1.00  0.00     0.039 A 
ATOM      9  C   UNL A   1      42.233  25.194  25.529  1.00  0.00     0.014 A 
ATOM     10  C   UNL A   1      42.736  24.149  27.661  1.00  0.00     0.014 A 
ATOM     11  C   UNL A   1      42.527  26.441  26.069  1.00  0.00     0.010 A 
ATOM     12  C   UNL A   1      42.975  25.407  28.218  1.00  0.00     0.010 A 
ATOM     13  C   UNL A   1      42.877  26.559  27.425  1.00  0.00    -0.014 A 
BRANCH  13  14
ATOM     14  C   UNL A   1      43.033  27.902  28.029  1.00  0.00     0.031 A 
ATOM     15  C   UNL A   1      41.852  28.659  28.560  1.00  0.00     0.074 A 
ATOM     16  C   UNL A   1      44.271  28.427  28.098  1.00  0.00     0.049 A 
ATOM     17  N   UNL A   1      41.807  29.866  29.058  1.00  0.00    -0.248 NA
ATOM     18  C   UNL A   1      40.553  27.970  28.524  1.00  0.00     0.031 C 
ATOM     19  C   UNL A   1      45.492  27.762  27.636  1.00  0.00     0.029 A 
ATOM     20  N   UNL A   1      44.712  29.623  28.598  1.00  0.00    -0.354 N 
ATOM     21  C   UNL A   1      40.476  30.091  29.393  1.00  0.00     0.074 A 
ATOM     22  C   UNL A   1      39.744  28.898  29.015  1.00  0.00     0.031 C 
ATOM     23  C   UNL A   1      46.548  28.537  27.921  1.00  0.00     0.029 A 
ATOM     24  C   UNL A   1      46.075  29.778  28.520  1.00  0.00     0.049 A 
ATOM     25  H   UNL A   1      44.111  30.304  28.976  1.00  0.00     0.167 HD
ATOM     26  C   UNL A   1      39.925  31.191  29.965  1.00  0.00     0.034 A 
ATOM     27  C   UNL A   1      46.857  30.814  28.872  1.00  0.00     0.034 A 
ATOM     28  C   UNL A   1      40.672  32.376  30.316  1.00  0.00     0.049 A 
ATOM     29  C   UNL A   1      46.215  32.046  29.438  1.00  0.00     0.074 A 
ATOM     30  C   UNL A   1      40.209  33.560  30.862  1.00  0.00     0.029 A 
ATOM     31  N   UNL A   1      42.045  32.526  30.157  1.00  0.00    -0.354 N 
ATOM     32  N   UNL A   1      44.946  32.277  29.671  1.00  0.00    -0.248 NA
ATOM     33  C   UNL A   1      47.109  33.158  29.774  1.00  0.00     0.031 C 
ATOM     34  C   UNL A   1      41.291  34.441  30.989  1.00  0.00     0.029 A 
ATOM     35  C   UNL A   1      42.442  33.786  30.582  1.00  0.00     0.049 A 
ATOM     36  H   UNL A   1      42.649  31.837  29.796  1.00  0.00     0.167 HD
ATOM     37  C   UNL A   1      44.887  33.563  30.194  1.00  0.00     0.074 A 
ATOM     38  C   UNL A   1      46.251  34.052  30.247  1.00  0.00     0.031 C 
ATOM     39  C   UNL A   1      43.802  34.270  30.599  1.00  0.00     0.034 A 
BRANCH  26  40
ATOM     40  C   UNL A   1      38.435  31.176  30.197  1.00  0.00     0.023 A 
ATOM     41  C   UNL A   1      37.530  31.590  29.205  1.00  0.00     0.031 A 
ATOM     42  C   UNL A   1      37.912  30.751  31.431  1.00  0.00     0.131 A 
ATOM     43  C   UNL A   1      36.154  31.618  29.481  1.00  0.00     0.055 A 
ATOM     44  C   UNL A   1      36.538  30.720  31.679  1.00  0.00     0.041 A 
ATOM     45  F   UNL A   1      38.731  30.364  32.423  1.00  0.00    -0.206 F 
ATOM     46  C   UNL A   1      35.651  31.165  30.703  1.00  0.00     0.022 A 
BRANCH  43  47
ATOM     47  S   UNL A   1      35.035  32.352  28.258  1.00  0.00     0.124 S 
ATOM     48  O   UNL A   1      35.909  33.324  27.605  1.00  0.00    -0.237 OA
ATOM     49  O   UNL A   1      34.645  31.201  27.452  1.00  0.00    -0.237 OA
ATOM     50  O   UNL A   1      33.969  32.932  29.072  1.00  0.00    -0.744 OA
ENDBRANCH  43  47
ENDBRANCH  26  40
BRANCH  27  51
ATOM     51  C   UNL A   1      48.326  30.719  28.675  1.00  0.00     0.023 A 
ATOM     52  C   UNL A   1      48.941  31.332  27.575  1.00  0.00     0.031 A 
ATOM     53  C   UNL A   1      49.138  30.064  29.618  1.00  0.00     0.131 A 
ATOM     54  C   UNL A   1      50.337  31.273  27.440  1.00  0.00     0.055 A 
ATOM     55  C   UNL A   1      50.527  30.035  29.495  1.00  0.00     0.041 A 
ATOM     56  F   UNL A   1      48.590  29.481  30.696  1.00  0.00    -0.206 F 
ATOM     57  C   UNL A   1      51.133  30.641  28.399  1.00  0.00     0.022 A 
BRANCH  54  58
ATOM     58  S   UNL A   1      51.105  32.050  25.993  1.00  0.00     0.124 S 
ATOM     59  O   UNL A   1      51.316  30.902  25.118  1.00  0.00    -0.237 OA
ATOM     60  O   UNL A   1      50.080  32.999  25.572  1.00  0.00    -0.237 OA
ATOM     61  O   UNL A   1      52.320  32.654  26.536  1.00  0.00    -0.744 OA
ENDBRANCH  54  58
ENDBRANCH  27  51
BRANCH  39  62
ATOM     62  C   UNL A   1      44.062  35.640  31.162  1.00  0.00     0.023 A 
ATOM     63  C   UNL A   1      44.034  36.786  30.351  1.00  0.00     0.031 A 
ATOM     64  C   UNL A   1      44.352  35.796  32.528  1.00  0.00     0.131 A 
ATOM     65  C   UNL A   1      44.336  38.039  30.905  1.00  0.00     0.055 A 
ATOM     66  C   UNL A   1      44.606  37.050  33.085  1.00  0.00     0.041 A 
ATOM     67  F   UNL A   1      44.393  34.730  33.344  1.00  0.00    -0.206 F 
ATOM     68  C   UNL A   1      44.608  38.179  32.269  1.00  0.00     0.022 A 
BRANCH  65  69
ATOM     69  S   UNL A   1      44.427  39.480  29.809  1.00  0.00     0.124 S 
ATOM     70  O   UNL A   1      45.607  40.173  30.319  1.00  0.00    -0.237 OA
ATOM     71  O   UNL A   1      44.568  38.868  28.492  1.00  0.00    -0.237 OA
ATOM     72  O   UNL A   1      43.157  40.167  30.038  1.00  0.00    -0.744 OA
ENDBRANCH  65  69
ENDBRANCH  39  62
ENDBRANCH  13  14
ENDBRANCH   6   8
ENDBRANCH   3   4
ENDBRANCH   2   3
ENDBRANCH   1   2
BRANCH   1  73
ATOM     73  C   UNL A   1      36.342  23.163  24.750  1.00  0.00     0.116 C 
BRANCH  73  74
ATOM     74  N   UNL A   1      36.123  21.736  24.650  1.00  0.00    -0.352 N 
ATOM     75  C   UNL A   1      35.016  20.963  24.868  1.00  0.00     0.251 C 
ATOM     76  H   UNL A   1      36.919  21.226  24.374  1.00  0.00     0.163 HD
ATOM     77  O   UNL A   1      35.139  19.745  24.766  1.00  0.00    -0.269 OA
BRANCH  75  78
ATOM     78  C   UNL A   1      33.634  21.603  25.044  1.00  0.00     0.041 A 
ATOM     79  C   UNL A   1      33.464  21.988  26.813  1.00  0.00     0.015 A 
ATOM     80  C   UNL A   1      32.125  22.253  23.874  1.00  0.00     0.041 A 
ATOM     81  C   UNL A   1      32.032  22.918  27.335  1.00  0.00     0.018 A 
ATOM     82  C   UNL A   1      30.850  23.230  24.455  1.00  0.00     0.055 A 
ATOM     83  C   UNL A   1      30.786  23.518  26.185  1.00  0.00     0.041 A 
ATOM     84  Br  UNL A   1      29.516  24.763  26.846  1.00  0.00    -0.049 Br
BRANCH  82  85
ATOM     85  N   UNL A   1      30.419  24.096  23.429  1.00  0.00    -0.331 N 
ATOM     86  H   UNL A   1      29.800  23.687  22.781  1.00  0.00     0.169 HD
BRANCH  85  87
ATOM     87  C   UNL A   1      30.717  25.420  23.179  1.00  0.00     0.177 C 
ATOM     88  S   UNL A   1      29.606  26.541  23.769  1.00  0.00    -0.040 S 
BRANCH  87  89
ATOM     89  N   UNL A   1      31.849  25.985  22.500  1.00  0.00    -0.299 N 
ATOM     90  C   UNL A   1      33.164  26.706  22.411  1.00  0.00     0.257 C 
ATOM     91  H   UNL A   1      31.649  25.789  21.557  1.00  0.00     0.172 HD
ATOM     92  O   UNL A   1      33.790  26.674  21.355  1.00  0.00    -0.269 OA
BRANCH  90  93
ATOM     93  C   UNL A   1      33.772  27.399  23.627  1.00  0.00     0.040 A 
ATOM     94  C   UNL A   1      33.830  26.291  25.051  1.00  0.00     0.017 A 
ATOM     95  C   UNL A   1      32.969  28.949  23.646  1.00  0.00     0.017 A 
ATOM     96  C   UNL A   1      32.827  26.537  26.511  1.00  0.00     0.040 A 
ATOM     97  C   UNL A   1      31.936  29.325  25.032  1.00  0.00     0.040 A 
ATOM     98  C   UNL A   1      31.789  28.019  26.572  1.00  0.00     0.123 A 
ATOM     99  F   UNL A   1      30.987  28.038  27.671  1.00  0.00    -0.207 F 
ENDBRANCH  90  93
ENDBRANCH  87  89
ENDBRANCH  85  87
ENDBRANCH  82  85
ENDBRANCH  75  78
ENDBRANCH  73  74
ENDBRANCH   1  73
TORSDOF 18
ENDMDL
