MODEL 1
REMARK VINA RESULT:     -11.1      0.000      0.000
REMARK SMILES CCOc1ccc(NC(=O)CC2(CC(=O)NCCCCNC(=O)c3ccc(-c4c5nc(c(-c6cc(S(=O)(=O)[O-])ccc6F)c6ccc([nH]6)c(-c6cc(S(=O)(=O)[O-])ccc6F)c6nc(c(-c7cc(S(=O)(=O)[O-])ccc7F)c7ccc4[nH]7)C=C6)C=C5)cc3)CCCCC2)cc1
REMARK SMILES IDX 17 1 16 2 14 3 15 4 13 6 12 7 87 8 91 9 88 10 90 11 89 12
REMARK SMILES IDX 11 13 9 14 8 15 10 17 7 18 4 19 5 20 93 21 6 22 92 23 3 24
REMARK SMILES IDX 2 25 1 26 18 27 19 28 20 29 21 30 22 31 23 33 24 34 25 35
REMARK SMILES IDX 86 36 26 37 85 38 27 39 28 40 29 41 79 42 30 43 84 44 78 45
REMARK SMILES IDX 80 46 31 47 83 48 77 49 76 50 32 52 64 53 44 54 63 55 45 56
REMARK SMILES IDX 48 57 62 58 81 59 46 60 47 61 61 63 82 64 49 65 33 66 34 67
REMARK SMILES IDX 42 68 35 69 41 70 43 71 40 72 36 73 37 74 38 75 39 76 65 77
REMARK SMILES IDX 66 78 74 79 67 80 73 81 75 82 72 83 68 84 69 85 70 86 71 87
REMARK SMILES IDX 50 88 51 89 59 90 52 91 58 92 60 93 57 94 53 95 54 96 55 97
REMARK SMILES IDX 56 98
REMARK H PARENT 16 5 8 16 21 32 80 51 48 62
REMARK Flexibility Score: inf
ROOT
ATOM      1  C   UNL A   1      34.032  24.853  23.117  1.00  0.00     0.116 C 
ENDROOT
BRANCH   1   2
ATOM      2  N   UNL A   1      33.960  26.191  22.569  1.00  0.00    -0.356 N 
ATOM      3  C   UNL A   1      33.723  27.391  23.159  1.00  0.00     0.220 C 
ATOM      4  O   UNL A   1      34.092  28.417  22.576  1.00  0.00    -0.275 OA
ATOM      5  H   UNL A   1      34.107  26.240  21.597  1.00  0.00     0.163 HD
BRANCH   3   6
ATOM      6  C   UNL A   1      33.112  27.543  24.535  1.00  0.00     0.107 C 
BRANCH   6   7
ATOM      7  C   UNL A   1      31.587  27.831  24.745  1.00  0.00    -0.012 C 
ATOM      8  C   UNL A   1      31.426  29.396  24.735  1.00  0.00     0.008 C 
ATOM      9  C   UNL A   1      31.069  27.451  26.148  1.00  0.00     0.008 C 
ATOM     10  C   UNL A   1      32.214  30.103  25.851  1.00  0.00     0.001 C 
ATOM     11  C   UNL A   1      31.909  28.024  27.291  1.00  0.00     0.001 C 
ATOM     12  C   UNL A   1      31.936  29.543  27.246  1.00  0.00     0.000 C 
BRANCH   7  13
ATOM     13  C   UNL A   1      30.734  27.243  23.551  1.00  0.00     0.108 C 
BRANCH  13  14
ATOM     14  C   UNL A   1      29.546  26.331  23.859  1.00  0.00     0.224 C 
ATOM     15  N   UNL A   1      29.617  25.005  24.179  1.00  0.00    -0.326 N 
ATOM     16  H   UNL A   1      28.732  24.595  24.308  1.00  0.00     0.169 HD
ATOM     17  O   UNL A   1      28.408  26.825  23.855  1.00  0.00    -0.275 OA
BRANCH  15  18
ATOM     18  C   UNL A   1      30.672  24.093  24.366  1.00  0.00     0.041 A 
ATOM     19  C   UNL A   1      32.070  21.704  24.682  1.00  0.00     0.119 A 
ATOM     20  C   UNL A   1      31.980  22.606  25.738  1.00  0.00     0.048 A 
ATOM     21  C   UNL A   1      31.727  22.119  23.405  1.00  0.00     0.048 A 
ATOM     22  C   UNL A   1      31.274  23.806  25.580  1.00  0.00     0.030 A 
ATOM     23  C   UNL A   1      31.058  23.343  23.245  1.00  0.00     0.030 A 
BRANCH  19  24
ATOM     24  O   UNL A   1      32.030  20.379  25.034  1.00  0.00    -0.494 OA
BRANCH  24  25
ATOM     25  C   UNL A   1      33.043  19.537  24.500  1.00  0.00     0.226 C 
ATOM     26  C   UNL A   1      34.424  20.040  24.885  1.00  0.00     0.049 C 
ENDBRANCH  24  25
ENDBRANCH  19  24
ENDBRANCH  15  18
ENDBRANCH  13  14
ENDBRANCH   7  13
ENDBRANCH   6   7
ENDBRANCH   3   6
ENDBRANCH   1   2
BRANCH   1  27
ATOM     27  C   UNL A   1      34.768  24.752  24.454  1.00  0.00     0.023 C 
BRANCH  27  28
ATOM     28  C   UNL A   1      35.698  23.580  24.710  1.00  0.00     0.023 C 
BRANCH  28  29
ATOM     29  C   UNL A   1      36.636  23.688  25.885  1.00  0.00     0.116 C 
BRANCH  29  30
ATOM     30  N   UNL A   1      37.545  22.561  25.991  1.00  0.00    -0.352 N 
ATOM     31  C   UNL A   1      38.880  22.577  26.331  1.00  0.00     0.251 C 
ATOM     32  H   UNL A   1      37.159  21.677  25.796  1.00  0.00     0.163 HD
ATOM     33  O   UNL A   1      39.556  21.559  26.219  1.00  0.00    -0.269 OA
BRANCH  31  34
ATOM     34  C   UNL A   1      39.494  23.847  26.784  1.00  0.00     0.039 A 
ATOM     35  C   UNL A   1      39.990  24.744  25.836  1.00  0.00     0.014 A 
ATOM     36  C   UNL A   1      39.503  24.184  28.141  1.00  0.00     0.014 A 
ATOM     37  C   UNL A   1      40.425  26.008  26.246  1.00  0.00     0.010 A 
ATOM     38  C   UNL A   1      39.817  25.482  28.526  1.00  0.00     0.010 A 
ATOM     39  C   UNL A   1      40.301  26.404  27.587  1.00  0.00    -0.014 A 
BRANCH  39  40
ATOM     40  C   UNL A   1      40.717  27.758  28.045  1.00  0.00     0.031 A 
ATOM     41  C   UNL A   1      42.180  28.121  28.050  1.00  0.00     0.074 A 
ATOM     42  C   UNL A   1      39.800  28.633  28.507  1.00  0.00     0.049 A 
ATOM     43  N   UNL A   1      42.764  29.206  28.489  1.00  0.00    -0.248 NA
ATOM     44  C   UNL A   1      43.112  27.108  27.530  1.00  0.00     0.031 C 
ATOM     45  C   UNL A   1      38.359  28.384  28.595  1.00  0.00     0.029 A 
ATOM     46  N   UNL A   1      39.943  29.909  28.992  1.00  0.00    -0.354 N 
ATOM     47  C   UNL A   1      44.130  28.996  28.314  1.00  0.00     0.074 A 
ATOM     48  C   UNL A   1      44.286  27.650  27.810  1.00  0.00     0.031 C 
ATOM     49  C   UNL A   1      37.750  29.483  29.067  1.00  0.00     0.029 A 
ATOM     50  C   UNL A   1      38.755  30.499  29.365  1.00  0.00     0.049 A 
ATOM     51  H   UNL A   1      40.813  30.361  29.068  1.00  0.00     0.167 HD
ATOM     52  C   UNL A   1      45.155  29.857  28.519  1.00  0.00     0.034 A 
ATOM     53  C   UNL A   1      38.508  31.714  29.893  1.00  0.00     0.034 A 
ATOM     54  C   UNL A   1      44.979  31.206  28.995  1.00  0.00     0.049 A 
ATOM     55  C   UNL A   1      39.668  32.647  30.140  1.00  0.00     0.074 A 
ATOM     56  C   UNL A   1      45.938  32.187  29.178  1.00  0.00     0.029 A 
ATOM     57  N   UNL A   1      43.763  31.764  29.367  1.00  0.00    -0.354 N 
ATOM     58  N   UNL A   1      40.948  32.452  29.916  1.00  0.00    -0.248 NA
ATOM     59  C   UNL A   1      39.350  33.965  30.704  1.00  0.00     0.031 C 
ATOM     60  C   UNL A   1      45.313  33.311  29.728  1.00  0.00     0.029 A 
ATOM     61  C   UNL A   1      43.952  33.062  29.816  1.00  0.00     0.049 A 
ATOM     62  H   UNL A   1      42.893  31.305  29.320  1.00  0.00     0.167 HD
ATOM     63  C   UNL A   1      41.582  33.634  30.289  1.00  0.00     0.074 A 
ATOM     64  C   UNL A   1      40.543  34.541  30.731  1.00  0.00     0.031 C 
ATOM     65  C   UNL A   1      42.904  33.946  30.269  1.00  0.00     0.034 A 
BRANCH  52  66
ATOM     66  C   UNL A   1      46.552  29.351  28.245  1.00  0.00     0.023 A 
ATOM     67  C   UNL A   1      47.331  28.746  29.249  1.00  0.00     0.031 A 
ATOM     68  C   UNL A   1      47.132  29.509  26.973  1.00  0.00     0.131 A 
ATOM     69  C   UNL A   1      48.666  28.405  28.991  1.00  0.00     0.055 A 
ATOM     70  C   UNL A   1      48.433  29.084  26.698  1.00  0.00     0.041 A 
ATOM     71  F   UNL A   1      46.449  30.100  25.980  1.00  0.00    -0.206 F 
ATOM     72  C   UNL A   1      49.216  28.544  27.715  1.00  0.00     0.022 A 
BRANCH  69  73
ATOM     73  S   UNL A   1      49.721  27.930  30.389  1.00  0.00     0.124 S 
ATOM     74  O   UNL A   1      50.660  27.011  29.749  1.00  0.00    -0.237 OA
ATOM     75  O   UNL A   1      50.272  29.210  30.817  1.00  0.00    -0.237 OA
ATOM     76  O   UNL A   1      48.789  27.305  31.325  1.00  0.00    -0.744 OA
ENDBRANCH  69  73
ENDBRANCH  52  66
BRANCH  53  77
ATOM     77  C   UNL A   1      37.115  32.124  30.240  1.00  0.00     0.023 A 
ATOM     78  C   UNL A   1      36.236  32.606  29.257  1.00  0.00     0.031 A 
ATOM     79  C   UNL A   1      36.656  32.083  31.569  1.00  0.00     0.131 A 
ATOM     80  C   UNL A   1      34.964  33.074  29.622  1.00  0.00     0.055 A 
ATOM     81  C   UNL A   1      35.370  32.498  31.919  1.00  0.00     0.041 A 
ATOM     82  F   UNL A   1      37.454  31.629  32.549  1.00  0.00    -0.206 F 
ATOM     83  C   UNL A   1      34.520  33.010  30.945  1.00  0.00     0.022 A 
BRANCH  80  84
ATOM     84  S   UNL A   1      33.926  33.852  28.353  1.00  0.00     0.124 S 
ATOM     85  O   UNL A   1      33.306  32.691  27.725  1.00  0.00    -0.237 OA
ATOM     86  O   UNL A   1      33.047  34.694  29.157  1.00  0.00    -0.237 OA
ATOM     87  O   UNL A   1      34.888  34.573  27.522  1.00  0.00    -0.744 OA
ENDBRANCH  80  84
ENDBRANCH  53  77
BRANCH  65  88
ATOM     88  C   UNL A   1      43.287  35.336  30.713  1.00  0.00     0.023 A 
ATOM     89  C   UNL A   1      43.431  35.662  32.071  1.00  0.00     0.031 A 
ATOM     90  C   UNL A   1      43.508  36.348  29.761  1.00  0.00     0.131 A 
ATOM     91  C   UNL A   1      43.731  36.981  32.445  1.00  0.00     0.055 A 
ATOM     92  C   UNL A   1      43.868  37.643  30.136  1.00  0.00     0.041 A 
ATOM     93  F   UNL A   1      43.383  36.092  28.449  1.00  0.00    -0.206 F 
ATOM     94  C   UNL A   1      43.969  37.968  31.486  1.00  0.00     0.022 A 
BRANCH  91  95
ATOM     95  S   UNL A   1      43.716  37.410  34.207  1.00  0.00     0.124 S 
ATOM     96  O   UNL A   1      43.463  36.114  34.831  1.00  0.00    -0.237 OA
ATOM     97  O   UNL A   1      45.050  37.964  34.406  1.00  0.00    -0.237 OA
ATOM     98  O   UNL A   1      42.622  38.374  34.316  1.00  0.00    -0.744 OA
ENDBRANCH  91  95
ENDBRANCH  65  88
ENDBRANCH  39  40
ENDBRANCH  31  34
ENDBRANCH  29  30
ENDBRANCH  28  29
ENDBRANCH  27  28
ENDBRANCH   1  27
TORSDOF 20
ENDMDL
MODEL 2
REMARK VINA RESULT:     -11.0      4.454      9.054
REMARK SMILES CCOc1ccc(NC(=O)CC2(CC(=O)NCCCCNC(=O)c3ccc(-c4c5nc(c(-c6cc(S(=O)(=O)[O-])ccc6F)c6ccc([nH]6)c(-c6cc(S(=O)(=O)[O-])ccc6F)c6nc(c(-c7cc(S(=O)(=O)[O-])ccc7F)c7ccc4[nH]7)C=C6)C=C5)cc3)CCCCC2)cc1
REMARK SMILES IDX 17 1 16 2 14 3 15 4 13 6 12 7 87 8 91 9 88 10 90 11 89 12
REMARK SMILES IDX 11 13 9 14 8 15 10 17 7 18 4 19 5 20 93 21 6 22 92 23 3 24
REMARK SMILES IDX 2 25 1 26 18 27 19 28 20 29 21 30 22 31 23 33 24 34 25 35
REMARK SMILES IDX 86 36 26 37 85 38 27 39 28 40 29 41 79 42 30 43 84 44 78 45
REMARK SMILES IDX 80 46 31 47 83 48 77 49 76 50 32 52 64 53 44 54 63 55 45 56
REMARK SMILES IDX 48 57 62 58 81 59 46 60 47 61 61 63 82 64 49 65 33 66 34 67
REMARK SMILES IDX 42 68 35 69 41 70 43 71 40 72 36 73 37 74 38 75 39 76 65 77
REMARK SMILES IDX 66 78 74 79 67 80 73 81 75 82 72 83 68 84 69 85 70 86 71 87
REMARK SMILES IDX 50 88 51 89 59 90 52 91 58 92 60 93 57 94 53 95 54 96 55 97
REMARK SMILES IDX 56 98
REMARK H PARENT 16 5 8 16 21 32 80 51 48 62
REMARK Flexibility Score: inf
ROOT
ATOM      1  C   UNL A   1      31.379  29.525  25.306  1.00  0.00     0.116 C 
ENDROOT
BRANCH   1   2
ATOM      2  N   UNL A   1      31.121  29.259  23.906  1.00  0.00    -0.356 N 
ATOM      3  C   UNL A   1      30.535  28.201  23.286  1.00  0.00     0.220 C 
ATOM      4  O   UNL A   1      30.077  28.365  22.150  1.00  0.00    -0.275 OA
ATOM      5  H   UNL A   1      31.424  29.969  23.296  1.00  0.00     0.163 HD
BRANCH   3   6
ATOM      6  C   UNL A   1      30.329  26.854  23.942  1.00  0.00     0.107 C 
BRANCH   6   7
ATOM      7  C   UNL A   1      31.345  25.675  23.765  1.00  0.00    -0.012 C 
ATOM      8  C   UNL A   1      30.753  24.457  24.566  1.00  0.00     0.008 C 
ATOM      9  C   UNL A   1      32.699  25.909  24.467  1.00  0.00     0.008 C 
ATOM     10  C   UNL A   1      30.583  24.733  26.070  1.00  0.00     0.001 C 
ATOM     11  C   UNL A   1      32.570  26.321  25.935  1.00  0.00     0.001 C 
ATOM     12  C   UNL A   1      31.852  25.254  26.744  1.00  0.00     0.000 C 
BRANCH   7  13
ATOM     13  C   UNL A   1      31.458  25.253  22.246  1.00  0.00     0.108 C 
BRANCH  13  14
ATOM     14  C   UNL A   1      32.803  24.764  21.705  1.00  0.00     0.224 C 
ATOM     15  N   UNL A   1      33.456  23.629  22.092  1.00  0.00    -0.326 N 
ATOM     16  H   UNL A   1      34.325  23.516  21.643  1.00  0.00     0.169 HD
ATOM     17  O   UNL A   1      33.353  25.426  20.811  1.00  0.00    -0.275 OA
BRANCH  15  18
ATOM     18  C   UNL A   1      33.167  22.585  22.989  1.00  0.00     0.041 A 
ATOM     19  C   UNL A   1      33.369  20.201  24.417  1.00  0.00     0.119 A 
ATOM     20  C   UNL A   1      32.349  20.374  23.486  1.00  0.00     0.048 A 
ATOM     21  C   UNL A   1      34.091  21.304  24.844  1.00  0.00     0.048 A 
ATOM     22  C   UNL A   1      32.249  21.571  22.765  1.00  0.00     0.030 A 
ATOM     23  C   UNL A   1      33.957  22.516  24.146  1.00  0.00     0.030 A 
BRANCH  19  24
ATOM     24  O   UNL A   1      33.895  18.937  24.487  1.00  0.00    -0.494 OA
BRANCH  24  25
ATOM     25  C   UNL A   1      33.120  17.881  23.935  1.00  0.00     0.226 C 
ATOM     26  C   UNL A   1      33.980  16.968  23.079  1.00  0.00     0.049 C 
ENDBRANCH  24  25
ENDBRANCH  19  24
ENDBRANCH  15  18
ENDBRANCH  13  14
ENDBRANCH   7  13
ENDBRANCH   6   7
ENDBRANCH   3   6
ENDBRANCH   1   2
BRANCH   1  27
ATOM     27  C   UNL A   1      31.552  31.005  25.651  1.00  0.00     0.023 C 
BRANCH  27  28
ATOM     28  C   UNL A   1      31.894  31.406  27.075  1.00  0.00     0.023 C 
BRANCH  28  29
ATOM     29  C   UNL A   1      33.111  32.272  27.274  1.00  0.00     0.116 C 
BRANCH  29  30
ATOM     30  N   UNL A   1      32.783  33.634  27.652  1.00  0.00    -0.352 N 
ATOM     31  C   UNL A   1      33.312  34.379  28.683  1.00  0.00     0.251 C 
ATOM     32  H   UNL A   1      32.098  34.080  27.105  1.00  0.00     0.163 HD
ATOM     33  O   UNL A   1      32.816  35.462  28.978  1.00  0.00    -0.269 OA
BRANCH  31  34
ATOM     34  C   UNL A   1      34.453  33.833  29.456  1.00  0.00     0.039 A 
ATOM     35  C   UNL A   1      34.206  32.943  30.503  1.00  0.00     0.014 A 
ATOM     36  C   UNL A   1      35.767  34.139  29.091  1.00  0.00     0.014 A 
ATOM     37  C   UNL A   1      35.280  32.304  31.131  1.00  0.00     0.010 A 
ATOM     38  C   UNL A   1      36.820  33.411  29.631  1.00  0.00     0.010 A 
ATOM     39  C   UNL A   1      36.592  32.498  30.671  1.00  0.00    -0.014 A 
BRANCH  39  40
ATOM     40  C   UNL A   1      37.751  31.801  31.293  1.00  0.00     0.031 A 
ATOM     41  C   UNL A   1      38.226  32.227  32.659  1.00  0.00     0.074 A 
ATOM     42  C   UNL A   1      38.407  30.836  30.618  1.00  0.00     0.049 A 
ATOM     43  N   UNL A   1      39.263  31.817  33.342  1.00  0.00    -0.248 NA
ATOM     44  C   UNL A   1      37.453  33.288  33.324  1.00  0.00     0.031 C 
ATOM     45  C   UNL A   1      38.073  30.365  29.272  1.00  0.00     0.029 A 
ATOM     46  N   UNL A   1      39.496  30.077  30.970  1.00  0.00    -0.354 N 
ATOM     47  C   UNL A   1      39.275  32.581  34.506  1.00  0.00     0.074 A 
ATOM     48  C   UNL A   1      38.193  33.534  34.393  1.00  0.00     0.031 C 
ATOM     49  C   UNL A   1      38.913  29.375  28.929  1.00  0.00     0.029 A 
ATOM     50  C   UNL A   1      39.879  29.172  30.005  1.00  0.00     0.049 A 
ATOM     51  H   UNL A   1      39.961  30.170  31.832  1.00  0.00     0.167 HD
ATOM     52  C   UNL A   1      40.088  32.475  35.585  1.00  0.00     0.034 A 
ATOM     53  C   UNL A   1      40.896  28.288  29.987  1.00  0.00     0.034 A 
ATOM     54  C   UNL A   1      41.144  31.500  35.693  1.00  0.00     0.049 A 
ATOM     55  C   UNL A   1      41.807  28.205  31.187  1.00  0.00     0.074 A 
ATOM     56  C   UNL A   1      41.986  31.259  36.763  1.00  0.00     0.029 A 
ATOM     57  N   UNL A   1      41.505  30.607  34.693  1.00  0.00    -0.354 N 
ATOM     58  N   UNL A   1      41.769  28.899  32.303  1.00  0.00    -0.248 NA
ATOM     59  C   UNL A   1      42.893  27.219  31.129  1.00  0.00     0.031 C 
ATOM     60  C   UNL A   1      42.902  30.271  36.385  1.00  0.00     0.029 A 
ATOM     61  C   UNL A   1      42.583  29.840  35.106  1.00  0.00     0.049 A 
ATOM     62  H   UNL A   1      41.061  30.529  33.818  1.00  0.00     0.167 HD
ATOM     63  C   UNL A   1      42.811  28.411  33.088  1.00  0.00     0.074 A 
ATOM     64  C   UNL A   1      43.444  27.354  32.326  1.00  0.00     0.031 C 
ATOM     65  C   UNL A   1      43.211  28.800  34.326  1.00  0.00     0.034 A 
BRANCH  52  66
ATOM     66  C   UNL A   1      39.870  33.453  36.716  1.00  0.00     0.023 A 
ATOM     67  C   UNL A   1      40.699  34.576  36.894  1.00  0.00     0.031 A 
ATOM     68  C   UNL A   1      38.845  33.240  37.655  1.00  0.00     0.131 A 
ATOM     69  C   UNL A   1      40.547  35.388  38.027  1.00  0.00     0.055 A 
ATOM     70  C   UNL A   1      38.641  34.106  38.732  1.00  0.00     0.041 A 
ATOM     71  F   UNL A   1      38.035  32.174  37.554  1.00  0.00    -0.206 F 
ATOM     72  C   UNL A   1      39.506  35.178  38.934  1.00  0.00     0.022 A 
BRANCH  69  73
ATOM     73  S   UNL A   1      41.828  36.623  38.383  1.00  0.00     0.124 S 
ATOM     74  O   UNL A   1      41.051  37.669  39.042  1.00  0.00    -0.237 OA
ATOM     75  O   UNL A   1      42.752  35.882  39.232  1.00  0.00    -0.237 OA
ATOM     76  O   UNL A   1      42.339  36.977  37.060  1.00  0.00    -0.744 OA
ENDBRANCH  69  73
ENDBRANCH  52  66
BRANCH  53  77
ATOM     77  C   UNL A   1      41.126  27.415  28.797  1.00  0.00     0.023 A 
ATOM     78  C   UNL A   1      42.116  27.725  27.852  1.00  0.00     0.031 A 
ATOM     79  C   UNL A   1      40.326  26.282  28.564  1.00  0.00     0.131 A 
ATOM     80  C   UNL A   1      42.251  26.943  26.695  1.00  0.00     0.055 A 
ATOM     81  C   UNL A   1      40.500  25.474  27.438  1.00  0.00     0.041 A 
ATOM     82  F   UNL A   1      39.364  25.938  29.436  1.00  0.00    -0.206 F 
ATOM     83  C   UNL A   1      41.458  25.811  26.488  1.00  0.00     0.022 A 
BRANCH  80  84
ATOM     84  S   UNL A   1      43.421  27.476  25.414  1.00  0.00     0.124 S 
ATOM     85  O   UNL A   1      44.198  28.486  26.125  1.00  0.00    -0.237 OA
ATOM     86  O   UNL A   1      44.116  26.232  25.103  1.00  0.00    -0.237 OA
ATOM     87  O   UNL A   1      42.554  27.986  24.354  1.00  0.00    -0.744 OA
ENDBRANCH  80  84
ENDBRANCH  53  77
BRANCH  65  88
ATOM     88  C   UNL A   1      44.370  28.053  34.938  1.00  0.00     0.023 A 
ATOM     89  C   UNL A   1      44.199  26.797  35.543  1.00  0.00     0.031 A 
ATOM     90  C   UNL A   1      45.662  28.607  34.917  1.00  0.00     0.131 A 
ATOM     91  C   UNL A   1      45.290  26.160  36.153  1.00  0.00     0.055 A 
ATOM     92  C   UNL A   1      46.757  27.940  35.469  1.00  0.00     0.041 A 
ATOM     93  F   UNL A   1      45.883  29.806  34.353  1.00  0.00    -0.206 F 
ATOM     94  C   UNL A   1      46.572  26.715  36.103  1.00  0.00     0.022 A 
BRANCH  91  95
ATOM     95  S   UNL A   1      44.995  24.637  37.092  1.00  0.00     0.124 S 
ATOM     96  O   UNL A   1      46.330  24.050  37.144  1.00  0.00    -0.237 OA
ATOM     97  O   UNL A   1      44.473  25.145  38.356  1.00  0.00    -0.237 OA
ATOM     98  O   UNL A   1      44.028  23.910  36.271  1.00  0.00    -0.744 OA
ENDBRANCH  91  95
ENDBRANCH  65  88
ENDBRANCH  39  40
ENDBRANCH  31  34
ENDBRANCH  29  30
ENDBRANCH  28  29
ENDBRANCH  27  28
ENDBRANCH   1  27
TORSDOF 20
ENDMDL
MODEL 3
REMARK VINA RESULT:     -10.9      4.875      7.909
REMARK SMILES CCOc1ccc(NC(=O)CC2(CC(=O)NCCCCNC(=O)c3ccc(-c4c5nc(c(-c6cc(S(=O)(=O)[O-])ccc6F)c6ccc([nH]6)c(-c6cc(S(=O)(=O)[O-])ccc6F)c6nc(c(-c7cc(S(=O)(=O)[O-])ccc7F)c7ccc4[nH]7)C=C6)C=C5)cc3)CCCCC2)cc1
REMARK SMILES IDX 17 1 16 2 14 3 15 4 13 6 12 7 87 8 91 9 88 10 90 11 89 12
REMARK SMILES IDX 11 13 9 14 8 15 10 17 7 18 4 19 5 20 93 21 6 22 92 23 3 24
REMARK SMILES IDX 2 25 1 26 18 27 19 28 20 29 21 30 22 31 23 33 24 34 25 35
REMARK SMILES IDX 86 36 26 37 85 38 27 39 28 40 29 41 79 42 30 43 84 44 78 45
REMARK SMILES IDX 80 46 31 47 83 48 77 49 76 50 32 52 64 53 44 54 63 55 45 56
REMARK SMILES IDX 48 57 62 58 81 59 46 60 47 61 61 63 82 64 49 65 33 66 34 67
REMARK SMILES IDX 42 68 35 69 41 70 43 71 40 72 36 73 37 74 38 75 39 76 65 77
REMARK SMILES IDX 66 78 74 79 67 80 73 81 75 82 72 83 68 84 69 85 70 86 71 87
REMARK SMILES IDX 50 88 51 89 59 90 52 91 58 92 60 93 57 94 53 95 54 96 55 97
REMARK SMILES IDX 56 98
REMARK H PARENT 16 5 8 16 21 32 80 51 48 62
REMARK Flexibility Score: inf
ROOT
ATOM      1  C   UNL A   1      33.118  29.543  25.445  1.00  0.00     0.116 C 
ENDROOT
BRANCH   1   2
ATOM      2  N   UNL A   1      33.321  29.266  24.038  1.00  0.00    -0.356 N 
ATOM      3  C   UNL A   1      33.180  28.122  23.320  1.00  0.00     0.220 C 
ATOM      4  O   UNL A   1      33.027  28.211  22.096  1.00  0.00    -0.275 OA
ATOM      5  H   UNL A   1      33.613  30.043  23.510  1.00  0.00     0.163 HD
BRANCH   3   6
ATOM      6  C   UNL A   1      33.107  26.745  23.941  1.00  0.00     0.107 C 
BRANCH   6   7
ATOM      7  C   UNL A   1      31.834  25.841  23.820  1.00  0.00    -0.012 C 
ATOM      8  C   UNL A   1      30.600  26.769  24.125  1.00  0.00     0.008 C 
ATOM      9  C   UNL A   1      31.725  24.768  24.924  1.00  0.00     0.008 C 
ATOM     10  C   UNL A   1      30.628  27.387  25.533  1.00  0.00     0.001 C 
ATOM     11  C   UNL A   1      31.885  25.323  26.341  1.00  0.00     0.001 C 
ATOM     12  C   UNL A   1      30.816  26.360  26.649  1.00  0.00     0.000 C 
BRANCH   7  13
ATOM     13  C   UNL A   1      31.676  25.284  22.349  1.00  0.00     0.108 C 
BRANCH  13  14
ATOM     14  C   UNL A   1      32.894  24.686  21.641  1.00  0.00     0.224 C 
ATOM     15  N   UNL A   1      33.557  23.552  22.013  1.00  0.00    -0.326 N 
ATOM     16  H   UNL A   1      34.335  23.360  21.441  1.00  0.00     0.169 HD
ATOM     17  O   UNL A   1      33.313  25.248  20.618  1.00  0.00    -0.275 OA
BRANCH  15  18
ATOM     18  C   UNL A   1      33.380  22.596  23.029  1.00  0.00     0.041 A 
ATOM     19  C   UNL A   1      33.664  20.282  24.554  1.00  0.00     0.119 A 
ATOM     20  C   UNL A   1      32.478  20.525  23.868  1.00  0.00     0.048 A 
ATOM     21  C   UNL A   1      34.576  21.313  24.720  1.00  0.00     0.048 A 
ATOM     22  C   UNL A   1      32.336  21.688  23.098  1.00  0.00     0.030 A 
ATOM     23  C   UNL A   1      34.407  22.494  23.980  1.00  0.00     0.030 A 
BRANCH  19  24
ATOM     24  O   UNL A   1      34.059  18.970  24.601  1.00  0.00    -0.494 OA
BRANCH  24  25
ATOM     25  C   UNL A   1      33.183  18.008  24.027  1.00  0.00     0.226 C 
ATOM     26  C   UNL A   1      32.570  17.126  25.102  1.00  0.00     0.049 C 
ENDBRANCH  24  25
ENDBRANCH  19  24
ENDBRANCH  15  18
ENDBRANCH  13  14
ENDBRANCH   7  13
ENDBRANCH   6   7
ENDBRANCH   3   6
ENDBRANCH   1   2
BRANCH   1  27
ATOM     27  C   UNL A   1      31.952  30.488  25.746  1.00  0.00     0.023 C 
BRANCH  27  28
ATOM     28  C   UNL A   1      31.953  31.290  27.034  1.00  0.00     0.023 C 
BRANCH  28  29
ATOM     29  C   UNL A   1      33.148  32.169  27.298  1.00  0.00     0.116 C 
BRANCH  29  30
ATOM     30  N   UNL A   1      32.791  33.556  27.539  1.00  0.00    -0.352 N 
ATOM     31  C   UNL A   1      33.276  34.399  28.515  1.00  0.00     0.251 C 
ATOM     32  H   UNL A   1      32.119  33.939  26.932  1.00  0.00     0.163 HD
ATOM     33  O   UNL A   1      32.756  35.496  28.694  1.00  0.00    -0.269 OA
BRANCH  31  34
ATOM     34  C   UNL A   1      34.396  33.943  29.370  1.00  0.00     0.039 A 
ATOM     35  C   UNL A   1      34.150  33.014  30.384  1.00  0.00     0.014 A 
ATOM     36  C   UNL A   1      35.702  34.373  29.116  1.00  0.00     0.014 A 
ATOM     37  C   UNL A   1      35.224  32.463  31.088  1.00  0.00     0.010 A 
ATOM     38  C   UNL A   1      36.771  33.733  29.731  1.00  0.00     0.010 A 
ATOM     39  C   UNL A   1      36.546  32.784  30.738  1.00  0.00    -0.014 A 
BRANCH  39  40
ATOM     40  C   UNL A   1      37.710  32.181  31.443  1.00  0.00     0.031 A 
ATOM     41  C   UNL A   1      38.472  31.056  30.789  1.00  0.00     0.074 A 
ATOM     42  C   UNL A   1      38.046  32.597  32.682  1.00  0.00     0.049 A 
ATOM     43  N   UNL A   1      39.454  30.335  31.261  1.00  0.00    -0.248 NA
ATOM     44  C   UNL A   1      38.037  30.665  29.438  1.00  0.00     0.031 C 
ATOM     45  C   UNL A   1      37.360  33.645  33.440  1.00  0.00     0.029 A 
ATOM     46  N   UNL A   1      39.050  32.186  33.524  1.00  0.00    -0.354 N 
ATOM     47  C   UNL A   1      39.742  29.396  30.274  1.00  0.00     0.074 A 
ATOM     48  C   UNL A   1      38.774  29.588  29.217  1.00  0.00     0.031 C 
ATOM     49  C   UNL A   1      37.984  33.820  34.616  1.00  0.00     0.029 A 
ATOM     50  C   UNL A   1      39.083  32.864  34.722  1.00  0.00     0.049 A 
ATOM     51  H   UNL A   1      39.686  31.472  33.294  1.00  0.00     0.167 HD
ATOM     52  C   UNL A   1      40.743  28.483  30.234  1.00  0.00     0.034 A 
ATOM     53  C   UNL A   1      39.899  32.726  35.786  1.00  0.00     0.034 A 
ATOM     54  C   UNL A   1      41.718  28.325  31.284  1.00  0.00     0.049 A 
ATOM     55  C   UNL A   1      40.990  31.684  35.732  1.00  0.00     0.074 A 
ATOM     56  C   UNL A   1      42.812  27.479  31.322  1.00  0.00     0.029 A 
ATOM     57  N   UNL A   1      41.714  29.025  32.483  1.00  0.00    -0.354 N 
ATOM     58  N   UNL A   1      41.281  30.842  34.766  1.00  0.00    -0.248 NA
ATOM     59  C   UNL A   1      41.863  31.577  36.907  1.00  0.00     0.031 C 
ATOM     60  C   UNL A   1      43.426  27.615  32.572  1.00  0.00     0.029 A 
ATOM     61  C   UNL A   1      42.763  28.602  33.284  1.00  0.00     0.049 A 
ATOM     62  H   UNL A   1      41.061  29.720  32.729  1.00  0.00     0.167 HD
ATOM     63  C   UNL A   1      42.389  30.125  35.210  1.00  0.00     0.074 A 
ATOM     64  C   UNL A   1      42.723  30.647  36.519  1.00  0.00     0.031 C 
ATOM     65  C   UNL A   1      43.071  29.124  34.595  1.00  0.00     0.034 A 
BRANCH  52  66
ATOM     66  C   UNL A   1      40.812  27.582  29.023  1.00  0.00     0.023 A 
ATOM     67  C   UNL A   1      41.761  27.783  28.004  1.00  0.00     0.031 A 
ATOM     68  C   UNL A   1      39.891  26.531  28.863  1.00  0.00     0.131 A 
ATOM     69  C   UNL A   1      41.712  27.007  26.837  1.00  0.00     0.055 A 
ATOM     70  C   UNL A   1      39.906  25.703  27.739  1.00  0.00     0.041 A 
ATOM     71  F   UNL A   1      38.946  26.303  29.789  1.00  0.00    -0.206 F 
ATOM     72  C   UNL A   1      40.809  25.950  26.708  1.00  0.00     0.022 A 
BRANCH  69  73
ATOM     73  S   UNL A   1      42.737  27.505  25.426  1.00  0.00     0.124 S 
ATOM     74  O   UNL A   1      42.711  26.298  24.604  1.00  0.00    -0.237 OA
ATOM     75  O   UNL A   1      42.010  28.653  24.898  1.00  0.00    -0.237 OA
ATOM     76  O   UNL A   1      44.031  27.809  26.032  1.00  0.00    -0.744 OA
ENDBRANCH  69  73
ENDBRANCH  52  66
BRANCH  53  77
ATOM     77  C   UNL A   1      39.720  33.577  36.999  1.00  0.00     0.023 A 
ATOM     78  C   UNL A   1      39.174  33.050  38.179  1.00  0.00     0.031 A 
ATOM     79  C   UNL A   1      40.051  34.944  36.981  1.00  0.00     0.131 A 
ATOM     80  C   UNL A   1      38.929  33.891  39.276  1.00  0.00     0.055 A 
ATOM     81  C   UNL A   1      39.857  35.766  38.093  1.00  0.00     0.041 A 
ATOM     82  F   UNL A   1      40.579  35.501  35.878  1.00  0.00    -0.206 F 
ATOM     83  C   UNL A   1      39.280  35.243  39.245  1.00  0.00     0.022 A 
BRANCH  80  84
ATOM     84  S   UNL A   1      38.061  33.212  40.718  1.00  0.00     0.124 S 
ATOM     85  O   UNL A   1      36.688  33.144  40.231  1.00  0.00    -0.237 OA
ATOM     86  O   UNL A   1      38.741  31.935  40.905  1.00  0.00    -0.237 OA
ATOM     87  O   UNL A   1      38.306  34.206  41.761  1.00  0.00    -0.744 OA
ENDBRANCH  80  84
ENDBRANCH  53  77
BRANCH  65  88
ATOM     88  C   UNL A   1      44.263  28.557  35.325  1.00  0.00     0.023 A 
ATOM     89  C   UNL A   1      44.125  27.532  36.276  1.00  0.00     0.031 A 
ATOM     90  C   UNL A   1      45.554  29.052  35.068  1.00  0.00     0.131 A 
ATOM     91  C   UNL A   1      45.250  27.072  36.977  1.00  0.00     0.055 A 
ATOM     92  C   UNL A   1      46.679  28.546  35.722  1.00  0.00     0.041 A 
ATOM     93  F   UNL A   1      45.744  30.032  34.170  1.00  0.00    -0.206 F 
ATOM     94  C   UNL A   1      46.528  27.559  36.692  1.00  0.00     0.022 A 
BRANCH  91  95
ATOM     95  S   UNL A   1      45.007  25.892  38.332  1.00  0.00     0.124 S 
ATOM     96  O   UNL A   1      44.722  24.656  37.609  1.00  0.00    -0.237 OA
ATOM     97  O   UNL A   1      46.289  25.943  39.026  1.00  0.00    -0.237 OA
ATOM     98  O   UNL A   1      43.878  26.449  39.075  1.00  0.00    -0.744 OA
ENDBRANCH  91  95
ENDBRANCH  65  88
ENDBRANCH  39  40
ENDBRANCH  31  34
ENDBRANCH  29  30
ENDBRANCH  28  29
ENDBRANCH  27  28
ENDBRANCH   1  27
TORSDOF 20
ENDMDL
