MODEL 1
REMARK VINA RESULT:     -12.3      0.000      0.000
REMARK SMILES CC(C)(C)OC(=O)N1CCC[C@H]1C(=O)N1CCC[C@H]1C(=O)N1CCC[C@@H]1C(=O)NCCCCNC(=O)c1ccc(-c2c3nc(c(-c4cc(S(=O)(=O)[O-])ccc4F)c4ccc([nH]4)c(-c4cc(S(=O)(=O)[O-])ccc4F)c4nc(c(-c5cc(S(=O)(=O)[O-])ccc5F)c5ccc2[nH]5)C=C4)C=C3)cc1
REMARK SMILES IDX 27 1 28 2 29 3 26 5 22 6 23 7 24 8 25 9 20 10 21 11 19 12
REMARK SMILES IDX 15 13 16 14 17 15 18 16 13 17 14 18 12 19 8 20 9 21 10 22
REMARK SMILES IDX 11 23 6 24 7 25 5 26 2 27 1 28 3 29 4 30 30 31 31 32 32 33
REMARK SMILES IDX 33 34 34 35 35 36 36 38 37 39 38 40 99 41 39 42 98 43 40 44
REMARK SMILES IDX 41 45 42 46 92 47 43 48 97 49 91 50 93 51 44 52 96 53 90 54
REMARK SMILES IDX 89 55 45 57 77 58 57 59 76 60 58 61 61 62 75 63 94 64 59 65
REMARK SMILES IDX 60 66 74 68 95 69 62 70 46 71 47 72 55 73 48 74 54 75 56 76
REMARK SMILES IDX 53 77 49 78 50 79 51 80 52 81 78 82 79 83 87 84 80 85 86 86
REMARK SMILES IDX 88 87 85 88 81 89 82 90 83 91 84 92 63 93 64 94 72 95 65 96
REMARK SMILES IDX 71 97 73 98 70 99 66 100 67 101 68 102 69 103
REMARK H PARENT 29 4 34 37 93 56 61 67
REMARK Flexibility Score: inf
ROOT
ATOM      1  C   UNL A   1      33.096  28.344  24.303  1.00  0.00     0.242 C 
ATOM      2  O   UNL A   1      33.449  28.353  23.115  1.00  0.00    -0.273 OA
ATOM      3  N   UNL A   1      34.092  28.540  25.211  1.00  0.00    -0.354 N 
ATOM      4  H   UNL A   1      34.976  28.693  24.808  1.00  0.00     0.163 HD
ENDROOT
BRANCH   1   5
ATOM      5  C   UNL A   1      31.634  27.974  24.658  1.00  0.00     0.174 C 
ATOM      6  N   UNL A   1      31.262  26.567  24.750  1.00  0.00    -0.329 N 
ATOM      7  C   UNL A   1      29.869  26.421  24.380  1.00  0.00     0.120 C 
ATOM      8  C   UNL A   1      29.713  27.406  23.247  1.00  0.00     0.024 C 
ATOM      9  C   UNL A   1      30.615  28.571  23.667  1.00  0.00     0.037 C 
BRANCH   6  10
ATOM     10  C   UNL A   1      31.880  25.726  25.654  1.00  0.00     0.246 C 
ATOM     11  O   UNL A   1      31.554  25.717  26.841  1.00  0.00    -0.272 OA
BRANCH  10  12
ATOM     12  C   UNL A   1      33.050  24.859  25.110  1.00  0.00     0.174 C 
ATOM     13  N   UNL A   1      32.888  23.469  25.575  1.00  0.00    -0.329 N 
ATOM     14  C   UNL A   1      31.898  22.856  24.700  1.00  0.00     0.120 C 
ATOM     15  C   UNL A   1      32.368  23.318  23.326  1.00  0.00     0.024 C 
ATOM     16  C   UNL A   1      32.985  24.705  23.575  1.00  0.00     0.037 C 
BRANCH  13  17
ATOM     17  C   UNL A   1      33.795  22.942  26.475  1.00  0.00     0.246 C 
ATOM     18  O   UNL A   1      33.448  22.788  27.654  1.00  0.00    -0.272 OA
BRANCH  17  19
ATOM     19  C   UNL A   1      35.242  22.520  26.116  1.00  0.00     0.178 C 
ATOM     20  N   UNL A   1      35.382  21.754  24.876  1.00  0.00    -0.296 N 
ATOM     21  C   UNL A   1      36.020  22.610  23.916  1.00  0.00     0.124 C 
ATOM     22  C   UNL A   1      36.955  23.505  24.701  1.00  0.00     0.024 C 
ATOM     23  C   UNL A   1      36.267  23.664  26.048  1.00  0.00     0.037 C 
BRANCH  20  24
ATOM     24  C   UNL A   1      35.184  20.354  24.866  1.00  0.00     0.410 C 
ATOM     25  O   UNL A   1      36.127  19.594  25.002  1.00  0.00    -0.224 OA
BRANCH  24  26
ATOM     26  O   UNL A   1      33.884  19.905  24.716  1.00  0.00    -0.444 OA
BRANCH  26  27
ATOM     27  C   UNL A   1      33.455  18.489  24.432  1.00  0.00     0.106 C 
ATOM     28  C   UNL A   1      32.526  18.422  23.192  1.00  0.00     0.056 C 
ATOM     29  C   UNL A   1      32.598  17.972  25.602  1.00  0.00     0.056 C 
ATOM     30  C   UNL A   1      34.596  17.512  24.156  1.00  0.00     0.056 C 
ENDBRANCH  26  27
ENDBRANCH  24  26
ENDBRANCH  20  24
ENDBRANCH  17  19
ENDBRANCH  13  17
ENDBRANCH  10  12
ENDBRANCH   6  10
ENDBRANCH   1   5
BRANCH   3  31
ATOM     31  C   UNL A   1      34.092  28.563  26.655  1.00  0.00     0.116 C 
BRANCH  31  32
ATOM     32  C   UNL A   1      35.133  29.523  27.240  1.00  0.00     0.023 C 
BRANCH  32  33
ATOM     33  C   UNL A   1      34.712  30.972  27.590  1.00  0.00     0.023 C 
BRANCH  33  34
ATOM     34  C   UNL A   1      33.221  31.366  27.467  1.00  0.00     0.116 C 
BRANCH  34  35
ATOM     35  N   UNL A   1      32.974  32.792  27.630  1.00  0.00    -0.352 N 
ATOM     36  C   UNL A   1      33.623  33.812  28.289  1.00  0.00     0.251 C 
ATOM     37  H   UNL A   1      32.161  33.093  27.165  1.00  0.00     0.163 HD
ATOM     38  O   UNL A   1      33.367  34.987  28.028  1.00  0.00    -0.269 OA
BRANCH  36  39
ATOM     39  C   UNL A   1      34.728  33.659  29.212  1.00  0.00     0.039 A 
ATOM     40  C   UNL A   1      34.405  33.046  30.438  1.00  0.00     0.014 A 
ATOM     41  C   UNL A   1      35.987  34.194  28.976  1.00  0.00     0.014 A 
ATOM     42  C   UNL A   1      35.387  32.828  31.373  1.00  0.00     0.010 A 
ATOM     43  C   UNL A   1      36.988  33.937  29.885  1.00  0.00     0.010 A 
ATOM     44  C   UNL A   1      36.692  33.184  31.029  1.00  0.00    -0.014 A 
BRANCH  44  45
ATOM     45  C   UNL A   1      37.802  32.503  31.686  1.00  0.00     0.031 A 
ATOM     46  C   UNL A   1      38.462  31.358  31.021  1.00  0.00     0.074 A 
ATOM     47  C   UNL A   1      38.047  32.903  32.948  1.00  0.00     0.049 A 
ATOM     48  N   UNL A   1      39.431  30.614  31.466  1.00  0.00    -0.248 NA
ATOM     49  C   UNL A   1      37.936  30.966  29.704  1.00  0.00     0.031 C 
ATOM     50  C   UNL A   1      37.311  33.968  33.654  1.00  0.00     0.029 A 
ATOM     51  N   UNL A   1      38.953  32.473  33.866  1.00  0.00    -0.354 N 
ATOM     52  C   UNL A   1      39.644  29.662  30.482  1.00  0.00     0.074 A 
ATOM     53  C   UNL A   1      38.649  29.878  29.453  1.00  0.00     0.031 C 
ATOM     54  C   UNL A   1      37.826  34.127  34.878  1.00  0.00     0.029 A 
ATOM     55  C   UNL A   1      38.895  33.162  35.055  1.00  0.00     0.049 A 
ATOM     56  H   UNL A   1      39.588  31.740  33.697  1.00  0.00     0.167 HD
ATOM     57  C   UNL A   1      40.611  28.716  30.459  1.00  0.00     0.034 A 
ATOM     58  C   UNL A   1      39.649  33.025  36.156  1.00  0.00     0.034 A 
ATOM     59  C   UNL A   1      41.541  28.552  31.552  1.00  0.00     0.049 A 
ATOM     60  C   UNL A   1      40.743  31.999  36.081  1.00  0.00     0.074 A 
ATOM     61  C   UNL A   1      42.596  27.670  31.673  1.00  0.00     0.029 A 
ATOM     62  N   UNL A   1      41.510  29.300  32.731  1.00  0.00    -0.354 N 
ATOM     63  N   UNL A   1      41.011  31.154  35.107  1.00  0.00    -0.248 NA
ATOM     64  C   UNL A   1      41.655  31.932  37.220  1.00  0.00     0.031 C 
ATOM     65  C   UNL A   1      43.159  27.840  32.944  1.00  0.00     0.029 A 
ATOM     66  C   UNL A   1      42.513  28.886  33.590  1.00  0.00     0.049 A 
ATOM     67  H   UNL A   1      40.866  30.019  32.924  1.00  0.00     0.167 HD
ATOM     68  C   UNL A   1      42.149  30.469  35.505  1.00  0.00     0.074 A 
ATOM     69  C   UNL A   1      42.526  31.029  36.793  1.00  0.00     0.031 C 
ATOM     70  C   UNL A   1      42.824  29.468  34.878  1.00  0.00     0.034 A 
BRANCH  57  71
ATOM     71  C   UNL A   1      40.665  27.813  29.253  1.00  0.00     0.023 A 
ATOM     72  C   UNL A   1      41.588  28.033  28.212  1.00  0.00     0.031 A 
ATOM     73  C   UNL A   1      39.748  26.761  29.097  1.00  0.00     0.131 A 
ATOM     74  C   UNL A   1      41.517  27.276  27.033  1.00  0.00     0.055 A 
ATOM     75  C   UNL A   1      39.740  25.952  27.958  1.00  0.00     0.041 A 
ATOM     76  F   UNL A   1      38.819  26.519  30.036  1.00  0.00    -0.206 F 
ATOM     77  C   UNL A   1      40.617  26.217  26.910  1.00  0.00     0.022 A 
BRANCH  74  78
ATOM     78  S   UNL A   1      42.506  27.802  25.605  1.00  0.00     0.124 S 
ATOM     79  O   UNL A   1      43.838  27.910  26.195  1.00  0.00    -0.237 OA
ATOM     80  O   UNL A   1      42.311  26.706  24.664  1.00  0.00    -0.237 OA
ATOM     81  O   UNL A   1      41.899  29.074  25.218  1.00  0.00    -0.744 OA
ENDBRANCH  74  78
ENDBRANCH  57  71
BRANCH  58  82
ATOM     82  C   UNL A   1      39.438  33.906  37.335  1.00  0.00     0.023 A 
ATOM     83  C   UNL A   1      38.813  33.417  38.492  1.00  0.00     0.031 A 
ATOM     84  C   UNL A   1      39.876  35.244  37.341  1.00  0.00     0.131 A 
ATOM     85  C   UNL A   1      38.592  34.270  39.584  1.00  0.00     0.055 A 
ATOM     86  C   UNL A   1      39.703  36.073  38.451  1.00  0.00     0.041 A 
ATOM     87  F   UNL A   1      40.508  35.756  36.273  1.00  0.00    -0.206 F 
ATOM     88  C   UNL A   1      39.043  35.590  39.577  1.00  0.00     0.022 A 
BRANCH  85  89
ATOM     89  S   UNL A   1      37.627  33.645  40.986  1.00  0.00     0.124 S 
ATOM     90  O   UNL A   1      37.410  34.860  41.763  1.00  0.00    -0.237 OA
ATOM     91  O   UNL A   1      36.453  33.091  40.320  1.00  0.00    -0.237 OA
ATOM     92  O   UNL A   1      38.517  32.662  41.599  1.00  0.00    -0.744 OA
ENDBRANCH  85  89
ENDBRANCH  58  82
BRANCH  70  93
ATOM     93  C   UNL A   1      44.044  28.959  35.598  1.00  0.00     0.023 A 
ATOM     94  C   UNL A   1      43.996  27.792  36.378  1.00  0.00     0.031 A 
ATOM     95  C   UNL A   1      45.249  29.678  35.544  1.00  0.00     0.131 A 
ATOM     96  C   UNL A   1      45.103  27.431  37.152  1.00  0.00     0.055 A 
ATOM     97  C   UNL A   1      46.378  29.263  36.248  1.00  0.00     0.041 A 
ATOM     98  F   UNL A   1      45.345  30.802  34.815  1.00  0.00    -0.206 F 
ATOM     99  C   UNL A   1      46.302  28.146  37.076  1.00  0.00     0.022 A 
BRANCH  96 100
ATOM    100  S   UNL A   1      44.900  26.110  38.376  1.00  0.00     0.124 S 
ATOM    101  O   UNL A   1      44.588  24.963  37.529  1.00  0.00    -0.237 OA
ATOM    102  O   UNL A   1      46.205  26.086  39.027  1.00  0.00    -0.237 OA
ATOM    103  O   UNL A   1      43.798  26.585  39.209  1.00  0.00    -0.744 OA
ENDBRANCH  96 100
ENDBRANCH  70  93
ENDBRANCH  44  45
ENDBRANCH  36  39
ENDBRANCH  34  35
ENDBRANCH  33  34
ENDBRANCH  32  33
ENDBRANCH  31  32
ENDBRANCH   3  31
TORSDOF 21
ENDMDL
MODEL 2
REMARK VINA RESULT:     -11.5      1.806      7.822
REMARK SMILES CC(C)(C)OC(=O)N1CCC[C@H]1C(=O)N1CCC[C@H]1C(=O)N1CCC[C@@H]1C(=O)NCCCCNC(=O)c1ccc(-c2c3nc(c(-c4cc(S(=O)(=O)[O-])ccc4F)c4ccc([nH]4)c(-c4cc(S(=O)(=O)[O-])ccc4F)c4nc(c(-c5cc(S(=O)(=O)[O-])ccc5F)c5ccc2[nH]5)C=C4)C=C3)cc1
REMARK SMILES IDX 27 1 28 2 29 3 26 5 22 6 23 7 24 8 25 9 20 10 21 11 19 12
REMARK SMILES IDX 15 13 16 14 17 15 18 16 13 17 14 18 12 19 8 20 9 21 10 22
REMARK SMILES IDX 11 23 6 24 7 25 5 26 2 27 1 28 3 29 4 30 30 31 31 32 32 33
REMARK SMILES IDX 33 34 34 35 35 36 36 38 37 39 38 40 99 41 39 42 98 43 40 44
REMARK SMILES IDX 41 45 42 46 92 47 43 48 97 49 91 50 93 51 44 52 96 53 90 54
REMARK SMILES IDX 89 55 45 57 77 58 57 59 76 60 58 61 61 62 75 63 94 64 59 65
REMARK SMILES IDX 60 66 74 68 95 69 62 70 46 71 47 72 55 73 48 74 54 75 56 76
REMARK SMILES IDX 53 77 49 78 50 79 51 80 52 81 78 82 79 83 87 84 80 85 86 86
REMARK SMILES IDX 88 87 85 88 81 89 82 90 83 91 84 92 63 93 64 94 72 95 65 96
REMARK SMILES IDX 71 97 73 98 70 99 66 100 67 101 68 102 69 103
REMARK H PARENT 29 4 34 37 93 56 61 67
REMARK Flexibility Score: inf
ROOT
ATOM      1  C   UNL A   1      32.826  29.179  24.386  1.00  0.00     0.242 C 
ATOM      2  O   UNL A   1      33.296  29.233  23.241  1.00  0.00    -0.273 OA
ATOM      3  N   UNL A   1      33.731  29.290  25.397  1.00  0.00    -0.354 N 
ATOM      4  H   UNL A   1      34.657  29.430  25.091  1.00  0.00     0.163 HD
ENDROOT
BRANCH   1   5
ATOM      5  C   UNL A   1      31.324  28.848  24.575  1.00  0.00     0.174 C 
ATOM      6  N   UNL A   1      30.882  27.465  24.448  1.00  0.00    -0.329 N 
ATOM      7  C   UNL A   1      29.519  27.447  23.956  1.00  0.00     0.120 C 
ATOM      8  C   UNL A   1      29.503  28.578  22.958  1.00  0.00     0.024 C 
ATOM      9  C   UNL A   1      30.419  29.626  23.599  1.00  0.00     0.037 C 
BRANCH   6  10
ATOM     10  C   UNL A   1      31.383  26.479  25.274  1.00  0.00     0.246 C 
ATOM     11  O   UNL A   1      31.145  26.479  26.483  1.00  0.00    -0.272 OA
BRANCH  10  12
ATOM     12  C   UNL A   1      32.319  25.427  24.615  1.00  0.00     0.174 C 
ATOM     13  N   UNL A   1      31.586  24.160  24.440  1.00  0.00    -0.329 N 
ATOM     14  C   UNL A   1      30.765  24.321  23.248  1.00  0.00     0.120 C 
ATOM     15  C   UNL A   1      31.750  24.955  22.275  1.00  0.00     0.024 C 
ATOM     16  C   UNL A   1      32.675  25.807  23.161  1.00  0.00     0.037 C 
BRANCH  13  17
ATOM     17  C   UNL A   1      31.958  23.051  25.176  1.00  0.00     0.246 C 
ATOM     18  O   UNL A   1      31.468  22.888  26.303  1.00  0.00    -0.272 OA
BRANCH  17  19
ATOM     19  C   UNL A   1      32.960  21.973  24.693  1.00  0.00     0.178 C 
ATOM     20  N   UNL A   1      33.476  21.084  25.736  1.00  0.00    -0.296 N 
ATOM     21  C   UNL A   1      32.887  19.792  25.525  1.00  0.00     0.124 C 
ATOM     22  C   UNL A   1      32.703  19.648  24.029  1.00  0.00     0.024 C 
ATOM     23  C   UNL A   1      32.461  21.072  23.551  1.00  0.00     0.037 C 
BRANCH  20  24
ATOM     24  C   UNL A   1      34.580  21.469  26.530  1.00  0.00     0.410 C 
ATOM     25  O   UNL A   1      34.427  21.753  27.707  1.00  0.00    -0.224 OA
BRANCH  24  26
ATOM     26  O   UNL A   1      35.819  21.486  25.917  1.00  0.00    -0.444 OA
BRANCH  26  27
ATOM     27  C   UNL A   1      36.473  22.670  25.256  1.00  0.00     0.106 C 
ATOM     28  C   UNL A   1      37.920  22.877  25.776  1.00  0.00     0.056 C 
ATOM     29  C   UNL A   1      35.720  23.954  25.652  1.00  0.00     0.056 C 
ATOM     30  C   UNL A   1      36.581  22.583  23.735  1.00  0.00     0.056 C 
ENDBRANCH  26  27
ENDBRANCH  24  26
ENDBRANCH  20  24
ENDBRANCH  17  19
ENDBRANCH  13  17
ENDBRANCH  10  12
ENDBRANCH   6  10
ENDBRANCH   1   5
BRANCH   3  31
ATOM     31  C   UNL A   1      33.587  29.242  26.833  1.00  0.00     0.116 C 
BRANCH  31  32
ATOM     32  C   UNL A   1      34.850  29.687  27.578  1.00  0.00     0.023 C 
BRANCH  32  33
ATOM     33  C   UNL A   1      34.870  31.075  28.267  1.00  0.00     0.023 C 
BRANCH  33  34
ATOM     34  C   UNL A   1      34.229  32.279  27.539  1.00  0.00     0.116 C 
BRANCH  34  35
ATOM     35  N   UNL A   1      33.523  33.195  28.424  1.00  0.00    -0.352 N 
ATOM     36  C   UNL A   1      33.837  33.823  29.609  1.00  0.00     0.251 C 
ATOM     37  H   UNL A   1      32.618  33.413  28.105  1.00  0.00     0.163 HD
ATOM     38  O   UNL A   1      33.173  34.780  30.005  1.00  0.00    -0.269 OA
BRANCH  36  39
ATOM     39  C   UNL A   1      35.005  33.560  30.425  1.00  0.00     0.039 A 
ATOM     40  C   UNL A   1      34.772  32.772  31.569  1.00  0.00     0.014 A 
ATOM     41  C   UNL A   1      36.240  34.147  30.186  1.00  0.00     0.014 A 
ATOM     42  C   UNL A   1      35.818  32.441  32.395  1.00  0.00     0.010 A 
ATOM     43  C   UNL A   1      37.303  33.782  30.980  1.00  0.00     0.010 A 
ATOM     44  C   UNL A   1      37.093  32.867  32.020  1.00  0.00    -0.014 A 
BRANCH  44  45
ATOM     45  C   UNL A   1      38.251  32.121  32.498  1.00  0.00     0.031 A 
ATOM     46  C   UNL A   1      38.897  32.498  33.775  1.00  0.00     0.074 A 
ATOM     47  C   UNL A   1      38.734  31.208  31.635  1.00  0.00     0.049 A 
ATOM     48  N   UNL A   1      39.949  31.978  34.333  1.00  0.00    -0.248 NA
ATOM     49  C   UNL A   1      38.315  33.640  34.497  1.00  0.00     0.031 C 
ATOM     50  C   UNL A   1      38.158  30.911  30.311  1.00  0.00     0.029 A 
ATOM     51  N   UNL A   1      39.806  30.375  31.715  1.00  0.00    -0.354 N 
ATOM     52  C   UNL A   1      40.160  32.721  35.483  1.00  0.00     0.074 A 
ATOM     53  C   UNL A   1      39.170  33.778  35.499  1.00  0.00     0.031 C 
ATOM     54  C   UNL A   1      38.865  29.937  29.726  1.00  0.00     0.029 A 
ATOM     55  C   UNL A   1      39.954  29.567  30.611  1.00  0.00     0.049 A 
ATOM     56  H   UNL A   1      40.416  30.352  32.487  1.00  0.00     0.167 HD
ATOM     57  C   UNL A   1      41.095  32.500  36.436  1.00  0.00     0.034 A 
ATOM     58  C   UNL A   1      40.871  28.620  30.367  1.00  0.00     0.034 A 
ATOM     59  C   UNL A   1      42.066  31.439  36.317  1.00  0.00     0.049 A 
ATOM     60  C   UNL A   1      41.865  28.367  31.463  1.00  0.00     0.074 A 
ATOM     61  C   UNL A   1      43.056  31.060  37.202  1.00  0.00     0.029 A 
ATOM     62  N   UNL A   1      42.169  30.586  35.216  1.00  0.00    -0.354 N 
ATOM     63  N   UNL A   1      42.010  29.010  32.604  1.00  0.00    -0.248 NA
ATOM     64  C   UNL A   1      42.786  27.251  31.267  1.00  0.00     0.031 C 
ATOM     65  C   UNL A   1      43.792  30.025  36.613  1.00  0.00     0.029 A 
ATOM     66  C   UNL A   1      43.215  29.696  35.393  1.00  0.00     0.049 A 
ATOM     67  H   UNL A   1      41.581  30.612  34.427  1.00  0.00     0.167 HD
ATOM     68  C   UNL A   1      43.026  28.352  33.281  1.00  0.00     0.074 A 
ATOM     69  C   UNL A   1      43.428  27.246  32.426  1.00  0.00     0.031 C 
ATOM     70  C   UNL A   1      43.586  28.628  34.490  1.00  0.00     0.034 A 
BRANCH  57  71
ATOM     71  C   UNL A   1      41.101  33.429  37.624  1.00  0.00     0.023 A 
ATOM     72  C   UNL A   1      40.294  33.184  38.752  1.00  0.00     0.031 A 
ATOM     73  C   UNL A   1      41.865  34.607  37.614  1.00  0.00     0.131 A 
ATOM     74  C   UNL A   1      40.202  34.139  39.775  1.00  0.00     0.055 A 
ATOM     75  C   UNL A   1      41.838  35.513  38.678  1.00  0.00     0.041 A 
ATOM     76  F   UNL A   1      42.630  34.918  36.555  1.00  0.00    -0.206 F 
ATOM     77  C   UNL A   1      40.991  35.290  39.760  1.00  0.00     0.022 A 
BRANCH  74  78
ATOM     78  S   UNL A   1      38.918  33.931  41.041  1.00  0.00     0.124 S 
ATOM     79  O   UNL A   1      37.945  33.099  40.337  1.00  0.00    -0.237 OA
ATOM     80  O   UNL A   1      39.646  33.282  42.126  1.00  0.00    -0.237 OA
ATOM     81  O   UNL A   1      38.479  35.298  41.312  1.00  0.00    -0.744 OA
ENDBRANCH  74  78
ENDBRANCH  57  71
BRANCH  58  82
ATOM     82  C   UNL A   1      40.832  27.832  29.106  1.00  0.00     0.023 A 
ATOM     83  C   UNL A   1      41.732  28.100  28.064  1.00  0.00     0.031 A 
ATOM     84  C   UNL A   1      39.912  26.781  28.925  1.00  0.00     0.131 A 
ATOM     85  C   UNL A   1      41.660  27.368  26.869  1.00  0.00     0.055 A 
ATOM     86  C   UNL A   1      39.881  26.020  27.755  1.00  0.00     0.041 A 
ATOM     87  F   UNL A   1      39.048  26.460  29.901  1.00  0.00    -0.206 F 
ATOM     88  C   UNL A   1      40.749  26.322  26.711  1.00  0.00     0.022 A 
BRANCH  85  89
ATOM     89  S   UNL A   1      42.723  27.865  25.488  1.00  0.00     0.124 S 
ATOM     90  O   UNL A   1      42.819  26.626  24.724  1.00  0.00    -0.237 OA
ATOM     91  O   UNL A   1      41.944  28.937  24.877  1.00  0.00    -0.237 OA
ATOM     92  O   UNL A   1      43.957  28.290  26.145  1.00  0.00    -0.744 OA
ENDBRANCH  85  89
ENDBRANCH  58  82
BRANCH  70  93
ATOM     93  C   UNL A   1      44.671  27.684  34.932  1.00  0.00     0.023 A 
ATOM     94  C   UNL A   1      46.009  27.883  34.553  1.00  0.00     0.031 A 
ATOM     95  C   UNL A   1      44.353  26.548  35.695  1.00  0.00     0.131 A 
ATOM     96  C   UNL A   1      46.965  26.907  34.854  1.00  0.00     0.055 A 
ATOM     97  C   UNL A   1      45.328  25.626  36.069  1.00  0.00     0.041 A 
ATOM     98  F   UNL A   1      43.089  26.313  36.079  1.00  0.00    -0.206 F 
ATOM     99  C   UNL A   1      46.639  25.791  35.629  1.00  0.00     0.022 A 
BRANCH  96 100
ATOM    100  S   UNL A   1      48.600  27.044  34.085  1.00  0.00     0.124 S 
ATOM    101  O   UNL A   1      49.294  27.933  35.012  1.00  0.00    -0.237 OA
ATOM    102  O   UNL A   1      49.054  25.658  34.071  1.00  0.00    -0.237 OA
ATOM    103  O   UNL A   1      48.312  27.617  32.773  1.00  0.00    -0.744 OA
ENDBRANCH  96 100
ENDBRANCH  70  93
ENDBRANCH  44  45
ENDBRANCH  36  39
ENDBRANCH  34  35
ENDBRANCH  33  34
ENDBRANCH  32  33
ENDBRANCH  31  32
ENDBRANCH   3  31
TORSDOF 21
ENDMDL
MODEL 3
REMARK VINA RESULT:     -11.5      1.425      7.595
REMARK SMILES CC(C)(C)OC(=O)N1CCC[C@H]1C(=O)N1CCC[C@H]1C(=O)N1CCC[C@@H]1C(=O)NCCCCNC(=O)c1ccc(-c2c3nc(c(-c4cc(S(=O)(=O)[O-])ccc4F)c4ccc([nH]4)c(-c4cc(S(=O)(=O)[O-])ccc4F)c4nc(c(-c5cc(S(=O)(=O)[O-])ccc5F)c5ccc2[nH]5)C=C4)C=C3)cc1
REMARK SMILES IDX 27 1 28 2 29 3 26 5 22 6 23 7 24 8 25 9 20 10 21 11 19 12
REMARK SMILES IDX 15 13 16 14 17 15 18 16 13 17 14 18 12 19 8 20 9 21 10 22
REMARK SMILES IDX 11 23 6 24 7 25 5 26 2 27 1 28 3 29 4 30 30 31 31 32 32 33
REMARK SMILES IDX 33 34 34 35 35 36 36 38 37 39 38 40 99 41 39 42 98 43 40 44
REMARK SMILES IDX 41 45 42 46 92 47 43 48 97 49 91 50 93 51 44 52 96 53 90 54
REMARK SMILES IDX 89 55 45 57 77 58 57 59 76 60 58 61 61 62 75 63 94 64 59 65
REMARK SMILES IDX 60 66 74 68 95 69 62 70 46 71 47 72 55 73 48 74 54 75 56 76
REMARK SMILES IDX 53 77 49 78 50 79 51 80 52 81 78 82 79 83 87 84 80 85 86 86
REMARK SMILES IDX 88 87 85 88 81 89 82 90 83 91 84 92 63 93 64 94 72 95 65 96
REMARK SMILES IDX 71 97 73 98 70 99 66 100 67 101 68 102 69 103
REMARK H PARENT 29 4 34 37 93 56 61 67
REMARK Flexibility Score: inf
ROOT
ATOM      1  C   UNL A   1      32.685  29.246  24.522  1.00  0.00     0.242 C 
ATOM      2  O   UNL A   1      33.350  28.802  23.576  1.00  0.00    -0.273 OA
ATOM      3  N   UNL A   1      33.395  29.894  25.486  1.00  0.00    -0.354 N 
ATOM      4  H   UNL A   1      34.360  29.955  25.298  1.00  0.00     0.163 HD
ENDROOT
BRANCH   1   5
ATOM      5  C   UNL A   1      31.173  28.913  24.610  1.00  0.00     0.174 C 
ATOM      6  N   UNL A   1      30.755  27.516  24.591  1.00  0.00    -0.329 N 
ATOM      7  C   UNL A   1      29.443  27.424  23.984  1.00  0.00     0.120 C 
ATOM      8  C   UNL A   1      29.509  28.443  22.874  1.00  0.00     0.024 C 
ATOM      9  C   UNL A   1      30.356  29.568  23.480  1.00  0.00     0.037 C 
BRANCH   6  10
ATOM     10  C   UNL A   1      31.187  26.631  25.559  1.00  0.00     0.246 C 
ATOM     11  O   UNL A   1      30.832  26.748  26.733  1.00  0.00    -0.272 OA
BRANCH  10  12
ATOM     12  C   UNL A   1      32.196  25.540  25.105  1.00  0.00     0.174 C 
ATOM     13  N   UNL A   1      31.671  24.208  25.460  1.00  0.00    -0.329 N 
ATOM     14  C   UNL A   1      30.692  23.867  24.438  1.00  0.00     0.120 C 
ATOM     15  C   UNL A   1      31.425  24.256  23.161  1.00  0.00     0.024 C 
ATOM     16  C   UNL A   1      32.297  25.457  23.566  1.00  0.00     0.037 C 
BRANCH  13  17
ATOM     17  C   UNL A   1      32.314  23.458  26.426  1.00  0.00     0.246 C 
ATOM     18  O   UNL A   1      31.801  23.360  27.549  1.00  0.00    -0.272 OA
BRANCH  17  19
ATOM     19  C   UNL A   1      33.656  22.714  26.209  1.00  0.00     0.178 C 
ATOM     20  N   UNL A   1      33.622  21.636  25.219  1.00  0.00    -0.296 N 
ATOM     21  C   UNL A   1      34.361  22.085  24.073  1.00  0.00     0.124 C 
ATOM     22  C   UNL A   1      35.461  22.981  24.603  1.00  0.00     0.024 C 
ATOM     23  C   UNL A   1      34.856  23.606  25.850  1.00  0.00     0.037 C 
BRANCH  20  24
ATOM     24  C   UNL A   1      33.191  20.339  25.580  1.00  0.00     0.410 C 
ATOM     25  O   UNL A   1      33.270  19.959  26.736  1.00  0.00    -0.224 OA
BRANCH  24  26
ATOM     26  O   UNL A   1      32.666  19.549  24.573  1.00  0.00    -0.444 OA
BRANCH  26  27
ATOM     27  C   UNL A   1      33.084  18.142  24.233  1.00  0.00     0.106 C 
ATOM     28  C   UNL A   1      34.627  17.989  24.268  1.00  0.00     0.056 C 
ATOM     29  C   UNL A   1      32.685  17.831  22.778  1.00  0.00     0.056 C 
ATOM     30  C   UNL A   1      32.533  17.062  25.161  1.00  0.00     0.056 C 
ENDBRANCH  26  27
ENDBRANCH  24  26
ENDBRANCH  20  24
ENDBRANCH  17  19
ENDBRANCH  13  17
ENDBRANCH  10  12
ENDBRANCH   6  10
ENDBRANCH   1   5
BRANCH   3  31
ATOM     31  C   UNL A   1      32.999  30.507  26.732  1.00  0.00     0.116 C 
BRANCH  31  32
ATOM     32  C   UNL A   1      34.077  30.414  27.817  1.00  0.00     0.023 C 
BRANCH  32  33
ATOM     33  C   UNL A   1      35.167  31.512  27.894  1.00  0.00     0.023 C 
BRANCH  33  34
ATOM     34  C   UNL A   1      34.764  32.983  27.635  1.00  0.00     0.116 C 
BRANCH  34  35
ATOM     35  N   UNL A   1      33.881  33.539  28.652  1.00  0.00    -0.352 N 
ATOM     36  C   UNL A   1      34.022  33.842  29.988  1.00  0.00     0.251 C 
ATOM     37  H   UNL A   1      32.983  33.742  28.307  1.00  0.00     0.163 HD
ATOM     38  O   UNL A   1      33.212  34.577  30.551  1.00  0.00    -0.269 OA
BRANCH  36  39
ATOM     39  C   UNL A   1      35.149  33.485  30.825  1.00  0.00     0.039 A 
ATOM     40  C   UNL A   1      34.907  32.446  31.745  1.00  0.00     0.014 A 
ATOM     41  C   UNL A   1      36.342  34.196  30.827  1.00  0.00     0.014 A 
ATOM     42  C   UNL A   1      35.919  32.013  32.567  1.00  0.00     0.010 A 
ATOM     43  C   UNL A   1      37.375  33.737  31.612  1.00  0.00     0.010 A 
ATOM     44  C   UNL A   1      37.174  32.600  32.406  1.00  0.00    -0.014 A 
BRANCH  44  45
ATOM     45  C   UNL A   1      38.358  31.848  32.807  1.00  0.00     0.031 A 
ATOM     46  C   UNL A   1      39.039  32.169  34.082  1.00  0.00     0.074 A 
ATOM     47  C   UNL A   1      38.826  30.989  31.883  1.00  0.00     0.049 A 
ATOM     48  N   UNL A   1      40.115  31.638  34.579  1.00  0.00    -0.248 NA
ATOM     49  C   UNL A   1      38.463  33.263  34.880  1.00  0.00     0.031 C 
ATOM     50  C   UNL A   1      38.213  30.752  30.564  1.00  0.00     0.029 A 
ATOM     51  N   UNL A   1      39.912  30.170  31.887  1.00  0.00    -0.354 N 
ATOM     52  C   UNL A   1      40.351  32.324  35.760  1.00  0.00     0.074 A 
ATOM     53  C   UNL A   1      39.348  33.362  35.861  1.00  0.00     0.031 C 
ATOM     54  C   UNL A   1      38.914  29.821  29.908  1.00  0.00     0.029 A 
ATOM     55  C   UNL A   1      40.036  29.423  30.738  1.00  0.00     0.049 A 
ATOM     56  H   UNL A   1      40.546  30.117  32.637  1.00  0.00     0.167 HD
ATOM     57  C   UNL A   1      41.319  32.069  36.670  1.00  0.00     0.034 A 
ATOM     58  C   UNL A   1      40.959  28.505  30.416  1.00  0.00     0.034 A 
ATOM     59  C   UNL A   1      42.302  31.030  36.466  1.00  0.00     0.049 A 
ATOM     60  C   UNL A   1      41.991  28.212  31.467  1.00  0.00     0.074 A 
ATOM     61  C   UNL A   1      43.324  30.622  37.299  1.00  0.00     0.029 A 
ATOM     62  N   UNL A   1      42.382  30.237  35.320  1.00  0.00    -0.354 N 
ATOM     63  N   UNL A   1      42.163  28.796  32.634  1.00  0.00    -0.248 NA
ATOM     64  C   UNL A   1      42.920  27.121  31.185  1.00  0.00     0.031 C 
ATOM     65  C   UNL A   1      44.056  29.631  36.634  1.00  0.00     0.029 A 
ATOM     66  C   UNL A   1      43.445  29.356  35.417  1.00  0.00     0.049 A 
ATOM     67  H   UNL A   1      41.769  30.295  34.551  1.00  0.00     0.167 HD
ATOM     68  C   UNL A   1      43.209  28.121  33.244  1.00  0.00     0.074 A 
ATOM     69  C   UNL A   1      43.599  27.067  32.321  1.00  0.00     0.031 C 
ATOM     70  C   UNL A   1      43.803  28.343  34.448  1.00  0.00     0.034 A 
BRANCH  57  71
ATOM     71  C   UNL A   1      41.350  32.934  37.904  1.00  0.00     0.023 A 
ATOM     72  C   UNL A   1      40.469  32.711  38.980  1.00  0.00     0.031 A 
ATOM     73  C   UNL A   1      42.217  34.036  37.991  1.00  0.00     0.131 A 
ATOM     74  C   UNL A   1      40.413  33.621  40.046  1.00  0.00     0.055 A 
ATOM     75  C   UNL A   1      42.219  34.888  39.099  1.00  0.00     0.041 A 
ATOM     76  F   UNL A   1      43.059  34.325  36.986  1.00  0.00    -0.206 F 
ATOM     77  C   UNL A   1      41.301  34.693  40.128  1.00  0.00     0.022 A 
BRANCH  74  78
ATOM     78  S   UNL A   1      39.053  33.472  41.240  1.00  0.00     0.124 S 
ATOM     79  O   UNL A   1      39.259  32.120  41.752  1.00  0.00    -0.237 OA
ATOM     80  O   UNL A   1      39.331  34.557  42.173  1.00  0.00    -0.237 OA
ATOM     81  O   UNL A   1      37.856  33.644  40.419  1.00  0.00    -0.744 OA
ENDBRANCH  74  78
ENDBRANCH  57  71
BRANCH  58  82
ATOM     82  C   UNL A   1      40.891  27.782  29.118  1.00  0.00     0.023 A 
ATOM     83  C   UNL A   1      41.831  28.033  28.107  1.00  0.00     0.031 A 
ATOM     84  C   UNL A   1      39.903  26.811  28.869  1.00  0.00     0.131 A 
ATOM     85  C   UNL A   1      41.733  27.367  26.877  1.00  0.00     0.055 A 
ATOM     86  C   UNL A   1      39.842  26.111  27.663  1.00  0.00     0.041 A 
ATOM     87  F   UNL A   1      38.996  26.508  29.812  1.00  0.00    -0.206 F 
ATOM     88  C   UNL A   1      40.753  26.398  26.651  1.00  0.00     0.022 A 
BRANCH  85  89
ATOM     89  S   UNL A   1      42.860  27.849  25.542  1.00  0.00     0.124 S 
ATOM     90  O   UNL A   1      41.965  28.567  24.641  1.00  0.00    -0.237 OA
ATOM     91  O   UNL A   1      43.841  28.662  26.254  1.00  0.00    -0.237 OA
ATOM     92  O   UNL A   1      43.358  26.571  25.039  1.00  0.00    -0.744 OA
ENDBRANCH  85  89
ENDBRANCH  58  82
BRANCH  70  93
ATOM     93  C   UNL A   1      44.915  27.394  34.807  1.00  0.00     0.023 A 
ATOM     94  C   UNL A   1      44.645  26.110  35.306  1.00  0.00     0.031 A 
ATOM     95  C   UNL A   1      46.254  27.801  34.697  1.00  0.00     0.131 A 
ATOM     96  C   UNL A   1      45.696  25.313  35.770  1.00  0.00     0.055 A 
ATOM     97  C   UNL A   1      47.304  26.966  35.077  1.00  0.00     0.041 A 
ATOM     98  F   UNL A   1      46.564  29.021  34.229  1.00  0.00    -0.206 F 
ATOM     99  C   UNL A   1      47.025  25.722  35.638  1.00  0.00     0.022 A 
BRANCH  96 100
ATOM    100  S   UNL A   1      45.288  23.804  36.688  1.00  0.00     0.124 S 
ATOM    101  O   UNL A   1      44.978  24.335  38.012  1.00  0.00    -0.237 OA
ATOM    102  O   UNL A   1      44.156  23.277  35.933  1.00  0.00    -0.237 OA
ATOM    103  O   UNL A   1      46.513  23.014  36.606  1.00  0.00    -0.744 OA
ENDBRANCH  96 100
ENDBRANCH  70  93
ENDBRANCH  44  45
ENDBRANCH  36  39
ENDBRANCH  34  35
ENDBRANCH  33  34
ENDBRANCH  32  33
ENDBRANCH  31  32
ENDBRANCH   3  31
TORSDOF 21
ENDMDL
