MODEL 1
REMARK VINA RESULT:     -11.5      0.000      0.000
REMARK SMILES COc1ccc([C@H]2CC(c3ccc(S(C)(=O)=O)cc3)=NN2c2ccc(C(=O)NCCCCNC(=O)c3ccc(-c4c5nc(c(-c6cc(S(=O)(=O)[O-])ccc6F)c6ccc([nH]6)c(-c6cc(S(=O)(=O)[O-])ccc6F)c6nc(c(-c7cc(S(=O)(=O)[O-])ccc7F)c7ccc4[nH]7)C=C6)C=C5)cc3)cc2)cc1
REMARK SMILES IDX 30 1 29 2 28 3 26 4 27 5 25 7 22 8 23 9 100 10 24 11 99 12
REMARK SMILES IDX 21 13 7 14 8 15 9 16 20 17 6 18 3 19 4 20 102 21 5 22 101 23
REMARK SMILES IDX 2 24 1 25 10 26 11 27 19 28 12 29 18 30 13 31 14 32 15 33
REMARK SMILES IDX 16 34 17 35 31 36 32 37 33 38 34 39 35 41 36 42 37 43 98 44
REMARK SMILES IDX 38 45 97 46 39 47 40 48 41 49 91 50 42 51 96 52 90 53 92 54
REMARK SMILES IDX 43 55 95 56 89 57 88 58 44 60 76 61 56 62 75 63 57 64 60 65
REMARK SMILES IDX 74 66 93 67 58 68 59 69 73 71 94 72 61 73 45 74 46 75 54 76
REMARK SMILES IDX 47 77 53 78 55 79 52 80 48 81 49 82 50 83 51 84 77 85 78 86
REMARK SMILES IDX 86 87 79 88 85 89 87 90 84 91 80 92 81 93 82 94 83 95 62 96
REMARK SMILES IDX 63 97 71 98 64 99 70 100 72 101 69 102 65 103 66 104 67 105
REMARK SMILES IDX 68 106
REMARK H PARENT 28 6 33 40 92 59 60 70
REMARK Flexibility Score: inf
ROOT
ATOM      1  C   UNL A   1      37.045  29.438  30.417  1.00  0.00     0.023 C 
ENDROOT
BRANCH   1   2
ATOM      2  C   UNL A   1      36.391  29.371  29.034  1.00  0.00     0.116 C 
BRANCH   2   3
ATOM      3  N   UNL A   1      35.539  30.523  28.827  1.00  0.00    -0.352 N 
ATOM      4  C   UNL A   1      34.441  30.717  28.029  1.00  0.00     0.251 C 
ATOM      5  O   UNL A   1      33.907  31.826  28.051  1.00  0.00    -0.269 OA
ATOM      6  H   UNL A   1      35.794  31.312  29.358  1.00  0.00     0.163 HD
BRANCH   4   7
ATOM      7  C   UNL A   1      33.834  29.637  27.200  1.00  0.00     0.039 A 
ATOM      8  C   UNL A   1      32.584  27.482  25.873  1.00  0.00     0.060 A 
ATOM      9  C   UNL A   1      31.887  28.234  26.822  1.00  0.00     0.029 A 
ATOM     10  C   UNL A   1      33.876  27.872  25.531  1.00  0.00     0.029 A 
ATOM     11  C   UNL A   1      32.510  29.286  27.496  1.00  0.00     0.016 A 
ATOM     12  C   UNL A   1      34.478  28.964  26.158  1.00  0.00     0.016 A 
BRANCH   8  13
ATOM     13  N   UNL A   1      32.006  26.353  25.325  1.00  0.00    -0.257 N 
ATOM     14  C   UNL A   1      30.612  26.282  24.894  1.00  0.00     0.144 C 
ATOM     15  C   UNL A   1      30.499  24.833  24.400  1.00  0.00     0.091 C 
ATOM     16  C   UNL A   1      31.842  24.308  24.833  1.00  0.00     0.071 C 
ATOM     17  N   UNL A   1      32.660  25.173  25.342  1.00  0.00    -0.176 NA
BRANCH  14  18
ATOM     18  C   UNL A   1      30.312  27.325  23.830  1.00  0.00    -0.023 A 
ATOM     19  C   UNL A   1      29.770  29.401  21.999  1.00  0.00     0.118 A 
ATOM     20  C   UNL A   1      28.743  28.842  22.758  1.00  0.00     0.047 A 
ATOM     21  C   UNL A   1      31.072  28.936  22.162  1.00  0.00     0.047 A 
ATOM     22  C   UNL A   1      29.005  27.807  23.661  1.00  0.00     0.010 A 
ATOM     23  C   UNL A   1      31.339  27.904  23.067  1.00  0.00     0.010 A 
BRANCH  19  24
ATOM     24  O   UNL A   1      29.401  30.433  21.181  1.00  0.00    -0.497 OA
ATOM     25  C   UNL A   1      28.001  30.670  21.093  1.00  0.00     0.278 C 
ENDBRANCH  19  24
ENDBRANCH  14  18
BRANCH  16  26
ATOM     26  C   UNL A   1      32.197  22.894  24.702  1.00  0.00    -0.002 A 
ATOM     27  C   UNL A   1      32.059  22.286  23.448  1.00  0.00     0.011 A 
ATOM     28  C   UNL A   1      32.597  22.160  25.819  1.00  0.00     0.011 A 
ATOM     29  C   UNL A   1      32.337  20.928  23.305  1.00  0.00     0.021 A 
ATOM     30  C   UNL A   1      32.850  20.793  25.683  1.00  0.00     0.021 A 
ATOM     31  C   UNL A   1      32.715  20.186  24.429  1.00  0.00     0.067 A 
BRANCH  31  32
ATOM     32  S   UNL A   1      33.039  18.448  24.245  1.00  0.00     0.175 S 
ATOM     33  C   UNL A   1      32.525  18.077  22.589  1.00  0.00     0.163 C 
ATOM     34  O   UNL A   1      34.476  18.280  24.331  1.00  0.00    -0.224 OA
ATOM     35  O   UNL A   1      32.150  17.738  25.147  1.00  0.00    -0.224 OA
ENDBRANCH  31  32
ENDBRANCH  16  26
ENDBRANCH   8  13
ENDBRANCH   4   7
ENDBRANCH   2   3
ENDBRANCH   1   2
BRANCH   1  36
ATOM     36  C   UNL A   1      36.324  30.366  31.394  1.00  0.00     0.023 C 
BRANCH  36  37
ATOM     37  C   UNL A   1      37.078  30.616  32.693  1.00  0.00     0.116 C 
BRANCH  37  38
ATOM     38  N   UNL A   1      37.358  32.025  32.931  1.00  0.00    -0.352 N 
ATOM     39  C   UNL A   1      38.507  32.713  32.618  1.00  0.00     0.251 C 
ATOM     40  H   UNL A   1      36.642  32.545  33.366  1.00  0.00     0.163 HD
ATOM     41  O   UNL A   1      38.664  33.873  32.980  1.00  0.00    -0.269 OA
BRANCH  39  42
ATOM     42  C   UNL A   1      39.561  31.993  31.877  1.00  0.00     0.039 A 
ATOM     43  C   UNL A   1      39.533  31.994  30.482  1.00  0.00     0.014 A 
ATOM     44  C   UNL A   1      40.635  31.432  32.572  1.00  0.00     0.014 A 
ATOM     45  C   UNL A   1      40.631  31.499  29.778  1.00  0.00     0.010 A 
ATOM     46  C   UNL A   1      41.758  31.016  31.871  1.00  0.00     0.010 A 
ATOM     47  C   UNL A   1      41.771  31.051  30.466  1.00  0.00    -0.014 A 
BRANCH  47  48
ATOM     48  C   UNL A   1      42.997  30.613  29.749  1.00  0.00     0.031 A 
ATOM     49  C   UNL A   1      43.181  29.158  29.420  1.00  0.00     0.074 A 
ATOM     50  C   UNL A   1      43.975  31.501  29.480  1.00  0.00     0.049 A 
ATOM     51  N   UNL A   1      44.228  28.543  28.934  1.00  0.00    -0.248 NA
ATOM     52  C   UNL A   1      42.045  28.271  29.715  1.00  0.00     0.031 C 
ATOM     53  C   UNL A   1      43.924  32.934  29.778  1.00  0.00     0.029 A 
ATOM     54  N   UNL A   1      45.213  31.326  28.911  1.00  0.00    -0.354 N 
ATOM     55  C   UNL A   1      43.885  27.197  28.882  1.00  0.00     0.074 A 
ATOM     56  C   UNL A   1      42.558  27.080  29.449  1.00  0.00     0.031 C 
ATOM     57  C   UNL A   1      45.068  33.509  29.373  1.00  0.00     0.029 A 
ATOM     58  C   UNL A   1      45.959  32.482  28.842  1.00  0.00     0.049 A 
ATOM     59  H   UNL A   1      45.537  30.457  28.583  1.00  0.00     0.167 HD
ATOM     60  C   UNL A   1      44.604  26.158  28.390  1.00  0.00     0.034 A 
ATOM     61  C   UNL A   1      47.224  32.686  28.421  1.00  0.00     0.034 A 
ATOM     62  C   UNL A   1      45.923  26.299  27.822  1.00  0.00     0.049 A 
ATOM     63  C   UNL A   1      48.021  31.509  27.915  1.00  0.00     0.074 A 
ATOM     64  C   UNL A   1      46.721  25.324  27.249  1.00  0.00     0.029 A 
ATOM     65  N   UNL A   1      46.643  27.485  27.766  1.00  0.00    -0.354 N 
ATOM     66  N   UNL A   1      47.670  30.246  27.837  1.00  0.00    -0.248 NA
ATOM     67  C   UNL A   1      49.381  31.785  27.434  1.00  0.00     0.031 C 
ATOM     68  C   UNL A   1      47.951  25.902  26.922  1.00  0.00     0.029 A 
ATOM     69  C   UNL A   1      47.889  27.259  27.199  1.00  0.00     0.049 A 
ATOM     70  H   UNL A   1      46.319  28.359  28.082  1.00  0.00     0.167 HD
ATOM     71  C   UNL A   1      48.751  29.586  27.257  1.00  0.00     0.074 A 
ATOM     72  C   UNL A   1      49.763  30.591  27.005  1.00  0.00     0.031 C 
ATOM     73  C   UNL A   1      48.890  28.271  26.951  1.00  0.00     0.034 A 
BRANCH  60  74
ATOM     74  C   UNL A   1      43.986  24.783  28.476  1.00  0.00     0.023 A 
ATOM     75  C   UNL A   1      43.373  24.174  27.367  1.00  0.00     0.031 A 
ATOM     76  C   UNL A   1      43.979  24.081  29.696  1.00  0.00     0.131 A 
ATOM     77  C   UNL A   1      42.707  22.949  27.518  1.00  0.00     0.055 A 
ATOM     78  C   UNL A   1      43.395  22.819  29.816  1.00  0.00     0.041 A 
ATOM     79  F   UNL A   1      44.526  24.619  30.798  1.00  0.00    -0.206 F 
ATOM     80  C   UNL A   1      42.739  22.252  28.727  1.00  0.00     0.022 A 
BRANCH  77  81
ATOM     81  S   UNL A   1      41.663  22.360  26.157  1.00  0.00     0.124 S 
ATOM     82  O   UNL A   1      42.535  22.576  25.003  1.00  0.00    -0.237 OA
ATOM     83  O   UNL A   1      41.420  20.971  26.522  1.00  0.00    -0.237 OA
ATOM     84  O   UNL A   1      40.496  23.238  26.217  1.00  0.00    -0.744 OA
ENDBRANCH  77  81
ENDBRANCH  60  74
BRANCH  61  85
ATOM     85  C   UNL A   1      47.827  34.049  28.475  1.00  0.00     0.023 A 
ATOM     86  C   UNL A   1      47.862  34.872  27.337  1.00  0.00     0.031 A 
ATOM     87  C   UNL A   1      48.415  34.537  29.657  1.00  0.00     0.131 A 
ATOM     88  C   UNL A   1      48.515  36.113  27.390  1.00  0.00     0.055 A 
ATOM     89  C   UNL A   1      49.010  35.799  29.720  1.00  0.00     0.041 A 
ATOM     90  F   UNL A   1      48.408  33.794  30.775  1.00  0.00    -0.206 F 
ATOM     91  C   UNL A   1      49.074  36.589  28.578  1.00  0.00     0.022 A 
BRANCH  88  92
ATOM     92  S   UNL A   1      48.702  37.062  25.855  1.00  0.00     0.124 S 
ATOM     93  O   UNL A   1      47.382  37.668  25.719  1.00  0.00    -0.237 OA
ATOM     94  O   UNL A   1      49.794  37.970  26.190  1.00  0.00    -0.237 OA
ATOM     95  O   UNL A   1      49.025  36.041  24.861  1.00  0.00    -0.744 OA
ENDBRANCH  88  92
ENDBRANCH  61  85
BRANCH  73  96
ATOM     96  C   UNL A   1      50.155  27.852  26.240  1.00  0.00     0.023 A 
ATOM     97  C   UNL A   1      50.406  28.186  24.898  1.00  0.00     0.031 A 
ATOM     98  C   UNL A   1      51.134  27.116  26.932  1.00  0.00     0.131 A 
ATOM     99  C   UNL A   1      51.586  27.745  24.279  1.00  0.00     0.055 A 
ATOM    100  C   UNL A   1      52.334  26.736  26.330  1.00  0.00     0.041 A 
ATOM    101  F   UNL A   1      50.946  26.765  28.215  1.00  0.00    -0.206 F 
ATOM    102  C   UNL A   1      52.560  27.041  24.992  1.00  0.00     0.022 A 
BRANCH  99 103
ATOM    103  S   UNL A   1      51.798  28.031  22.499  1.00  0.00     0.124 S 
ATOM    104  O   UNL A   1      53.174  28.513  22.432  1.00  0.00    -0.237 OA
ATOM    105  O   UNL A   1      51.557  26.706  21.939  1.00  0.00    -0.237 OA
ATOM    106  O   UNL A   1      50.776  29.029  22.189  1.00  0.00    -0.744 OA
ENDBRANCH  99 103
ENDBRANCH  73  96
ENDBRANCH  47  48
ENDBRANCH  39  42
ENDBRANCH  37  38
ENDBRANCH  36  37
ENDBRANCH   1  36
TORSDOF 19
ENDMDL
MODEL 2
REMARK VINA RESULT:     -11.4      4.430      9.081
REMARK SMILES COc1ccc([C@H]2CC(c3ccc(S(C)(=O)=O)cc3)=NN2c2ccc(C(=O)NCCCCNC(=O)c3ccc(-c4c5nc(c(-c6cc(S(=O)(=O)[O-])ccc6F)c6ccc([nH]6)c(-c6cc(S(=O)(=O)[O-])ccc6F)c6nc(c(-c7cc(S(=O)(=O)[O-])ccc7F)c7ccc4[nH]7)C=C6)C=C5)cc3)cc2)cc1
REMARK SMILES IDX 30 1 29 2 28 3 26 4 27 5 25 7 22 8 23 9 100 10 24 11 99 12
REMARK SMILES IDX 21 13 7 14 8 15 9 16 20 17 6 18 3 19 4 20 102 21 5 22 101 23
REMARK SMILES IDX 2 24 1 25 10 26 11 27 19 28 12 29 18 30 13 31 14 32 15 33
REMARK SMILES IDX 16 34 17 35 31 36 32 37 33 38 34 39 35 41 36 42 37 43 98 44
REMARK SMILES IDX 38 45 97 46 39 47 40 48 41 49 91 50 42 51 96 52 90 53 92 54
REMARK SMILES IDX 43 55 95 56 89 57 88 58 44 60 76 61 56 62 75 63 57 64 60 65
REMARK SMILES IDX 74 66 93 67 58 68 59 69 73 71 94 72 61 73 45 74 46 75 54 76
REMARK SMILES IDX 47 77 53 78 55 79 52 80 48 81 49 82 50 83 51 84 77 85 78 86
REMARK SMILES IDX 86 87 79 88 85 89 87 90 84 91 80 92 81 93 82 94 83 95 62 96
REMARK SMILES IDX 63 97 71 98 64 99 70 100 72 101 69 102 65 103 66 104 67 105
REMARK SMILES IDX 68 106
REMARK H PARENT 28 6 33 40 92 59 60 70
REMARK Flexibility Score: inf
ROOT
ATOM      1  C   UNL A   1      37.456  29.611  28.389  1.00  0.00     0.023 C 
ENDROOT
BRANCH   1   2
ATOM      2  C   UNL A   1      36.099  29.590  29.098  1.00  0.00     0.116 C 
BRANCH   2   3
ATOM      3  N   UNL A   1      35.204  30.553  28.493  1.00  0.00    -0.352 N 
ATOM      4  C   UNL A   1      34.135  30.403  27.647  1.00  0.00     0.251 C 
ATOM      5  O   UNL A   1      33.549  31.422  27.280  1.00  0.00    -0.269 OA
ATOM      6  H   UNL A   1      35.399  31.488  28.732  1.00  0.00     0.163 HD
BRANCH   4   7
ATOM      7  C   UNL A   1      33.616  29.074  27.216  1.00  0.00     0.039 A 
ATOM      8  C   UNL A   1      32.727  26.621  26.137  1.00  0.00     0.060 A 
ATOM      9  C   UNL A   1      34.022  27.082  25.886  1.00  0.00     0.029 A 
ATOM     10  C   UNL A   1      31.916  27.351  27.003  1.00  0.00     0.029 A 
ATOM     11  C   UNL A   1      34.456  28.306  26.399  1.00  0.00     0.016 A 
ATOM     12  C   UNL A   1      32.373  28.543  27.568  1.00  0.00     0.016 A 
BRANCH   8  13
ATOM     13  N   UNL A   1      32.261  25.487  25.502  1.00  0.00    -0.257 N 
ATOM     14  C   UNL A   1      30.889  25.329  25.026  1.00  0.00     0.144 C 
ATOM     15  C   UNL A   1      30.911  23.910  24.439  1.00  0.00     0.091 C 
ATOM     16  C   UNL A   1      32.283  23.472  24.876  1.00  0.00     0.071 C 
ATOM     17  N   UNL A   1      33.013  24.367  25.463  1.00  0.00    -0.176 NA
BRANCH  14  18
ATOM     18  C   UNL A   1      30.527  26.410  24.022  1.00  0.00    -0.023 A 
ATOM     19  C   UNL A   1      29.885  28.554  22.305  1.00  0.00     0.118 A 
ATOM     20  C   UNL A   1      28.911  27.993  23.130  1.00  0.00     0.047 A 
ATOM     21  C   UNL A   1      31.185  28.057  22.345  1.00  0.00     0.047 A 
ATOM     22  C   UNL A   1      29.222  26.924  23.977  1.00  0.00     0.010 A 
ATOM     23  C   UNL A   1      31.501  26.992  23.195  1.00  0.00     0.010 A 
BRANCH  19  24
ATOM     24  O   UNL A   1      29.474  29.619  21.552  1.00  0.00    -0.497 OA
ATOM     25  C   UNL A   1      28.866  30.681  22.278  1.00  0.00     0.278 C 
ENDBRANCH  19  24
ENDBRANCH  14  18
BRANCH  16  26
ATOM     26  C   UNL A   1      32.761  22.104  24.666  1.00  0.00    -0.002 A 
ATOM     27  C   UNL A   1      31.971  21.233  23.907  1.00  0.00     0.011 A 
ATOM     28  C   UNL A   1      33.941  21.668  25.269  1.00  0.00     0.011 A 
ATOM     29  C   UNL A   1      32.373  19.909  23.735  1.00  0.00     0.021 A 
ATOM     30  C   UNL A   1      34.331  20.335  25.121  1.00  0.00     0.021 A 
ATOM     31  C   UNL A   1      33.543  19.464  24.358  1.00  0.00     0.067 A 
BRANCH  31  32
ATOM     32  S   UNL A   1      34.034  17.767  24.161  1.00  0.00     0.175 S 
ATOM     33  C   UNL A   1      33.008  16.877  25.301  1.00  0.00     0.163 C 
ATOM     34  O   UNL A   1      33.668  17.381  22.813  1.00  0.00    -0.224 OA
ATOM     35  O   UNL A   1      35.404  17.650  24.624  1.00  0.00    -0.224 OA
ENDBRANCH  31  32
ENDBRANCH  16  26
ENDBRANCH   8  13
ENDBRANCH   4   7
ENDBRANCH   2   3
ENDBRANCH   1   2
BRANCH   1  36
ATOM     36  C   UNL A   1      37.960  28.225  27.985  1.00  0.00     0.023 C 
BRANCH  36  37
ATOM     37  C   UNL A   1      38.882  27.572  29.005  1.00  0.00     0.116 C 
BRANCH  37  38
ATOM     38  N   UNL A   1      39.829  26.640  28.408  1.00  0.00    -0.352 N 
ATOM     39  C   UNL A   1      41.186  26.808  28.260  1.00  0.00     0.251 C 
ATOM     40  H   UNL A   1      39.455  25.793  28.071  1.00  0.00     0.163 HD
ATOM     41  O   UNL A   1      41.855  25.997  27.633  1.00  0.00    -0.269 OA
BRANCH  39  42
ATOM     42  C   UNL A   1      41.797  28.019  28.842  1.00  0.00     0.039 A 
ATOM     43  C   UNL A   1      41.650  29.239  28.182  1.00  0.00     0.014 A 
ATOM     44  C   UNL A   1      42.400  27.953  30.100  1.00  0.00     0.014 A 
ATOM     45  C   UNL A   1      42.039  30.414  28.826  1.00  0.00     0.010 A 
ATOM     46  C   UNL A   1      42.711  29.129  30.770  1.00  0.00     0.010 A 
ATOM     47  C   UNL A   1      42.528  30.373  30.142  1.00  0.00    -0.014 A 
BRANCH  47  48
ATOM     48  C   UNL A   1      42.856  31.611  30.895  1.00  0.00     0.031 A 
ATOM     49  C   UNL A   1      41.878  32.145  31.905  1.00  0.00     0.074 A 
ATOM     50  C   UNL A   1      43.979  32.298  30.606  1.00  0.00     0.049 A 
ATOM     51  N   UNL A   1      41.898  33.275  32.563  1.00  0.00    -0.248 NA
ATOM     52  C   UNL A   1      40.701  31.307  32.182  1.00  0.00     0.031 C 
ATOM     53  C   UNL A   1      44.990  31.897  29.625  1.00  0.00     0.029 A 
ATOM     54  N   UNL A   1      44.452  33.491  31.097  1.00  0.00    -0.354 N 
ATOM     55  C   UNL A   1      40.730  33.294  33.316  1.00  0.00     0.074 A 
ATOM     56  C   UNL A   1      39.996  32.092  32.981  1.00  0.00     0.031 C 
ATOM     57  C   UNL A   1      45.969  32.815  29.601  1.00  0.00     0.029 A 
ATOM     58  C   UNL A   1      45.632  33.900  30.517  1.00  0.00     0.049 A 
ATOM     59  H   UNL A   1      43.992  34.005  31.799  1.00  0.00     0.167 HD
ATOM     60  C   UNL A   1      40.318  34.219  34.217  1.00  0.00     0.034 A 
ATOM     61  C   UNL A   1      46.348  35.031  30.686  1.00  0.00     0.034 A 
ATOM     62  C   UNL A   1      41.071  35.407  34.541  1.00  0.00     0.049 A 
ATOM     63  C   UNL A   1      45.850  36.067  31.664  1.00  0.00     0.074 A 
ATOM     64  C   UNL A   1      40.774  36.385  35.474  1.00  0.00     0.029 A 
ATOM     65  N   UNL A   1      42.263  35.784  33.936  1.00  0.00    -0.354 N 
ATOM     66  N   UNL A   1      44.762  36.054  32.399  1.00  0.00    -0.248 NA
ATOM     67  C   UNL A   1      46.681  37.265  31.842  1.00  0.00     0.031 C 
ATOM     68  C   UNL A   1      41.738  37.392  35.375  1.00  0.00     0.029 A 
ATOM     69  C   UNL A   1      42.694  36.998  34.451  1.00  0.00     0.049 A 
ATOM     70  H   UNL A   1      42.732  35.268  33.242  1.00  0.00     0.167 HD
ATOM     71  C   UNL A   1      44.801  37.222  33.157  1.00  0.00     0.074 A 
ATOM     72  C   UNL A   1      46.021  37.912  32.791  1.00  0.00     0.031 C 
ATOM     73  C   UNL A   1      43.914  37.677  34.079  1.00  0.00     0.034 A 
BRANCH  60  74
ATOM     74  C   UNL A   1      38.983  33.992  34.886  1.00  0.00     0.023 A 
ATOM     75  C   UNL A   1      38.880  33.364  36.140  1.00  0.00     0.031 A 
ATOM     76  C   UNL A   1      37.792  34.378  34.245  1.00  0.00     0.131 A 
ATOM     77  C   UNL A   1      37.616  33.066  36.672  1.00  0.00     0.055 A 
ATOM     78  C   UNL A   1      36.540  34.161  34.825  1.00  0.00     0.041 A 
ATOM     79  F   UNL A   1      37.822  34.959  33.036  1.00  0.00    -0.206 F 
ATOM     80  C   UNL A   1      36.446  33.485  36.038  1.00  0.00     0.022 A 
BRANCH  77  81
ATOM     81  S   UNL A   1      37.526  31.978  38.121  1.00  0.00     0.124 S 
ATOM     82  O   UNL A   1      37.498  30.657  37.496  1.00  0.00    -0.237 OA
ATOM     83  O   UNL A   1      38.744  32.316  38.847  1.00  0.00    -0.237 OA
ATOM     84  O   UNL A   1      36.279  32.376  38.771  1.00  0.00    -0.744 OA
ENDBRANCH  77  81
ENDBRANCH  60  74
BRANCH  61  85
ATOM     85  C   UNL A   1      47.598  35.258  29.904  1.00  0.00     0.023 A 
ATOM     86  C   UNL A   1      47.566  35.914  28.662  1.00  0.00     0.031 A 
ATOM     87  C   UNL A   1      48.840  34.787  30.368  1.00  0.00     0.131 A 
ATOM     88  C   UNL A   1      48.741  36.037  27.906  1.00  0.00     0.055 A 
ATOM     89  C   UNL A   1      50.017  34.965  29.637  1.00  0.00     0.041 A 
ATOM     90  F   UNL A   1      48.929  34.155  31.549  1.00  0.00    -0.206 F 
ATOM     91  C   UNL A   1      49.969  35.582  28.392  1.00  0.00     0.022 A 
BRANCH  88  92
ATOM     92  S   UNL A   1      48.627  36.722  26.229  1.00  0.00     0.124 S 
ATOM     93  O   UNL A   1      47.371  36.149  25.761  1.00  0.00    -0.237 OA
ATOM     94  O   UNL A   1      48.621  38.158  26.488  1.00  0.00    -0.237 OA
ATOM     95  O   UNL A   1      49.829  36.215  25.572  1.00  0.00    -0.744 OA
ENDBRANCH  88  92
ENDBRANCH  61  85
BRANCH  73  96
ATOM     96  C   UNL A   1      44.267  38.947  34.815  1.00  0.00     0.023 A 
ATOM     97  C   UNL A   1      43.784  40.205  34.414  1.00  0.00     0.031 A 
ATOM     98  C   UNL A   1      45.092  38.889  35.953  1.00  0.00     0.131 A 
ATOM     99  C   UNL A   1      44.168  41.357  35.119  1.00  0.00     0.055 A 
ATOM    100  C   UNL A   1      45.418  40.029  36.687  1.00  0.00     0.041 A 
ATOM    101  F   UNL A   1      45.586  37.715  36.379  1.00  0.00    -0.206 F 
ATOM    102  C   UNL A   1      44.964  41.274  36.264  1.00  0.00     0.022 A 
BRANCH  99 103
ATOM    103  S   UNL A   1      43.683  42.980  34.470  1.00  0.00     0.124 S 
ATOM    104  O   UNL A   1      42.404  43.203  35.137  1.00  0.00    -0.237 OA
ATOM    105  O   UNL A   1      44.786  43.832  34.902  1.00  0.00    -0.237 OA
ATOM    106  O   UNL A   1      43.599  42.761  33.027  1.00  0.00    -0.744 OA
ENDBRANCH  99 103
ENDBRANCH  73  96
ENDBRANCH  47  48
ENDBRANCH  39  42
ENDBRANCH  37  38
ENDBRANCH  36  37
ENDBRANCH   1  36
TORSDOF 19
ENDMDL
MODEL 3
REMARK VINA RESULT:     -11.2      1.343      7.174
REMARK SMILES COc1ccc([C@H]2CC(c3ccc(S(C)(=O)=O)cc3)=NN2c2ccc(C(=O)NCCCCNC(=O)c3ccc(-c4c5nc(c(-c6cc(S(=O)(=O)[O-])ccc6F)c6ccc([nH]6)c(-c6cc(S(=O)(=O)[O-])ccc6F)c6nc(c(-c7cc(S(=O)(=O)[O-])ccc7F)c7ccc4[nH]7)C=C6)C=C5)cc3)cc2)cc1
REMARK SMILES IDX 30 1 29 2 28 3 26 4 27 5 25 7 22 8 23 9 100 10 24 11 99 12
REMARK SMILES IDX 21 13 7 14 8 15 9 16 20 17 6 18 3 19 4 20 102 21 5 22 101 23
REMARK SMILES IDX 2 24 1 25 10 26 11 27 19 28 12 29 18 30 13 31 14 32 15 33
REMARK SMILES IDX 16 34 17 35 31 36 32 37 33 38 34 39 35 41 36 42 37 43 98 44
REMARK SMILES IDX 38 45 97 46 39 47 40 48 41 49 91 50 42 51 96 52 90 53 92 54
REMARK SMILES IDX 43 55 95 56 89 57 88 58 44 60 76 61 56 62 75 63 57 64 60 65
REMARK SMILES IDX 74 66 93 67 58 68 59 69 73 71 94 72 61 73 45 74 46 75 54 76
REMARK SMILES IDX 47 77 53 78 55 79 52 80 48 81 49 82 50 83 51 84 77 85 78 86
REMARK SMILES IDX 86 87 79 88 85 89 87 90 84 91 80 92 81 93 82 94 83 95 62 96
REMARK SMILES IDX 63 97 71 98 64 99 70 100 72 101 69 102 65 103 66 104 67 105
REMARK SMILES IDX 68 106
REMARK H PARENT 28 6 33 40 92 59 60 70
REMARK Flexibility Score: inf
ROOT
ATOM      1  C   UNL A   1      36.501  29.826  30.595  1.00  0.00     0.023 C 
ENDROOT
BRANCH   1   2
ATOM      2  C   UNL A   1      36.029  29.712  29.144  1.00  0.00     0.116 C 
BRANCH   2   3
ATOM      3  N   UNL A   1      35.242  30.871  28.781  1.00  0.00    -0.352 N 
ATOM      4  C   UNL A   1      34.224  31.041  27.877  1.00  0.00     0.251 C 
ATOM      5  O   UNL A   1      33.734  32.165  27.773  1.00  0.00    -0.269 OA
ATOM      6  H   UNL A   1      35.482  31.690  29.273  1.00  0.00     0.163 HD
BRANCH   4   7
ATOM      7  C   UNL A   1      33.648  29.922  27.078  1.00  0.00     0.039 A 
ATOM      8  C   UNL A   1      32.425  27.720  25.804  1.00  0.00     0.060 A 
ATOM      9  C   UNL A   1      31.675  28.588  26.602  1.00  0.00     0.029 A 
ATOM     10  C   UNL A   1      33.767  28.015  25.578  1.00  0.00     0.029 A 
ATOM     11  C   UNL A   1      32.282  29.664  27.252  1.00  0.00     0.016 A 
ATOM     12  C   UNL A   1      34.360  29.128  26.176  1.00  0.00     0.016 A 
BRANCH   8  13
ATOM     13  N   UNL A   1      31.845  26.577  25.290  1.00  0.00    -0.257 N 
ATOM     14  C   UNL A   1      30.444  26.490  24.880  1.00  0.00     0.144 C 
ATOM     15  C   UNL A   1      30.331  25.029  24.422  1.00  0.00     0.091 C 
ATOM     16  C   UNL A   1      31.682  24.521  24.848  1.00  0.00     0.071 C 
ATOM     17  N   UNL A   1      32.504  25.400  25.325  1.00  0.00    -0.176 NA
BRANCH  14  18
ATOM     18  C   UNL A   1      30.125  27.507  23.797  1.00  0.00    -0.023 A 
ATOM     19  C   UNL A   1      29.540  29.537  21.927  1.00  0.00     0.118 A 
ATOM     20  C   UNL A   1      28.521  28.952  22.679  1.00  0.00     0.047 A 
ATOM     21  C   UNL A   1      30.855  29.121  22.118  1.00  0.00     0.047 A 
ATOM     22  C   UNL A   1      28.805  27.939  23.600  1.00  0.00     0.010 A 
ATOM     23  C   UNL A   1      31.144  28.112  23.042  1.00  0.00     0.010 A 
BRANCH  19  24
ATOM     24  O   UNL A   1      29.147  30.543  21.089  1.00  0.00    -0.497 OA
ATOM     25  C   UNL A   1      28.039  31.314  21.539  1.00  0.00     0.278 C 
ENDBRANCH  19  24
ENDBRANCH  14  18
BRANCH  16  26
ATOM     26  C   UNL A   1      32.042  23.105  24.745  1.00  0.00    -0.002 A 
ATOM     27  C   UNL A   1      32.671  22.662  23.575  1.00  0.00     0.011 A 
ATOM     28  C   UNL A   1      31.701  22.214  25.762  1.00  0.00     0.011 A 
ATOM     29  C   UNL A   1      32.976  21.310  23.426  1.00  0.00     0.021 A 
ATOM     30  C   UNL A   1      31.981  20.855  25.603  1.00  0.00     0.021 A 
ATOM     31  C   UNL A   1      32.614  20.412  24.435  1.00  0.00     0.067 A 
BRANCH  31  32
ATOM     32  S   UNL A   1      32.978  18.685  24.224  1.00  0.00     0.175 S 
ATOM     33  C   UNL A   1      32.412  18.313  22.585  1.00  0.00     0.163 C 
ATOM     34  O   UNL A   1      34.421  18.556  24.255  1.00  0.00    -0.224 OA
ATOM     35  O   UNL A   1      32.143  17.944  25.153  1.00  0.00    -0.224 OA
ENDBRANCH  31  32
ENDBRANCH  16  26
ENDBRANCH   8  13
ENDBRANCH   4   7
ENDBRANCH   2   3
ENDBRANCH   1   2
BRANCH   1  36
ATOM     36  C   UNL A   1      35.900  31.013  31.346  1.00  0.00     0.023 C 
BRANCH  36  37
ATOM     37  C   UNL A   1      36.584  31.328  32.670  1.00  0.00     0.116 C 
BRANCH  37  38
ATOM     38  N   UNL A   1      36.884  32.744  32.837  1.00  0.00    -0.352 N 
ATOM     39  C   UNL A   1      38.076  33.381  32.583  1.00  0.00     0.251 C 
ATOM     40  H   UNL A   1      36.149  33.310  33.169  1.00  0.00     0.163 HD
ATOM     41  O   UNL A   1      38.235  34.558  32.878  1.00  0.00    -0.269 OA
BRANCH  39  42
ATOM     42  C   UNL A   1      39.169  32.585  31.989  1.00  0.00     0.039 A 
ATOM     43  C   UNL A   1      39.262  32.487  30.601  1.00  0.00     0.014 A 
ATOM     44  C   UNL A   1      40.162  32.051  32.814  1.00  0.00     0.014 A 
ATOM     45  C   UNL A   1      40.402  31.919  30.032  1.00  0.00     0.010 A 
ATOM     46  C   UNL A   1      41.329  31.561  32.244  1.00  0.00     0.010 A 
ATOM     47  C   UNL A   1      41.465  31.495  30.847  1.00  0.00    -0.014 A 
BRANCH  47  48
ATOM     48  C   UNL A   1      42.735  30.979  30.274  1.00  0.00     0.031 A 
ATOM     49  C   UNL A   1      43.798  31.949  29.836  1.00  0.00     0.074 A 
ATOM     50  C   UNL A   1      42.892  29.658  30.063  1.00  0.00     0.049 A 
ATOM     51  N   UNL A   1      44.909  31.724  29.184  1.00  0.00    -0.248 NA
ATOM     52  C   UNL A   1      43.555  33.368  30.143  1.00  0.00     0.031 C 
ATOM     53  C   UNL A   1      41.919  28.621  30.417  1.00  0.00     0.029 A 
ATOM     54  N   UNL A   1      43.921  28.958  29.482  1.00  0.00    -0.354 N 
ATOM     55  C   UNL A   1      45.488  32.971  28.985  1.00  0.00     0.074 A 
ATOM     56  C   UNL A   1      44.572  33.952  29.528  1.00  0.00     0.031 C 
ATOM     57  C   UNL A   1      42.406  27.421  30.064  1.00  0.00     0.029 A 
ATOM     58  C   UNL A   1      43.696  27.601  29.405  1.00  0.00     0.049 A 
ATOM     59  H   UNL A   1      44.744  29.385  29.152  1.00  0.00     0.167 HD
ATOM     60  C   UNL A   1      46.684  33.270  28.419  1.00  0.00     0.034 A 
ATOM     61  C   UNL A   1      44.432  26.619  28.847  1.00  0.00     0.034 A 
ATOM     62  C   UNL A   1      47.586  32.275  27.891  1.00  0.00     0.049 A 
ATOM     63  C   UNL A   1      45.741  26.977  28.185  1.00  0.00     0.074 A 
ATOM     64  C   UNL A   1      48.843  32.459  27.342  1.00  0.00     0.029 A 
ATOM     65  N   UNL A   1      47.324  30.912  27.835  1.00  0.00    -0.354 N 
ATOM     66  N   UNL A   1      46.295  28.159  28.037  1.00  0.00    -0.248 NA
ATOM     67  C   UNL A   1      46.525  25.871  27.622  1.00  0.00     0.031 C 
ATOM     68  C   UNL A   1      49.305  31.223  26.881  1.00  0.00     0.029 A 
ATOM     69  C   UNL A   1      48.381  30.249  27.230  1.00  0.00     0.049 A 
ATOM     70  H   UNL A   1      46.508  30.479  28.175  1.00  0.00     0.167 HD
ATOM     71  C   UNL A   1      47.514  27.930  27.403  1.00  0.00     0.074 A 
ATOM     72  C   UNL A   1      47.612  26.499  27.200  1.00  0.00     0.031 C 
ATOM     73  C   UNL A   1      48.469  28.820  27.032  1.00  0.00     0.034 A 
BRANCH  60  74
ATOM     74  C   UNL A   1      47.061  34.728  28.318  1.00  0.00     0.023 A 
ATOM     75  C   UNL A   1      47.797  35.376  29.327  1.00  0.00     0.031 A 
ATOM     76  C   UNL A   1      46.649  35.495  27.213  1.00  0.00     0.131 A 
ATOM     77  C   UNL A   1      48.024  36.758  29.251  1.00  0.00     0.055 A 
ATOM     78  C   UNL A   1      46.960  36.851  27.100  1.00  0.00     0.041 A 
ATOM     79  F   UNL A   1      45.923  34.941  26.229  1.00  0.00    -0.206 F 
ATOM     80  C   UNL A   1      47.637  37.496  28.132  1.00  0.00     0.022 A 
BRANCH  77  81
ATOM     81  S   UNL A   1      48.688  37.604  30.712  1.00  0.00     0.124 S 
ATOM     82  O   UNL A   1      50.052  37.081  30.761  1.00  0.00    -0.237 OA
ATOM     83  O   UNL A   1      48.554  39.010  30.352  1.00  0.00    -0.237 OA
ATOM     84  O   UNL A   1      47.817  37.150  31.795  1.00  0.00    -0.744 OA
ENDBRANCH  77  81
ENDBRANCH  60  74
BRANCH  61  85
ATOM     85  C   UNL A   1      43.949  25.208  28.867  1.00  0.00     0.023 A 
ATOM     86  C   UNL A   1      43.145  24.703  27.832  1.00  0.00     0.031 A 
ATOM     87  C   UNL A   1      44.251  24.352  29.942  1.00  0.00     0.131 A 
ATOM     88  C   UNL A   1      42.630  23.400  27.918  1.00  0.00     0.055 A 
ATOM     89  C   UNL A   1      43.785  23.037  29.993  1.00  0.00     0.041 A 
ATOM     90  F   UNL A   1      45.018  24.782  30.957  1.00  0.00    -0.206 F 
ATOM     91  C   UNL A   1      42.958  22.558  28.983  1.00  0.00     0.022 A 
BRANCH  88  92
ATOM     92  S   UNL A   1      41.447  22.849  26.657  1.00  0.00     0.124 S 
ATOM     93  O   UNL A   1      40.843  21.690  27.306  1.00  0.00    -0.237 OA
ATOM     94  O   UNL A   1      40.591  24.021  26.511  1.00  0.00    -0.237 OA
ATOM     95  O   UNL A   1      42.293  22.549  25.505  1.00  0.00    -0.744 OA
ENDBRANCH  88  92
ENDBRANCH  61  85
BRANCH  73  96
ATOM     96  C   UNL A   1      49.741  28.267  26.435  1.00  0.00     0.023 A 
ATOM     97  C   UNL A   1      49.961  28.221  25.048  1.00  0.00     0.031 A 
ATOM     98  C   UNL A   1      50.760  27.792  27.282  1.00  0.00     0.131 A 
ATOM     99  C   UNL A   1      51.150  27.669  24.548  1.00  0.00     0.055 A 
ATOM    100  C   UNL A   1      51.967  27.304  26.780  1.00  0.00     0.041 A 
ATOM    101  F   UNL A   1      50.604  27.808  28.615  1.00  0.00    -0.206 F 
ATOM    102  C   UNL A   1      52.163  27.230  25.405  1.00  0.00     0.022 A 
BRANCH  99 103
ATOM    103  S   UNL A   1      51.327  27.453  22.755  1.00  0.00     0.124 S 
ATOM    104  O   UNL A   1      49.979  27.053  22.365  1.00  0.00    -0.237 OA
ATOM    105  O   UNL A   1      51.751  28.780  22.320  1.00  0.00    -0.237 OA
ATOM    106  O   UNL A   1      52.343  26.408  22.634  1.00  0.00    -0.744 OA
ENDBRANCH  99 103
ENDBRANCH  73  96
ENDBRANCH  47  48
ENDBRANCH  39  42
ENDBRANCH  37  38
ENDBRANCH  36  37
ENDBRANCH   1  36
TORSDOF 19
ENDMDL
