MODEL 1
REMARK VINA RESULT:     -12.1      0.000      0.000
REMARK SMILES Cc1ccc(S(=O)(=O)N[C@@H](Cc2cccc(F)c2)C(=O)NCCCCNC(=O)c2ccc(-c3c4nc(c(-c5cc(S(=O)(=O)[O-])ccc5F)c5ccc([nH]5)c(-c5cc(S(=O)(=O)[O-])ccc5F)c5nc(c(-c6cc(S(=O)(=O)[O-])ccc6F)c6ccc3[nH]6)C=C5)C=C4)cc2)cc1
REMARK SMILES IDX 23 1 22 2 21 3 19 4 20 5 10 7 9 8 6 10 7 11 8 12 5 13 1 14
REMARK SMILES IDX 2 15 3 16 93 17 4 18 92 19 11 20 12 21 13 22 18 23 14 24
REMARK SMILES IDX 16 25 15 26 17 27 24 28 25 29 26 30 27 31 28 33 29 34 30 35
REMARK SMILES IDX 91 36 31 37 90 38 32 39 33 40 34 41 84 42 35 43 89 44 83 45
REMARK SMILES IDX 85 46 36 47 88 48 82 49 81 50 37 52 69 53 49 54 68 55 50 56
REMARK SMILES IDX 53 57 67 58 86 59 51 60 52 61 66 63 87 64 54 65 38 66 39 67
REMARK SMILES IDX 47 68 40 69 46 70 48 71 45 72 41 73 42 74 43 75 44 76 70 77
REMARK SMILES IDX 71 78 79 79 72 80 78 81 80 82 77 83 73 84 74 85 75 86 76 87
REMARK SMILES IDX 55 88 56 89 64 90 57 91 63 92 65 93 62 94 58 95 59 96 60 97
REMARK SMILES IDX 61 98
REMARK H PARENT 21 6 9 9 26 32 85 51 53 62
REMARK Flexibility Score: inf
ROOT
ATOM      1  C   UNL A   1      36.107  21.123  25.323  1.00  0.00     0.023 C 
ENDROOT
BRANCH   1   2
ATOM      2  C   UNL A   1      34.666  21.138  25.842  1.00  0.00     0.116 C 
BRANCH   2   3
ATOM      3  N   UNL A   1      33.712  20.915  24.758  1.00  0.00    -0.355 N 
ATOM      4  C   UNL A   1      32.988  21.801  24.021  1.00  0.00     0.238 C 
ATOM      5  O   UNL A   1      32.199  21.346  23.184  1.00  0.00    -0.273 OA
ATOM      6  H   UNL A   1      33.571  19.970  24.522  1.00  0.00     0.163 HD
BRANCH   4   7
ATOM      7  C   UNL A   1      33.075  23.318  24.264  1.00  0.00     0.163 C 
BRANCH   7   8
ATOM      8  N   UNL A   1      32.536  23.878  22.999  1.00  0.00    -0.198 NA
ATOM      9  H   UNL A   1      32.444  23.079  22.371  1.00  0.00     0.142 HD
BRANCH   8  10
ATOM     10  S   UNL A   1      33.236  25.068  22.089  1.00  0.00     0.241 S 
ATOM     11  O   UNL A   1      33.011  24.767  20.681  1.00  0.00    -0.207 OA
ATOM     12  O   UNL A   1      34.548  25.262  22.626  1.00  0.00    -0.207 OA
BRANCH  10  13
ATOM     13  C   UNL A   1      32.330  26.548  22.440  1.00  0.00     0.082 A 
ATOM     14  C   UNL A   1      29.993  29.917  23.701  1.00  0.00     0.044 C 
ATOM     15  C   UNL A   1      30.812  28.755  23.225  1.00  0.00    -0.051 A 
ATOM     16  C   UNL A   1      30.185  27.536  22.939  1.00  0.00     0.005 A 
ATOM     17  C   UNL A   1      32.199  28.873  23.057  1.00  0.00     0.005 A 
ATOM     18  C   UNL A   1      30.942  26.431  22.558  1.00  0.00     0.022 A 
ATOM     19  C   UNL A   1      32.961  27.775  22.653  1.00  0.00     0.022 A 
ENDBRANCH  10  13
ENDBRANCH   8  10
ENDBRANCH   7   8
BRANCH   7  20
ATOM     20  C   UNL A   1      32.432  23.861  25.549  1.00  0.00     0.065 C 
BRANCH  20  21
ATOM     21  C   UNL A   1      32.442  25.343  25.886  1.00  0.00    -0.043 A 
ATOM     22  C   UNL A   1      31.198  25.927  26.185  1.00  0.00     0.004 A 
ATOM     23  C   UNL A   1      33.573  26.165  25.954  1.00  0.00     0.043 A 
ATOM     24  C   UNL A   1      31.096  27.264  26.576  1.00  0.00     0.003 A 
ATOM     25  C   UNL A   1      33.468  27.483  26.400  1.00  0.00     0.123 A 
ATOM     26  C   UNL A   1      32.241  28.040  26.713  1.00  0.00     0.039 A 
ATOM     27  F   UNL A   1      34.582  28.217  26.534  1.00  0.00    -0.207 F 
ENDBRANCH  20  21
ENDBRANCH   7  20
ENDBRANCH   4   7
ENDBRANCH   2   3
ENDBRANCH   1   2
BRANCH   1  28
ATOM     28  C   UNL A   1      37.034  22.142  25.981  1.00  0.00     0.023 C 
BRANCH  28  29
ATOM     29  C   UNL A   1      38.278  22.459  25.164  1.00  0.00     0.116 C 
BRANCH  29  30
ATOM     30  N   UNL A   1      39.533  22.217  25.855  1.00  0.00    -0.352 N 
ATOM     31  C   UNL A   1      40.400  23.129  26.430  1.00  0.00     0.251 C 
ATOM     32  H   UNL A   1      39.806  21.273  25.923  1.00  0.00     0.163 HD
ATOM     33  O   UNL A   1      41.522  22.788  26.797  1.00  0.00    -0.269 OA
BRANCH  31  34
ATOM     34  C   UNL A   1      39.903  24.488  26.772  1.00  0.00     0.039 A 
ATOM     35  C   UNL A   1      40.639  25.572  26.274  1.00  0.00     0.014 A 
ATOM     36  C   UNL A   1      38.939  24.696  27.752  1.00  0.00     0.014 A 
ATOM     37  C   UNL A   1      40.596  26.796  26.936  1.00  0.00     0.010 A 
ATOM     38  C   UNL A   1      38.975  25.866  28.479  1.00  0.00     0.010 A 
ATOM     39  C   UNL A   1      39.848  26.890  28.106  1.00  0.00    -0.014 A 
BRANCH  39  40
ATOM     40  C   UNL A   1      39.935  28.000  29.039  1.00  0.00     0.031 A 
ATOM     41  C   UNL A   1      39.082  29.182  28.842  1.00  0.00     0.074 A 
ATOM     42  C   UNL A   1      40.717  27.892  30.134  1.00  0.00     0.049 A 
ATOM     43  N   UNL A   1      39.298  30.333  29.375  1.00  0.00    -0.248 NA
ATOM     44  C   UNL A   1      37.909  29.157  27.978  1.00  0.00     0.031 C 
ATOM     45  C   UNL A   1      40.757  28.780  31.290  1.00  0.00     0.029 A 
ATOM     46  N   UNL A   1      41.838  27.079  30.282  1.00  0.00    -0.354 N 
ATOM     47  C   UNL A   1      38.182  31.107  29.169  1.00  0.00     0.074 A 
ATOM     48  C   UNL A   1      37.372  30.351  28.243  1.00  0.00     0.031 C 
ATOM     49  C   UNL A   1      41.965  28.678  31.866  1.00  0.00     0.029 A 
ATOM     50  C   UNL A   1      42.779  27.834  31.014  1.00  0.00     0.049 A 
ATOM     51  H   UNL A   1      41.950  26.161  29.944  1.00  0.00     0.167 HD
ATOM     52  C   UNL A   1      38.025  32.244  29.902  1.00  0.00     0.034 A 
ATOM     53  C   UNL A   1      43.961  28.198  30.430  1.00  0.00     0.034 A 
ATOM     54  C   UNL A   1      39.199  32.504  30.741  1.00  0.00     0.049 A 
ATOM     55  C   UNL A   1      44.116  29.703  30.288  1.00  0.00     0.074 A 
ATOM     56  C   UNL A   1      39.512  32.289  32.073  1.00  0.00     0.029 A 
ATOM     57  N   UNL A   1      40.394  32.805  30.115  1.00  0.00    -0.354 N 
ATOM     58  N   UNL A   1      43.186  30.567  30.597  1.00  0.00    -0.248 NA
ATOM     59  C   UNL A   1      45.300  30.353  29.730  1.00  0.00     0.031 C 
ATOM     60  C   UNL A   1      40.930  32.406  32.216  1.00  0.00     0.029 A 
ATOM     61  C   UNL A   1      41.466  32.721  30.980  1.00  0.00     0.049 A 
ATOM     62  H   UNL A   1      40.472  33.048  29.164  1.00  0.00     0.167 HD
ATOM     63  C   UNL A   1      43.593  31.830  30.272  1.00  0.00     0.074 A 
ATOM     64  C   UNL A   1      44.925  31.645  29.720  1.00  0.00     0.031 C 
ATOM     65  C   UNL A   1      42.806  32.932  30.450  1.00  0.00     0.034 A 
BRANCH  52  66
ATOM     66  C   UNL A   1      36.729  33.005  30.039  1.00  0.00     0.023 A 
ATOM     67  C   UNL A   1      36.246  33.292  31.332  1.00  0.00     0.031 A 
ATOM     68  C   UNL A   1      35.912  33.446  28.980  1.00  0.00     0.131 A 
ATOM     69  C   UNL A   1      34.989  33.891  31.532  1.00  0.00     0.055 A 
ATOM     70  C   UNL A   1      34.634  33.988  29.177  1.00  0.00     0.041 A 
ATOM     71  F   UNL A   1      36.332  33.436  27.709  1.00  0.00    -0.206 F 
ATOM     72  C   UNL A   1      34.161  34.205  30.461  1.00  0.00     0.022 A 
BRANCH  69  73
ATOM     73  S   UNL A   1      34.460  34.267  33.224  1.00  0.00     0.124 S 
ATOM     74  O   UNL A   1      35.139  35.532  33.487  1.00  0.00    -0.237 OA
ATOM     75  O   UNL A   1      33.009  34.328  33.086  1.00  0.00    -0.237 OA
ATOM     76  O   UNL A   1      34.957  33.128  33.995  1.00  0.00    -0.744 OA
ENDBRANCH  69  73
ENDBRANCH  52  66
BRANCH  53  77
ATOM     77  C   UNL A   1      44.457  27.149  29.481  1.00  0.00     0.023 A 
ATOM     78  C   UNL A   1      44.182  27.365  28.107  1.00  0.00     0.031 A 
ATOM     79  C   UNL A   1      45.510  26.287  29.805  1.00  0.00     0.131 A 
ATOM     80  C   UNL A   1      45.096  26.940  27.132  1.00  0.00     0.055 A 
ATOM     81  C   UNL A   1      46.346  25.758  28.812  1.00  0.00     0.041 A 
ATOM     82  F   UNL A   1      45.840  26.056  31.084  1.00  0.00    -0.206 F 
ATOM     83  C   UNL A   1      46.179  26.132  27.476  1.00  0.00     0.022 A 
BRANCH  80  84
ATOM     84  S   UNL A   1      45.038  27.747  25.499  1.00  0.00     0.124 S 
ATOM     85  O   UNL A   1      45.617  29.054  25.783  1.00  0.00    -0.237 OA
ATOM     86  O   UNL A   1      45.847  26.856  24.666  1.00  0.00    -0.237 OA
ATOM     87  O   UNL A   1      43.618  27.750  25.153  1.00  0.00    -0.744 OA
ENDBRANCH  80  84
ENDBRANCH  53  77
BRANCH  65  88
ATOM     88  C   UNL A   1      43.266  34.319  30.102  1.00  0.00     0.023 A 
ATOM     89  C   UNL A   1      43.258  34.776  28.778  1.00  0.00     0.031 A 
ATOM     90  C   UNL A   1      43.780  35.205  31.074  1.00  0.00     0.131 A 
ATOM     91  C   UNL A   1      43.652  36.089  28.474  1.00  0.00     0.055 A 
ATOM     92  C   UNL A   1      44.268  36.474  30.752  1.00  0.00     0.041 A 
ATOM     93  F   UNL A   1      43.782  34.899  32.379  1.00  0.00    -0.206 F 
ATOM     94  C   UNL A   1      44.188  36.931  29.446  1.00  0.00     0.022 A 
BRANCH  91  95
ATOM     95  S   UNL A   1      43.328  36.709  26.806  1.00  0.00     0.124 S 
ATOM     96  O   UNL A   1      44.623  37.252  26.409  1.00  0.00    -0.237 OA
ATOM     97  O   UNL A   1      42.913  35.490  26.115  1.00  0.00    -0.237 OA
ATOM     98  O   UNL A   1      42.270  37.697  27.005  1.00  0.00    -0.744 OA
ENDBRANCH  91  95
ENDBRANCH  65  88
ENDBRANCH  39  40
ENDBRANCH  31  34
ENDBRANCH  29  30
ENDBRANCH  28  29
ENDBRANCH   1  28
TORSDOF 19
ENDMDL
MODEL 2
REMARK VINA RESULT:     -12.0      2.230      2.702
REMARK SMILES Cc1ccc(S(=O)(=O)N[C@@H](Cc2cccc(F)c2)C(=O)NCCCCNC(=O)c2ccc(-c3c4nc(c(-c5cc(S(=O)(=O)[O-])ccc5F)c5ccc([nH]5)c(-c5cc(S(=O)(=O)[O-])ccc5F)c5nc(c(-c6cc(S(=O)(=O)[O-])ccc6F)c6ccc3[nH]6)C=C5)C=C4)cc2)cc1
REMARK SMILES IDX 23 1 22 2 21 3 19 4 20 5 10 7 9 8 6 10 7 11 8 12 5 13 1 14
REMARK SMILES IDX 2 15 3 16 93 17 4 18 92 19 11 20 12 21 13 22 18 23 14 24
REMARK SMILES IDX 16 25 15 26 17 27 24 28 25 29 26 30 27 31 28 33 29 34 30 35
REMARK SMILES IDX 91 36 31 37 90 38 32 39 33 40 34 41 84 42 35 43 89 44 83 45
REMARK SMILES IDX 85 46 36 47 88 48 82 49 81 50 37 52 69 53 49 54 68 55 50 56
REMARK SMILES IDX 53 57 67 58 86 59 51 60 52 61 66 63 87 64 54 65 38 66 39 67
REMARK SMILES IDX 47 68 40 69 46 70 48 71 45 72 41 73 42 74 43 75 44 76 70 77
REMARK SMILES IDX 71 78 79 79 72 80 78 81 80 82 77 83 73 84 74 85 75 86 76 87
REMARK SMILES IDX 55 88 56 89 64 90 57 91 63 92 65 93 62 94 58 95 59 96 60 97
REMARK SMILES IDX 61 98
REMARK H PARENT 21 6 9 9 26 32 85 51 53 62
REMARK Flexibility Score: inf
ROOT
ATOM      1  C   UNL A   1      36.408  21.599  24.973  1.00  0.00     0.023 C 
ENDROOT
BRANCH   1   2
ATOM      2  C   UNL A   1      35.598  22.167  26.142  1.00  0.00     0.116 C 
BRANCH   2   3
ATOM      3  N   UNL A   1      34.171  21.902  25.975  1.00  0.00    -0.355 N 
ATOM      4  C   UNL A   1      33.139  22.750  25.714  1.00  0.00     0.238 C 
ATOM      5  O   UNL A   1      31.998  22.273  25.671  1.00  0.00    -0.273 OA
ATOM      6  H   UNL A   1      33.915  20.956  26.065  1.00  0.00     0.163 HD
BRANCH   4   7
ATOM      7  C   UNL A   1      33.356  24.265  25.555  1.00  0.00     0.163 C 
BRANCH   7   8
ATOM      8  N   UNL A   1      33.615  24.402  24.099  1.00  0.00    -0.198 NA
ATOM      9  H   UNL A   1      34.172  25.251  24.005  1.00  0.00     0.142 HD
BRANCH   8  10
ATOM     10  S   UNL A   1      32.465  24.504  22.915  1.00  0.00     0.241 S 
ATOM     11  O   UNL A   1      31.475  23.459  23.139  1.00  0.00    -0.207 OA
ATOM     12  O   UNL A   1      33.175  24.628  21.678  1.00  0.00    -0.207 OA
BRANCH  10  13
ATOM     13  C   UNL A   1      31.636  26.048  23.171  1.00  0.00     0.082 A 
ATOM     14  C   UNL A   1      29.701  29.872  23.318  1.00  0.00     0.044 C 
ATOM     15  C   UNL A   1      30.379  28.535  23.305  1.00  0.00    -0.051 A 
ATOM     16  C   UNL A   1      31.742  28.452  22.997  1.00  0.00     0.005 A 
ATOM     17  C   UNL A   1      29.666  27.365  23.603  1.00  0.00     0.005 A 
ATOM     18  C   UNL A   1      32.368  27.211  22.919  1.00  0.00     0.022 A 
ATOM     19  C   UNL A   1      30.294  26.119  23.548  1.00  0.00     0.022 A 
ENDBRANCH  10  13
ENDBRANCH   8  10
ENDBRANCH   7   8
BRANCH   7  20
ATOM     20  C   UNL A   1      32.268  25.192  26.117  1.00  0.00     0.065 C 
BRANCH  20  21
ATOM     21  C   UNL A   1      32.535  26.661  26.401  1.00  0.00    -0.043 A 
ATOM     22  C   UNL A   1      31.452  27.412  26.894  1.00  0.00     0.004 A 
ATOM     23  C   UNL A   1      33.759  27.321  26.246  1.00  0.00     0.043 A 
ATOM     24  C   UNL A   1      31.600  28.753  27.255  1.00  0.00     0.003 A 
ATOM     25  C   UNL A   1      33.911  28.644  26.662  1.00  0.00     0.123 A 
ATOM     26  C   UNL A   1      32.844  29.367  27.166  1.00  0.00     0.039 A 
ATOM     27  F   UNL A   1      35.119  29.221  26.577  1.00  0.00    -0.207 F 
ENDBRANCH  20  21
ENDBRANCH   7  20
ENDBRANCH   4   7
ENDBRANCH   2   3
ENDBRANCH   1   2
BRANCH   1  28
ATOM     28  C   UNL A   1      37.923  21.684  25.142  1.00  0.00     0.023 C 
BRANCH  28  29
ATOM     29  C   UNL A   1      38.386  22.908  25.918  1.00  0.00     0.116 C 
BRANCH  29  30
ATOM     30  N   UNL A   1      39.775  22.863  26.345  1.00  0.00    -0.352 N 
ATOM     31  C   UNL A   1      40.611  23.907  26.699  1.00  0.00     0.251 C 
ATOM     32  H   UNL A   1      40.177  21.965  26.389  1.00  0.00     0.163 HD
ATOM     33  O   UNL A   1      41.818  23.728  26.840  1.00  0.00    -0.269 OA
BRANCH  31  34
ATOM     34  C   UNL A   1      40.017  25.213  27.090  1.00  0.00     0.039 A 
ATOM     35  C   UNL A   1      40.458  26.341  26.383  1.00  0.00     0.014 A 
ATOM     36  C   UNL A   1      39.285  25.371  28.261  1.00  0.00     0.014 A 
ATOM     37  C   UNL A   1      40.394  27.597  26.981  1.00  0.00     0.010 A 
ATOM     38  C   UNL A   1      39.320  26.588  28.905  1.00  0.00     0.010 A 
ATOM     39  C   UNL A   1      39.929  27.683  28.290  1.00  0.00    -0.014 A 
BRANCH  39  40
ATOM     40  C   UNL A   1      40.069  28.863  29.126  1.00  0.00     0.031 A 
ATOM     41  C   UNL A   1      39.005  29.878  29.132  1.00  0.00     0.074 A 
ATOM     42  C   UNL A   1      41.121  28.966  29.965  1.00  0.00     0.049 A 
ATOM     43  N   UNL A   1      39.154  31.087  29.547  1.00  0.00    -0.248 NA
ATOM     44  C   UNL A   1      37.667  29.602  28.627  1.00  0.00     0.031 C 
ATOM     45  C   UNL A   1      41.314  29.938  31.035  1.00  0.00     0.029 A 
ATOM     46  N   UNL A   1      42.363  28.352  29.825  1.00  0.00    -0.354 N 
ATOM     47  C   UNL A   1      37.907  31.659  29.631  1.00  0.00     0.074 A 
ATOM     48  C   UNL A   1      37.022  30.715  28.989  1.00  0.00     0.031 C 
ATOM     49  C   UNL A   1      42.631  30.072  31.259  1.00  0.00     0.029 A 
ATOM     50  C   UNL A   1      43.321  29.301  30.243  1.00  0.00     0.049 A 
ATOM     51  H   UNL A   1      42.538  27.439  29.500  1.00  0.00     0.167 HD
ATOM     52  C   UNL A   1      37.758  32.812  30.341  1.00  0.00     0.034 A 
ATOM     53  C   UNL A   1      44.224  29.798  29.344  1.00  0.00     0.034 A 
ATOM     54  C   UNL A   1      39.050  33.317  30.814  1.00  0.00     0.049 A 
ATOM     55  C   UNL A   1      44.075  31.293  29.116  1.00  0.00     0.074 A 
ATOM     56  C   UNL A   1      39.738  33.260  32.015  1.00  0.00     0.029 A 
ATOM     57  N   UNL A   1      39.964  33.751  29.873  1.00  0.00    -0.354 N 
ATOM     58  N   UNL A   1      43.126  32.023  29.640  1.00  0.00    -0.248 NA
ATOM     59  C   UNL A   1      44.936  32.074  28.231  1.00  0.00     0.031 C 
ATOM     60  C   UNL A   1      41.101  33.608  31.757  1.00  0.00     0.029 A 
ATOM     61  C   UNL A   1      41.227  33.905  30.411  1.00  0.00     0.049 A 
ATOM     62  H   UNL A   1      39.743  33.927  28.930  1.00  0.00     0.167 HD
ATOM     63  C   UNL A   1      43.208  33.304  29.173  1.00  0.00     0.074 A 
ATOM     64  C   UNL A   1      44.356  33.286  28.282  1.00  0.00     0.031 C 
ATOM     65  C   UNL A   1      42.319  34.280  29.525  1.00  0.00     0.034 A 
BRANCH  52  66
ATOM     66  C   UNL A   1      36.434  33.368  30.804  1.00  0.00     0.023 A 
ATOM     67  C   UNL A   1      35.634  34.070  29.879  1.00  0.00     0.031 A 
ATOM     68  C   UNL A   1      35.910  33.282  32.109  1.00  0.00     0.131 A 
ATOM     69  C   UNL A   1      34.448  34.715  30.272  1.00  0.00     0.055 A 
ATOM     70  C   UNL A   1      34.760  33.974  32.516  1.00  0.00     0.041 A 
ATOM     71  F   UNL A   1      36.444  32.478  33.036  1.00  0.00    -0.206 F 
ATOM     72  C   UNL A   1      34.026  34.705  31.597  1.00  0.00     0.022 A 
BRANCH  69  73
ATOM     73  S   UNL A   1      33.453  35.559  29.013  1.00  0.00     0.124 S 
ATOM     74  O   UNL A   1      32.728  36.547  29.805  1.00  0.00    -0.237 OA
ATOM     75  O   UNL A   1      34.475  36.076  28.111  1.00  0.00    -0.237 OA
ATOM     76  O   UNL A   1      32.629  34.485  28.459  1.00  0.00    -0.744 OA
ENDBRANCH  69  73
ENDBRANCH  52  66
BRANCH  53  77
ATOM     77  C   UNL A   1      44.622  28.768  28.331  1.00  0.00     0.023 A 
ATOM     78  C   UNL A   1      45.358  27.659  28.817  1.00  0.00     0.031 A 
ATOM     79  C   UNL A   1      43.943  28.615  27.117  1.00  0.00     0.131 A 
ATOM     80  C   UNL A   1      45.189  26.393  28.238  1.00  0.00     0.055 A 
ATOM     81  C   UNL A   1      43.885  27.372  26.471  1.00  0.00     0.041 A 
ATOM     82  F   UNL A   1      43.208  29.615  26.609  1.00  0.00    -0.206 F 
ATOM     83  C   UNL A   1      44.457  26.242  27.061  1.00  0.00     0.022 A 
BRANCH  80  84
ATOM     84  S   UNL A   1      45.637  24.933  29.232  1.00  0.00     0.124 S 
ATOM     85  O   UNL A   1      46.162  24.024  28.221  1.00  0.00    -0.237 OA
ATOM     86  O   UNL A   1      46.615  25.471  30.179  1.00  0.00    -0.237 OA
ATOM     87  O   UNL A   1      44.378  24.525  29.853  1.00  0.00    -0.744 OA
ENDBRANCH  80  84
ENDBRANCH  53  77
BRANCH  65  88
ATOM     88  C   UNL A   1      42.425  35.689  29.018  1.00  0.00     0.023 A 
ATOM     89  C   UNL A   1      43.247  36.630  29.651  1.00  0.00     0.031 A 
ATOM     90  C   UNL A   1      41.665  36.152  27.921  1.00  0.00     0.131 A 
ATOM     91  C   UNL A   1      43.368  37.932  29.139  1.00  0.00     0.055 A 
ATOM     92  C   UNL A   1      41.709  37.476  27.479  1.00  0.00     0.041 A 
ATOM     93  F   UNL A   1      40.889  35.328  27.202  1.00  0.00    -0.206 F 
ATOM     94  C   UNL A   1      42.581  38.372  28.078  1.00  0.00     0.022 A 
BRANCH  91  95
ATOM     95  S   UNL A   1      44.668  38.993  29.814  1.00  0.00     0.124 S 
ATOM     96  O   UNL A   1      44.227  39.206  31.188  1.00  0.00    -0.237 OA
ATOM     97  O   UNL A   1      45.850  38.150  29.651  1.00  0.00    -0.237 OA
ATOM     98  O   UNL A   1      44.629  40.175  28.955  1.00  0.00    -0.744 OA
ENDBRANCH  91  95
ENDBRANCH  65  88
ENDBRANCH  39  40
ENDBRANCH  31  34
ENDBRANCH  29  30
ENDBRANCH  28  29
ENDBRANCH   1  28
TORSDOF 19
ENDMDL
MODEL 3
REMARK VINA RESULT:     -12.0      2.530      3.161
REMARK SMILES Cc1ccc(S(=O)(=O)N[C@@H](Cc2cccc(F)c2)C(=O)NCCCCNC(=O)c2ccc(-c3c4nc(c(-c5cc(S(=O)(=O)[O-])ccc5F)c5ccc([nH]5)c(-c5cc(S(=O)(=O)[O-])ccc5F)c5nc(c(-c6cc(S(=O)(=O)[O-])ccc6F)c6ccc3[nH]6)C=C5)C=C4)cc2)cc1
REMARK SMILES IDX 23 1 22 2 21 3 19 4 20 5 10 7 9 8 6 10 7 11 8 12 5 13 1 14
REMARK SMILES IDX 2 15 3 16 93 17 4 18 92 19 11 20 12 21 13 22 18 23 14 24
REMARK SMILES IDX 16 25 15 26 17 27 24 28 25 29 26 30 27 31 28 33 29 34 30 35
REMARK SMILES IDX 91 36 31 37 90 38 32 39 33 40 34 41 84 42 35 43 89 44 83 45
REMARK SMILES IDX 85 46 36 47 88 48 82 49 81 50 37 52 69 53 49 54 68 55 50 56
REMARK SMILES IDX 53 57 67 58 86 59 51 60 52 61 66 63 87 64 54 65 38 66 39 67
REMARK SMILES IDX 47 68 40 69 46 70 48 71 45 72 41 73 42 74 43 75 44 76 70 77
REMARK SMILES IDX 71 78 79 79 72 80 78 81 80 82 77 83 73 84 74 85 75 86 76 87
REMARK SMILES IDX 55 88 56 89 64 90 57 91 63 92 65 93 62 94 58 95 59 96 60 97
REMARK SMILES IDX 61 98
REMARK H PARENT 21 6 9 9 26 32 85 51 53 62
REMARK Flexibility Score: inf
ROOT
ATOM      1  C   UNL A   1      36.441  21.573  24.954  1.00  0.00     0.023 C 
ENDROOT
BRANCH   1   2
ATOM      2  C   UNL A   1      35.369  21.724  26.036  1.00  0.00     0.116 C 
BRANCH   2   3
ATOM      3  N   UNL A   1      34.298  20.746  25.860  1.00  0.00    -0.355 N 
ATOM      4  C   UNL A   1      33.067  20.875  25.295  1.00  0.00     0.238 C 
ATOM      5  O   UNL A   1      32.316  19.892  25.318  1.00  0.00    -0.273 OA
ATOM      6  H   UNL A   1      34.500  19.847  26.207  1.00  0.00     0.163 HD
BRANCH   4   7
ATOM      7  C   UNL A   1      32.579  22.213  24.713  1.00  0.00     0.163 C 
BRANCH   7   8
ATOM      8  N   UNL A   1      31.318  22.449  25.460  1.00  0.00    -0.198 NA
ATOM      9  H   UNL A   1      30.645  22.756  24.758  1.00  0.00     0.142 HD
BRANCH   8  10
ATOM     10  S   UNL A   1      31.124  23.488  26.732  1.00  0.00     0.241 S 
ATOM     11  O   UNL A   1      32.284  23.373  27.605  1.00  0.00    -0.207 OA
ATOM     12  O   UNL A   1      29.789  23.290  27.210  1.00  0.00    -0.207 OA
BRANCH  10  13
ATOM     13  C   UNL A   1      31.169  25.118  26.043  1.00  0.00     0.082 A 
ATOM     14  C   UNL A   1      30.807  29.095  24.479  1.00  0.00     0.044 C 
ATOM     15  C   UNL A   1      30.968  27.702  25.008  1.00  0.00    -0.051 A 
ATOM     16  C   UNL A   1      30.269  26.647  24.408  1.00  0.00     0.005 A 
ATOM     17  C   UNL A   1      31.813  27.438  26.095  1.00  0.00     0.005 A 
ATOM     18  C   UNL A   1      30.360  25.360  24.930  1.00  0.00     0.022 A 
ATOM     19  C   UNL A   1      31.926  26.145  26.609  1.00  0.00     0.022 A 
ENDBRANCH  10  13
ENDBRANCH   8  10
ENDBRANCH   7   8
BRANCH   7  20
ATOM     20  C   UNL A   1      33.573  23.385  24.719  1.00  0.00     0.065 C 
BRANCH  20  21
ATOM     21  C   UNL A   1      33.505  24.500  23.689  1.00  0.00    -0.043 A 
ATOM     22  C   UNL A   1      32.840  24.203  22.485  1.00  0.00     0.004 A 
ATOM     23  C   UNL A   1      34.014  25.795  23.842  1.00  0.00     0.043 A 
ATOM     24  C   UNL A   1      32.656  25.172  21.496  1.00  0.00     0.003 A 
ATOM     25  C   UNL A   1      33.777  26.771  22.873  1.00  0.00     0.123 A 
ATOM     26  C   UNL A   1      33.102  26.472  21.702  1.00  0.00     0.039 A 
ATOM     27  F   UNL A   1      34.206  28.022  23.089  1.00  0.00    -0.207 F 
ENDBRANCH  20  21
ENDBRANCH   7  20
ENDBRANCH   4   7
ENDBRANCH   2   3
ENDBRANCH   1   2
BRANCH   1  28
ATOM     28  C   UNL A   1      37.874  21.507  25.476  1.00  0.00     0.023 C 
BRANCH  28  29
ATOM     29  C   UNL A   1      38.413  22.844  25.961  1.00  0.00     0.116 C 
BRANCH  29  30
ATOM     30  N   UNL A   1      39.823  22.836  26.311  1.00  0.00    -0.352 N 
ATOM     31  C   UNL A   1      40.653  23.903  26.605  1.00  0.00     0.251 C 
ATOM     32  H   UNL A   1      40.248  21.949  26.344  1.00  0.00     0.163 HD
ATOM     33  O   UNL A   1      41.870  23.753  26.681  1.00  0.00    -0.269 OA
BRANCH  31  34
ATOM     34  C   UNL A   1      40.052  25.202  27.011  1.00  0.00     0.039 A 
ATOM     35  C   UNL A   1      40.479  26.339  26.311  1.00  0.00     0.014 A 
ATOM     36  C   UNL A   1      39.327  25.343  28.188  1.00  0.00     0.014 A 
ATOM     37  C   UNL A   1      40.409  27.589  26.921  1.00  0.00     0.010 A 
ATOM     38  C   UNL A   1      39.356  26.555  28.843  1.00  0.00     0.010 A 
ATOM     39  C   UNL A   1      39.953  27.660  28.233  1.00  0.00    -0.014 A 
BRANCH  39  40
ATOM     40  C   UNL A   1      40.090  28.834  29.078  1.00  0.00     0.031 A 
ATOM     41  C   UNL A   1      39.023  29.847  29.091  1.00  0.00     0.074 A 
ATOM     42  C   UNL A   1      41.140  28.933  29.920  1.00  0.00     0.049 A 
ATOM     43  N   UNL A   1      39.169  31.053  29.515  1.00  0.00    -0.248 NA
ATOM     44  C   UNL A   1      37.686  29.571  28.582  1.00  0.00     0.031 C 
ATOM     45  C   UNL A   1      41.330  29.896  30.998  1.00  0.00     0.029 A 
ATOM     46  N   UNL A   1      42.384  28.323  29.777  1.00  0.00    -0.354 N 
ATOM     47  C   UNL A   1      37.920  31.621  29.602  1.00  0.00     0.074 A 
ATOM     48  C   UNL A   1      37.039  30.680  28.952  1.00  0.00     0.031 C 
ATOM     49  C   UNL A   1      42.646  30.032  31.224  1.00  0.00     0.029 A 
ATOM     50  C   UNL A   1      43.339  29.269  30.204  1.00  0.00     0.049 A 
ATOM     51  H   UNL A   1      42.561  27.413  29.445  1.00  0.00     0.167 HD
ATOM     52  C   UNL A   1      37.768  32.768  30.321  1.00  0.00     0.034 A 
ATOM     53  C   UNL A   1      44.242  29.776  29.310  1.00  0.00     0.034 A 
ATOM     54  C   UNL A   1      39.058  33.272  30.800  1.00  0.00     0.049 A 
ATOM     55  C   UNL A   1      44.090  31.272  29.092  1.00  0.00     0.074 A 
ATOM     56  C   UNL A   1      39.746  33.207  32.001  1.00  0.00     0.029 A 
ATOM     57  N   UNL A   1      39.973  33.715  29.863  1.00  0.00    -0.354 N 
ATOM     58  N   UNL A   1      43.138  31.996  29.621  1.00  0.00    -0.248 NA
ATOM     59  C   UNL A   1      44.951  32.062  28.215  1.00  0.00     0.031 C 
ATOM     60  C   UNL A   1      41.108  33.561  31.747  1.00  0.00     0.029 A 
ATOM     61  C   UNL A   1      41.234  33.868  30.404  1.00  0.00     0.049 A 
ATOM     62  H   UNL A   1      39.753  33.899  28.921  1.00  0.00     0.167 HD
ATOM     63  C   UNL A   1      43.219  33.280  29.164  1.00  0.00     0.074 A 
ATOM     64  C   UNL A   1      44.368  33.272  28.275  1.00  0.00     0.031 C 
ATOM     65  C   UNL A   1      42.327  34.252  29.523  1.00  0.00     0.034 A 
BRANCH  52  66
ATOM     66  C   UNL A   1      36.443  33.318  30.787  1.00  0.00     0.023 A 
ATOM     67  C   UNL A   1      35.654  34.047  29.873  1.00  0.00     0.031 A 
ATOM     68  C   UNL A   1      35.907  33.201  32.084  1.00  0.00     0.131 A 
ATOM     69  C   UNL A   1      34.467  34.687  30.271  1.00  0.00     0.055 A 
ATOM     70  C   UNL A   1      34.756  33.887  32.499  1.00  0.00     0.041 A 
ATOM     71  F   UNL A   1      36.429  32.371  32.994  1.00  0.00    -0.206 F 
ATOM     72  C   UNL A   1      34.033  34.644  31.592  1.00  0.00     0.022 A 
BRANCH  69  73
ATOM     73  S   UNL A   1      33.487  35.567  29.027  1.00  0.00     0.124 S 
ATOM     74  O   UNL A   1      32.622  34.512  28.511  1.00  0.00    -0.237 OA
ATOM     75  O   UNL A   1      32.839  36.604  29.823  1.00  0.00    -0.237 OA
ATOM     76  O   UNL A   1      34.496  36.054  28.086  1.00  0.00    -0.744 OA
ENDBRANCH  69  73
ENDBRANCH  52  66
BRANCH  53  77
ATOM     77  C   UNL A   1      44.643  28.755  28.288  1.00  0.00     0.023 A 
ATOM     78  C   UNL A   1      45.446  27.684  28.753  1.00  0.00     0.031 A 
ATOM     79  C   UNL A   1      43.923  28.560  27.105  1.00  0.00     0.131 A 
ATOM     80  C   UNL A   1      45.310  26.406  28.191  1.00  0.00     0.055 A 
ATOM     81  C   UNL A   1      43.893  27.310  26.471  1.00  0.00     0.041 A 
ATOM     82  F   UNL A   1      43.125  29.523  26.620  1.00  0.00    -0.206 F 
ATOM     83  C   UNL A   1      44.538  26.212  27.047  1.00  0.00     0.022 A 
BRANCH  80  84
ATOM     84  S   UNL A   1      45.861  24.977  29.177  1.00  0.00     0.124 S 
ATOM     85  O   UNL A   1      45.866  23.906  28.189  1.00  0.00    -0.237 OA
ATOM     86  O   UNL A   1      47.174  25.403  29.664  1.00  0.00    -0.237 OA
ATOM     87  O   UNL A   1      44.853  24.858  30.229  1.00  0.00    -0.744 OA
ENDBRANCH  80  84
ENDBRANCH  53  77
BRANCH  65  88
ATOM     88  C   UNL A   1      42.431  35.666  29.026  1.00  0.00     0.023 A 
ATOM     89  C   UNL A   1      43.244  36.606  29.673  1.00  0.00     0.031 A 
ATOM     90  C   UNL A   1      41.678  36.132  27.926  1.00  0.00     0.131 A 
ATOM     91  C   UNL A   1      43.363  37.911  29.172  1.00  0.00     0.055 A 
ATOM     92  C   UNL A   1      41.720  37.460  27.494  1.00  0.00     0.041 A 
ATOM     93  F   UNL A   1      40.912  35.310  27.195  1.00  0.00    -0.206 F 
ATOM     94  C   UNL A   1      42.583  38.356  28.107  1.00  0.00     0.022 A 
BRANCH  91  95
ATOM     95  S   UNL A   1      44.652  38.974  29.865  1.00  0.00     0.124 S 
ATOM     96  O   UNL A   1      45.872  38.227  29.577  1.00  0.00    -0.237 OA
ATOM     97  O   UNL A   1      44.465  40.203  29.097  1.00  0.00    -0.237 OA
ATOM     98  O   UNL A   1      44.297  39.069  31.280  1.00  0.00    -0.744 OA
ENDBRANCH  91  95
ENDBRANCH  65  88
ENDBRANCH  39  40
ENDBRANCH  31  34
ENDBRANCH  29  30
ENDBRANCH  28  29
ENDBRANCH   1  28
TORSDOF 19
ENDMDL
