MODEL 1
REMARK VINA RESULT:     -10.2      0.000      0.000
REMARK SMILES Cc1nonc1CSCC(=O)NCCCCNC(=O)c1ccc(-c2c3nc(c(-c4cc(S(=O)(=O)[O-])ccc4F)c4ccc([nH]4)c(-c4cc(S(=O)(=O)[O-])ccc4F)c4nc(c(-c5cc(S(=O)(=O)[O-])ccc5F)c5ccc2[nH]5)C=C4)C=C3)cc1
REMARK SMILES IDX 14 1 13 2 12 3 10 4 11 5 9 7 8 8 7 9 6 10 1 11 2 12 3 13
REMARK SMILES IDX 4 14 5 15 15 16 16 17 17 18 18 19 19 21 20 22 21 23 82 24
REMARK SMILES IDX 22 25 81 26 23 27 24 28 25 29 75 30 26 31 80 32 74 33 76 34
REMARK SMILES IDX 27 35 79 36 73 37 72 38 28 40 60 41 40 42 59 43 41 44 44 45
REMARK SMILES IDX 58 46 77 47 42 48 43 49 57 51 78 52 45 53 29 54 30 55 38 56
REMARK SMILES IDX 31 57 37 58 39 59 36 60 32 61 33 62 34 63 35 64 61 65 62 66
REMARK SMILES IDX 70 67 63 68 69 69 71 70 68 71 64 72 65 73 66 74 67 75 46 76
REMARK SMILES IDX 47 77 55 78 48 79 54 80 56 81 53 82 49 83 50 84 51 85 52 86
REMARK H PARENT 12 6 17 20 76 39 44 50
REMARK Flexibility Score: inf
ROOT
ATOM      1  C   UNL A   1      42.728  23.498  28.458  1.00  0.00     0.023 C 
ENDROOT
BRANCH   1   2
ATOM      2  C   UNL A   1      44.177  23.361  28.929  1.00  0.00     0.116 C 
BRANCH   2   3
ATOM      3  N   UNL A   1      45.054  24.247  28.185  1.00  0.00    -0.355 N 
ATOM      4  C   UNL A   1      45.838  23.964  27.106  1.00  0.00     0.230 C 
ATOM      5  O   UNL A   1      46.647  24.814  26.728  1.00  0.00    -0.274 OA
ATOM      6  H   UNL A   1      45.088  25.178  28.504  1.00  0.00     0.163 HD
BRANCH   4   7
ATOM      7  C   UNL A   1      45.706  22.635  26.384  1.00  0.00     0.169 C 
BRANCH   7   8
ATOM      8  S   UNL A   1      45.974  22.771  24.589  1.00  0.00    -0.145 SA
BRANCH   8   9
ATOM      9  C   UNL A   1      44.895  21.429  23.982  1.00  0.00     0.132 C 
BRANCH   9  10
ATOM     10  C   UNL A   1      45.223  20.090  24.536  1.00  0.00     0.117 A 
ATOM     11  C   UNL A   1      42.960  19.239  25.551  1.00  0.00     0.073 C 
ATOM     12  C   UNL A   1      44.393  19.163  25.197  1.00  0.00     0.106 A 
ATOM     13  N   UNL A   1      45.100  18.069  25.493  1.00  0.00    -0.055 NA
ATOM     14  O   UNL A   1      46.376  18.317  25.007  1.00  0.00    -0.244 OA
ATOM     15  N   UNL A   1      46.445  19.562  24.396  1.00  0.00    -0.054 NA
ENDBRANCH   9  10
ENDBRANCH   8   9
ENDBRANCH   7   8
ENDBRANCH   4   7
ENDBRANCH   2   3
ENDBRANCH   1   2
BRANCH   1  16
ATOM     16  C   UNL A   1      42.260  22.397  27.502  1.00  0.00     0.023 C 
BRANCH  16  17
ATOM     17  C   UNL A   1      41.012  21.638  27.941  1.00  0.00     0.116 C 
BRANCH  17  18
ATOM     18  N   UNL A   1      39.981  21.607  26.918  1.00  0.00    -0.352 N 
ATOM     19  C   UNL A   1      39.231  22.642  26.411  1.00  0.00     0.251 C 
ATOM     20  H   UNL A   1      39.792  20.720  26.533  1.00  0.00     0.163 HD
ATOM     21  O   UNL A   1      38.301  22.398  25.646  1.00  0.00    -0.269 OA
BRANCH  19  22
ATOM     22  C   UNL A   1      39.522  24.034  26.818  1.00  0.00     0.039 A 
ATOM     23  C   UNL A   1      39.169  24.448  28.105  1.00  0.00     0.014 A 
ATOM     24  C   UNL A   1      40.148  24.925  25.942  1.00  0.00     0.014 A 
ATOM     25  C   UNL A   1      39.508  25.732  28.538  1.00  0.00     0.010 A 
ATOM     26  C   UNL A   1      40.546  26.180  26.398  1.00  0.00     0.010 A 
ATOM     27  C   UNL A   1      40.233  26.596  27.702  1.00  0.00    -0.014 A 
BRANCH  27  28
ATOM     28  C   UNL A   1      40.677  27.935  28.174  1.00  0.00     0.031 A 
ATOM     29  C   UNL A   1      42.140  28.285  28.190  1.00  0.00     0.074 A 
ATOM     30  C   UNL A   1      39.767  28.809  28.650  1.00  0.00     0.049 A 
ATOM     31  N   UNL A   1      42.730  29.361  28.643  1.00  0.00    -0.248 NA
ATOM     32  C   UNL A   1      43.062  27.274  27.651  1.00  0.00     0.031 C 
ATOM     33  C   UNL A   1      38.324  28.570  28.724  1.00  0.00     0.029 A 
ATOM     34  N   UNL A   1      39.920  30.069  29.173  1.00  0.00    -0.354 N 
ATOM     35  C   UNL A   1      44.093  29.155  28.455  1.00  0.00     0.074 A 
ATOM     36  C   UNL A   1      44.241  27.823  27.905  1.00  0.00     0.031 C 
ATOM     37  C   UNL A   1      37.724  29.655  29.240  1.00  0.00     0.029 A 
ATOM     38  C   UNL A   1      38.740  30.648  29.579  1.00  0.00     0.049 A 
ATOM     39  H   UNL A   1      40.793  30.517  29.251  1.00  0.00     0.167 HD
ATOM     40  C   UNL A   1      45.122  30.005  28.696  1.00  0.00     0.034 A 
ATOM     41  C   UNL A   1      38.502  31.835  30.169  1.00  0.00     0.034 A 
ATOM     42  C   UNL A   1      44.955  31.333  29.235  1.00  0.00     0.049 A 
ATOM     43  C   UNL A   1      39.663  32.755  30.452  1.00  0.00     0.074 A 
ATOM     44  C   UNL A   1      45.923  32.296  29.471  1.00  0.00     0.029 A 
ATOM     45  N   UNL A   1      43.744  31.887  29.630  1.00  0.00    -0.354 N 
ATOM     46  N   UNL A   1      40.942  32.563  30.225  1.00  0.00    -0.248 NA
ATOM     47  C   UNL A   1      39.348  34.053  31.061  1.00  0.00     0.031 C 
ATOM     48  C   UNL A   1      45.307  33.400  30.070  1.00  0.00     0.029 A 
ATOM     49  C   UNL A   1      43.944  33.163  30.136  1.00  0.00     0.049 A 
ATOM     50  H   UNL A   1      42.870  31.439  29.562  1.00  0.00     0.167 HD
ATOM     51  C   UNL A   1      41.579  33.731  30.634  1.00  0.00     0.074 A 
ATOM     52  C   UNL A   1      40.543  34.625  31.108  1.00  0.00     0.031 C 
ATOM     53  C   UNL A   1      42.901  34.041  30.617  1.00  0.00     0.034 A 
BRANCH  40  54
ATOM     54  C   UNL A   1      46.517  29.507  28.400  1.00  0.00     0.023 A 
ATOM     55  C   UNL A   1      47.282  28.837  29.372  1.00  0.00     0.031 A 
ATOM     56  C   UNL A   1      47.104  29.730  27.143  1.00  0.00     0.131 A 
ATOM     57  C   UNL A   1      48.612  28.485  29.098  1.00  0.00     0.055 A 
ATOM     58  C   UNL A   1      48.400  29.302  26.847  1.00  0.00     0.041 A 
ATOM     59  F   UNL A   1      46.432  30.383  26.180  1.00  0.00    -0.206 F 
ATOM     60  C   UNL A   1      49.168  28.690  27.833  1.00  0.00     0.022 A 
BRANCH  57  61
ATOM     61  S   UNL A   1      49.650  27.897  30.463  1.00  0.00     0.124 S 
ATOM     62  O   UNL A   1      49.348  26.468  30.469  1.00  0.00    -0.237 OA
ATOM     63  O   UNL A   1      50.991  28.265  30.021  1.00  0.00    -0.237 OA
ATOM     64  O   UNL A   1      49.148  28.638  31.619  1.00  0.00    -0.744 OA
ENDBRANCH  57  61
ENDBRANCH  40  54
BRANCH  41  65
ATOM     65  C   UNL A   1      37.113  32.228  30.548  1.00  0.00     0.023 A 
ATOM     66  C   UNL A   1      36.239  32.793  29.607  1.00  0.00     0.031 A 
ATOM     67  C   UNL A   1      36.654  32.079  31.869  1.00  0.00     0.131 A 
ATOM     68  C   UNL A   1      34.969  33.237  30.010  1.00  0.00     0.055 A 
ATOM     69  C   UNL A   1      35.371  32.472  32.253  1.00  0.00     0.041 A 
ATOM     70  F   UNL A   1      37.448  31.538  32.808  1.00  0.00    -0.206 F 
ATOM     71  C   UNL A   1      34.525  33.068  31.323  1.00  0.00     0.022 A 
BRANCH  68  72
ATOM     72  S   UNL A   1      33.936  34.118  28.807  1.00  0.00     0.124 S 
ATOM     73  O   UNL A   1      33.548  33.041  27.903  1.00  0.00    -0.237 OA
ATOM     74  O   UNL A   1      32.878  34.656  29.657  1.00  0.00    -0.237 OA
ATOM     75  O   UNL A   1      34.845  35.112  28.243  1.00  0.00    -0.744 OA
ENDBRANCH  68  72
ENDBRANCH  41  65
BRANCH  53  76
ATOM     76  C   UNL A   1      43.288  35.423  31.082  1.00  0.00     0.023 A 
ATOM     77  C   UNL A   1      43.480  36.483  30.179  1.00  0.00     0.031 A 
ATOM     78  C   UNL A   1      43.480  35.678  32.453  1.00  0.00     0.131 A 
ATOM     79  C   UNL A   1      43.905  37.734  30.651  1.00  0.00     0.055 A 
ATOM     80  C   UNL A   1      43.844  36.941  32.922  1.00  0.00     0.041 A 
ATOM     81  F   UNL A   1      43.313  34.701  33.359  1.00  0.00    -0.206 F 
ATOM     82  C   UNL A   1      44.071  37.974  32.018  1.00  0.00     0.022 A 
BRANCH  79  83
ATOM     83  S   UNL A   1      44.327  39.023  29.446  1.00  0.00     0.124 S 
ATOM     84  O   UNL A   1      44.491  38.249  28.220  1.00  0.00    -0.237 OA
ATOM     85  O   UNL A   1      43.157  39.894  29.498  1.00  0.00    -0.237 OA
ATOM     86  O   UNL A   1      45.557  39.605  29.982  1.00  0.00    -0.744 OA
ENDBRANCH  79  83
ENDBRANCH  53  76
ENDBRANCH  27  28
ENDBRANCH  19  22
ENDBRANCH  17  18
ENDBRANCH  16  17
ENDBRANCH   1  16
TORSDOF 17
ENDMDL
MODEL 2
REMARK VINA RESULT:      -9.8      4.046      9.645
REMARK SMILES Cc1nonc1CSCC(=O)NCCCCNC(=O)c1ccc(-c2c3nc(c(-c4cc(S(=O)(=O)[O-])ccc4F)c4ccc([nH]4)c(-c4cc(S(=O)(=O)[O-])ccc4F)c4nc(c(-c5cc(S(=O)(=O)[O-])ccc5F)c5ccc2[nH]5)C=C4)C=C3)cc1
REMARK SMILES IDX 14 1 13 2 12 3 10 4 11 5 9 7 8 8 7 9 6 10 1 11 2 12 3 13
REMARK SMILES IDX 4 14 5 15 15 16 16 17 17 18 18 19 19 21 20 22 21 23 82 24
REMARK SMILES IDX 22 25 81 26 23 27 24 28 25 29 75 30 26 31 80 32 74 33 76 34
REMARK SMILES IDX 27 35 79 36 73 37 72 38 28 40 60 41 40 42 59 43 41 44 44 45
REMARK SMILES IDX 58 46 77 47 42 48 43 49 57 51 78 52 45 53 29 54 30 55 38 56
REMARK SMILES IDX 31 57 37 58 39 59 36 60 32 61 33 62 34 63 35 64 61 65 62 66
REMARK SMILES IDX 70 67 63 68 69 69 71 70 68 71 64 72 65 73 66 74 67 75 46 76
REMARK SMILES IDX 47 77 55 78 48 79 54 80 56 81 53 82 49 83 50 84 51 85 52 86
REMARK H PARENT 12 6 17 20 76 39 44 50
REMARK Flexibility Score: inf
ROOT
ATOM      1  C   UNL A   1      35.895  23.407  25.913  1.00  0.00     0.023 C 
ENDROOT
BRANCH   1   2
ATOM      2  C   UNL A   1      34.551  23.824  25.313  1.00  0.00     0.116 C 
BRANCH   2   3
ATOM      3  N   UNL A   1      33.529  23.925  26.340  1.00  0.00    -0.355 N 
ATOM      4  C   UNL A   1      32.769  22.934  26.888  1.00  0.00     0.230 C 
ATOM      5  O   UNL A   1      31.830  23.251  27.621  1.00  0.00    -0.274 OA
ATOM      6  H   UNL A   1      33.362  24.831  26.686  1.00  0.00     0.163 HD
BRANCH   4   7
ATOM      7  C   UNL A   1      33.083  21.476  26.606  1.00  0.00     0.169 C 
BRANCH   7   8
ATOM      8  S   UNL A   1      32.486  20.920  24.980  1.00  0.00    -0.145 SA
BRANCH   8   9
ATOM      9  C   UNL A   1      32.461  19.111  25.226  1.00  0.00     0.132 C 
BRANCH   9  10
ATOM     10  C   UNL A   1      32.848  18.331  24.024  1.00  0.00     0.117 A 
ATOM     11  C   UNL A   1      35.052  17.099  24.735  1.00  0.00     0.073 C 
ATOM     12  C   UNL A   1      33.949  17.473  23.825  1.00  0.00     0.106 A 
ATOM     13  N   UNL A   1      33.887  16.950  22.597  1.00  0.00    -0.055 NA
ATOM     14  O   UNL A   1      32.737  17.484  22.033  1.00  0.00    -0.244 OA
ATOM     15  N   UNL A   1      32.084  18.323  22.925  1.00  0.00    -0.054 NA
ENDBRANCH   9  10
ENDBRANCH   8   9
ENDBRANCH   7   8
ENDBRANCH   4   7
ENDBRANCH   2   3
ENDBRANCH   1   2
BRANCH   1  16
ATOM     16  C   UNL A   1      36.224  21.918  25.770  1.00  0.00     0.023 C 
BRANCH  16  17
ATOM     17  C   UNL A   1      37.395  21.595  24.848  1.00  0.00     0.116 C 
BRANCH  17  18
ATOM     18  N   UNL A   1      38.240  20.529  25.362  1.00  0.00    -0.352 N 
ATOM     19  C   UNL A   1      39.417  20.620  26.066  1.00  0.00     0.251 C 
ATOM     20  H   UNL A   1      37.926  19.614  25.179  1.00  0.00     0.163 HD
ATOM     21  O   UNL A   1      40.067  19.602  26.293  1.00  0.00    -0.269 OA
BRANCH  19  22
ATOM     22  C   UNL A   1      39.913  21.941  26.511  1.00  0.00     0.039 A 
ATOM     23  C   UNL A   1      40.857  21.995  27.540  1.00  0.00     0.014 A 
ATOM     24  C   UNL A   1      39.460  23.121  25.913  1.00  0.00     0.014 A 
ATOM     25  C   UNL A   1      41.399  23.224  27.919  1.00  0.00     0.010 A 
ATOM     26  C   UNL A   1      40.052  24.337  26.245  1.00  0.00     0.010 A 
ATOM     27  C   UNL A   1      41.030  24.402  27.250  1.00  0.00    -0.014 A 
BRANCH  27  28
ATOM     28  C   UNL A   1      41.659  25.708  27.582  1.00  0.00     0.031 A 
ATOM     29  C   UNL A   1      40.889  26.743  28.357  1.00  0.00     0.074 A 
ATOM     30  C   UNL A   1      42.897  25.987  27.127  1.00  0.00     0.049 A 
ATOM     31  N   UNL A   1      41.228  27.967  28.669  1.00  0.00    -0.248 NA
ATOM     32  C   UNL A   1      39.547  26.354  28.816  1.00  0.00     0.031 C 
ATOM     33  C   UNL A   1      43.728  25.082  26.331  1.00  0.00     0.029 A 
ATOM     34  N   UNL A   1      43.669  27.115  27.258  1.00  0.00    -0.354 N 
ATOM     35  C   UNL A   1      40.140  28.501  29.351  1.00  0.00     0.074 A 
ATOM     36  C   UNL A   1      39.108  27.485  29.349  1.00  0.00     0.031 C 
ATOM     37  C   UNL A   1      44.900  25.681  26.063  1.00  0.00     0.029 A 
ATOM     38  C   UNL A   1      44.888  27.028  26.625  1.00  0.00     0.049 A 
ATOM     39  H   UNL A   1      43.378  27.912  27.757  1.00  0.00     0.167 HD
ATOM     40  C   UNL A   1      40.021  29.715  29.944  1.00  0.00     0.034 A 
ATOM     41  C   UNL A   1      45.877  27.934  26.499  1.00  0.00     0.034 A 
ATOM     42  C   UNL A   1      41.064  30.713  29.945  1.00  0.00     0.049 A 
ATOM     43  C   UNL A   1      45.714  29.288  27.143  1.00  0.00     0.074 A 
ATOM     44  C   UNL A   1      41.068  31.956  30.556  1.00  0.00     0.029 A 
ATOM     45  N   UNL A   1      42.286  30.589  29.297  1.00  0.00    -0.354 N 
ATOM     46  N   UNL A   1      44.695  29.760  27.824  1.00  0.00    -0.248 NA
ATOM     47  C   UNL A   1      46.836  30.225  27.010  1.00  0.00     0.031 C 
ATOM     48  C   UNL A   1      42.261  32.606  30.223  1.00  0.00     0.029 A 
ATOM     49  C   UNL A   1      43.038  31.742  29.468  1.00  0.00     0.049 A 
ATOM     50  H   UNL A   1      42.577  29.797  28.789  1.00  0.00     0.167 HD
ATOM     51  C   UNL A   1      45.070  31.039  28.228  1.00  0.00     0.074 A 
ATOM     52  C   UNL A   1      46.411  31.257  27.725  1.00  0.00     0.031 C 
ATOM     53  C   UNL A   1      44.371  31.950  28.952  1.00  0.00     0.034 A 
BRANCH  40  54
ATOM     54  C   UNL A   1      38.705  30.035  30.615  1.00  0.00     0.023 A 
ATOM     55  C   UNL A   1      37.682  30.724  29.940  1.00  0.00     0.031 A 
ATOM     56  C   UNL A   1      38.480  29.672  31.954  1.00  0.00     0.131 A 
ATOM     57  C   UNL A   1      36.517  31.099  30.627  1.00  0.00     0.055 A 
ATOM     58  C   UNL A   1      37.283  29.973  32.608  1.00  0.00     0.041 A 
ATOM     59  F   UNL A   1      39.426  29.030  32.658  1.00  0.00    -0.206 F 
ATOM     60  C   UNL A   1      36.300  30.705  31.949  1.00  0.00     0.022 A 
BRANCH  57  61
ATOM     61  S   UNL A   1      35.362  32.237  29.815  1.00  0.00     0.124 S 
ATOM     62  O   UNL A   1      34.858  31.412  28.720  1.00  0.00    -0.237 OA
ATOM     63  O   UNL A   1      34.411  32.534  30.880  1.00  0.00    -0.237 OA
ATOM     64  O   UNL A   1      36.212  33.353  29.405  1.00  0.00    -0.744 OA
ENDBRANCH  57  61
ENDBRANCH  40  54
BRANCH  41  65
ATOM     65  C   UNL A   1      47.109  27.606  25.723  1.00  0.00     0.023 A 
ATOM     66  C   UNL A   1      47.205  27.907  24.356  1.00  0.00     0.031 A 
ATOM     67  C   UNL A   1      48.194  26.949  26.331  1.00  0.00     0.131 A 
ATOM     68  C   UNL A   1      48.338  27.507  23.629  1.00  0.00     0.055 A 
ATOM     69  C   UNL A   1      49.341  26.601  25.617  1.00  0.00     0.041 A 
ATOM     70  F   UNL A   1      48.157  26.643  27.639  1.00  0.00    -0.206 F 
ATOM     71  C   UNL A   1      49.411  26.869  24.253  1.00  0.00     0.022 A 
BRANCH  68  72
ATOM     72  S   UNL A   1      48.350  27.760  21.833  1.00  0.00     0.124 S 
ATOM     73  O   UNL A   1      47.022  28.316  21.602  1.00  0.00    -0.237 OA
ATOM     74  O   UNL A   1      49.470  28.681  21.666  1.00  0.00    -0.237 OA
ATOM     75  O   UNL A   1      48.567  26.416  21.303  1.00  0.00    -0.744 OA
ENDBRANCH  68  72
ENDBRANCH  41  65
BRANCH  53  76
ATOM     76  C   UNL A   1      45.070  33.246  29.281  1.00  0.00     0.023 A 
ATOM     77  C   UNL A   1      45.006  34.361  28.427  1.00  0.00     0.031 A 
ATOM     78  C   UNL A   1      45.823  33.362  30.464  1.00  0.00     0.131 A 
ATOM     79  C   UNL A   1      45.728  35.523  28.740  1.00  0.00     0.055 A 
ATOM     80  C   UNL A   1      46.488  34.542  30.801  1.00  0.00     0.041 A 
ATOM     81  F   UNL A   1      45.921  32.328  31.315  1.00  0.00    -0.206 F 
ATOM     82  C   UNL A   1      46.454  35.627  29.930  1.00  0.00     0.022 A 
BRANCH  79  83
ATOM     83  S   UNL A   1      45.779  36.871  27.527  1.00  0.00     0.124 S 
ATOM     84  O   UNL A   1      44.409  37.373  27.573  1.00  0.00    -0.237 OA
ATOM     85  O   UNL A   1      46.800  37.754  28.083  1.00  0.00    -0.237 OA
ATOM     86  O   UNL A   1      46.152  36.199  26.283  1.00  0.00    -0.744 OA
ENDBRANCH  79  83
ENDBRANCH  53  76
ENDBRANCH  27  28
ENDBRANCH  19  22
ENDBRANCH  17  18
ENDBRANCH  16  17
ENDBRANCH   1  16
TORSDOF 17
ENDMDL
MODEL 3
REMARK VINA RESULT:      -9.8      5.373      9.080
REMARK SMILES Cc1nonc1CSCC(=O)NCCCCNC(=O)c1ccc(-c2c3nc(c(-c4cc(S(=O)(=O)[O-])ccc4F)c4ccc([nH]4)c(-c4cc(S(=O)(=O)[O-])ccc4F)c4nc(c(-c5cc(S(=O)(=O)[O-])ccc5F)c5ccc2[nH]5)C=C4)C=C3)cc1
REMARK SMILES IDX 14 1 13 2 12 3 10 4 11 5 9 7 8 8 7 9 6 10 1 11 2 12 3 13
REMARK SMILES IDX 4 14 5 15 15 16 16 17 17 18 18 19 19 21 20 22 21 23 82 24
REMARK SMILES IDX 22 25 81 26 23 27 24 28 25 29 75 30 26 31 80 32 74 33 76 34
REMARK SMILES IDX 27 35 79 36 73 37 72 38 28 40 60 41 40 42 59 43 41 44 44 45
REMARK SMILES IDX 58 46 77 47 42 48 43 49 57 51 78 52 45 53 29 54 30 55 38 56
REMARK SMILES IDX 31 57 37 58 39 59 36 60 32 61 33 62 34 63 35 64 61 65 62 66
REMARK SMILES IDX 70 67 63 68 69 69 71 70 68 71 64 72 65 73 66 74 67 75 46 76
REMARK SMILES IDX 47 77 55 78 48 79 54 80 56 81 53 82 49 83 50 84 51 85 52 86
REMARK H PARENT 12 6 17 20 76 39 44 50
REMARK Flexibility Score: inf
ROOT
ATOM      1  C   UNL A   1      31.406  27.611  26.238  1.00  0.00     0.023 C 
ENDROOT
BRANCH   1   2
ATOM      2  C   UNL A   1      30.766  26.269  25.877  1.00  0.00     0.116 C 
BRANCH   2   3
ATOM      3  N   UNL A   1      31.075  25.258  26.873  1.00  0.00    -0.355 N 
ATOM      4  C   UNL A   1      31.361  23.938  26.688  1.00  0.00     0.230 C 
ATOM      5  O   UNL A   1      31.420  23.205  27.678  1.00  0.00    -0.274 OA
ATOM      6  H   UNL A   1      31.077  25.568  27.808  1.00  0.00     0.163 HD
BRANCH   4   7
ATOM      7  C   UNL A   1      31.610  23.390  25.295  1.00  0.00     0.169 C 
BRANCH   7   8
ATOM      8  S   UNL A   1      33.379  23.198  24.911  1.00  0.00    -0.145 SA
BRANCH   8   9
ATOM      9  C   UNL A   1      33.747  24.831  24.181  1.00  0.00     0.132 C 
BRANCH   9  10
ATOM     10  C   UNL A   1      33.496  24.912  22.720  1.00  0.00     0.117 A 
ATOM     11  C   UNL A   1      33.444  27.485  22.214  1.00  0.00     0.073 C 
ATOM     12  C   UNL A   1      33.374  26.045  21.890  1.00  0.00     0.106 A 
ATOM     13  N   UNL A   1      33.185  25.650  20.628  1.00  0.00    -0.055 NA
ATOM     14  O   UNL A   1      33.196  24.263  20.675  1.00  0.00    -0.244 OA
ATOM     15  N   UNL A   1      33.409  23.807  21.969  1.00  0.00    -0.054 NA
ENDBRANCH   9  10
ENDBRANCH   8   9
ENDBRANCH   7   8
ENDBRANCH   4   7
ENDBRANCH   2   3
ENDBRANCH   1   2
BRANCH   1  16
ATOM     16  C   UNL A   1      31.963  28.394  25.045  1.00  0.00     0.023 C 
BRANCH  16  17
ATOM     17  C   UNL A   1      33.042  29.416  25.384  1.00  0.00     0.116 C 
BRANCH  17  18
ATOM     18  N   UNL A   1      32.502  30.638  25.957  1.00  0.00    -0.352 N 
ATOM     19  C   UNL A   1      32.987  31.394  26.998  1.00  0.00     0.251 C 
ATOM     20  H   UNL A   1      31.673  30.970  25.543  1.00  0.00     0.163 HD
ATOM     21  O   UNL A   1      32.312  32.322  27.437  1.00  0.00    -0.269 OA
BRANCH  19  22
ATOM     22  C   UNL A   1      34.295  31.065  27.606  1.00  0.00     0.039 A 
ATOM     23  C   UNL A   1      35.248  32.077  27.744  1.00  0.00     0.014 A 
ATOM     24  C   UNL A   1      34.579  29.770  28.048  1.00  0.00     0.014 A 
ATOM     25  C   UNL A   1      36.457  31.808  28.389  1.00  0.00     0.010 A 
ATOM     26  C   UNL A   1      35.755  29.520  28.752  1.00  0.00     0.010 A 
ATOM     27  C   UNL A   1      36.706  30.538  28.933  1.00  0.00    -0.014 A 
BRANCH  27  28
ATOM     28  C   UNL A   1      37.949  30.255  29.697  1.00  0.00     0.031 A 
ATOM     29  C   UNL A   1      38.972  29.297  29.150  1.00  0.00     0.074 A 
ATOM     30  C   UNL A   1      38.125  30.810  30.914  1.00  0.00     0.049 A 
ATOM     31  N   UNL A   1      40.073  28.856  29.702  1.00  0.00    -0.248 NA
ATOM     32  C   UNL A   1      38.701  28.739  27.817  1.00  0.00     0.031 C 
ATOM     33  C   UNL A   1      37.187  31.723  31.569  1.00  0.00     0.029 A 
ATOM     34  N   UNL A   1      39.147  30.679  31.821  1.00  0.00    -0.354 N 
ATOM     35  C   UNL A   1      40.623  27.960  28.790  1.00  0.00     0.074 A 
ATOM     36  C   UNL A   1      39.698  27.876  27.678  1.00  0.00     0.031 C 
ATOM     37  C   UNL A   1      37.687  32.087  32.762  1.00  0.00     0.029 A 
ATOM     38  C   UNL A   1      38.955  31.398  32.979  1.00  0.00     0.049 A 
ATOM     39  H   UNL A   1      39.943  30.124  31.659  1.00  0.00     0.167 HD
ATOM     40  C   UNL A   1      41.800  27.290  28.861  1.00  0.00     0.034 A 
ATOM     41  C   UNL A   1      39.706  31.481  34.094  1.00  0.00     0.034 A 
ATOM     42  C   UNL A   1      42.715  27.392  29.972  1.00  0.00     0.049 A 
ATOM     43  C   UNL A   1      40.998  30.706  34.164  1.00  0.00     0.074 A 
ATOM     44  C   UNL A   1      43.956  26.797  30.125  1.00  0.00     0.029 A 
ATOM     45  N   UNL A   1      42.489  28.132  31.126  1.00  0.00    -0.354 N 
ATOM     46  N   UNL A   1      41.526  29.900  33.272  1.00  0.00    -0.248 NA
ATOM     47  C   UNL A   1      41.799  30.861  35.385  1.00  0.00     0.031 C 
ATOM     48  C   UNL A   1      44.447  27.122  31.394  1.00  0.00     0.029 A 
ATOM     49  C   UNL A   1      43.551  27.984  32.006  1.00  0.00     0.049 A 
ATOM     50  H   UNL A   1      41.690  28.683  31.295  1.00  0.00     0.167 HD
ATOM     51  C   UNL A   1      42.737  29.478  33.813  1.00  0.00     0.074 A 
ATOM     52  C   UNL A   1      42.866  30.130  35.100  1.00  0.00     0.031 C 
ATOM     53  C   UNL A   1      43.662  28.632  33.292  1.00  0.00     0.034 A 
BRANCH  40  54
ATOM     54  C   UNL A   1      42.144  26.367  27.715  1.00  0.00     0.023 A 
ATOM     55  C   UNL A   1      41.714  25.029  27.691  1.00  0.00     0.031 A 
ATOM     56  C   UNL A   1      42.936  26.821  26.646  1.00  0.00     0.131 A 
ATOM     57  C   UNL A   1      42.143  24.172  26.666  1.00  0.00     0.055 A 
ATOM     58  C   UNL A   1      43.290  25.986  25.584  1.00  0.00     0.041 A 
ATOM     59  F   UNL A   1      43.395  28.083  26.622  1.00  0.00    -0.206 F 
ATOM     60  C   UNL A   1      42.906  24.648  25.598  1.00  0.00     0.022 A 
BRANCH  57  61
ATOM     61  S   UNL A   1      41.816  22.396  26.830  1.00  0.00     0.124 S 
ATOM     62  O   UNL A   1      42.759  22.018  27.880  1.00  0.00    -0.237 OA
ATOM     63  O   UNL A   1      40.405  22.369  27.199  1.00  0.00    -0.237 OA
ATOM     64  O   UNL A   1      42.126  21.866  25.503  1.00  0.00    -0.744 OA
ENDBRANCH  57  61
ENDBRANCH  40  54
BRANCH  41  65
ATOM     65  C   UNL A   1      39.259  32.317  35.247  1.00  0.00     0.023 A 
ATOM     66  C   UNL A   1      39.711  33.636  35.402  1.00  0.00     0.031 A 
ATOM     67  C   UNL A   1      38.403  31.792  36.233  1.00  0.00     0.131 A 
ATOM     68  C   UNL A   1      39.346  34.370  36.542  1.00  0.00     0.055 A 
ATOM     69  C   UNL A   1      38.000  32.544  37.336  1.00  0.00     0.041 A 
ATOM     70  F   UNL A   1      37.937  30.537  36.129  1.00  0.00    -0.206 F 
ATOM     71  C   UNL A   1      38.485  33.838  37.503  1.00  0.00     0.022 A 
BRANCH  68  72
ATOM     72  S   UNL A   1      40.088  36.007  36.793  1.00  0.00     0.124 S 
ATOM     73  O   UNL A   1      39.739  36.685  35.551  1.00  0.00    -0.237 OA
ATOM     74  O   UNL A   1      39.398  36.469  37.994  1.00  0.00    -0.237 OA
ATOM     75  O   UNL A   1      41.508  35.712  36.968  1.00  0.00    -0.744 OA
ENDBRANCH  68  72
ENDBRANCH  41  65
BRANCH  53  76
ATOM     76  C   UNL A   1      44.916  28.404  34.101  1.00  0.00     0.023 A 
ATOM     77  C   UNL A   1      45.944  29.361  34.160  1.00  0.00     0.031 A 
ATOM     78  C   UNL A   1      45.088  27.203  34.814  1.00  0.00     0.131 A 
ATOM     79  C   UNL A   1      47.121  29.078  34.870  1.00  0.00     0.055 A 
ATOM     80  C   UNL A   1      46.235  26.953  35.568  1.00  0.00     0.041 A 
ATOM     81  F   UNL A   1      44.139  26.253  34.791  1.00  0.00    -0.206 F 
ATOM     82  C   UNL A   1      47.265  27.888  35.588  1.00  0.00     0.022 A 
BRANCH  79  83
ATOM     83  S   UNL A   1      48.503  30.250  34.769  1.00  0.00     0.124 S 
ATOM     84  O   UNL A   1      47.890  31.381  34.080  1.00  0.00    -0.237 OA
ATOM     85  O   UNL A   1      48.834  30.463  36.174  1.00  0.00    -0.237 OA
ATOM     86  O   UNL A   1      49.512  29.525  33.997  1.00  0.00    -0.744 OA
ENDBRANCH  79  83
ENDBRANCH  53  76
ENDBRANCH  27  28
ENDBRANCH  19  22
ENDBRANCH  17  18
ENDBRANCH  16  17
ENDBRANCH   1  16
TORSDOF 17
ENDMDL
