MODEL 1
REMARK VINA RESULT:     -11.9      0.000      0.000
REMARK SMILES C[C@H]1CC=C(C2=NN=C(C(=O)NCCCCNC(=O)c3ccc(-c4c5nc(c(-c6cc(S(=O)(=O)[O-])ccc6F)c6ccc([nH]6)c(-c6cc(S(=O)(=O)[O-])ccc6F)c6nc(c(-c7cc(S(=O)(=O)[O-])ccc7F)c7ccc4[nH]7)C=C6)C=C5)cc3)C2)O1
REMARK SMILES IDX 15 1 14 2 13 3 12 4 10 5 11 6 9 8 6 9 7 10 83 11 8 12 5 13
REMARK SMILES IDX 1 14 2 15 3 16 84 17 4 18 16 19 17 20 18 21 19 23 20 24
REMARK SMILES IDX 21 25 82 26 22 27 81 28 23 29 24 30 25 31 75 32 26 33 80 34
REMARK SMILES IDX 74 35 76 36 27 37 79 38 73 39 72 40 28 42 60 43 40 44 59 45
REMARK SMILES IDX 41 46 44 47 58 48 77 49 42 50 43 51 57 53 78 54 45 55 29 56
REMARK SMILES IDX 30 57 38 58 31 59 37 60 39 61 36 62 32 63 33 64 34 65 35 66
REMARK SMILES IDX 61 67 62 68 70 69 63 70 69 71 71 72 68 73 64 74 65 75 66 76
REMARK SMILES IDX 67 77 46 78 47 79 55 80 48 81 54 82 56 83 53 84 49 85 50 86
REMARK SMILES IDX 51 87 52 88
REMARK H PARENT 12 7 17 22 76 41 44 52
REMARK Flexibility Score: inf
ROOT
ATOM      1  C   UNL A   1      35.261  34.922  28.912  1.00  0.00     0.023 C 
ENDROOT
BRANCH   1   2
ATOM      2  C   UNL A   1      34.126  35.884  28.530  1.00  0.00     0.023 C 
BRANCH   2   3
ATOM      3  C   UNL A   1      32.841  35.755  29.355  1.00  0.00     0.116 C 
BRANCH   3   4
ATOM      4  N   UNL A   1      32.778  36.743  30.420  1.00  0.00    -0.351 N 
ATOM      5  C   UNL A   1      33.077  36.638  31.755  1.00  0.00     0.267 C 
ATOM      6  O   UNL A   1      32.898  37.591  32.508  1.00  0.00    -0.268 OA
ATOM      7  H   UNL A   1      32.469  37.635  30.136  1.00  0.00     0.163 HD
BRANCH   5   8
ATOM      8  C   UNL A   1      33.647  35.386  32.361  1.00  0.00     0.134 C 
ATOM      9  C   UNL A   1      35.118  33.875  33.092  1.00  0.00     0.111 C 
ATOM     10  N   UNL A   1      33.933  33.353  33.168  1.00  0.00    -0.151 NA
ATOM     11  C   UNL A   1      35.114  35.279  32.587  1.00  0.00     0.126 C 
ATOM     12  N   UNL A   1      32.991  34.325  32.720  1.00  0.00    -0.149 NA
BRANCH   9  13
ATOM     13  C   UNL A   1      36.379  33.199  33.418  1.00  0.00     0.139 C 
ATOM     14  C   UNL A   1      38.227  30.897  35.244  1.00  0.00     0.053 C 
ATOM     15  C   UNL A   1      37.971  32.282  34.668  1.00  0.00     0.174 C 
ATOM     16  C   UNL A   1      38.525  32.447  33.246  1.00  0.00     0.076 C 
ATOM     17  O   UNL A   1      36.548  32.544  34.631  1.00  0.00    -0.489 OA
ATOM     18  C   UNL A   1      37.432  33.207  32.605  1.00  0.00     0.025 C 
ENDBRANCH   9  13
ENDBRANCH   5   8
ENDBRANCH   3   4
ENDBRANCH   2   3
ENDBRANCH   1   2
BRANCH   1  19
ATOM     19  C   UNL A   1      35.423  33.724  27.985  1.00  0.00     0.116 C 
BRANCH  19  20
ATOM     20  N   UNL A   1      34.506  32.627  28.287  1.00  0.00    -0.352 N 
ATOM     21  C   UNL A   1      34.791  31.269  28.261  1.00  0.00     0.251 C 
ATOM     22  H   UNL A   1      33.587  32.880  28.538  1.00  0.00     0.163 HD
ATOM     23  O   UNL A   1      33.908  30.444  28.104  1.00  0.00    -0.269 OA
BRANCH  21  24
ATOM     24  C   UNL A   1      36.198  30.859  28.444  1.00  0.00     0.039 A 
ATOM     25  C   UNL A   1      37.049  31.497  29.348  1.00  0.00     0.014 A 
ATOM     26  C   UNL A   1      36.633  29.757  27.710  1.00  0.00     0.014 A 
ATOM     27  C   UNL A   1      38.316  30.954  29.567  1.00  0.00     0.010 A 
ATOM     28  C   UNL A   1      37.812  29.138  28.039  1.00  0.00     0.010 A 
ATOM     29  C   UNL A   1      38.682  29.756  28.926  1.00  0.00    -0.014 A 
BRANCH  29  30
ATOM     30  C   UNL A   1      39.905  29.041  29.284  1.00  0.00     0.031 A 
ATOM     31  C   UNL A   1      40.126  28.934  30.751  1.00  0.00     0.074 A 
ATOM     32  C   UNL A   1      40.660  28.347  28.401  1.00  0.00     0.049 A 
ATOM     33  N   UNL A   1      40.986  29.588  31.455  1.00  0.00    -0.248 NA
ATOM     34  C   UNL A   1      39.169  28.162  31.563  1.00  0.00     0.031 C 
ATOM     35  C   UNL A   1      40.422  28.119  26.972  1.00  0.00     0.029 A 
ATOM     36  N   UNL A   1      41.783  27.610  28.626  1.00  0.00    -0.354 N 
ATOM     37  C   UNL A   1      40.868  29.107  32.753  1.00  0.00     0.074 A 
ATOM     38  C   UNL A   1      39.605  28.421  32.799  1.00  0.00     0.031 C 
ATOM     39  C   UNL A   1      41.227  27.128  26.523  1.00  0.00     0.029 A 
ATOM     40  C   UNL A   1      42.156  26.765  27.580  1.00  0.00     0.049 A 
ATOM     41  H   UNL A   1      42.293  27.668  29.466  1.00  0.00     0.167 HD
ATOM     42  C   UNL A   1      41.945  29.098  33.588  1.00  0.00     0.034 A 
ATOM     43  C   UNL A   1      43.159  25.839  27.575  1.00  0.00     0.034 A 
ATOM     44  C   UNL A   1      43.008  29.930  33.060  1.00  0.00     0.049 A 
ATOM     45  C   UNL A   1      44.114  26.264  28.631  1.00  0.00     0.074 A 
ATOM     46  C   UNL A   1      43.099  31.261  32.695  1.00  0.00     0.029 A 
ATOM     47  N   UNL A   1      44.063  29.306  32.430  1.00  0.00    -0.354 N 
ATOM     48  N   UNL A   1      44.794  27.378  28.561  1.00  0.00    -0.248 NA
ATOM     49  C   UNL A   1      43.911  25.748  29.977  1.00  0.00     0.031 C 
ATOM     50  C   UNL A   1      43.840  31.251  31.475  1.00  0.00     0.029 A 
ATOM     51  C   UNL A   1      44.258  29.941  31.226  1.00  0.00     0.049 A 
ATOM     52  H   UNL A   1      44.582  28.546  32.778  1.00  0.00     0.167 HD
ATOM     53  C   UNL A   1      44.707  27.930  29.831  1.00  0.00     0.074 A 
ATOM     54  C   UNL A   1      44.223  26.840  30.681  1.00  0.00     0.031 C 
ATOM     55  C   UNL A   1      44.750  29.282  30.028  1.00  0.00     0.034 A 
BRANCH  42  56
ATOM     56  C   UNL A   1      42.211  28.063  34.661  1.00  0.00     0.023 A 
ATOM     57  C   UNL A   1      42.998  26.953  34.297  1.00  0.00     0.031 A 
ATOM     58  C   UNL A   1      41.518  27.947  35.887  1.00  0.00     0.131 A 
ATOM     59  C   UNL A   1      42.978  25.771  35.056  1.00  0.00     0.055 A 
ATOM     60  C   UNL A   1      41.558  26.793  36.675  1.00  0.00     0.041 A 
ATOM     61  F   UNL A   1      40.695  28.893  36.350  1.00  0.00    -0.206 F 
ATOM     62  C   UNL A   1      42.261  25.682  36.244  1.00  0.00     0.022 A 
BRANCH  59  63
ATOM     63  S   UNL A   1      43.758  24.293  34.358  1.00  0.00     0.124 S 
ATOM     64  O   UNL A   1      42.669  23.325  34.436  1.00  0.00    -0.237 OA
ATOM     65  O   UNL A   1      44.122  24.749  33.021  1.00  0.00    -0.237 OA
ATOM     66  O   UNL A   1      44.880  24.046  35.260  1.00  0.00    -0.744 OA
ENDBRANCH  59  63
ENDBRANCH  42  56
BRANCH  43  67
ATOM     67  C   UNL A   1      43.127  24.459  26.995  1.00  0.00     0.023 A 
ATOM     68  C   UNL A   1      44.022  24.003  25.995  1.00  0.00     0.031 A 
ATOM     69  C   UNL A   1      42.341  23.468  27.626  1.00  0.00     0.131 A 
ATOM     70  C   UNL A   1      44.100  22.621  25.674  1.00  0.00     0.055 A 
ATOM     71  C   UNL A   1      42.429  22.109  27.312  1.00  0.00     0.041 A 
ATOM     72  F   UNL A   1      41.517  23.777  28.640  1.00  0.00    -0.206 F 
ATOM     73  C   UNL A   1      43.316  21.677  26.340  1.00  0.00     0.022 A 
BRANCH  70  74
ATOM     74  S   UNL A   1      45.284  22.001  24.426  1.00  0.00     0.124 S 
ATOM     75  O   UNL A   1      45.300  23.080  23.447  1.00  0.00    -0.237 OA
ATOM     76  O   UNL A   1      46.500  21.814  25.209  1.00  0.00    -0.237 OA
ATOM     77  O   UNL A   1      44.667  20.758  23.955  1.00  0.00    -0.744 OA
ENDBRANCH  70  74
ENDBRANCH  43  67
BRANCH  55  78
ATOM     78  C   UNL A   1      45.164  30.180  28.873  1.00  0.00     0.023 A 
ATOM     79  C   UNL A   1      46.493  30.551  28.552  1.00  0.00     0.031 A 
ATOM     80  C   UNL A   1      44.150  30.572  27.982  1.00  0.00     0.131 A 
ATOM     81  C   UNL A   1      46.755  31.293  27.380  1.00  0.00     0.055 A 
ATOM     82  C   UNL A   1      44.416  31.282  26.812  1.00  0.00     0.041 A 
ATOM     83  F   UNL A   1      42.871  30.236  28.216  1.00  0.00    -0.206 F 
ATOM     84  C   UNL A   1      45.720  31.651  26.509  1.00  0.00     0.022 A 
BRANCH  81  85
ATOM     85  S   UNL A   1      48.448  31.838  26.969  1.00  0.00     0.124 S 
ATOM     86  O   UNL A   1      49.068  30.638  26.421  1.00  0.00    -0.237 OA
ATOM     87  O   UNL A   1      48.210  32.925  26.023  1.00  0.00    -0.237 OA
ATOM     88  O   UNL A   1      48.991  32.265  28.260  1.00  0.00    -0.744 OA
ENDBRANCH  81  85
ENDBRANCH  55  78
ENDBRANCH  29  30
ENDBRANCH  21  24
ENDBRANCH  19  20
ENDBRANCH   1  19
TORSDOF 15
ENDMDL
MODEL 2
REMARK VINA RESULT:     -11.8      4.189      9.554
REMARK SMILES C[C@H]1CC=C(C2=NN=C(C(=O)NCCCCNC(=O)c3ccc(-c4c5nc(c(-c6cc(S(=O)(=O)[O-])ccc6F)c6ccc([nH]6)c(-c6cc(S(=O)(=O)[O-])ccc6F)c6nc(c(-c7cc(S(=O)(=O)[O-])ccc7F)c7ccc4[nH]7)C=C6)C=C5)cc3)C2)O1
REMARK SMILES IDX 15 1 14 2 13 3 12 4 10 5 11 6 9 8 6 9 7 10 83 11 8 12 5 13
REMARK SMILES IDX 1 14 2 15 3 16 84 17 4 18 16 19 17 20 18 21 19 23 20 24
REMARK SMILES IDX 21 25 82 26 22 27 81 28 23 29 24 30 25 31 75 32 26 33 80 34
REMARK SMILES IDX 74 35 76 36 27 37 79 38 73 39 72 40 28 42 60 43 40 44 59 45
REMARK SMILES IDX 41 46 44 47 58 48 77 49 42 50 43 51 57 53 78 54 45 55 29 56
REMARK SMILES IDX 30 57 38 58 31 59 37 60 39 61 36 62 32 63 33 64 34 65 35 66
REMARK SMILES IDX 61 67 62 68 70 69 63 70 69 71 71 72 68 73 64 74 65 75 66 76
REMARK SMILES IDX 67 77 46 78 47 79 55 80 48 81 54 82 56 83 53 84 49 85 50 86
REMARK SMILES IDX 51 87 52 88
REMARK H PARENT 12 7 17 22 76 41 44 52
REMARK Flexibility Score: inf
ROOT
ATOM      1  C   UNL A   1      34.042  28.843  27.198  1.00  0.00     0.023 C 
ENDROOT
BRANCH   1   2
ATOM      2  C   UNL A   1      33.922  28.234  25.792  1.00  0.00     0.023 C 
BRANCH   2   3
ATOM      3  C   UNL A   1      33.111  26.937  25.698  1.00  0.00     0.116 C 
BRANCH   3   4
ATOM      4  N   UNL A   1      33.338  26.245  24.440  1.00  0.00    -0.351 N 
ATOM      5  C   UNL A   1      32.538  26.122  23.332  1.00  0.00     0.267 C 
ATOM      6  O   UNL A   1      32.899  25.435  22.380  1.00  0.00    -0.268 OA
ATOM      7  H   UNL A   1      34.209  25.789  24.372  1.00  0.00     0.163 HD
BRANCH   5   8
ATOM      8  C   UNL A   1      31.211  26.817  23.209  1.00  0.00     0.134 C 
ATOM      9  C   UNL A   1      29.688  28.408  22.848  1.00  0.00     0.111 C 
ATOM     10  N   UNL A   1      29.080  27.370  23.333  1.00  0.00    -0.151 NA
ATOM     11  C   UNL A   1      31.155  28.202  22.664  1.00  0.00     0.126 C 
ATOM     12  N   UNL A   1      30.050  26.347  23.546  1.00  0.00    -0.149 NA
BRANCH   9  13
ATOM     13  C   UNL A   1      29.066  29.697  22.523  1.00  0.00     0.139 C 
ATOM     14  C   UNL A   1      27.835  32.006  20.242  1.00  0.00     0.053 C 
ATOM     15  C   UNL A   1      28.690  31.596  21.433  1.00  0.00     0.174 C 
ATOM     16  C   UNL A   1      27.926  31.657  22.763  1.00  0.00     0.076 C 
ATOM     17  O   UNL A   1      29.170  30.243  21.251  1.00  0.00    -0.489 OA
ATOM     18  C   UNL A   1      28.410  30.426  23.422  1.00  0.00     0.025 C 
ENDBRANCH   9  13
ENDBRANCH   5   8
ENDBRANCH   3   4
ENDBRANCH   2   3
ENDBRANCH   1   2
BRANCH   1  19
ATOM     19  C   UNL A   1      35.423  29.386  27.544  1.00  0.00     0.116 C 
BRANCH  19  20
ATOM     20  N   UNL A   1      35.529  29.872  28.918  1.00  0.00    -0.352 N 
ATOM     21  C   UNL A   1      36.483  29.513  29.860  1.00  0.00     0.251 C 
ATOM     22  H   UNL A   1      34.850  30.525  29.206  1.00  0.00     0.163 HD
ATOM     23  O   UNL A   1      36.260  29.617  31.053  1.00  0.00    -0.269 OA
BRANCH  21  24
ATOM     24  C   UNL A   1      37.783  29.014  29.365  1.00  0.00     0.039 A 
ATOM     25  C   UNL A   1      38.447  29.605  28.288  1.00  0.00     0.014 A 
ATOM     26  C   UNL A   1      38.355  27.951  30.061  1.00  0.00     0.014 A 
ATOM     27  C   UNL A   1      39.736  29.166  27.980  1.00  0.00     0.010 A 
ATOM     28  C   UNL A   1      39.673  27.630  29.858  1.00  0.00     0.010 A 
ATOM     29  C   UNL A   1      40.354  28.194  28.788  1.00  0.00    -0.014 A 
BRANCH  29  30
ATOM     30  C   UNL A   1      41.769  27.861  28.634  1.00  0.00     0.031 A 
ATOM     31  C   UNL A   1      42.010  26.657  27.795  1.00  0.00     0.074 A 
ATOM     32  C   UNL A   1      42.782  28.672  29.017  1.00  0.00     0.049 A 
ATOM     33  N   UNL A   1      42.370  25.488  28.204  1.00  0.00    -0.248 NA
ATOM     34  C   UNL A   1      41.631  26.689  26.372  1.00  0.00     0.031 C 
ATOM     35  C   UNL A   1      42.709  30.017  29.599  1.00  0.00     0.029 A 
ATOM     36  N   UNL A   1      44.124  28.491  28.882  1.00  0.00    -0.354 N 
ATOM     37  C   UNL A   1      42.534  24.713  27.062  1.00  0.00     0.074 A 
ATOM     38  C   UNL A   1      41.852  25.421  26.012  1.00  0.00     0.031 C 
ATOM     39  C   UNL A   1      43.926  30.607  29.547  1.00  0.00     0.029 A 
ATOM     40  C   UNL A   1      44.900  29.631  29.091  1.00  0.00     0.049 A 
ATOM     41  H   UNL A   1      44.518  27.618  28.653  1.00  0.00     0.167 HD
ATOM     42  C   UNL A   1      43.439  23.695  27.040  1.00  0.00     0.034 A 
ATOM     43  C   UNL A   1      46.247  29.766  28.910  1.00  0.00     0.034 A 
ATOM     44  C   UNL A   1      43.873  23.369  28.384  1.00  0.00     0.049 A 
ATOM     45  C   UNL A   1      46.812  28.395  28.999  1.00  0.00     0.074 A 
ATOM     46  C   UNL A   1      43.221  22.979  29.541  1.00  0.00     0.029 A 
ATOM     47  N   UNL A   1      45.099  23.844  28.799  1.00  0.00    -0.354 N 
ATOM     48  N   UNL A   1      46.771  27.684  30.094  1.00  0.00    -0.248 NA
ATOM     49  C   UNL A   1      46.923  27.627  27.767  1.00  0.00     0.031 C 
ATOM     50  C   UNL A   1      43.849  23.731  30.579  1.00  0.00     0.029 A 
ATOM     51  C   UNL A   1      44.916  24.442  30.023  1.00  0.00     0.049 A 
ATOM     52  H   UNL A   1      45.949  23.769  28.309  1.00  0.00     0.167 HD
ATOM     53  C   UNL A   1      46.394  26.414  29.682  1.00  0.00     0.074 A 
ATOM     54  C   UNL A   1      46.585  26.419  28.230  1.00  0.00     0.031 C 
ATOM     55  C   UNL A   1      45.690  25.576  30.500  1.00  0.00     0.034 A 
BRANCH  42  56
ATOM     56  C   UNL A   1      44.226  23.250  25.826  1.00  0.00     0.023 A 
ATOM     57  C   UNL A   1      44.133  21.891  25.467  1.00  0.00     0.031 A 
ATOM     58  C   UNL A   1      45.263  23.980  25.200  1.00  0.00     0.131 A 
ATOM     59  C   UNL A   1      45.097  21.294  24.637  1.00  0.00     0.055 A 
ATOM     60  C   UNL A   1      46.178  23.395  24.320  1.00  0.00     0.041 A 
ATOM     61  F   UNL A   1      45.513  25.265  25.469  1.00  0.00    -0.206 F 
ATOM     62  C   UNL A   1      46.121  22.037  24.061  1.00  0.00     0.022 A 
BRANCH  59  63
ATOM     63  S   UNL A   1      45.090  19.490  24.480  1.00  0.00     0.124 S 
ATOM     64  O   UNL A   1      46.507  19.179  24.633  1.00  0.00    -0.237 OA
ATOM     65  O   UNL A   1      44.220  19.096  25.583  1.00  0.00    -0.237 OA
ATOM     66  O   UNL A   1      44.542  19.269  23.143  1.00  0.00    -0.744 OA
ENDBRANCH  59  63
ENDBRANCH  42  56
BRANCH  43  67
ATOM     67  C   UNL A   1      46.976  30.925  28.303  1.00  0.00     0.023 A 
ATOM     68  C   UNL A   1      46.386  31.842  27.399  1.00  0.00     0.031 A 
ATOM     69  C   UNL A   1      48.237  31.290  28.827  1.00  0.00     0.131 A 
ATOM     70  C   UNL A   1      47.052  33.052  27.062  1.00  0.00     0.055 A 
ATOM     71  C   UNL A   1      48.884  32.486  28.498  1.00  0.00     0.041 A 
ATOM     72  F   UNL A   1      48.852  30.534  29.750  1.00  0.00    -0.206 F 
ATOM     73  C   UNL A   1      48.289  33.378  27.621  1.00  0.00     0.022 A 
BRANCH  70  74
ATOM     74  S   UNL A   1      46.287  34.277  25.939  1.00  0.00     0.124 S 
ATOM     75  O   UNL A   1      45.717  35.241  26.871  1.00  0.00    -0.237 OA
ATOM     76  O   UNL A   1      47.424  34.732  25.147  1.00  0.00    -0.237 OA
ATOM     77  O   UNL A   1      45.301  33.490  25.194  1.00  0.00    -0.744 OA
ENDBRANCH  70  74
ENDBRANCH  43  67
BRANCH  55  78
ATOM     78  C   UNL A   1      45.546  25.933  31.971  1.00  0.00     0.023 A 
ATOM     79  C   UNL A   1      44.382  26.459  32.582  1.00  0.00     0.031 A 
ATOM     80  C   UNL A   1      46.623  25.598  32.811  1.00  0.00     0.131 A 
ATOM     81  C   UNL A   1      44.338  26.636  33.982  1.00  0.00     0.055 A 
ATOM     82  C   UNL A   1      46.566  25.750  34.196  1.00  0.00     0.041 A 
ATOM     83  F   UNL A   1      47.750  25.076  32.298  1.00  0.00    -0.206 F 
ATOM     84  C   UNL A   1      45.424  26.275  34.787  1.00  0.00     0.022 A 
BRANCH  81  85
ATOM     85  S   UNL A   1      42.876  27.366  34.794  1.00  0.00     0.124 S 
ATOM     86  O   UNL A   1      43.449  28.316  35.739  1.00  0.00    -0.237 OA
ATOM     87  O   UNL A   1      42.144  27.944  33.670  1.00  0.00    -0.237 OA
ATOM     88  O   UNL A   1      42.221  26.213  35.415  1.00  0.00    -0.744 OA
ENDBRANCH  81  85
ENDBRANCH  55  78
ENDBRANCH  29  30
ENDBRANCH  21  24
ENDBRANCH  19  20
ENDBRANCH   1  19
TORSDOF 15
ENDMDL
MODEL 3
REMARK VINA RESULT:     -11.7      5.214     10.263
REMARK SMILES C[C@H]1CC=C(C2=NN=C(C(=O)NCCCCNC(=O)c3ccc(-c4c5nc(c(-c6cc(S(=O)(=O)[O-])ccc6F)c6ccc([nH]6)c(-c6cc(S(=O)(=O)[O-])ccc6F)c6nc(c(-c7cc(S(=O)(=O)[O-])ccc7F)c7ccc4[nH]7)C=C6)C=C5)cc3)C2)O1
REMARK SMILES IDX 15 1 14 2 13 3 12 4 10 5 11 6 9 8 6 9 7 10 83 11 8 12 5 13
REMARK SMILES IDX 1 14 2 15 3 16 84 17 4 18 16 19 17 20 18 21 19 23 20 24
REMARK SMILES IDX 21 25 82 26 22 27 81 28 23 29 24 30 25 31 75 32 26 33 80 34
REMARK SMILES IDX 74 35 76 36 27 37 79 38 73 39 72 40 28 42 60 43 40 44 59 45
REMARK SMILES IDX 41 46 44 47 58 48 77 49 42 50 43 51 57 53 78 54 45 55 29 56
REMARK SMILES IDX 30 57 38 58 31 59 37 60 39 61 36 62 32 63 33 64 34 65 35 66
REMARK SMILES IDX 61 67 62 68 70 69 63 70 69 71 71 72 68 73 64 74 65 75 66 76
REMARK SMILES IDX 67 77 46 78 47 79 55 80 48 81 54 82 56 83 53 84 49 85 50 86
REMARK SMILES IDX 51 87 52 88
REMARK H PARENT 12 7 17 22 76 41 44 52
REMARK Flexibility Score: inf
ROOT
ATOM      1  C   UNL A   1      37.224  21.246  24.204  1.00  0.00     0.023 C 
ENDROOT
BRANCH   1   2
ATOM      2  C   UNL A   1      36.992  22.618  23.551  1.00  0.00     0.023 C 
BRANCH   2   3
ATOM      3  C   UNL A   1      35.540  23.107  23.531  1.00  0.00     0.116 C 
BRANCH   3   4
ATOM      4  N   UNL A   1      35.116  23.601  24.831  1.00  0.00    -0.351 N 
ATOM      5  C   UNL A   1      34.184  23.113  25.711  1.00  0.00     0.267 C 
ATOM      6  O   UNL A   1      33.930  23.722  26.747  1.00  0.00    -0.268 OA
ATOM      7  H   UNL A   1      35.572  24.423  25.127  1.00  0.00     0.163 HD
BRANCH   5   8
ATOM      8  C   UNL A   1      33.447  21.824  25.479  1.00  0.00     0.134 C 
ATOM      9  C   UNL A   1      33.045  19.656  25.128  1.00  0.00     0.111 C 
ATOM     10  N   UNL A   1      31.924  20.299  25.011  1.00  0.00    -0.151 NA
ATOM     11  C   UNL A   1      34.197  20.537  25.478  1.00  0.00     0.126 C 
ATOM     12  N   UNL A   1      32.177  21.681  25.254  1.00  0.00    -0.149 NA
BRANCH   9  13
ATOM     13  C   UNL A   1      33.238  18.217  24.918  1.00  0.00     0.139 C 
ATOM     14  C   UNL A   1      32.411  14.902  25.532  1.00  0.00     0.053 C 
ATOM     15  C   UNL A   1      33.395  16.057  25.414  1.00  0.00     0.174 C 
ATOM     16  C   UNL A   1      33.916  16.251  23.984  1.00  0.00     0.076 C 
ATOM     17  O   UNL A   1      32.761  17.288  25.833  1.00  0.00    -0.489 OA
ATOM     18  C   UNL A   1      33.905  17.725  23.877  1.00  0.00     0.025 C 
ENDBRANCH   9  13
ENDBRANCH   5   8
ENDBRANCH   3   4
ENDBRANCH   2   3
ENDBRANCH   1   2
BRANCH   1  19
ATOM     19  C   UNL A   1      38.135  21.265  25.425  1.00  0.00     0.116 C 
BRANCH  19  20
ATOM     20  N   UNL A   1      38.896  20.030  25.601  1.00  0.00    -0.352 N 
ATOM     21  C   UNL A   1      40.257  19.916  25.852  1.00  0.00     0.251 C 
ATOM     22  H   UNL A   1      38.388  19.188  25.535  1.00  0.00     0.163 HD
ATOM     23  O   UNL A   1      40.866  18.900  25.564  1.00  0.00    -0.269 OA
BRANCH  21  24
ATOM     24  C   UNL A   1      40.935  21.061  26.493  1.00  0.00     0.039 A 
ATOM     25  C   UNL A   1      41.646  22.012  25.759  1.00  0.00     0.014 A 
ATOM     26  C   UNL A   1      40.787  21.187  27.873  1.00  0.00     0.014 A 
ATOM     27  C   UNL A   1      42.131  23.139  26.425  1.00  0.00     0.010 A 
ATOM     28  C   UNL A   1      41.125  22.363  28.493  1.00  0.00     0.010 A 
ATOM     29  C   UNL A   1      41.843  23.321  27.790  1.00  0.00    -0.014 A 
BRANCH  29  30
ATOM     30  C   UNL A   1      42.143  24.578  28.473  1.00  0.00     0.031 A 
ATOM     31  C   UNL A   1      41.123  25.636  28.250  1.00  0.00     0.074 A 
ATOM     32  C   UNL A   1      43.123  24.721  29.395  1.00  0.00     0.049 A 
ATOM     33  N   UNL A   1      41.239  26.680  27.502  1.00  0.00    -0.248 NA
ATOM     34  C   UNL A   1      39.755  25.428  28.756  1.00  0.00     0.031 C 
ATOM     35  C   UNL A   1      44.031  23.702  29.934  1.00  0.00     0.029 A 
ATOM     36  N   UNL A   1      43.460  25.819  30.125  1.00  0.00    -0.354 N 
ATOM     37  C   UNL A   1      40.064  27.404  27.662  1.00  0.00     0.074 A 
ATOM     38  C   UNL A   1      39.121  26.487  28.243  1.00  0.00     0.031 C 
ATOM     39  C   UNL A   1      44.640  24.171  31.048  1.00  0.00     0.029 A 
ATOM     40  C   UNL A   1      44.304  25.575  31.209  1.00  0.00     0.049 A 
ATOM     41  H   UNL A   1      43.132  26.721  29.904  1.00  0.00     0.167 HD
ATOM     42  C   UNL A   1      40.064  28.761  27.541  1.00  0.00     0.034 A 
ATOM     43  C   UNL A   1      44.704  26.459  32.169  1.00  0.00     0.034 A 
ATOM     44  C   UNL A   1      41.291  29.218  26.917  1.00  0.00     0.049 A 
ATOM     45  C   UNL A   1      44.558  27.810  31.567  1.00  0.00     0.074 A 
ATOM     46  C   UNL A   1      41.919  28.949  25.714  1.00  0.00     0.029 A 
ATOM     47  N   UNL A   1      42.271  29.744  27.731  1.00  0.00    -0.354 N 
ATOM     48  N   UNL A   1      45.264  28.207  30.542  1.00  0.00    -0.248 NA
ATOM     49  C   UNL A   1      43.287  28.497  31.745  1.00  0.00     0.031 C 
ATOM     50  C   UNL A   1      43.299  28.816  26.050  1.00  0.00     0.029 A 
ATOM     51  C   UNL A   1      43.453  29.124  27.405  1.00  0.00     0.049 A 
ATOM     52  H   UNL A   1      42.146  30.437  28.419  1.00  0.00     0.167 HD
ATOM     53  C   UNL A   1      44.355  28.841  29.706  1.00  0.00     0.074 A 
ATOM     54  C   UNL A   1      43.171  29.063  30.540  1.00  0.00     0.031 C 
ATOM     55  C   UNL A   1      44.526  28.866  28.350  1.00  0.00     0.034 A 
BRANCH  42  56
ATOM     56  C   UNL A   1      39.170  29.708  28.312  1.00  0.00     0.023 A 
ATOM     57  C   UNL A   1      39.525  29.975  29.650  1.00  0.00     0.031 A 
ATOM     58  C   UNL A   1      37.872  30.115  27.930  1.00  0.00     0.131 A 
ATOM     59  C   UNL A   1      38.588  30.496  30.557  1.00  0.00     0.055 A 
ATOM     60  C   UNL A   1      36.966  30.699  28.822  1.00  0.00     0.041 A 
ATOM     61  F   UNL A   1      37.369  29.892  26.712  1.00  0.00    -0.206 F 
ATOM     62  C   UNL A   1      37.308  30.859  30.152  1.00  0.00     0.022 A 
BRANCH  59  63
ATOM     63  S   UNL A   1      39.019  30.513  32.316  1.00  0.00     0.124 S 
ATOM     64  O   UNL A   1      38.429  29.259  32.772  1.00  0.00    -0.237 OA
ATOM     65  O   UNL A   1      40.476  30.560  32.267  1.00  0.00    -0.237 OA
ATOM     66  O   UNL A   1      38.371  31.725  32.811  1.00  0.00    -0.744 OA
ENDBRANCH  59  63
ENDBRANCH  42  56
BRANCH  43  67
ATOM     67  C   UNL A   1      44.829  26.218  33.641  1.00  0.00     0.023 A 
ATOM     68  C   UNL A   1      43.789  26.466  34.572  1.00  0.00     0.031 A 
ATOM     69  C   UNL A   1      45.933  25.478  34.123  1.00  0.00     0.131 A 
ATOM     70  C   UNL A   1      43.884  25.981  35.904  1.00  0.00     0.055 A 
ATOM     71  C   UNL A   1      46.017  24.997  35.433  1.00  0.00     0.041 A 
ATOM     72  F   UNL A   1      46.937  25.120  33.308  1.00  0.00    -0.206 F 
ATOM     73  C   UNL A   1      44.988  25.238  36.328  1.00  0.00     0.022 A 
BRANCH  70  74
ATOM     74  S   UNL A   1      42.533  26.242  37.109  1.00  0.00     0.124 S 
ATOM     75  O   UNL A   1      43.261  26.451  38.354  1.00  0.00    -0.237 OA
ATOM     76  O   UNL A   1      41.838  27.399  36.558  1.00  0.00    -0.237 OA
ATOM     77  O   UNL A   1      41.774  24.990  37.049  1.00  0.00    -0.744 OA
ENDBRANCH  70  74
ENDBRANCH  43  67
BRANCH  55  78
ATOM     78  C   UNL A   1      45.861  28.426  27.770  1.00  0.00     0.023 A 
ATOM     79  C   UNL A   1      46.208  27.101  27.413  1.00  0.00     0.031 A 
ATOM     80  C   UNL A   1      46.778  29.444  27.451  1.00  0.00     0.131 A 
ATOM     81  C   UNL A   1      47.438  26.842  26.770  1.00  0.00     0.055 A 
ATOM     82  C   UNL A   1      47.980  29.187  26.794  1.00  0.00     0.041 A 
ATOM     83  F   UNL A   1      46.502  30.725  27.745  1.00  0.00    -0.206 F 
ATOM     84  C   UNL A   1      48.317  27.884  26.454  1.00  0.00     0.022 A 
BRANCH  81  85
ATOM     85  S   UNL A   1      47.941  25.139  26.349  1.00  0.00     0.124 S 
ATOM     86  O   UNL A   1      47.126  24.314  27.232  1.00  0.00    -0.237 OA
ATOM     87  O   UNL A   1      47.626  25.058  24.925  1.00  0.00    -0.237 OA
ATOM     88  O   UNL A   1      49.373  25.122  26.654  1.00  0.00    -0.744 OA
ENDBRANCH  81  85
ENDBRANCH  55  78
ENDBRANCH  29  30
ENDBRANCH  21  24
ENDBRANCH  19  20
ENDBRANCH   1  19
TORSDOF 15
ENDMDL
