MODEL 1
REMARK VINA RESULT:     -12.8      0.000      0.000
REMARK SMILES Cc1cc(Cl)cc2c1O[C@H](C(F)(F)F)C(C(=O)NCCCCNC(=O)c1ccc(-c3c4nc(c(-c5cc(S(=O)(=O)[O-])ccc5F)c5ccc([nH]5)c(-c5cc(S(=O)(=O)[O-])ccc5F)c5nc(c(-c6cc(S(=O)(=O)[O-])ccc6F)c6ccc3[nH]6)C=C5)C=C4)cc1)=C2
REMARK SMILES IDX 21 1 20 2 19 3 18 4 16 5 17 6 15 8 1 9 2 10 3 11 8 12 4 13
REMARK SMILES IDX 7 14 9 15 5 16 6 17 89 18 10 19 11 20 12 21 13 22 14 23
REMARK SMILES IDX 22 24 23 25 24 26 25 28 26 29 27 30 88 31 28 32 87 33 29 34
REMARK SMILES IDX 30 35 31 36 81 37 32 38 86 39 80 40 82 41 33 42 85 43 79 44
REMARK SMILES IDX 78 45 34 47 66 48 46 49 65 50 47 51 50 52 64 53 83 54 48 55
REMARK SMILES IDX 49 56 63 58 84 59 51 60 35 61 36 62 44 63 37 64 43 65 45 66
REMARK SMILES IDX 42 67 38 68 39 69 40 70 41 71 67 72 68 73 76 74 69 75 75 76
REMARK SMILES IDX 77 77 74 78 70 79 71 80 72 81 73 82 52 83 53 84 61 85 54 86
REMARK SMILES IDX 60 87 62 88 59 89 55 90 56 91 57 92 58 93
REMARK H PARENT 18 7 23 27 82 46 50 57
REMARK Flexibility Score: inf
ROOT
ATOM      1  C   UNL A   1      31.778  28.191  25.661  1.00  0.00     0.023 C 
ENDROOT
BRANCH   1   2
ATOM      2  C   UNL A   1      31.012  27.890  24.370  1.00  0.00     0.023 C 
BRANCH   2   3
ATOM      3  C   UNL A   1      31.104  26.437  23.916  1.00  0.00     0.116 C 
BRANCH   3   4
ATOM      4  N   UNL A   1      31.843  26.303  22.672  1.00  0.00    -0.352 N 
ATOM      5  C   UNL A   1      32.809  25.495  22.178  1.00  0.00     0.251 C 
ATOM      6  O   UNL A   1      33.174  25.754  21.026  1.00  0.00    -0.270 OA
ATOM      7  H   UNL A   1      31.569  26.982  22.014  1.00  0.00     0.163 HD
BRANCH   5   8
ATOM      8  C   UNL A   1      33.437  24.352  22.906  1.00  0.00     0.067 C 
ATOM      9  C   UNL A   1      36.483  20.994  25.397  1.00  0.00     0.048 C 
ATOM     10  C   UNL A   1      35.122  20.963  24.759  1.00  0.00    -0.007 A 
ATOM     11  C   UNL A   1      34.351  19.797  24.862  1.00  0.00     0.027 A 
ATOM     12  C   UNL A   1      34.578  22.075  24.099  1.00  0.00     0.131 A 
ATOM     13  C   UNL A   1      33.076  19.743  24.298  1.00  0.00     0.042 A 
ATOM     14  C   UNL A   1      33.301  22.020  23.530  1.00  0.00     0.019 A 
ATOM     15  O   UNL A   1      35.361  23.190  23.987  1.00  0.00    -0.475 OA
ATOM     16  Cl  UNL A   1      32.150  18.299  24.426  1.00  0.00    -0.084 Cl
ATOM     17  C   UNL A   1      32.549  20.846  23.630  1.00  0.00     0.032 A 
ATOM     18  C   UNL A   1      32.784  23.178  22.813  1.00  0.00     0.025 C 
ATOM     19  C   UNL A   1      34.679  24.451  23.744  1.00  0.00     0.314 C 
BRANCH  19  20
ATOM     20  C   UNL A   1      34.438  25.160  25.089  1.00  0.00     0.429 C 
ATOM     21  F   UNL A   1      33.262  24.758  25.632  1.00  0.00    -0.167 F 
ATOM     22  F   UNL A   1      35.397  24.885  26.003  1.00  0.00    -0.167 F 
ATOM     23  F   UNL A   1      34.386  26.505  24.964  1.00  0.00    -0.167 F 
ENDBRANCH  19  20
ENDBRANCH   5   8
ENDBRANCH   3   4
ENDBRANCH   2   3
ENDBRANCH   1   2
BRANCH   1  24
ATOM     24  C   UNL A   1      32.797  29.327  25.571  1.00  0.00     0.116 C 
BRANCH  24  25
ATOM     25  N   UNL A   1      32.276  30.614  26.006  1.00  0.00    -0.352 N 
ATOM     26  C   UNL A   1      32.811  31.478  26.932  1.00  0.00     0.251 C 
ATOM     27  H   UNL A   1      31.434  30.903  25.585  1.00  0.00     0.163 HD
ATOM     28  O   UNL A   1      32.203  32.491  27.259  1.00  0.00    -0.269 OA
BRANCH  26  29
ATOM     29  C   UNL A   1      34.107  31.141  27.552  1.00  0.00     0.039 A 
ATOM     30  C   UNL A   1      35.029  32.164  27.786  1.00  0.00     0.014 A 
ATOM     31  C   UNL A   1      34.378  29.830  27.952  1.00  0.00     0.014 A 
ATOM     32  C   UNL A   1      36.201  31.884  28.489  1.00  0.00     0.010 A 
ATOM     33  C   UNL A   1      35.521  29.564  28.699  1.00  0.00     0.010 A 
ATOM     34  C   UNL A   1      36.437  30.590  28.979  1.00  0.00    -0.014 A 
BRANCH  34  35
ATOM     35  C   UNL A   1      37.647  30.278  29.778  1.00  0.00     0.031 A 
ATOM     36  C   UNL A   1      38.725  29.417  29.184  1.00  0.00     0.074 A 
ATOM     37  C   UNL A   1      37.746  30.718  31.047  1.00  0.00     0.049 A 
ATOM     38  N   UNL A   1      39.792  28.920  29.751  1.00  0.00    -0.248 NA
ATOM     39  C   UNL A   1      38.561  29.044  27.771  1.00  0.00     0.031 C 
ATOM     40  C   UNL A   1      36.755  31.549  31.735  1.00  0.00     0.029 A 
ATOM     41  N   UNL A   1      38.724  30.521  31.987  1.00  0.00    -0.354 N 
ATOM     42  C   UNL A   1      40.422  28.164  28.771  1.00  0.00     0.074 A 
ATOM     43  C   UNL A   1      39.590  28.231  27.587  1.00  0.00     0.031 C 
ATOM     44  C   UNL A   1      37.190  31.812  32.979  1.00  0.00     0.029 A 
ATOM     45  C   UNL A   1      38.465  31.134  33.191  1.00  0.00     0.049 A 
ATOM     46  H   UNL A   1      39.536  29.992  31.816  1.00  0.00     0.167 HD
ATOM     47  C   UNL A   1      41.594  27.489  28.845  1.00  0.00     0.034 A 
ATOM     48  C   UNL A   1      39.172  31.137  34.337  1.00  0.00     0.034 A 
ATOM     49  C   UNL A   1      42.423  27.446  30.023  1.00  0.00     0.049 A 
ATOM     50  C   UNL A   1      40.460  30.363  34.404  1.00  0.00     0.074 A 
ATOM     51  C   UNL A   1      43.641  26.814  30.199  1.00  0.00     0.029 A 
ATOM     52  N   UNL A   1      42.120  28.068  31.228  1.00  0.00    -0.354 N 
ATOM     53  N   UNL A   1      41.032  29.634  33.475  1.00  0.00    -0.248 NA
ATOM     54  C   UNL A   1      41.196  30.410  35.674  1.00  0.00     0.031 C 
ATOM     55  C   UNL A   1      44.053  27.017  31.521  1.00  0.00     0.029 A 
ATOM     56  C   UNL A   1      43.120  27.821  32.154  1.00  0.00     0.049 A 
ATOM     57  H   UNL A   1      41.313  28.605  31.398  1.00  0.00     0.167 HD
ATOM     58  C   UNL A   1      42.202  29.144  34.045  1.00  0.00     0.074 A 
ATOM     59  C   UNL A   1      42.260  29.671  35.394  1.00  0.00     0.031 C 
ATOM     60  C   UNL A   1      43.146  28.336  33.502  1.00  0.00     0.034 A 
BRANCH  47  61
ATOM     61  C   UNL A   1      42.030  26.730  27.620  1.00  0.00     0.023 A 
ATOM     62  C   UNL A   1      41.762  25.358  27.475  1.00  0.00     0.031 A 
ATOM     63  C   UNL A   1      42.744  27.378  26.597  1.00  0.00     0.131 A 
ATOM     64  C   UNL A   1      42.259  24.663  26.364  1.00  0.00     0.055 A 
ATOM     65  C   UNL A   1      43.176  26.695  25.459  1.00  0.00     0.041 A 
ATOM     66  F   UNL A   1      43.044  28.683  26.694  1.00  0.00    -0.206 F 
ATOM     67  C   UNL A   1      42.944  25.327  25.343  1.00  0.00     0.022 A 
BRANCH  64  68
ATOM     68  S   UNL A   1      42.085  22.860  26.317  1.00  0.00     0.124 S 
ATOM     69  O   UNL A   1      42.875  22.460  27.479  1.00  0.00    -0.237 OA
ATOM     70  O   UNL A   1      40.643  22.676  26.433  1.00  0.00    -0.237 OA
ATOM     71  O   UNL A   1      42.658  22.494  25.024  1.00  0.00    -0.744 OA
ENDBRANCH  64  68
ENDBRANCH  47  61
BRANCH  48  72
ATOM     72  C   UNL A   1      38.670  31.886  35.521  1.00  0.00     0.023 A 
ATOM     73  C   UNL A   1      38.093  31.210  36.606  1.00  0.00     0.031 A 
ATOM     74  C   UNL A   1      38.757  33.287  35.580  1.00  0.00     0.131 A 
ATOM     75  C   UNL A   1      37.598  31.939  37.698  1.00  0.00     0.055 A 
ATOM     76  C   UNL A   1      38.293  34.006  36.682  1.00  0.00     0.041 A 
ATOM     77  F   UNL A   1      39.313  33.976  34.569  1.00  0.00    -0.206 F 
ATOM     78  C   UNL A   1      37.705  33.331  37.748  1.00  0.00     0.022 A 
BRANCH  75  79
ATOM     79  S   UNL A   1      36.797  31.040  39.055  1.00  0.00     0.124 S 
ATOM     80  O   UNL A   1      36.665  29.703  38.486  1.00  0.00    -0.237 OA
ATOM     81  O   UNL A   1      37.768  31.186  40.134  1.00  0.00    -0.237 OA
ATOM     82  O   UNL A   1      35.543  31.764  39.247  1.00  0.00    -0.744 OA
ENDBRANCH  75  79
ENDBRANCH  48  72
BRANCH  60  83
ATOM     83  C   UNL A   1      44.329  27.989  34.366  1.00  0.00     0.023 A 
ATOM     84  C   UNL A   1      44.321  26.858  35.196  1.00  0.00     0.031 A 
ATOM     85  C   UNL A   1      45.480  28.795  34.343  1.00  0.00     0.131 A 
ATOM     86  C   UNL A   1      45.434  26.579  36.003  1.00  0.00     0.055 A 
ATOM     87  C   UNL A   1      46.602  28.489  35.114  1.00  0.00     0.041 A 
ATOM     88  F   UNL A   1      45.534  29.886  33.564  1.00  0.00    -0.206 F 
ATOM     89  C   UNL A   1      46.581  27.379  35.954  1.00  0.00     0.022 A 
BRANCH  86  90
ATOM     90  S   UNL A   1      45.351  25.180  37.152  1.00  0.00     0.124 S 
ATOM     91  O   UNL A   1      45.654  24.052  36.277  1.00  0.00    -0.237 OA
ATOM     92  O   UNL A   1      46.374  25.517  38.135  1.00  0.00    -0.237 OA
ATOM     93  O   UNL A   1      43.977  25.227  37.649  1.00  0.00    -0.744 OA
ENDBRANCH  86  90
ENDBRANCH  60  83
ENDBRANCH  34  35
ENDBRANCH  26  29
ENDBRANCH  24  25
ENDBRANCH   1  24
TORSDOF 15
ENDMDL
MODEL 2
REMARK VINA RESULT:     -12.7      5.403     10.350
REMARK SMILES Cc1cc(Cl)cc2c1O[C@H](C(F)(F)F)C(C(=O)NCCCCNC(=O)c1ccc(-c3c4nc(c(-c5cc(S(=O)(=O)[O-])ccc5F)c5ccc([nH]5)c(-c5cc(S(=O)(=O)[O-])ccc5F)c5nc(c(-c6cc(S(=O)(=O)[O-])ccc6F)c6ccc3[nH]6)C=C5)C=C4)cc1)=C2
REMARK SMILES IDX 21 1 20 2 19 3 18 4 16 5 17 6 15 8 1 9 2 10 3 11 8 12 4 13
REMARK SMILES IDX 7 14 9 15 5 16 6 17 89 18 10 19 11 20 12 21 13 22 14 23
REMARK SMILES IDX 22 24 23 25 24 26 25 28 26 29 27 30 88 31 28 32 87 33 29 34
REMARK SMILES IDX 30 35 31 36 81 37 32 38 86 39 80 40 82 41 33 42 85 43 79 44
REMARK SMILES IDX 78 45 34 47 66 48 46 49 65 50 47 51 50 52 64 53 83 54 48 55
REMARK SMILES IDX 49 56 63 58 84 59 51 60 35 61 36 62 44 63 37 64 43 65 45 66
REMARK SMILES IDX 42 67 38 68 39 69 40 70 41 71 67 72 68 73 76 74 69 75 75 76
REMARK SMILES IDX 77 77 74 78 70 79 71 80 72 81 73 82 52 83 53 84 61 85 54 86
REMARK SMILES IDX 60 87 62 88 59 89 55 90 56 91 57 92 58 93
REMARK H PARENT 18 7 23 27 82 46 50 57
REMARK Flexibility Score: inf
ROOT
ATOM      1  C   UNL A   1      34.713  22.307  26.574  1.00  0.00     0.023 C 
ENDROOT
BRANCH   1   2
ATOM      2  C   UNL A   1      33.957  21.094  26.025  1.00  0.00     0.023 C 
BRANCH   2   3
ATOM      3  C   UNL A   1      32.681  21.446  25.266  1.00  0.00     0.116 C 
BRANCH   3   4
ATOM      4  N   UNL A   1      31.684  22.050  26.132  1.00  0.00    -0.352 N 
ATOM      5  C   UNL A   1      31.225  23.295  26.393  1.00  0.00     0.251 C 
ATOM      6  O   UNL A   1      30.338  23.361  27.251  1.00  0.00    -0.270 OA
ATOM      7  H   UNL A   1      31.219  21.373  26.675  1.00  0.00     0.163 HD
BRANCH   5   8
ATOM      8  C   UNL A   1      31.701  24.549  25.734  1.00  0.00     0.067 C 
ATOM      9  C   UNL A   1      33.825  28.223  22.777  1.00  0.00     0.048 C 
ATOM     10  C   UNL A   1      33.142  28.162  24.114  1.00  0.00    -0.007 A 
ATOM     11  C   UNL A   1      32.894  29.357  24.805  1.00  0.00     0.027 A 
ATOM     12  C   UNL A   1      32.704  26.955  24.678  1.00  0.00     0.131 A 
ATOM     13  C   UNL A   1      32.244  29.335  26.040  1.00  0.00     0.042 A 
ATOM     14  C   UNL A   1      32.056  26.933  25.918  1.00  0.00     0.019 A 
ATOM     15  O   UNL A   1      32.983  25.801  23.999  1.00  0.00    -0.475 OA
ATOM     16  Cl  UNL A   1      31.961  30.812  26.876  1.00  0.00    -0.084 Cl
ATOM     17  C   UNL A   1      31.828  28.131  26.601  1.00  0.00     0.032 A 
ATOM     18  C   UNL A   1      31.654  25.657  26.496  1.00  0.00     0.025 C 
ATOM     19  C   UNL A   1      32.161  24.642  24.307  1.00  0.00     0.314 C 
BRANCH  19  20
ATOM     20  C   UNL A   1      31.001  24.565  23.298  1.00  0.00     0.429 C 
ATOM     21  F   UNL A   1      31.406  24.997  22.078  1.00  0.00    -0.167 F 
ATOM     22  F   UNL A   1      30.540  23.305  23.126  1.00  0.00    -0.167 F 
ATOM     23  F   UNL A   1      29.945  25.326  23.664  1.00  0.00    -0.167 F 
ENDBRANCH  19  20
ENDBRANCH   5   8
ENDBRANCH   3   4
ENDBRANCH   2   3
ENDBRANCH   1   2
BRANCH   1  24
ATOM     24  C   UNL A   1      36.030  22.635  25.869  1.00  0.00     0.116 C 
BRANCH  24  25
ATOM     25  N   UNL A   1      36.923  21.493  25.744  1.00  0.00    -0.352 N 
ATOM     26  C   UNL A   1      38.279  21.447  25.966  1.00  0.00     0.251 C 
ATOM     27  H   UNL A   1      36.504  20.647  25.464  1.00  0.00     0.163 HD
ATOM     28  O   UNL A   1      38.911  20.424  25.728  1.00  0.00    -0.269 OA
BRANCH  26  29
ATOM     29  C   UNL A   1      38.960  22.661  26.453  1.00  0.00     0.039 A 
ATOM     30  C   UNL A   1      40.098  22.521  27.251  1.00  0.00     0.014 A 
ATOM     31  C   UNL A   1      38.507  23.927  26.071  1.00  0.00     0.014 A 
ATOM     32  C   UNL A   1      40.828  23.655  27.611  1.00  0.00     0.010 A 
ATOM     33  C   UNL A   1      39.265  25.049  26.385  1.00  0.00     0.010 A 
ATOM     34  C   UNL A   1      40.434  24.922  27.150  1.00  0.00    -0.014 A 
BRANCH  34  35
ATOM     35  C   UNL A   1      41.224  26.136  27.470  1.00  0.00     0.031 A 
ATOM     36  C   UNL A   1      40.611  27.216  28.315  1.00  0.00     0.074 A 
ATOM     37  C   UNL A   1      42.458  26.289  26.954  1.00  0.00     0.049 A 
ATOM     38  N   UNL A   1      41.074  28.404  28.602  1.00  0.00    -0.248 NA
ATOM     39  C   UNL A   1      39.289  26.927  28.890  1.00  0.00     0.031 C 
ATOM     40  C   UNL A   1      43.150  25.314  26.108  1.00  0.00     0.029 A 
ATOM     41  N   UNL A   1      43.348  27.327  27.060  1.00  0.00    -0.354 N 
ATOM     42  C   UNL A   1      40.096  29.012  29.378  1.00  0.00     0.074 A 
ATOM     43  C   UNL A   1      38.995  28.077  29.478  1.00  0.00     0.031 C 
ATOM     44  C   UNL A   1      44.366  25.791  25.794  1.00  0.00     0.029 A 
ATOM     45  C   UNL A   1      44.524  27.119  26.378  1.00  0.00     0.049 A 
ATOM     46  H   UNL A   1      43.163  28.144  27.577  1.00  0.00     0.167 HD
ATOM     47  C   UNL A   1      40.121  30.231  29.968  1.00  0.00     0.034 A 
ATOM     48  C   UNL A   1      45.600  27.916  26.232  1.00  0.00     0.034 A 
ATOM     49  C   UNL A   1      41.231  31.145  29.877  1.00  0.00     0.049 A 
ATOM     50  C   UNL A   1      45.597  29.274  26.877  1.00  0.00     0.074 A 
ATOM     51  C   UNL A   1      41.370  32.394  30.456  1.00  0.00     0.029 A 
ATOM     52  N   UNL A   1      42.399  30.905  29.165  1.00  0.00    -0.354 N 
ATOM     53  N   UNL A   1      44.654  29.845  27.590  1.00  0.00    -0.248 NA
ATOM     54  C   UNL A   1      46.800  30.097  26.696  1.00  0.00     0.031 C 
ATOM     55  C   UNL A   1      42.602  32.926  30.059  1.00  0.00     0.029 A 
ATOM     56  C   UNL A   1      43.256  31.987  29.278  1.00  0.00     0.049 A 
ATOM     57  H   UNL A   1      42.590  30.085  28.655  1.00  0.00     0.167 HD
ATOM     58  C   UNL A   1      45.156  31.091  27.953  1.00  0.00     0.074 A 
ATOM     59  C   UNL A   1      46.488  31.182  27.389  1.00  0.00     0.031 C 
ATOM     60  C   UNL A   1      44.570  32.068  28.688  1.00  0.00     0.034 A 
BRANCH  47  61
ATOM     61  C   UNL A   1      38.897  30.646  30.742  1.00  0.00     0.023 A 
ATOM     62  C   UNL A   1      37.785  31.217  30.103  1.00  0.00     0.031 A 
ATOM     63  C   UNL A   1      38.854  30.493  32.139  1.00  0.00     0.131 A 
ATOM     64  C   UNL A   1      36.700  31.672  30.864  1.00  0.00     0.055 A 
ATOM     65  C   UNL A   1      37.741  30.885  32.885  1.00  0.00     0.041 A 
ATOM     66  F   UNL A   1      39.898  29.972  32.803  1.00  0.00    -0.206 F 
ATOM     67  C   UNL A   1      36.660  31.489  32.248  1.00  0.00     0.022 A 
BRANCH  64  68
ATOM     68  S   UNL A   1      35.382  32.599  30.033  1.00  0.00     0.124 S 
ATOM     69  O   UNL A   1      34.404  32.742  31.108  1.00  0.00    -0.237 OA
ATOM     70  O   UNL A   1      36.062  33.822  29.623  1.00  0.00    -0.237 OA
ATOM     71  O   UNL A   1      34.977  31.715  28.942  1.00  0.00    -0.744 OA
ENDBRANCH  64  68
ENDBRANCH  47  61
BRANCH  48  72
ATOM     72  C   UNL A   1      46.765  27.456  25.430  1.00  0.00     0.023 A 
ATOM     73  C   UNL A   1      46.910  27.843  24.089  1.00  0.00     0.031 A 
ATOM     74  C   UNL A   1      47.744  26.619  25.990  1.00  0.00     0.131 A 
ATOM     75  C   UNL A   1      48.001  27.373  23.342  1.00  0.00     0.055 A 
ATOM     76  C   UNL A   1      48.844  26.179  25.253  1.00  0.00     0.041 A 
ATOM     77  F   UNL A   1      47.653  26.232  27.273  1.00  0.00    -0.206 F 
ATOM     78  C   UNL A   1      48.975  26.552  23.918  1.00  0.00     0.022 A 
BRANCH  75  79
ATOM     79  S   UNL A   1      48.125  27.838  21.593  1.00  0.00     0.124 S 
ATOM     80  O   UNL A   1      49.192  28.831  21.625  1.00  0.00    -0.237 OA
ATOM     81  O   UNL A   1      48.451  26.564  20.960  1.00  0.00    -0.237 OA
ATOM     82  O   UNL A   1      46.794  28.358  21.286  1.00  0.00    -0.744 OA
ENDBRANCH  75  79
ENDBRANCH  48  72
BRANCH  60  83
ATOM     83  C   UNL A   1      45.379  33.313  28.937  1.00  0.00     0.023 A 
ATOM     84  C   UNL A   1      45.292  34.424  28.084  1.00  0.00     0.031 A 
ATOM     85  C   UNL A   1      46.233  33.388  30.052  1.00  0.00     0.131 A 
ATOM     86  C   UNL A   1      46.078  35.559  28.339  1.00  0.00     0.055 A 
ATOM     87  C   UNL A   1      46.978  34.536  30.324  1.00  0.00     0.041 A 
ATOM     88  F   UNL A   1      46.348  32.351  30.895  1.00  0.00    -0.206 F 
ATOM     89  C   UNL A   1      46.908  35.627  29.462  1.00  0.00     0.022 A 
BRANCH  86  90
ATOM     90  S   UNL A   1      46.034  36.932  27.156  1.00  0.00     0.124 S 
ATOM     91  O   UNL A   1      46.786  36.385  26.031  1.00  0.00    -0.237 OA
ATOM     92  O   UNL A   1      44.604  37.115  26.938  1.00  0.00    -0.237 OA
ATOM     93  O   UNL A   1      46.695  38.022  27.872  1.00  0.00    -0.744 OA
ENDBRANCH  86  90
ENDBRANCH  60  83
ENDBRANCH  34  35
ENDBRANCH  26  29
ENDBRANCH  24  25
ENDBRANCH   1  24
TORSDOF 15
ENDMDL
MODEL 3
REMARK VINA RESULT:     -12.6      2.461      3.723
REMARK SMILES Cc1cc(Cl)cc2c1O[C@H](C(F)(F)F)C(C(=O)NCCCCNC(=O)c1ccc(-c3c4nc(c(-c5cc(S(=O)(=O)[O-])ccc5F)c5ccc([nH]5)c(-c5cc(S(=O)(=O)[O-])ccc5F)c5nc(c(-c6cc(S(=O)(=O)[O-])ccc6F)c6ccc3[nH]6)C=C5)C=C4)cc1)=C2
REMARK SMILES IDX 21 1 20 2 19 3 18 4 16 5 17 6 15 8 1 9 2 10 3 11 8 12 4 13
REMARK SMILES IDX 7 14 9 15 5 16 6 17 89 18 10 19 11 20 12 21 13 22 14 23
REMARK SMILES IDX 22 24 23 25 24 26 25 28 26 29 27 30 88 31 28 32 87 33 29 34
REMARK SMILES IDX 30 35 31 36 81 37 32 38 86 39 80 40 82 41 33 42 85 43 79 44
REMARK SMILES IDX 78 45 34 47 66 48 46 49 65 50 47 51 50 52 64 53 83 54 48 55
REMARK SMILES IDX 49 56 63 58 84 59 51 60 35 61 36 62 44 63 37 64 43 65 45 66
REMARK SMILES IDX 42 67 38 68 39 69 40 70 41 71 67 72 68 73 76 74 69 75 75 76
REMARK SMILES IDX 77 77 74 78 70 79 71 80 72 81 73 82 52 83 53 84 61 85 54 86
REMARK SMILES IDX 60 87 62 88 59 89 55 90 56 91 57 92 58 93
REMARK H PARENT 18 7 23 27 82 46 50 57
REMARK Flexibility Score: inf
ROOT
ATOM      1  C   UNL A   1      33.023  29.327  24.517  1.00  0.00     0.023 C 
ENDROOT
BRANCH   1   2
ATOM      2  C   UNL A   1      34.109  28.372  24.013  1.00  0.00     0.023 C 
BRANCH   2   3
ATOM      3  C   UNL A   1      33.977  26.945  24.538  1.00  0.00     0.116 C 
BRANCH   3   4
ATOM      4  N   UNL A   1      33.570  26.020  23.495  1.00  0.00    -0.352 N 
ATOM      5  C   UNL A   1      32.435  25.732  22.817  1.00  0.00     0.251 C 
ATOM      6  O   UNL A   1      32.534  24.821  21.988  1.00  0.00    -0.270 OA
ATOM      7  H   UNL A   1      34.318  25.450  23.205  1.00  0.00     0.163 HD
BRANCH   5   8
ATOM      8  C   UNL A   1      31.121  26.418  22.998  1.00  0.00     0.067 C 
ATOM      9  C   UNL A   1      26.222  27.828  23.876  1.00  0.00     0.048 C 
ATOM     10  C   UNL A   1      27.439  28.453  23.255  1.00  0.00    -0.007 A 
ATOM     11  C   UNL A   1      27.375  29.787  22.829  1.00  0.00     0.027 A 
ATOM     12  C   UNL A   1      28.653  27.762  23.124  1.00  0.00     0.131 A 
ATOM     13  C   UNL A   1      28.494  30.402  22.266  1.00  0.00     0.042 A 
ATOM     14  C   UNL A   1      29.774  28.377  22.556  1.00  0.00     0.019 A 
ATOM     15  O   UNL A   1      28.682  26.453  23.520  1.00  0.00    -0.475 OA
ATOM     16  Cl  UNL A   1      28.390  32.037  21.739  1.00  0.00    -0.084 Cl
ATOM     17  C   UNL A   1      29.691  29.703  22.124  1.00  0.00     0.032 A 
ATOM     18  C   UNL A   1      31.006  27.616  22.394  1.00  0.00     0.025 C 
ATOM     19  C   UNL A   1      29.986  25.887  23.826  1.00  0.00     0.314 C 
BRANCH  19  20
ATOM     20  C   UNL A   1      30.243  26.007  25.339  1.00  0.00     0.429 C 
ATOM     21  F   UNL A   1      31.219  25.148  25.724  1.00  0.00    -0.167 F 
ATOM     22  F   UNL A   1      30.654  27.243  25.704  1.00  0.00    -0.167 F 
ATOM     23  F   UNL A   1      29.144  25.723  26.075  1.00  0.00    -0.167 F 
ENDBRANCH  19  20
ENDBRANCH   5   8
ENDBRANCH   3   4
ENDBRANCH   2   3
ENDBRANCH   1   2
BRANCH   1  24
ATOM     24  C   UNL A   1      33.007  29.564  26.028  1.00  0.00     0.116 C 
BRANCH  24  25
ATOM     25  N   UNL A   1      32.631  30.920  26.400  1.00  0.00    -0.352 N 
ATOM     26  C   UNL A   1      33.284  31.778  27.253  1.00  0.00     0.251 C 
ATOM     27  H   UNL A   1      31.805  31.265  25.991  1.00  0.00     0.163 HD
ATOM     28  O   UNL A   1      32.790  32.863  27.537  1.00  0.00    -0.269 OA
BRANCH  26  29
ATOM     29  C   UNL A   1      34.564  31.351  27.848  1.00  0.00     0.039 A 
ATOM     30  C   UNL A   1      35.584  32.292  28.001  1.00  0.00     0.014 A 
ATOM     31  C   UNL A   1      34.728  30.040  28.305  1.00  0.00     0.014 A 
ATOM     32  C   UNL A   1      36.750  31.937  28.680  1.00  0.00     0.010 A 
ATOM     33  C   UNL A   1      35.867  29.704  29.028  1.00  0.00     0.010 A 
ATOM     34  C   UNL A   1      36.883  30.651  29.227  1.00  0.00    -0.014 A 
BRANCH  34  35
ATOM     35  C   UNL A   1      38.087  30.265  30.002  1.00  0.00     0.031 A 
ATOM     36  C   UNL A   1      39.079  29.309  29.403  1.00  0.00     0.074 A 
ATOM     37  C   UNL A   1      38.255  30.725  31.256  1.00  0.00     0.049 A 
ATOM     38  N   UNL A   1      40.120  28.744  29.954  1.00  0.00    -0.248 NA
ATOM     39  C   UNL A   1      38.848  28.917  28.004  1.00  0.00     0.031 C 
ATOM     40  C   UNL A   1      37.350  31.647  31.948  1.00  0.00     0.029 A 
ATOM     41  N   UNL A   1      39.241  30.475  32.175  1.00  0.00    -0.354 N 
ATOM     42  C   UNL A   1      40.663  27.918  28.977  1.00  0.00     0.074 A 
ATOM     43  C   UNL A   1      39.806  28.022  27.814  1.00  0.00     0.031 C 
ATOM     44  C   UNL A   1      37.839  31.903  33.173  1.00  0.00     0.029 A 
ATOM     45  C   UNL A   1      39.063  31.133  33.370  1.00  0.00     0.049 A 
ATOM     46  H   UNL A   1      40.005  29.880  31.997  1.00  0.00     0.167 HD
ATOM     47  C   UNL A   1      41.781  27.157  29.039  1.00  0.00     0.034 A 
ATOM     48  C   UNL A   1      39.799  31.108  34.497  1.00  0.00     0.034 A 
ATOM     49  C   UNL A   1      42.636  27.077  30.195  1.00  0.00     0.049 A 
ATOM     50  C   UNL A   1      41.026  30.239  34.550  1.00  0.00     0.074 A 
ATOM     51  C   UNL A   1      43.806  26.356  30.356  1.00  0.00     0.029 A 
ATOM     52  N   UNL A   1      42.415  27.748  31.392  1.00  0.00    -0.354 N 
ATOM     53  N   UNL A   1      41.514  29.446  33.625  1.00  0.00    -0.248 NA
ATOM     54  C   UNL A   1      41.798  30.259  35.800  1.00  0.00     0.031 C 
ATOM     55  C   UNL A   1      44.270  26.558  31.661  1.00  0.00     0.029 A 
ATOM     56  C   UNL A   1      43.419  27.447  32.298  1.00  0.00     0.049 A 
ATOM     57  H   UNL A   1      41.657  28.350  31.569  1.00  0.00     0.167 HD
ATOM     58  C   UNL A   1      42.658  28.880  34.177  1.00  0.00     0.074 A 
ATOM     59  C   UNL A   1      42.793  29.432  35.511  1.00  0.00     0.031 C 
ATOM     60  C   UNL A   1      43.521  27.989  33.631  1.00  0.00     0.034 A 
BRANCH  47  61
ATOM     61  C   UNL A   1      42.123  26.338  27.822  1.00  0.00     0.023 A 
ATOM     62  C   UNL A   1      41.693  25.006  27.692  1.00  0.00     0.031 A 
ATOM     63  C   UNL A   1      42.909  26.885  26.794  1.00  0.00     0.131 A 
ATOM     64  C   UNL A   1      42.104  24.245  26.589  1.00  0.00     0.055 A 
ATOM     65  C   UNL A   1      43.257  26.142  25.663  1.00  0.00     0.041 A 
ATOM     66  F   UNL A   1      43.364  28.145  26.877  1.00  0.00    -0.206 F 
ATOM     67  C   UNL A   1      42.863  24.811  25.562  1.00  0.00     0.022 A 
BRANCH  64  68
ATOM     68  S   UNL A   1      41.715  22.475  26.561  1.00  0.00     0.124 S 
ATOM     69  O   UNL A   1      42.278  22.033  27.834  1.00  0.00    -0.237 OA
ATOM     70  O   UNL A   1      40.259  22.469  26.472  1.00  0.00    -0.237 OA
ATOM     71  O   UNL A   1      42.414  21.990  25.373  1.00  0.00    -0.744 OA
ENDBRANCH  64  68
ENDBRANCH  47  61
BRANCH  48  72
ATOM     72  C   UNL A   1      39.390  31.922  35.674  1.00  0.00     0.023 A 
ATOM     73  C   UNL A   1      38.552  31.383  36.661  1.00  0.00     0.031 A 
ATOM     74  C   UNL A   1      39.826  33.249  35.823  1.00  0.00     0.131 A 
ATOM     75  C   UNL A   1      38.153  32.178  37.747  1.00  0.00     0.055 A 
ATOM     76  C   UNL A   1      39.453  34.026  36.921  1.00  0.00     0.041 A 
ATOM     77  F   UNL A   1      40.639  33.803  34.908  1.00  0.00    -0.206 F 
ATOM     78  C   UNL A   1      38.607  33.492  37.888  1.00  0.00     0.022 A 
BRANCH  75  79
ATOM     79  S   UNL A   1      37.016  31.473  38.972  1.00  0.00     0.124 S 
ATOM     80  O   UNL A   1      36.838  30.117  38.465  1.00  0.00    -0.237 OA
ATOM     81  O   UNL A   1      37.780  31.602  40.208  1.00  0.00    -0.237 OA
ATOM     82  O   UNL A   1      35.840  32.335  38.878  1.00  0.00    -0.744 OA
ENDBRANCH  75  79
ENDBRANCH  48  72
BRANCH  60  83
ATOM     83  C   UNL A   1      44.697  27.572  34.472  1.00  0.00     0.023 A 
ATOM     84  C   UNL A   1      44.642  26.434  35.293  1.00  0.00     0.031 A 
ATOM     85  C   UNL A   1      45.890  28.316  34.438  1.00  0.00     0.131 A 
ATOM     86  C   UNL A   1      45.752  26.089  36.079  1.00  0.00     0.055 A 
ATOM     87  C   UNL A   1      47.005  27.943  35.188  1.00  0.00     0.041 A 
ATOM     88  F   UNL A   1      45.989  29.410  33.668  1.00  0.00    -0.206 F 
ATOM     89  C   UNL A   1      46.938  26.828  36.019  1.00  0.00     0.022 A 
BRANCH  86  90
ATOM     90  S   UNL A   1      45.612  24.685  37.217  1.00  0.00     0.124 S 
ATOM     91  O   UNL A   1      45.086  23.641  36.344  1.00  0.00    -0.237 OA
ATOM     92  O   UNL A   1      46.988  24.506  37.667  1.00  0.00    -0.237 OA
ATOM     93  O   UNL A   1      44.684  25.164  38.240  1.00  0.00    -0.744 OA
ENDBRANCH  86  90
ENDBRANCH  60  83
ENDBRANCH  34  35
ENDBRANCH  26  29
ENDBRANCH  24  25
ENDBRANCH   1  24
TORSDOF 15
ENDMDL
