MODEL 1
REMARK VINA RESULT:     -13.1      0.000      0.000
REMARK SMILES O=C(NCCCCNC(=O)[C@H]1Cc2[nH]cnc2CN1C(=O)c1ccncc1Cl)c1ccc(-c2c3nc(c(-c4cc(S(=O)(=O)[O-])ccc4F)c4ccc([nH]4)c(-c4cc(S(=O)(=O)[O-])ccc4F)c4nc(c(-c5cc(S(=O)(=O)[O-])ccc5F)c5ccc2[nH]5)C=C4)C=C3)cc1
REMARK SMILES IDX 5 1 4 2 3 3 1 4 2 5 29 7 30 8 91 9 31 10 90 11 32 12 33 13
REMARK SMILES IDX 34 14 84 15 35 16 89 17 83 18 85 19 36 20 88 21 82 22 81 23
REMARK SMILES IDX 37 25 69 26 49 27 68 28 50 29 53 30 67 31 86 32 51 33 52 34
REMARK SMILES IDX 66 36 87 37 54 38 38 39 39 40 47 41 40 42 46 43 48 44 45 45
REMARK SMILES IDX 41 46 42 47 43 48 44 49 70 50 71 51 79 52 72 53 78 54 80 55
REMARK SMILES IDX 77 56 73 57 74 58 75 59 76 60 55 61 56 62 64 63 57 64 63 65
REMARK SMILES IDX 65 66 62 67 58 68 59 69 60 70 61 71 6 72 7 73 8 74 9 75
REMARK SMILES IDX 10 77 11 78 12 79 19 80 13 81 18 82 14 83 17 84 15 85 16 87
REMARK SMILES IDX 20 88 21 89 22 90 23 91 27 92 24 93 26 94 28 95 25 96
REMARK H PARENT 3 6 85 24 53 35 8 76 14 86
REMARK Flexibility Score: inf
ROOT
ATOM      1  C   UNL A   1      36.195  23.833  25.182  1.00  0.00     0.023 C 
ENDROOT
BRANCH   1   2
ATOM      2  C   UNL A   1      37.103  24.187  26.358  1.00  0.00     0.116 C 
BRANCH   2   3
ATOM      3  N   UNL A   1      38.506  23.914  26.135  1.00  0.00    -0.352 N 
ATOM      4  O   UNL A   1      40.714  23.919  26.285  1.00  0.00    -0.269 OA
ATOM      5  C   UNL A   1      39.662  24.490  26.583  1.00  0.00     0.251 C 
ATOM      6  H   UNL A   1      38.662  23.150  25.535  1.00  0.00     0.163 HD
BRANCH   5   7
ATOM      7  C   UNL A   1      39.716  25.785  27.306  1.00  0.00     0.039 A 
ATOM      8  C   UNL A   1      40.110  27.006  26.754  1.00  0.00     0.014 A 
ATOM      9  C   UNL A   1      39.378  25.729  28.668  1.00  0.00     0.014 A 
ATOM     10  C   UNL A   1      40.314  28.112  27.567  1.00  0.00     0.010 A 
ATOM     11  C   UNL A   1      39.541  26.841  29.477  1.00  0.00     0.010 A 
ATOM     12  C   UNL A   1      40.065  28.012  28.933  1.00  0.00    -0.014 A 
BRANCH  12  13
ATOM     13  C   UNL A   1      40.201  29.207  29.759  1.00  0.00     0.031 A 
ATOM     14  C   UNL A   1      38.948  30.021  29.875  1.00  0.00     0.074 A 
ATOM     15  C   UNL A   1      41.309  29.400  30.507  1.00  0.00     0.049 A 
ATOM     16  N   UNL A   1      38.784  31.296  29.726  1.00  0.00    -0.248 NA
ATOM     17  C   UNL A   1      37.678  29.291  30.071  1.00  0.00     0.031 C 
ATOM     18  C   UNL A   1      42.465  28.505  30.635  1.00  0.00     0.029 A 
ATOM     19  N   UNL A   1      41.577  30.361  31.431  1.00  0.00    -0.354 N 
ATOM     20  C   UNL A   1      37.442  31.553  30.017  1.00  0.00     0.074 A 
ATOM     21  C   UNL A   1      36.786  30.278  30.056  1.00  0.00     0.031 C 
ATOM     22  C   UNL A   1      43.148  28.816  31.758  1.00  0.00     0.029 A 
ATOM     23  C   UNL A   1      42.555  30.000  32.357  1.00  0.00     0.049 A 
ATOM     24  H   UNL A   1      41.121  31.234  31.444  1.00  0.00     0.167 HD
ATOM     25  C   UNL A   1      37.013  32.781  30.424  1.00  0.00     0.034 A 
ATOM     26  C   UNL A   1      42.787  30.566  33.575  1.00  0.00     0.034 A 
ATOM     27  C   UNL A   1      37.928  33.814  30.013  1.00  0.00     0.049 A 
ATOM     28  C   UNL A   1      42.146  31.906  33.547  1.00  0.00     0.074 A 
ATOM     29  C   UNL A   1      38.382  34.269  28.790  1.00  0.00     0.029 A 
ATOM     30  N   UNL A   1      38.816  34.313  30.939  1.00  0.00    -0.354 N 
ATOM     31  N   UNL A   1      42.530  32.863  32.744  1.00  0.00    -0.248 NA
ATOM     32  C   UNL A   1      40.772  32.011  34.019  1.00  0.00     0.031 C 
ATOM     33  C   UNL A   1      39.769  34.530  28.994  1.00  0.00     0.029 A 
ATOM     34  C   UNL A   1      40.054  34.301  30.343  1.00  0.00     0.049 A 
ATOM     35  H   UNL A   1      38.605  34.618  31.850  1.00  0.00     0.167 HD
ATOM     36  C   UNL A   1      41.357  33.434  32.276  1.00  0.00     0.074 A 
ATOM     37  C   UNL A   1      40.307  32.922  33.158  1.00  0.00     0.031 C 
ATOM     38  C   UNL A   1      41.291  34.033  31.049  1.00  0.00     0.034 A 
BRANCH  25  39
ATOM     39  C   UNL A   1      35.966  33.004  31.495  1.00  0.00     0.023 A 
ATOM     40  C   UNL A   1      34.898  33.873  31.189  1.00  0.00     0.031 A 
ATOM     41  C   UNL A   1      36.114  32.676  32.863  1.00  0.00     0.131 A 
ATOM     42  C   UNL A   1      34.124  34.454  32.209  1.00  0.00     0.055 A 
ATOM     43  C   UNL A   1      35.300  33.207  33.867  1.00  0.00     0.041 A 
ATOM     44  F   UNL A   1      37.106  31.904  33.321  1.00  0.00    -0.206 F 
ATOM     45  C   UNL A   1      34.322  34.130  33.549  1.00  0.00     0.022 A 
BRANCH  42  46
ATOM     46  S   UNL A   1      32.987  35.796  31.770  1.00  0.00     0.124 S 
ATOM     47  O   UNL A   1      31.777  35.405  32.484  1.00  0.00    -0.237 OA
ATOM     48  O   UNL A   1      33.692  36.964  32.287  1.00  0.00    -0.237 OA
ATOM     49  O   UNL A   1      32.908  35.709  30.314  1.00  0.00    -0.744 OA
ENDBRANCH  42  46
ENDBRANCH  25  39
BRANCH  26  50
ATOM     50  C   UNL A   1      43.132  29.832  34.834  1.00  0.00     0.023 A 
ATOM     51  C   UNL A   1      42.430  28.699  35.303  1.00  0.00     0.031 A 
ATOM     52  C   UNL A   1      44.343  30.137  35.500  1.00  0.00     0.131 A 
ATOM     53  C   UNL A   1      42.931  27.949  36.399  1.00  0.00     0.055 A 
ATOM     54  C   UNL A   1      44.829  29.398  36.581  1.00  0.00     0.041 A 
ATOM     55  F   UNL A   1      45.143  31.126  35.069  1.00  0.00    -0.206 F 
ATOM     56  C   UNL A   1      44.127  28.297  37.033  1.00  0.00     0.022 A 
BRANCH  53  57
ATOM     57  S   UNL A   1      42.063  26.456  36.991  1.00  0.00     0.124 S 
ATOM     58  O   UNL A   1      42.903  26.019  38.093  1.00  0.00    -0.237 OA
ATOM     59  O   UNL A   1      40.744  26.981  37.346  1.00  0.00    -0.237 OA
ATOM     60  O   UNL A   1      42.067  25.570  35.824  1.00  0.00    -0.744 OA
ENDBRANCH  53  57
ENDBRANCH  26  50
BRANCH  38  61
ATOM     61  C   UNL A   1      42.576  34.237  30.271  1.00  0.00     0.023 A 
ATOM     62  C   UNL A   1      43.030  33.394  29.228  1.00  0.00     0.031 A 
ATOM     63  C   UNL A   1      43.284  35.429  30.497  1.00  0.00     0.131 A 
ATOM     64  C   UNL A   1      44.158  33.758  28.463  1.00  0.00     0.055 A 
ATOM     65  C   UNL A   1      44.387  35.796  29.726  1.00  0.00     0.041 A 
ATOM     66  F   UNL A   1      42.881  36.288  31.448  1.00  0.00    -0.206 F 
ATOM     67  C   UNL A   1      44.830  34.960  28.708  1.00  0.00     0.022 A 
BRANCH  64  68
ATOM     68  S   UNL A   1      44.771  32.677  27.129  1.00  0.00     0.124 S 
ATOM     69  O   UNL A   1      46.204  32.601  27.384  1.00  0.00    -0.237 OA
ATOM     70  O   UNL A   1      44.015  31.445  27.342  1.00  0.00    -0.237 OA
ATOM     71  O   UNL A   1      44.410  33.403  25.908  1.00  0.00    -0.744 OA
ENDBRANCH  64  68
ENDBRANCH  38  61
ENDBRANCH  12  13
ENDBRANCH   5   7
ENDBRANCH   2   3
ENDBRANCH   1   2
BRANCH   1  72
ATOM     72  C   UNL A   1      34.774  24.390  25.299  1.00  0.00     0.023 C 
BRANCH  72  73
ATOM     73  C   UNL A   1      33.783  23.868  24.263  1.00  0.00     0.116 C 
BRANCH  73  74
ATOM     74  N   UNL A   1      33.808  24.601  23.006  1.00  0.00    -0.354 N 
ATOM     75  C   UNL A   1      33.626  25.926  22.755  1.00  0.00     0.243 C 
ATOM     76  H   UNL A   1      33.985  24.050  22.209  1.00  0.00     0.163 HD
ATOM     77  O   UNL A   1      33.962  26.349  21.646  1.00  0.00    -0.273 OA
BRANCH  75  78
ATOM     78  C   UNL A   1      32.990  26.846  23.800  1.00  0.00     0.181 C 
ATOM     79  C   UNL A   1      33.862  28.131  23.903  1.00  0.00     0.091 C 
ATOM     80  N   UNL A   1      31.527  27.200  23.765  1.00  0.00    -0.320 N 
ATOM     81  C   UNL A   1      33.313  28.927  25.028  1.00  0.00     0.042 A 
ATOM     82  C   UNL A   1      31.023  27.803  25.030  1.00  0.00     0.178 C 
ATOM     83  N   UNL A   1      33.936  29.856  25.803  1.00  0.00    -0.348 N 
ATOM     84  C   UNL A   1      32.037  28.793  25.536  1.00  0.00     0.081 A 
ATOM     85  C   UNL A   1      33.027  30.244  26.751  1.00  0.00     0.197 A 
ATOM     86  H   UNL A   1      34.859  30.184  25.701  1.00  0.00     0.167 HD
ATOM     87  N   UNL A   1      31.876  29.617  26.621  1.00  0.00    -0.240 NA
BRANCH  80  88
ATOM     88  C   UNL A   1      30.721  27.392  22.640  1.00  0.00     0.256 C 
ATOM     89  O   UNL A   1      30.854  26.764  21.591  1.00  0.00    -0.269 OA
BRANCH  88  90
ATOM     90  C   UNL A   1      29.652  28.398  22.636  1.00  0.00     0.061 A 
ATOM     91  C   UNL A   1      29.978  29.691  22.226  1.00  0.00     0.035 A 
ATOM     92  C   UNL A   1      28.379  28.122  23.128  1.00  0.00     0.072 A 
ATOM     93  C   UNL A   1      28.974  30.642  22.226  1.00  0.00     0.112 A 
ATOM     94  C   UNL A   1      27.438  29.140  23.062  1.00  0.00     0.132 A 
ATOM     95  Cl  UNL A   1      27.955  26.622  23.844  1.00  0.00    -0.082 Cl
ATOM     96  N   UNL A   1      27.703  30.391  22.611  1.00  0.00    -0.263 NA
ENDBRANCH  88  90
ENDBRANCH  80  88
ENDBRANCH  75  78
ENDBRANCH  73  74
ENDBRANCH  72  73
ENDBRANCH   1  72
TORSDOF 16
ENDMDL
MODEL 2
REMARK VINA RESULT:     -13.0      3.894      8.531
REMARK SMILES O=C(NCCCCNC(=O)[C@H]1Cc2[nH]cnc2CN1C(=O)c1ccncc1Cl)c1ccc(-c2c3nc(c(-c4cc(S(=O)(=O)[O-])ccc4F)c4ccc([nH]4)c(-c4cc(S(=O)(=O)[O-])ccc4F)c4nc(c(-c5cc(S(=O)(=O)[O-])ccc5F)c5ccc2[nH]5)C=C4)C=C3)cc1
REMARK SMILES IDX 5 1 4 2 3 3 1 4 2 5 29 7 30 8 91 9 31 10 90 11 32 12 33 13
REMARK SMILES IDX 34 14 84 15 35 16 89 17 83 18 85 19 36 20 88 21 82 22 81 23
REMARK SMILES IDX 37 25 69 26 49 27 68 28 50 29 53 30 67 31 86 32 51 33 52 34
REMARK SMILES IDX 66 36 87 37 54 38 38 39 39 40 47 41 40 42 46 43 48 44 45 45
REMARK SMILES IDX 41 46 42 47 43 48 44 49 70 50 71 51 79 52 72 53 78 54 80 55
REMARK SMILES IDX 77 56 73 57 74 58 75 59 76 60 55 61 56 62 64 63 57 64 63 65
REMARK SMILES IDX 65 66 62 67 58 68 59 69 60 70 61 71 6 72 7 73 8 74 9 75
REMARK SMILES IDX 10 77 11 78 12 79 19 80 13 81 18 82 14 83 17 84 15 85 16 87
REMARK SMILES IDX 20 88 21 89 22 90 23 91 27 92 24 93 26 94 28 95 25 96
REMARK H PARENT 3 6 85 24 53 35 8 76 14 86
REMARK Flexibility Score: inf
ROOT
ATOM      1  C   UNL A   1      33.350  28.552  27.464  1.00  0.00     0.023 C 
ENDROOT
BRANCH   1   2
ATOM      2  C   UNL A   1      34.174  29.729  26.948  1.00  0.00     0.116 C 
BRANCH   2   3
ATOM      3  N   UNL A   1      34.315  30.821  27.887  1.00  0.00    -0.352 N 
ATOM      4  O   UNL A   1      35.162  32.357  29.235  1.00  0.00    -0.269 OA
ATOM      5  C   UNL A   1      35.367  31.317  28.604  1.00  0.00     0.251 C 
ATOM      6  H   UNL A   1      33.476  31.310  28.041  1.00  0.00     0.163 HD
BRANCH   5   7
ATOM      7  C   UNL A   1      36.677  30.633  28.735  1.00  0.00     0.039 A 
ATOM      8  C   UNL A   1      36.901  29.266  28.552  1.00  0.00     0.014 A 
ATOM      9  C   UNL A   1      37.750  31.454  29.120  1.00  0.00     0.014 A 
ATOM     10  C   UNL A   1      38.121  28.701  28.892  1.00  0.00     0.010 A 
ATOM     11  C   UNL A   1      38.983  30.901  29.422  1.00  0.00     0.010 A 
ATOM     12  C   UNL A   1      39.145  29.517  29.364  1.00  0.00    -0.014 A 
BRANCH  12  13
ATOM     13  C   UNL A   1      40.449  28.920  29.635  1.00  0.00     0.031 A 
ATOM     14  C   UNL A   1      40.793  28.828  31.090  1.00  0.00     0.074 A 
ATOM     15  C   UNL A   1      41.145  28.321  28.646  1.00  0.00     0.049 A 
ATOM     16  N   UNL A   1      41.883  29.174  31.697  1.00  0.00    -0.248 NA
ATOM     17  C   UNL A   1      39.725  28.396  32.016  1.00  0.00     0.031 C 
ATOM     18  C   UNL A   1      40.740  28.151  27.245  1.00  0.00     0.029 A 
ATOM     19  N   UNL A   1      42.297  27.600  28.708  1.00  0.00    -0.354 N 
ATOM     20  C   UNL A   1      41.717  28.808  33.035  1.00  0.00     0.074 A 
ATOM     21  C   UNL A   1      40.327  28.495  33.199  1.00  0.00     0.031 C 
ATOM     22  C   UNL A   1      41.473  27.163  26.685  1.00  0.00     0.029 A 
ATOM     23  C   UNL A   1      42.474  26.720  27.640  1.00  0.00     0.049 A 
ATOM     24  H   UNL A   1      42.948  27.692  29.441  1.00  0.00     0.167 HD
ATOM     25  C   UNL A   1      42.779  28.577  33.857  1.00  0.00     0.034 A 
ATOM     26  C   UNL A   1      43.306  25.642  27.590  1.00  0.00     0.034 A 
ATOM     27  C   UNL A   1      43.964  29.238  33.376  1.00  0.00     0.049 A 
ATOM     28  C   UNL A   1      44.316  25.837  28.661  1.00  0.00     0.074 A 
ATOM     29  C   UNL A   1      44.305  30.557  33.144  1.00  0.00     0.029 A 
ATOM     30  N   UNL A   1      44.902  28.495  32.696  1.00  0.00    -0.354 N 
ATOM     31  N   UNL A   1      45.175  26.821  28.660  1.00  0.00    -0.248 NA
ATOM     32  C   UNL A   1      44.034  25.264  29.971  1.00  0.00     0.031 C 
ATOM     33  C   UNL A   1      45.057  30.528  31.933  1.00  0.00     0.029 A 
ATOM     34  C   UNL A   1      45.200  29.192  31.549  1.00  0.00     0.049 A 
ATOM     35  H   UNL A   1      45.284  27.633  32.975  1.00  0.00     0.167 HD
ATOM     36  C   UNL A   1      45.213  27.268  29.972  1.00  0.00     0.074 A 
ATOM     37  C   UNL A   1      44.550  26.220  30.750  1.00  0.00     0.031 C 
ATOM     38  C   UNL A   1      45.508  28.568  30.278  1.00  0.00     0.034 A 
BRANCH  25  39
ATOM     39  C   UNL A   1      42.830  27.467  34.886  1.00  0.00     0.023 A 
ATOM     40  C   UNL A   1      43.568  26.311  34.560  1.00  0.00     0.031 A 
ATOM     41  C   UNL A   1      41.967  27.346  36.001  1.00  0.00     0.131 A 
ATOM     42  C   UNL A   1      43.351  25.098  35.238  1.00  0.00     0.055 A 
ATOM     43  C   UNL A   1      41.804  26.154  36.712  1.00  0.00     0.041 A 
ATOM     44  F   UNL A   1      41.164  28.335  36.408  1.00  0.00    -0.206 F 
ATOM     45  C   UNL A   1      42.469  25.011  36.311  1.00  0.00     0.022 A 
BRANCH  42  46
ATOM     46  S   UNL A   1      44.094  23.588  34.563  1.00  0.00     0.124 S 
ATOM     47  O   UNL A   1      44.528  22.904  35.776  1.00  0.00    -0.237 OA
ATOM     48  O   UNL A   1      42.966  22.992  33.855  1.00  0.00    -0.237 OA
ATOM     49  O   UNL A   1      45.169  24.091  33.712  1.00  0.00    -0.744 OA
ENDBRANCH  42  46
ENDBRANCH  25  39
BRANCH  26  50
ATOM     50  C   UNL A   1      42.987  24.315  26.974  1.00  0.00     0.023 A 
ATOM     51  C   UNL A   1      43.855  23.624  26.098  1.00  0.00     0.031 A 
ATOM     52  C   UNL A   1      41.859  23.594  27.433  1.00  0.00     0.131 A 
ATOM     53  C   UNL A   1      43.564  22.291  25.705  1.00  0.00     0.055 A 
ATOM     54  C   UNL A   1      41.575  22.284  27.040  1.00  0.00     0.041 A 
ATOM     55  F   UNL A   1      41.029  24.115  28.350  1.00  0.00    -0.206 F 
ATOM     56  C   UNL A   1      42.430  21.624  26.177  1.00  0.00     0.022 A 
BRANCH  53  57
ATOM     57  S   UNL A   1      44.695  21.365  24.611  1.00  0.00     0.124 S 
ATOM     58  O   UNL A   1      44.605  22.107  23.365  1.00  0.00    -0.237 OA
ATOM     59  O   UNL A   1      45.966  21.452  25.331  1.00  0.00    -0.237 OA
ATOM     60  O   UNL A   1      44.113  20.021  24.573  1.00  0.00    -0.744 OA
ENDBRANCH  53  57
ENDBRANCH  26  50
BRANCH  38  61
ATOM     61  C   UNL A   1      45.987  29.484  29.169  1.00  0.00     0.023 A 
ATOM     62  C   UNL A   1      45.158  30.377  28.448  1.00  0.00     0.031 A 
ATOM     63  C   UNL A   1      47.372  29.562  28.950  1.00  0.00     0.131 A 
ATOM     64  C   UNL A   1      45.729  31.298  27.544  1.00  0.00     0.055 A 
ATOM     65  C   UNL A   1      47.934  30.486  28.069  1.00  0.00     0.041 A 
ATOM     66  F   UNL A   1      48.213  28.765  29.630  1.00  0.00    -0.206 F 
ATOM     67  C   UNL A   1      47.114  31.355  27.360  1.00  0.00     0.022 A 
BRANCH  64  68
ATOM     68  S   UNL A   1      44.678  32.443  26.590  1.00  0.00     0.124 S 
ATOM     69  O   UNL A   1      44.031  33.248  27.618  1.00  0.00    -0.237 OA
ATOM     70  O   UNL A   1      45.646  33.138  25.745  1.00  0.00    -0.237 OA
ATOM     71  O   UNL A   1      43.774  31.549  25.860  1.00  0.00    -0.744 OA
ENDBRANCH  64  68
ENDBRANCH  38  61
ENDBRANCH  12  13
ENDBRANCH   5   7
ENDBRANCH   2   3
ENDBRANCH   1   2
BRANCH   1  72
ATOM     72  C   UNL A   1      31.961  28.435  26.831  1.00  0.00     0.023 C 
BRANCH  72  73
ATOM     73  C   UNL A   1      31.795  27.295  25.831  1.00  0.00     0.116 C 
BRANCH  73  74
ATOM     74  N   UNL A   1      31.257  26.076  26.417  1.00  0.00    -0.354 N 
ATOM     75  C   UNL A   1      31.812  24.839  26.540  1.00  0.00     0.243 C 
ATOM     76  H   UNL A   1      30.346  26.159  26.782  1.00  0.00     0.163 HD
ATOM     77  O   UNL A   1      31.268  24.043  27.311  1.00  0.00    -0.273 OA
BRANCH  75  78
ATOM     78  C   UNL A   1      33.039  24.440  25.719  1.00  0.00     0.181 C 
ATOM     79  C   UNL A   1      34.027  23.693  26.663  1.00  0.00     0.091 C 
ATOM     80  N   UNL A   1      32.919  23.719  24.402  1.00  0.00    -0.320 N 
ATOM     81  C   UNL A   1      35.267  23.461  25.883  1.00  0.00     0.042 A 
ATOM     82  C   UNL A   1      34.170  23.727  23.595  1.00  0.00     0.178 C 
ATOM     83  N   UNL A   1      36.538  23.275  26.331  1.00  0.00    -0.348 N 
ATOM     84  C   UNL A   1      35.340  23.466  24.505  1.00  0.00     0.081 A 
ATOM     85  C   UNL A   1      37.333  23.182  25.219  1.00  0.00     0.197 A 
ATOM     86  H   UNL A   1      36.829  23.218  27.270  1.00  0.00     0.167 HD
ATOM     87  N   UNL A   1      36.641  23.300  24.104  1.00  0.00    -0.240 NA
BRANCH  80  88
ATOM     88  C   UNL A   1      31.968  22.763  24.037  1.00  0.00     0.256 C 
ATOM     89  O   UNL A   1      30.852  23.043  23.600  1.00  0.00    -0.269 OA
BRANCH  88  90
ATOM     90  C   UNL A   1      32.244  21.328  24.174  1.00  0.00     0.061 A 
ATOM     91  C   UNL A   1      32.647  20.861  25.426  1.00  0.00     0.035 A 
ATOM     92  C   UNL A   1      32.222  20.465  23.081  1.00  0.00     0.072 A 
ATOM     93  C   UNL A   1      32.913  19.510  25.556  1.00  0.00     0.112 A 
ATOM     94  C   UNL A   1      32.483  19.125  23.325  1.00  0.00     0.132 A 
ATOM     95  Cl  UNL A   1      31.943  20.995  21.473  1.00  0.00    -0.082 Cl
ATOM     96  N   UNL A   1      32.816  18.624  24.541  1.00  0.00    -0.263 NA
ENDBRANCH  88  90
ENDBRANCH  80  88
ENDBRANCH  75  78
ENDBRANCH  73  74
ENDBRANCH  72  73
ENDBRANCH   1  72
TORSDOF 16
ENDMDL
MODEL 3
REMARK VINA RESULT:     -12.9      3.628      8.181
REMARK SMILES O=C(NCCCCNC(=O)[C@H]1Cc2[nH]cnc2CN1C(=O)c1ccncc1Cl)c1ccc(-c2c3nc(c(-c4cc(S(=O)(=O)[O-])ccc4F)c4ccc([nH]4)c(-c4cc(S(=O)(=O)[O-])ccc4F)c4nc(c(-c5cc(S(=O)(=O)[O-])ccc5F)c5ccc2[nH]5)C=C4)C=C3)cc1
REMARK SMILES IDX 5 1 4 2 3 3 1 4 2 5 29 7 30 8 91 9 31 10 90 11 32 12 33 13
REMARK SMILES IDX 34 14 84 15 35 16 89 17 83 18 85 19 36 20 88 21 82 22 81 23
REMARK SMILES IDX 37 25 69 26 49 27 68 28 50 29 53 30 67 31 86 32 51 33 52 34
REMARK SMILES IDX 66 36 87 37 54 38 38 39 39 40 47 41 40 42 46 43 48 44 45 45
REMARK SMILES IDX 41 46 42 47 43 48 44 49 70 50 71 51 79 52 72 53 78 54 80 55
REMARK SMILES IDX 77 56 73 57 74 58 75 59 76 60 55 61 56 62 64 63 57 64 63 65
REMARK SMILES IDX 65 66 62 67 58 68 59 69 60 70 61 71 6 72 7 73 8 74 9 75
REMARK SMILES IDX 10 77 11 78 12 79 19 80 13 81 18 82 14 83 17 84 15 85 16 87
REMARK SMILES IDX 20 88 21 89 22 90 23 91 27 92 24 93 26 94 28 95 25 96
REMARK H PARENT 3 6 85 24 53 35 8 76 14 86
REMARK Flexibility Score: inf
ROOT
ATOM      1  C   UNL A   1      32.645  29.568  26.702  1.00  0.00     0.023 C 
ENDROOT
BRANCH   1   2
ATOM      2  C   UNL A   1      34.084  29.881  27.104  1.00  0.00     0.116 C 
BRANCH   2   3
ATOM      3  N   UNL A   1      34.216  30.924  28.098  1.00  0.00    -0.352 N 
ATOM      4  O   UNL A   1      35.049  32.390  29.531  1.00  0.00    -0.269 OA
ATOM      5  C   UNL A   1      35.260  31.382  28.852  1.00  0.00     0.251 C 
ATOM      6  H   UNL A   1      33.375  31.407  28.267  1.00  0.00     0.163 HD
BRANCH   5   7
ATOM      7  C   UNL A   1      36.568  30.690  28.964  1.00  0.00     0.039 A 
ATOM      8  C   UNL A   1      36.763  29.308  28.890  1.00  0.00     0.014 A 
ATOM      9  C   UNL A   1      37.672  31.523  29.207  1.00  0.00     0.014 A 
ATOM     10  C   UNL A   1      37.996  28.754  29.205  1.00  0.00     0.010 A 
ATOM     11  C   UNL A   1      38.915  30.978  29.482  1.00  0.00     0.010 A 
ATOM     12  C   UNL A   1      39.057  29.592  29.538  1.00  0.00    -0.014 A 
BRANCH  12  13
ATOM     13  C   UNL A   1      40.368  28.999  29.781  1.00  0.00     0.031 A 
ATOM     14  C   UNL A   1      40.719  28.857  31.231  1.00  0.00     0.074 A 
ATOM     15  C   UNL A   1      41.066  28.444  28.768  1.00  0.00     0.049 A 
ATOM     16  N   UNL A   1      41.808  29.191  31.846  1.00  0.00    -0.248 NA
ATOM     17  C   UNL A   1      39.660  28.380  32.144  1.00  0.00     0.031 C 
ATOM     18  C   UNL A   1      40.656  28.321  27.364  1.00  0.00     0.029 A 
ATOM     19  N   UNL A   1      42.225  27.734  28.799  1.00  0.00    -0.354 N 
ATOM     20  C   UNL A   1      41.652  28.775  33.170  1.00  0.00     0.074 A 
ATOM     21  C   UNL A   1      40.266  28.441  33.328  1.00  0.00     0.031 C 
ATOM     22  C   UNL A   1      41.396  27.363  26.764  1.00  0.00     0.029 A 
ATOM     23  C   UNL A   1      42.407  26.895  27.699  1.00  0.00     0.049 A 
ATOM     24  H   UNL A   1      42.879  27.805  29.532  1.00  0.00     0.167 HD
ATOM     25  C   UNL A   1      42.720  28.524  33.979  1.00  0.00     0.034 A 
ATOM     26  C   UNL A   1      43.249  25.828  27.605  1.00  0.00     0.034 A 
ATOM     27  C   UNL A   1      43.896  29.215  33.517  1.00  0.00     0.049 A 
ATOM     28  C   UNL A   1      44.262  25.994  28.679  1.00  0.00     0.074 A 
ATOM     29  C   UNL A   1      44.223  30.545  33.334  1.00  0.00     0.029 A 
ATOM     30  N   UNL A   1      44.838  28.507  32.807  1.00  0.00    -0.354 N 
ATOM     31  N   UNL A   1      45.111  26.986  28.711  1.00  0.00    -0.248 NA
ATOM     32  C   UNL A   1      43.992  25.370  29.967  1.00  0.00     0.031 C 
ATOM     33  C   UNL A   1      44.969  30.568  32.119  1.00  0.00     0.029 A 
ATOM     34  C   UNL A   1      45.124  29.249  31.685  1.00  0.00     0.049 A 
ATOM     35  H   UNL A   1      45.231  27.639  33.052  1.00  0.00     0.167 HD
ATOM     36  C   UNL A   1      45.150  27.385  30.038  1.00  0.00     0.074 A 
ATOM     37  C   UNL A   1      44.502  26.302  30.780  1.00  0.00     0.031 C 
ATOM     38  C   UNL A   1      45.433  28.676  30.391  1.00  0.00     0.034 A 
BRANCH  25  39
ATOM     39  C   UNL A   1      42.787  27.377  34.966  1.00  0.00     0.023 A 
ATOM     40  C   UNL A   1      43.537  26.243  34.595  1.00  0.00     0.031 A 
ATOM     41  C   UNL A   1      41.929  27.206  36.078  1.00  0.00     0.131 A 
ATOM     42  C   UNL A   1      43.335  25.003  35.228  1.00  0.00     0.055 A 
ATOM     43  C   UNL A   1      41.782  25.987  36.745  1.00  0.00     0.041 A 
ATOM     44  F   UNL A   1      41.117  28.170  36.524  1.00  0.00    -0.206 F 
ATOM     45  C   UNL A   1      42.458  24.867  36.300  1.00  0.00     0.022 A 
BRANCH  42  46
ATOM     46  S   UNL A   1      44.091  23.527  34.495  1.00  0.00     0.124 S 
ATOM     47  O   UNL A   1      45.163  24.110  33.694  1.00  0.00    -0.237 OA
ATOM     48  O   UNL A   1      44.503  22.784  35.681  1.00  0.00    -0.237 OA
ATOM     49  O   UNL A   1      42.997  22.930  33.733  1.00  0.00    -0.744 OA
ENDBRANCH  42  46
ENDBRANCH  25  39
BRANCH  26  50
ATOM     50  C   UNL A   1      42.941  24.521  26.942  1.00  0.00     0.023 A 
ATOM     51  C   UNL A   1      43.839  23.840  26.090  1.00  0.00     0.031 A 
ATOM     52  C   UNL A   1      41.783  23.807  27.330  1.00  0.00     0.131 A 
ATOM     53  C   UNL A   1      43.548  22.521  25.651  1.00  0.00     0.055 A 
ATOM     54  C   UNL A   1      41.500  22.511  26.891  1.00  0.00     0.041 A 
ATOM     55  F   UNL A   1      40.918  24.317  28.220  1.00  0.00    -0.206 F 
ATOM     56  C   UNL A   1      42.385  21.860  26.052  1.00  0.00     0.022 A 
BRANCH  53  57
ATOM     57  S   UNL A   1      44.717  21.605  24.588  1.00  0.00     0.124 S 
ATOM     58  O   UNL A   1      45.994  21.858  25.233  1.00  0.00    -0.237 OA
ATOM     59  O   UNL A   1      44.205  20.237  24.668  1.00  0.00    -0.237 OA
ATOM     60  O   UNL A   1      44.554  22.235  23.275  1.00  0.00    -0.744 OA
ENDBRANCH  53  57
ENDBRANCH  26  50
BRANCH  38  61
ATOM     61  C   UNL A   1      45.897  29.637  29.314  1.00  0.00     0.023 A 
ATOM     62  C   UNL A   1      45.037  30.340  28.436  1.00  0.00     0.031 A 
ATOM     63  C   UNL A   1      47.262  29.968  29.291  1.00  0.00     0.131 A 
ATOM     64  C   UNL A   1      45.559  31.328  27.575  1.00  0.00     0.055 A 
ATOM     65  C   UNL A   1      47.772  30.959  28.452  1.00  0.00     0.041 A 
ATOM     66  F   UNL A   1      48.122  29.362  30.126  1.00  0.00    -0.206 F 
ATOM     67  C   UNL A   1      46.923  31.641  27.589  1.00  0.00     0.022 A 
BRANCH  64  68
ATOM     68  S   UNL A   1      44.473  32.230  26.422  1.00  0.00     0.124 S 
ATOM     69  O   UNL A   1      43.955  33.327  27.230  1.00  0.00    -0.237 OA
ATOM     70  O   UNL A   1      45.387  32.602  25.345  1.00  0.00    -0.237 OA
ATOM     71  O   UNL A   1      43.471  31.229  26.044  1.00  0.00    -0.744 OA
ENDBRANCH  64  68
ENDBRANCH  38  61
ENDBRANCH  12  13
ENDBRANCH   5   7
ENDBRANCH   2   3
ENDBRANCH   1   2
BRANCH   1  72
ATOM     72  C   UNL A   1      32.085  28.286  27.325  1.00  0.00     0.023 C 
BRANCH  72  73
ATOM     73  C   UNL A   1      32.478  26.994  26.617  1.00  0.00     0.116 C 
BRANCH  73  74
ATOM     74  N   UNL A   1      31.580  25.881  26.888  1.00  0.00    -0.354 N 
ATOM     75  C   UNL A   1      31.778  24.540  26.768  1.00  0.00     0.243 C 
ATOM     76  H   UNL A   1      30.686  26.140  27.209  1.00  0.00     0.163 HD
ATOM     77  O   UNL A   1      30.963  23.791  27.313  1.00  0.00    -0.273 OA
BRANCH  75  78
ATOM     78  C   UNL A   1      32.947  23.986  25.950  1.00  0.00     0.181 C 
ATOM     79  C   UNL A   1      33.112  22.480  26.308  1.00  0.00     0.091 C 
ATOM     80  N   UNL A   1      33.048  24.190  24.462  1.00  0.00    -0.320 N 
ATOM     81  C   UNL A   1      34.343  22.013  25.625  1.00  0.00     0.042 A 
ATOM     82  C   UNL A   1      34.397  23.895  23.904  1.00  0.00     0.178 C 
ATOM     83  N   UNL A   1      35.159  20.973  25.947  1.00  0.00    -0.348 N 
ATOM     84  C   UNL A   1      34.924  22.637  24.540  1.00  0.00     0.081 A 
ATOM     85  C   UNL A   1      36.201  21.005  25.058  1.00  0.00     0.197 A 
ATOM     86  H   UNL A   1      35.026  20.324  26.675  1.00  0.00     0.167 HD
ATOM     87  N   UNL A   1      36.090  22.001  24.202  1.00  0.00    -0.240 NA
BRANCH  80  88
ATOM     88  C   UNL A   1      32.005  24.235  23.534  1.00  0.00     0.256 C 
ATOM     89  O   UNL A   1      31.688  23.286  22.818  1.00  0.00    -0.269 OA
BRANCH  88  90
ATOM     90  C   UNL A   1      31.215  25.456  23.340  1.00  0.00     0.061 A 
ATOM     91  C   UNL A   1      29.904  25.465  23.820  1.00  0.00     0.035 A 
ATOM     92  C   UNL A   1      31.696  26.537  22.605  1.00  0.00     0.072 A 
ATOM     93  C   UNL A   1      29.156  26.613  23.633  1.00  0.00     0.112 A 
ATOM     94  C   UNL A   1      30.873  27.648  22.496  1.00  0.00     0.132 A 
ATOM     95  Cl  UNL A   1      33.213  26.524  21.803  1.00  0.00    -0.082 Cl
ATOM     96  N   UNL A   1      29.617  27.716  23.004  1.00  0.00    -0.263 NA
ENDBRANCH  88  90
ENDBRANCH  80  88
ENDBRANCH  75  78
ENDBRANCH  73  74
ENDBRANCH  72  73
ENDBRANCH   1  72
TORSDOF 16
ENDMDL
