MODEL 1
REMARK VINA RESULT:     -12.3      0.000      0.000
REMARK SMILES O=C(NCCCCNC(=O)c1cccc(S(=O)(=O)NC[C@@H]2COc3ccccc3O2)c1)c1ccc(-c2c3nc(c(-c4cc(S(=O)(=O)[O-])ccc4F)c4ccc([nH]4)c(-c4cc(S(=O)(=O)[O-])ccc4F)c4nc(c(-c5cc(S(=O)(=O)[O-])ccc5F)c5ccc2[nH]5)C=C4)C=C3)cc1
REMARK SMILES IDX 6 1 5 2 4 3 3 4 1 5 2 6 32 8 33 9 94 10 34 11 93 12 35 13
REMARK SMILES IDX 36 14 37 15 87 16 38 17 92 18 86 19 88 20 39 21 91 22 85 23
REMARK SMILES IDX 84 24 40 26 72 27 52 28 71 29 53 30 56 31 70 32 89 33 54 34
REMARK SMILES IDX 55 35 69 37 90 38 57 39 41 40 42 41 50 42 43 43 49 44 51 45
REMARK SMILES IDX 48 46 44 47 45 48 46 49 47 50 73 51 74 52 82 53 75 54 81 55
REMARK SMILES IDX 83 56 80 57 76 58 77 59 78 60 79 61 58 62 59 63 67 64 60 65
REMARK SMILES IDX 66 66 68 67 65 68 61 69 62 70 63 71 64 72 7 73 8 74 9 75
REMARK SMILES IDX 10 77 11 78 12 79 31 80 13 81 15 82 14 83 16 84 17 85 18 86
REMARK SMILES IDX 19 87 20 89 21 90 22 91 30 92 23 93 29 94 24 95 28 96 25 97
REMARK SMILES IDX 27 98 26 99
REMARK H PARENT 3 7 88 25 56 36 8 76 19 88
REMARK Flexibility Score: inf
ROOT
ATOM      1  C   UNL A   1      34.273  28.212  23.935  1.00  0.00     0.023 C 
ENDROOT
BRANCH   1   2
ATOM      2  C   UNL A   1      33.324  28.419  25.119  1.00  0.00     0.023 C 
BRANCH   2   3
ATOM      3  C   UNL A   1      33.993  28.713  26.460  1.00  0.00     0.116 C 
BRANCH   3   4
ATOM      4  N   UNL A   1      33.836  30.100  26.869  1.00  0.00    -0.352 N 
ATOM      5  O   UNL A   1      34.182  31.969  28.066  1.00  0.00    -0.269 OA
ATOM      6  C   UNL A   1      34.596  30.864  27.721  1.00  0.00     0.251 C 
ATOM      7  H   UNL A   1      33.064  30.565  26.473  1.00  0.00     0.163 HD
BRANCH   6   8
ATOM      8  C   UNL A   1      35.888  30.364  28.239  1.00  0.00     0.039 A 
ATOM      9  C   UNL A   1      37.073  30.531  27.518  1.00  0.00     0.014 A 
ATOM     10  C   UNL A   1      35.917  29.752  29.496  1.00  0.00     0.014 A 
ATOM     11  C   UNL A   1      38.263  29.980  27.993  1.00  0.00     0.010 A 
ATOM     12  C   UNL A   1      37.121  29.256  30.001  1.00  0.00     0.010 A 
ATOM     13  C   UNL A   1      38.300  29.339  29.241  1.00  0.00    -0.014 A 
BRANCH  13  14
ATOM     14  C   UNL A   1      39.570  28.776  29.762  1.00  0.00     0.031 A 
ATOM     15  C   UNL A   1      40.310  29.465  30.875  1.00  0.00     0.074 A 
ATOM     16  C   UNL A   1      40.076  27.657  29.209  1.00  0.00     0.049 A 
ATOM     17  N   UNL A   1      41.477  29.186  31.394  1.00  0.00    -0.248 NA
ATOM     18  C   UNL A   1      39.648  30.634  31.473  1.00  0.00     0.031 C 
ATOM     19  C   UNL A   1      39.449  26.899  28.125  1.00  0.00     0.029 A 
ATOM     20  N   UNL A   1      41.236  26.972  29.468  1.00  0.00    -0.354 N 
ATOM     21  C   UNL A   1      41.705  30.155  32.365  1.00  0.00     0.074 A 
ATOM     22  C   UNL A   1      40.565  31.048  32.335  1.00  0.00     0.031 C 
ATOM     23  C   UNL A   1      40.232  25.857  27.810  1.00  0.00     0.029 A 
ATOM     24  C   UNL A   1      41.441  25.905  28.626  1.00  0.00     0.049 A 
ATOM     25  H   UNL A   1      41.860  27.221  30.188  1.00  0.00     0.167 HD
ATOM     26  C   UNL A   1      42.763  30.282  33.207  1.00  0.00     0.034 A 
ATOM     27  C   UNL A   1      42.499  25.083  28.493  1.00  0.00     0.034 A 
ATOM     28  C   UNL A   1      43.893  29.381  33.217  1.00  0.00     0.049 A 
ATOM     29  C   UNL A   1      43.688  25.269  29.395  1.00  0.00     0.074 A 
ATOM     30  C   UNL A   1      44.999  29.390  34.049  1.00  0.00     0.029 A 
ATOM     31  N   UNL A   1      44.070  28.316  32.339  1.00  0.00    -0.354 N 
ATOM     32  N   UNL A   1      43.884  26.179  30.321  1.00  0.00    -0.248 NA
ATOM     33  C   UNL A   1      44.794  24.316  29.239  1.00  0.00     0.031 C 
ATOM     34  C   UNL A   1      45.872  28.377  33.634  1.00  0.00     0.029 A 
ATOM     35  C   UNL A   1      45.279  27.685  32.589  1.00  0.00     0.049 A 
ATOM     36  H   UNL A   1      43.428  28.050  31.642  1.00  0.00     0.167 HD
ATOM     37  C   UNL A   1      45.127  25.893  30.875  1.00  0.00     0.074 A 
ATOM     38  C   UNL A   1      45.634  24.727  30.179  1.00  0.00     0.031 C 
ATOM     39  C   UNL A   1      45.780  26.531  31.878  1.00  0.00     0.034 A 
BRANCH  26  40
ATOM     40  C   UNL A   1      42.764  31.469  34.142  1.00  0.00     0.023 A 
ATOM     41  C   UNL A   1      42.122  31.427  35.393  1.00  0.00     0.031 A 
ATOM     42  C   UNL A   1      43.369  32.679  33.756  1.00  0.00     0.131 A 
ATOM     43  C   UNL A   1      42.019  32.594  36.167  1.00  0.00     0.055 A 
ATOM     44  C   UNL A   1      43.339  33.812  34.571  1.00  0.00     0.041 A 
ATOM     45  F   UNL A   1      43.981  32.788  32.567  1.00  0.00    -0.206 F 
ATOM     46  C   UNL A   1      42.643  33.779  35.776  1.00  0.00     0.022 A 
BRANCH  43  47
ATOM     47  S   UNL A   1      40.907  32.581  37.601  1.00  0.00     0.124 S 
ATOM     48  O   UNL A   1      41.710  31.871  38.595  1.00  0.00    -0.237 OA
ATOM     49  O   UNL A   1      40.695  34.003  37.848  1.00  0.00    -0.237 OA
ATOM     50  O   UNL A   1      39.737  31.848  37.122  1.00  0.00    -0.744 OA
ENDBRANCH  43  47
ENDBRANCH  26  40
BRANCH  27  51
ATOM     51  C   UNL A   1      42.490  24.048  27.425  1.00  0.00     0.023 A 
ATOM     52  C   UNL A   1      41.913  22.788  27.636  1.00  0.00     0.031 A 
ATOM     53  C   UNL A   1      43.036  24.326  26.159  1.00  0.00     0.131 A 
ATOM     54  C   UNL A   1      41.909  21.842  26.599  1.00  0.00     0.055 A 
ATOM     55  C   UNL A   1      42.995  23.397  25.118  1.00  0.00     0.041 A 
ATOM     56  F   UNL A   1      43.588  25.523  25.906  1.00  0.00    -0.206 F 
ATOM     57  C   UNL A   1      42.433  22.144  25.338  1.00  0.00     0.022 A 
BRANCH  54  58
ATOM     58  S   UNL A   1      41.229  20.193  26.925  1.00  0.00     0.124 S 
ATOM     59  O   UNL A   1      42.396  19.344  26.720  1.00  0.00    -0.237 OA
ATOM     60  O   UNL A   1      40.765  20.324  28.302  1.00  0.00    -0.237 OA
ATOM     61  O   UNL A   1      40.172  20.057  25.926  1.00  0.00    -0.744 OA
ENDBRANCH  54  58
ENDBRANCH  27  51
BRANCH  39  62
ATOM     62  C   UNL A   1      47.098  25.947  32.320  1.00  0.00     0.023 A 
ATOM     63  C   UNL A   1      48.294  26.200  31.628  1.00  0.00     0.031 A 
ATOM     64  C   UNL A   1      47.150  25.132  33.465  1.00  0.00     0.131 A 
ATOM     65  C   UNL A   1      49.490  25.615  32.069  1.00  0.00     0.055 A 
ATOM     66  C   UNL A   1      48.351  24.591  33.926  1.00  0.00     0.041 A 
ATOM     67  F   UNL A   1      46.035  24.859  34.161  1.00  0.00    -0.206 F 
ATOM     68  C   UNL A   1      49.530  24.826  33.222  1.00  0.00     0.022 A 
BRANCH  65  69
ATOM     69  S   UNL A   1      50.998  25.856  31.089  1.00  0.00     0.124 S 
ATOM     70  O   UNL A   1      51.133  27.309  31.095  1.00  0.00    -0.237 OA
ATOM     71  O   UNL A   1      51.995  25.119  31.860  1.00  0.00    -0.237 OA
ATOM     72  O   UNL A   1      50.663  25.269  29.793  1.00  0.00    -0.744 OA
ENDBRANCH  65  69
ENDBRANCH  39  62
ENDBRANCH  13  14
ENDBRANCH   6   8
ENDBRANCH   3   4
ENDBRANCH   2   3
ENDBRANCH   1   2
BRANCH   1  73
ATOM     73  C   UNL A   1      33.740  28.649  22.574  1.00  0.00     0.116 C 
BRANCH  73  74
ATOM     74  N   UNL A   1      33.661  27.550  21.628  1.00  0.00    -0.352 N 
ATOM     75  C   UNL A   1      32.860  26.437  21.619  1.00  0.00     0.251 C 
ATOM     76  H   UNL A   1      34.285  27.613  20.869  1.00  0.00     0.163 HD
ATOM     77  O   UNL A   1      33.071  25.548  20.799  1.00  0.00    -0.269 OA
BRANCH  75  78
ATOM     78  C   UNL A   1      31.698  26.299  22.529  1.00  0.00     0.041 A 
ATOM     79  C   UNL A   1      30.637  27.204  22.420  1.00  0.00     0.014 A 
ATOM     80  C   UNL A   1      31.725  25.407  23.599  1.00  0.00     0.035 A 
ATOM     81  C   UNL A   1      29.609  27.203  23.370  1.00  0.00     0.002 A 
ATOM     82  C   UNL A   1      30.737  25.452  24.581  1.00  0.00     0.083 A 
ATOM     83  C   UNL A   1      29.664  26.335  24.464  1.00  0.00     0.022 A 
BRANCH  82  84
ATOM     84  S   UNL A   1      30.880  24.432  26.028  1.00  0.00     0.240 S 
ATOM     85  O   UNL A   1      32.232  24.538  26.521  1.00  0.00    -0.207 OA
ATOM     86  O   UNL A   1      29.728  24.724  26.850  1.00  0.00    -0.207 OA
BRANCH  84  87
ATOM     87  N   UNL A   1      30.633  22.864  25.440  1.00  0.00    -0.207 NA
ATOM     88  H   UNL A   1      30.409  22.955  24.450  1.00  0.00     0.141 HD
BRANCH  87  89
ATOM     89  C   UNL A   1      31.707  21.835  25.540  1.00  0.00     0.147 C 
BRANCH  89  90
ATOM     90  C   UNL A   1      32.261  21.294  24.204  1.00  0.00     0.226 C 
ATOM     91  C   UNL A   1      32.995  19.954  24.308  1.00  0.00     0.276 C 
ATOM     92  O   UNL A   1      33.129  22.293  23.624  1.00  0.00    -0.482 OA
ATOM     93  O   UNL A   1      34.151  20.049  25.142  1.00  0.00    -0.486 OA
ATOM     94  C   UNL A   1      34.450  22.149  23.963  1.00  0.00     0.161 A 
ATOM     95  C   UNL A   1      34.946  21.072  24.702  1.00  0.00     0.161 A 
ATOM     96  C   UNL A   1      35.320  23.139  23.515  1.00  0.00     0.050 A 
ATOM     97  C   UNL A   1      36.299  20.997  25.022  1.00  0.00     0.050 A 
ATOM     98  C   UNL A   1      36.682  23.054  23.811  1.00  0.00     0.004 A 
ATOM     99  C   UNL A   1      37.170  21.986  24.568  1.00  0.00     0.004 A 
ENDBRANCH  89  90
ENDBRANCH  87  89
ENDBRANCH  84  87
ENDBRANCH  82  84
ENDBRANCH  75  78
ENDBRANCH  73  74
ENDBRANCH   1  73
TORSDOF 18
ENDMDL
MODEL 2
REMARK VINA RESULT:     -12.2      2.729      7.753
REMARK SMILES O=C(NCCCCNC(=O)c1cccc(S(=O)(=O)NC[C@@H]2COc3ccccc3O2)c1)c1ccc(-c2c3nc(c(-c4cc(S(=O)(=O)[O-])ccc4F)c4ccc([nH]4)c(-c4cc(S(=O)(=O)[O-])ccc4F)c4nc(c(-c5cc(S(=O)(=O)[O-])ccc5F)c5ccc2[nH]5)C=C4)C=C3)cc1
REMARK SMILES IDX 6 1 5 2 4 3 3 4 1 5 2 6 32 8 33 9 94 10 34 11 93 12 35 13
REMARK SMILES IDX 36 14 37 15 87 16 38 17 92 18 86 19 88 20 39 21 91 22 85 23
REMARK SMILES IDX 84 24 40 26 72 27 52 28 71 29 53 30 56 31 70 32 89 33 54 34
REMARK SMILES IDX 55 35 69 37 90 38 57 39 41 40 42 41 50 42 43 43 49 44 51 45
REMARK SMILES IDX 48 46 44 47 45 48 46 49 47 50 73 51 74 52 82 53 75 54 81 55
REMARK SMILES IDX 83 56 80 57 76 58 77 59 78 60 79 61 58 62 59 63 67 64 60 65
REMARK SMILES IDX 66 66 68 67 65 68 61 69 62 70 63 71 64 72 7 73 8 74 9 75
REMARK SMILES IDX 10 77 11 78 12 79 31 80 13 81 15 82 14 83 16 84 17 85 18 86
REMARK SMILES IDX 19 87 20 89 21 90 22 91 30 92 23 93 29 94 24 95 28 96 25 97
REMARK SMILES IDX 27 98 26 99
REMARK H PARENT 3 7 88 25 56 36 8 76 19 88
REMARK Flexibility Score: inf
ROOT
ATOM      1  C   UNL A   1      33.440  28.669  24.322  1.00  0.00     0.023 C 
ENDROOT
BRANCH   1   2
ATOM      2  C   UNL A   1      32.123  28.982  25.037  1.00  0.00     0.023 C 
BRANCH   2   3
ATOM      3  C   UNL A   1      32.255  29.525  26.458  1.00  0.00     0.116 C 
BRANCH   3   4
ATOM      4  N   UNL A   1      32.128  30.973  26.517  1.00  0.00    -0.352 N 
ATOM      5  O   UNL A   1      32.483  33.065  27.251  1.00  0.00    -0.269 OA
ATOM      6  C   UNL A   1      32.873  31.901  27.202  1.00  0.00     0.251 C 
ATOM      7  H   UNL A   1      31.391  31.346  25.981  1.00  0.00     0.163 HD
BRANCH   6   8
ATOM      8  C   UNL A   1      34.122  31.510  27.892  1.00  0.00     0.039 A 
ATOM      9  C   UNL A   1      34.400  30.172  28.188  1.00  0.00     0.014 A 
ATOM     10  C   UNL A   1      35.054  32.503  28.210  1.00  0.00     0.014 A 
ATOM     11  C   UNL A   1      35.546  29.841  28.909  1.00  0.00     0.010 A 
ATOM     12  C   UNL A   1      36.234  32.162  28.876  1.00  0.00     0.010 A 
ATOM     13  C   UNL A   1      36.476  30.831  29.258  1.00  0.00    -0.014 A 
BRANCH  13  14
ATOM     14  C   UNL A   1      37.712  30.478  30.002  1.00  0.00     0.031 A 
ATOM     15  C   UNL A   1      38.742  29.575  29.383  1.00  0.00     0.074 A 
ATOM     16  C   UNL A   1      37.890  30.947  31.251  1.00  0.00     0.049 A 
ATOM     17  N   UNL A   1      39.830  29.073  29.908  1.00  0.00    -0.248 NA
ATOM     18  C   UNL A   1      38.505  29.174  27.988  1.00  0.00     0.031 C 
ATOM     19  C   UNL A   1      36.962  31.831  31.957  1.00  0.00     0.029 A 
ATOM     20  N   UNL A   1      38.900  30.734  32.154  1.00  0.00    -0.354 N 
ATOM     21  C   UNL A   1      40.400  28.279  28.919  1.00  0.00     0.074 A 
ATOM     22  C   UNL A   1      39.514  28.341  27.775  1.00  0.00     0.031 C 
ATOM     23  C   UNL A   1      37.443  32.083  33.183  1.00  0.00     0.029 A 
ATOM     24  C   UNL A   1      38.680  31.333  33.372  1.00  0.00     0.049 A 
ATOM     25  H   UNL A   1      39.705  30.203  31.950  1.00  0.00     0.167 HD
ATOM     26  C   UNL A   1      41.557  27.570  28.962  1.00  0.00     0.034 A 
ATOM     27  C   UNL A   1      39.371  31.255  34.526  1.00  0.00     0.034 A 
ATOM     28  C   UNL A   1      42.424  27.518  30.116  1.00  0.00     0.049 A 
ATOM     29  C   UNL A   1      40.622  30.422  34.575  1.00  0.00     0.074 A 
ATOM     30  C   UNL A   1      43.638  26.866  30.259  1.00  0.00     0.029 A 
ATOM     31  N   UNL A   1      42.162  28.130  31.337  1.00  0.00    -0.354 N 
ATOM     32  N   UNL A   1      41.160  29.689  33.628  1.00  0.00    -0.248 NA
ATOM     33  C   UNL A   1      41.362  30.410  35.843  1.00  0.00     0.031 C 
ATOM     34  C   UNL A   1      44.073  27.029  31.580  1.00  0.00     0.029 A 
ATOM     35  C   UNL A   1      43.171  27.844  32.244  1.00  0.00     0.049 A 
ATOM     36  H   UNL A   1      41.373  28.687  31.529  1.00  0.00     0.167 HD
ATOM     37  C   UNL A   1      42.315  29.146  34.180  1.00  0.00     0.074 A 
ATOM     38  C   UNL A   1      42.396  29.637  35.541  1.00  0.00     0.031 C 
ATOM     39  C   UNL A   1      43.232  28.328  33.605  1.00  0.00     0.034 A 
BRANCH  26  40
ATOM     40  C   UNL A   1      41.914  26.755  27.740  1.00  0.00     0.023 A 
ATOM     41  C   UNL A   1      41.752  25.359  27.707  1.00  0.00     0.031 A 
ATOM     42  C   UNL A   1      42.473  27.376  26.609  1.00  0.00     0.131 A 
ATOM     43  C   UNL A   1      42.230  24.622  26.612  1.00  0.00     0.055 A 
ATOM     44  C   UNL A   1      42.867  26.647  25.485  1.00  0.00     0.041 A 
ATOM     45  F   UNL A   1      42.670  28.703  26.585  1.00  0.00    -0.206 F 
ATOM     46  C   UNL A   1      42.765  25.259  25.491  1.00  0.00     0.022 A 
BRANCH  43  47
ATOM     47  S   UNL A   1      42.305  22.815  26.754  1.00  0.00     0.124 S 
ATOM     48  O   UNL A   1      41.297  22.554  27.779  1.00  0.00    -0.237 OA
ATOM     49  O   UNL A   1      41.971  22.379  25.403  1.00  0.00    -0.237 OA
ATOM     50  O   UNL A   1      43.684  22.561  27.170  1.00  0.00    -0.744 OA
ENDBRANCH  43  47
ENDBRANCH  26  40
BRANCH  27  51
ATOM     51  C   UNL A   1      38.853  31.949  35.735  1.00  0.00     0.023 A 
ATOM     52  C   UNL A   1      38.175  31.249  36.743  1.00  0.00     0.031 A 
ATOM     53  C   UNL A   1      39.064  33.329  35.910  1.00  0.00     0.131 A 
ATOM     54  C   UNL A   1      37.715  31.936  37.877  1.00  0.00     0.055 A 
ATOM     55  C   UNL A   1      38.640  34.000  37.057  1.00  0.00     0.041 A 
ATOM     56  F   UNL A   1      39.720  34.038  34.977  1.00  0.00    -0.206 F 
ATOM     57  C   UNL A   1      37.955  33.303  38.047  1.00  0.00     0.022 A 
BRANCH  54  58
ATOM     58  S   UNL A   1      36.770  31.021  39.126  1.00  0.00     0.124 S 
ATOM     59  O   UNL A   1      36.644  29.710  38.501  1.00  0.00    -0.237 OA
ATOM     60  O   UNL A   1      37.650  31.097  40.287  1.00  0.00    -0.237 OA
ATOM     61  O   UNL A   1      35.528  31.783  39.239  1.00  0.00    -0.744 OA
ENDBRANCH  54  58
ENDBRANCH  27  51
BRANCH  39  62
ATOM     62  C   UNL A   1      44.434  27.953  34.434  1.00  0.00     0.023 A 
ATOM     63  C   UNL A   1      44.430  26.837  35.287  1.00  0.00     0.031 A 
ATOM     64  C   UNL A   1      45.606  28.726  34.353  1.00  0.00     0.131 A 
ATOM     65  C   UNL A   1      45.569  26.543  36.053  1.00  0.00     0.055 A 
ATOM     66  C   UNL A   1      46.750  28.402  35.083  1.00  0.00     0.041 A 
ATOM     67  F   UNL A   1      45.660  29.804  33.554  1.00  0.00    -0.206 F 
ATOM     68  C   UNL A   1      46.733  27.308  35.945  1.00  0.00     0.022 A 
BRANCH  65  69
ATOM     69  S   UNL A   1      45.498  25.171  37.238  1.00  0.00     0.124 S 
ATOM     70  O   UNL A   1      44.291  24.468  36.815  1.00  0.00    -0.237 OA
ATOM     71  O   UNL A   1      46.759  24.478  36.992  1.00  0.00    -0.237 OA
ATOM     72  O   UNL A   1      45.403  25.840  38.534  1.00  0.00    -0.744 OA
ENDBRANCH  65  69
ENDBRANCH  39  62
ENDBRANCH  13  14
ENDBRANCH   6   8
ENDBRANCH   3   4
ENDBRANCH   2   3
ENDBRANCH   1   2
BRANCH   1  73
ATOM     73  C   UNL A   1      33.474  28.982  22.829  1.00  0.00     0.116 C 
BRANCH  73  74
ATOM     74  N   UNL A   1      33.684  27.797  22.016  1.00  0.00    -0.352 N 
ATOM     75  C   UNL A   1      33.027  26.594  22.008  1.00  0.00     0.251 C 
ATOM     76  H   UNL A   1      34.419  27.869  21.365  1.00  0.00     0.163 HD
ATOM     77  O   UNL A   1      33.476  25.666  21.340  1.00  0.00    -0.269 OA
BRANCH  75  78
ATOM     78  C   UNL A   1      31.748  26.392  22.729  1.00  0.00     0.041 A 
ATOM     79  C   UNL A   1      30.647  27.189  22.398  1.00  0.00     0.014 A 
ATOM     80  C   UNL A   1      31.675  25.558  23.843  1.00  0.00     0.035 A 
ATOM     81  C   UNL A   1      29.481  27.139  23.172  1.00  0.00     0.002 A 
ATOM     82  C   UNL A   1      30.540  25.558  24.652  1.00  0.00     0.083 A 
ATOM     83  C   UNL A   1      29.431  26.332  24.312  1.00  0.00     0.022 A 
BRANCH  82  84
ATOM     84  S   UNL A   1      30.530  24.626  26.163  1.00  0.00     0.240 S 
ATOM     85  O   UNL A   1      31.785  24.850  26.839  1.00  0.00    -0.207 OA
ATOM     86  O   UNL A   1      29.253  24.879  26.792  1.00  0.00    -0.207 OA
BRANCH  84  87
ATOM     87  N   UNL A   1      30.469  23.016  25.642  1.00  0.00    -0.207 NA
ATOM     88  H   UNL A   1      30.204  23.038  24.658  1.00  0.00     0.141 HD
BRANCH  87  89
ATOM     89  C   UNL A   1      31.670  22.138  25.739  1.00  0.00     0.147 C 
BRANCH  89  90
ATOM     90  C   UNL A   1      32.107  21.432  24.438  1.00  0.00     0.226 C 
ATOM     91  C   UNL A   1      32.801  20.082  24.642  1.00  0.00     0.276 C 
ATOM     92  O   UNL A   1      32.964  22.325  23.692  1.00  0.00    -0.482 OA
ATOM     93  O   UNL A   1      34.016  20.220  25.378  1.00  0.00    -0.486 OA
ATOM     94  C   UNL A   1      34.300  22.163  23.954  1.00  0.00     0.161 A 
ATOM     95  C   UNL A   1      34.812  21.154  24.774  1.00  0.00     0.161 A 
ATOM     96  C   UNL A   1      35.168  23.061  23.339  1.00  0.00     0.050 A 
ATOM     97  C   UNL A   1      36.181  21.059  25.007  1.00  0.00     0.050 A 
ATOM     98  C   UNL A   1      36.545  22.953  23.550  1.00  0.00     0.004 A 
ATOM     99  C   UNL A   1      37.050  21.955  24.386  1.00  0.00     0.004 A 
ENDBRANCH  89  90
ENDBRANCH  87  89
ENDBRANCH  84  87
ENDBRANCH  82  84
ENDBRANCH  75  78
ENDBRANCH  73  74
ENDBRANCH   1  73
TORSDOF 18
ENDMDL
MODEL 3
REMARK VINA RESULT:     -12.1      1.802      2.043
REMARK SMILES O=C(NCCCCNC(=O)c1cccc(S(=O)(=O)NC[C@@H]2COc3ccccc3O2)c1)c1ccc(-c2c3nc(c(-c4cc(S(=O)(=O)[O-])ccc4F)c4ccc([nH]4)c(-c4cc(S(=O)(=O)[O-])ccc4F)c4nc(c(-c5cc(S(=O)(=O)[O-])ccc5F)c5ccc2[nH]5)C=C4)C=C3)cc1
REMARK SMILES IDX 6 1 5 2 4 3 3 4 1 5 2 6 32 8 33 9 94 10 34 11 93 12 35 13
REMARK SMILES IDX 36 14 37 15 87 16 38 17 92 18 86 19 88 20 39 21 91 22 85 23
REMARK SMILES IDX 84 24 40 26 72 27 52 28 71 29 53 30 56 31 70 32 89 33 54 34
REMARK SMILES IDX 55 35 69 37 90 38 57 39 41 40 42 41 50 42 43 43 49 44 51 45
REMARK SMILES IDX 48 46 44 47 45 48 46 49 47 50 73 51 74 52 82 53 75 54 81 55
REMARK SMILES IDX 83 56 80 57 76 58 77 59 78 60 79 61 58 62 59 63 67 64 60 65
REMARK SMILES IDX 66 66 68 67 65 68 61 69 62 70 63 71 64 72 7 73 8 74 9 75
REMARK SMILES IDX 10 77 11 78 12 79 31 80 13 81 15 82 14 83 16 84 17 85 18 86
REMARK SMILES IDX 19 87 20 89 21 90 22 91 30 92 23 93 29 94 24 95 28 96 25 97
REMARK SMILES IDX 27 98 26 99
REMARK H PARENT 3 7 88 25 56 36 8 76 19 88
REMARK Flexibility Score: inf
ROOT
ATOM      1  C   UNL A   1      34.191  28.202  23.974  1.00  0.00     0.023 C 
ENDROOT
BRANCH   1   2
ATOM      2  C   UNL A   1      33.250  28.603  25.113  1.00  0.00     0.023 C 
BRANCH   2   3
ATOM      3  C   UNL A   1      33.922  28.915  26.448  1.00  0.00     0.116 C 
BRANCH   3   4
ATOM      4  N   UNL A   1      33.789  30.314  26.827  1.00  0.00    -0.352 N 
ATOM      5  O   UNL A   1      34.146  32.196  27.998  1.00  0.00    -0.269 OA
ATOM      6  C   UNL A   1      34.541  31.074  27.687  1.00  0.00     0.251 C 
ATOM      7  H   UNL A   1      33.041  30.790  26.398  1.00  0.00     0.163 HD
BRANCH   6   8
ATOM      8  C   UNL A   1      35.804  30.551  28.254  1.00  0.00     0.039 A 
ATOM      9  C   UNL A   1      37.037  30.825  27.656  1.00  0.00     0.014 A 
ATOM     10  C   UNL A   1      35.752  29.806  29.436  1.00  0.00     0.014 A 
ATOM     11  C   UNL A   1      38.202  30.254  28.167  1.00  0.00     0.010 A 
ATOM     12  C   UNL A   1      36.927  29.288  29.984  1.00  0.00     0.010 A 
ATOM     13  C   UNL A   1      38.160  29.482  29.337  1.00  0.00    -0.014 A 
BRANCH  13  14
ATOM     14  C   UNL A   1      39.403  28.895  29.900  1.00  0.00     0.031 A 
ATOM     15  C   UNL A   1      40.076  29.529  31.085  1.00  0.00     0.074 A 
ATOM     16  C   UNL A   1      39.943  27.807  29.320  1.00  0.00     0.049 A 
ATOM     17  N   UNL A   1      41.214  29.227  31.653  1.00  0.00    -0.248 NA
ATOM     18  C   UNL A   1      39.376  30.665  31.703  1.00  0.00     0.031 C 
ATOM     19  C   UNL A   1      39.381  27.103  28.166  1.00  0.00     0.029 A 
ATOM     20  N   UNL A   1      41.090  27.113  29.608  1.00  0.00    -0.354 N 
ATOM     21  C   UNL A   1      41.383  30.145  32.684  1.00  0.00     0.074 A 
ATOM     22  C   UNL A   1      40.242  31.037  32.635  1.00  0.00     0.031 C 
ATOM     23  C   UNL A   1      40.185  26.080  27.843  1.00  0.00     0.029 A 
ATOM     24  C   UNL A   1      41.347  26.090  28.725  1.00  0.00     0.049 A 
ATOM     25  H   UNL A   1      41.673  27.326  30.373  1.00  0.00     0.167 HD
ATOM     26  C   UNL A   1      42.393  30.232  33.588  1.00  0.00     0.034 A 
ATOM     27  C   UNL A   1      42.415  25.278  28.610  1.00  0.00     0.034 A 
ATOM     28  C   UNL A   1      43.524  29.334  33.615  1.00  0.00     0.049 A 
ATOM     29  C   UNL A   1      43.551  25.421  29.585  1.00  0.00     0.074 A 
ATOM     30  C   UNL A   1      44.583  29.303  34.507  1.00  0.00     0.029 A 
ATOM     31  N   UNL A   1      43.755  28.316  32.696  1.00  0.00    -0.354 N 
ATOM     32  N   UNL A   1      43.691  26.282  30.565  1.00  0.00    -0.248 NA
ATOM     33  C   UNL A   1      44.669  24.479  29.443  1.00  0.00     0.031 C 
ATOM     34  C   UNL A   1      45.482  28.314  34.090  1.00  0.00     0.029 A 
ATOM     35  C   UNL A   1      44.951  27.676  32.980  1.00  0.00     0.049 A 
ATOM     36  H   UNL A   1      43.154  28.083  31.951  1.00  0.00     0.167 HD
ATOM     37  C   UNL A   1      44.903  25.972  31.172  1.00  0.00     0.074 A 
ATOM     38  C   UNL A   1      45.454  24.843  30.448  1.00  0.00     0.031 C 
ATOM     39  C   UNL A   1      45.497  26.560  32.241  1.00  0.00     0.034 A 
BRANCH  26  40
ATOM     40  C   UNL A   1      42.335  31.370  34.580  1.00  0.00     0.023 A 
ATOM     41  C   UNL A   1      42.902  32.626  34.302  1.00  0.00     0.031 A 
ATOM     42  C   UNL A   1      41.752  31.181  35.846  1.00  0.00     0.131 A 
ATOM     43  C   UNL A   1      42.958  33.609  35.303  1.00  0.00     0.055 A 
ATOM     44  C   UNL A   1      41.732  32.193  36.808  1.00  0.00     0.041 A 
ATOM     45  F   UNL A   1      41.210  30.000  36.180  1.00  0.00    -0.206 F 
ATOM     46  C   UNL A   1      42.356  33.409  36.546  1.00  0.00     0.022 A 
BRANCH  43  47
ATOM     47  S   UNL A   1      43.984  35.077  35.014  1.00  0.00     0.124 S 
ATOM     48  O   UNL A   1      45.305  34.484  34.816  1.00  0.00    -0.237 OA
ATOM     49  O   UNL A   1      43.364  35.667  33.833  1.00  0.00    -0.237 OA
ATOM     50  O   UNL A   1      43.836  35.847  36.249  1.00  0.00    -0.744 OA
ENDBRANCH  43  47
ENDBRANCH  26  40
BRANCH  27  51
ATOM     51  C   UNL A   1      42.470  24.298  27.492  1.00  0.00     0.023 A 
ATOM     52  C   UNL A   1      41.852  23.044  27.592  1.00  0.00     0.031 A 
ATOM     53  C   UNL A   1      43.122  24.625  26.290  1.00  0.00     0.131 A 
ATOM     54  C   UNL A   1      41.912  22.152  26.509  1.00  0.00     0.055 A 
ATOM     55  C   UNL A   1      43.145  23.751  25.202  1.00  0.00     0.041 A 
ATOM     56  F   UNL A   1      43.718  25.820  26.144  1.00  0.00    -0.206 F 
ATOM     57  C   UNL A   1      42.541  22.503  25.312  1.00  0.00     0.022 A 
BRANCH  54  58
ATOM     58  S   UNL A   1      41.172  20.506  26.695  1.00  0.00     0.124 S 
ATOM     59  O   UNL A   1      42.252  19.642  26.231  1.00  0.00    -0.237 OA
ATOM     60  O   UNL A   1      40.885  20.463  28.125  1.00  0.00    -0.237 OA
ATOM     61  O   UNL A   1      39.998  20.561  25.828  1.00  0.00    -0.744 OA
ENDBRANCH  54  58
ENDBRANCH  27  51
BRANCH  39  62
ATOM     62  C   UNL A   1      46.791  25.957  32.725  1.00  0.00     0.023 A 
ATOM     63  C   UNL A   1      46.819  24.914  33.667  1.00  0.00     0.031 A 
ATOM     64  C   UNL A   1      48.015  26.431  32.221  1.00  0.00     0.131 A 
ATOM     65  C   UNL A   1      48.051  24.400  34.100  1.00  0.00     0.055 A 
ATOM     66  C   UNL A   1      49.234  25.885  32.621  1.00  0.00     0.041 A 
ATOM     67  F   UNL A   1      48.042  27.427  31.321  1.00  0.00    -0.206 F 
ATOM     68  C   UNL A   1      49.257  24.868  33.572  1.00  0.00     0.022 A 
BRANCH  65  69
ATOM     69  S   UNL A   1      48.065  23.140  35.405  1.00  0.00     0.124 S 
ATOM     70  O   UNL A   1      48.341  21.923  34.648  1.00  0.00    -0.237 OA
ATOM     71  O   UNL A   1      49.137  23.605  36.279  1.00  0.00    -0.237 OA
ATOM     72  O   UNL A   1      46.722  23.223  35.977  1.00  0.00    -0.744 OA
ENDBRANCH  65  69
ENDBRANCH  39  62
ENDBRANCH  13  14
ENDBRANCH   6   8
ENDBRANCH   3   4
ENDBRANCH   2   3
ENDBRANCH   1   2
BRANCH   1  73
ATOM     73  C   UNL A   1      33.775  28.659  22.578  1.00  0.00     0.116 C 
BRANCH  73  74
ATOM     74  N   UNL A   1      33.686  27.559  21.635  1.00  0.00    -0.352 N 
ATOM     75  C   UNL A   1      32.865  26.461  21.622  1.00  0.00     0.251 C 
ATOM     76  H   UNL A   1      34.319  27.608  20.883  1.00  0.00     0.163 HD
ATOM     77  O   UNL A   1      33.068  25.565  20.807  1.00  0.00    -0.269 OA
BRANCH  75  78
ATOM     78  C   UNL A   1      31.691  26.348  22.520  1.00  0.00     0.041 A 
ATOM     79  C   UNL A   1      30.645  27.268  22.391  1.00  0.00     0.014 A 
ATOM     80  C   UNL A   1      31.692  25.463  23.596  1.00  0.00     0.035 A 
ATOM     81  C   UNL A   1      29.606  27.290  23.329  1.00  0.00     0.002 A 
ATOM     82  C   UNL A   1      30.694  25.531  24.567  1.00  0.00     0.083 A 
ATOM     83  C   UNL A   1      29.636  26.429  24.430  1.00  0.00     0.022 A 
BRANCH  82  84
ATOM     84  S   UNL A   1      30.805  24.520  26.023  1.00  0.00     0.240 S 
ATOM     85  O   UNL A   1      32.146  24.630  26.545  1.00  0.00    -0.207 OA
ATOM     86  O   UNL A   1      29.635  24.817  26.817  1.00  0.00    -0.207 OA
BRANCH  84  87
ATOM     87  N   UNL A   1      30.572  22.948  25.439  1.00  0.00    -0.207 NA
ATOM     88  H   UNL A   1      30.374  23.033  24.443  1.00  0.00     0.141 HD
BRANCH  87  89
ATOM     89  C   UNL A   1      31.642  21.919  25.575  1.00  0.00     0.147 C 
BRANCH  89  90
ATOM     90  C   UNL A   1      32.161  21.297  24.261  1.00  0.00     0.226 C 
ATOM     91  C   UNL A   1      32.929  19.983  24.432  1.00  0.00     0.276 C 
ATOM     92  O   UNL A   1      32.985  22.270  23.582  1.00  0.00    -0.482 OA
ATOM     93  O   UNL A   1      34.110  20.160  25.214  1.00  0.00    -0.486 OA
ATOM     94  C   UNL A   1      34.320  22.177  23.881  1.00  0.00     0.161 A 
ATOM     95  C   UNL A   1      34.866  21.166  24.676  1.00  0.00     0.161 A 
ATOM     96  C   UNL A   1      35.151  23.151  23.334  1.00  0.00     0.050 A 
ATOM     97  C   UNL A   1      36.231  21.142  24.951  1.00  0.00     0.050 A 
ATOM     98  C   UNL A   1      36.524  23.115  23.586  1.00  0.00     0.004 A 
ATOM     99  C   UNL A   1      37.062  22.114  24.397  1.00  0.00     0.004 A 
ENDBRANCH  89  90
ENDBRANCH  87  89
ENDBRANCH  84  87
ENDBRANCH  82  84
ENDBRANCH  75  78
ENDBRANCH  73  74
ENDBRANCH   1  73
TORSDOF 18
ENDMDL
