MODEL 1
REMARK VINA RESULT:     -11.6      0.000      0.000
REMARK SMILES COc1ccc(-c2nc(SCC(=O)NCCCCNC(=O)c3ccc(-c4c5nc(c(-c6cc(S(=O)(=O)[O-])ccc6F)c6ccc([nH]6)c(-c6cc(S(=O)(=O)[O-])ccc6F)c6nc(c(-c7cc(S(=O)(=O)[O-])ccc7F)c7ccc4[nH]7)C=C6)C=C5)cc3)[nH]c2C)cc1
REMARK SMILES IDX 16 1 15 2 14 3 12 4 13 5 11 7 10 8 9 9 7 10 8 11 86 12 85 13
REMARK SMILES IDX 87 14 6 16 3 17 4 18 89 19 5 20 88 21 2 22 1 23 17 24 18 25
REMARK SMILES IDX 19 26 20 27 21 29 22 30 23 31 84 32 24 33 83 34 25 35 26 36
REMARK SMILES IDX 27 37 77 38 28 39 82 40 76 41 78 42 29 43 81 44 75 45 74 46
REMARK SMILES IDX 30 48 62 49 42 50 61 51 43 52 46 53 60 54 79 55 44 56 45 57
REMARK SMILES IDX 59 59 80 60 47 61 31 62 32 63 40 64 33 65 39 66 41 67 38 68
REMARK SMILES IDX 34 69 35 70 36 71 37 72 63 73 64 74 72 75 65 76 71 77 73 78
REMARK SMILES IDX 70 79 66 80 67 81 68 82 69 83 48 84 49 85 57 86 50 87 56 88
REMARK SMILES IDX 58 89 55 90 51 91 52 92 53 93 54 94
REMARK H PARENT 14 6 85 15 19 28 78 47 46 58
REMARK Flexibility Score: inf
ROOT
ATOM      1  C   UNL A   1      31.927  30.254  26.656  1.00  0.00     0.023 C 
ENDROOT
BRANCH   1   2
ATOM      2  C   UNL A   1      31.627  29.702  25.262  1.00  0.00     0.116 C 
BRANCH   2   3
ATOM      3  N   UNL A   1      32.842  29.486  24.503  1.00  0.00    -0.355 N 
ATOM      4  C   UNL A   1      33.292  28.371  23.857  1.00  0.00     0.230 C 
ATOM      5  O   UNL A   1      34.346  28.476  23.223  1.00  0.00    -0.274 OA
ATOM      6  H   UNL A   1      33.438  30.268  24.442  1.00  0.00     0.163 HD
BRANCH   4   7
ATOM      7  C   UNL A   1      32.450  27.110  23.782  1.00  0.00     0.178 C 
BRANCH   7   8
ATOM      8  S   UNL A   1      32.407  26.120  25.299  1.00  0.00    -0.078 SA
BRANCH   8   9
ATOM      9  C   UNL A   1      33.171  24.664  24.810  1.00  0.00     0.166 A 
ATOM     10  C   UNL A   1      33.720  22.652  24.385  1.00  0.00     0.092 A 
ATOM     11  N   UNL A   1      32.704  23.445  24.869  1.00  0.00    -0.222 NA
ATOM     12  C   UNL A   1      34.816  23.416  24.020  1.00  0.00     0.040 A 
ATOM     13  N   UNL A   1      34.432  24.705  24.298  1.00  0.00    -0.337 N 
ATOM     14  C   UNL A   1      36.138  23.103  23.434  1.00  0.00     0.067 C 
ATOM     15  H   UNL A   1      34.973  25.515  24.153  1.00  0.00     0.168 HD
BRANCH  10  16
ATOM     16  C   UNL A   1      33.600  21.214  24.278  1.00  0.00     0.002 A 
ATOM     17  C   UNL A   1      33.397  18.428  24.059  1.00  0.00     0.118 A 
ATOM     18  C   UNL A   1      34.501  19.002  24.691  1.00  0.00     0.047 A 
ATOM     19  C   UNL A   1      32.381  19.242  23.557  1.00  0.00     0.047 A 
ATOM     20  C   UNL A   1      34.613  20.392  24.782  1.00  0.00     0.014 A 
ATOM     21  C   UNL A   1      32.485  20.631  23.662  1.00  0.00     0.014 A 
BRANCH  17  22
ATOM     22  O   UNL A   1      33.355  17.061  24.025  1.00  0.00    -0.497 OA
ATOM     23  C   UNL A   1      33.979  16.448  25.150  1.00  0.00     0.278 C 
ENDBRANCH  17  22
ENDBRANCH  10  16
ENDBRANCH   8   9
ENDBRANCH   7   8
ENDBRANCH   4   7
ENDBRANCH   2   3
ENDBRANCH   1   2
BRANCH   1  24
ATOM     24  C   UNL A   1      31.745  31.769  26.795  1.00  0.00     0.023 C 
BRANCH  24  25
ATOM     25  C   UNL A   1      32.966  32.530  27.302  1.00  0.00     0.116 C 
BRANCH  25  26
ATOM     26  N   UNL A   1      32.661  33.907  27.660  1.00  0.00    -0.352 N 
ATOM     27  C   UNL A   1      33.210  34.689  28.649  1.00  0.00     0.251 C 
ATOM     28  H   UNL A   1      31.965  34.340  27.117  1.00  0.00     0.163 HD
ATOM     29  O   UNL A   1      32.708  35.782  28.900  1.00  0.00    -0.269 OA
BRANCH  27  30
ATOM     30  C   UNL A   1      34.370  34.200  29.427  1.00  0.00     0.039 A 
ATOM     31  C   UNL A   1      34.139  33.419  30.563  1.00  0.00     0.014 A 
ATOM     32  C   UNL A   1      35.678  34.500  29.039  1.00  0.00     0.014 A 
ATOM     33  C   UNL A   1      35.221  32.883  31.267  1.00  0.00     0.010 A 
ATOM     34  C   UNL A   1      36.752  33.903  29.697  1.00  0.00     0.010 A 
ATOM     35  C   UNL A   1      36.536  33.087  30.818  1.00  0.00    -0.014 A 
BRANCH  35  36
ATOM     36  C   UNL A   1      37.693  32.451  31.506  1.00  0.00     0.031 A 
ATOM     37  C   UNL A   1      38.420  31.302  30.860  1.00  0.00     0.074 A 
ATOM     38  C   UNL A   1      38.051  32.869  32.737  1.00  0.00     0.049 A 
ATOM     39  N   UNL A   1      39.401  30.573  31.328  1.00  0.00    -0.248 NA
ATOM     40  C   UNL A   1      37.964  30.903  29.520  1.00  0.00     0.031 C 
ATOM     41  C   UNL A   1      37.402  33.948  33.483  1.00  0.00     0.029 A 
ATOM     42  N   UNL A   1      39.043  32.435  33.581  1.00  0.00    -0.354 N 
ATOM     43  C   UNL A   1      39.674  29.625  30.347  1.00  0.00     0.074 A 
ATOM     44  C   UNL A   1      38.710  29.834  29.287  1.00  0.00     0.031 C 
ATOM     45  C   UNL A   1      38.028  34.109  34.660  1.00  0.00     0.029 A 
ATOM     46  C   UNL A   1      39.089  33.115  34.778  1.00  0.00     0.049 A 
ATOM     47  H   UNL A   1      39.664  31.706  33.353  1.00  0.00     0.167 HD
ATOM     48  C   UNL A   1      40.651  28.685  30.322  1.00  0.00     0.034 A 
ATOM     49  C   UNL A   1      39.886  32.947  35.853  1.00  0.00     0.034 A 
ATOM     50  C   UNL A   1      41.608  28.494  31.386  1.00  0.00     0.049 A 
ATOM     51  C   UNL A   1      40.940  31.869  35.817  1.00  0.00     0.074 A 
ATOM     52  C   UNL A   1      42.667  27.604  31.442  1.00  0.00     0.029 A 
ATOM     53  N   UNL A   1      41.620  29.196  32.585  1.00  0.00    -0.354 N 
ATOM     54  N   UNL A   1      41.216  31.013  34.860  1.00  0.00    -0.248 NA
ATOM     55  C   UNL A   1      41.799  31.742  37.003  1.00  0.00     0.031 C 
ATOM     56  C   UNL A   1      43.269  27.715  32.699  1.00  0.00     0.029 A 
ATOM     57  C   UNL A   1      42.645  28.735  33.398  1.00  0.00     0.049 A 
ATOM     58  H   UNL A   1      40.991  29.915  32.823  1.00  0.00     0.167 HD
ATOM     59  C   UNL A   1      42.304  30.271  35.316  1.00  0.00     0.074 A 
ATOM     60  C   UNL A   1      42.640  30.792  36.625  1.00  0.00     0.031 C 
ATOM     61  C   UNL A   1      42.967  29.256  34.707  1.00  0.00     0.034 A 
BRANCH  48  62
ATOM     62  C   UNL A   1      40.713  27.776  29.117  1.00  0.00     0.023 A 
ATOM     63  C   UNL A   1      41.658  27.968  28.093  1.00  0.00     0.031 A 
ATOM     64  C   UNL A   1      39.803  26.714  28.977  1.00  0.00     0.131 A 
ATOM     65  C   UNL A   1      41.624  27.162  26.946  1.00  0.00     0.055 A 
ATOM     66  C   UNL A   1      39.830  25.860  27.872  1.00  0.00     0.041 A 
ATOM     67  F   UNL A   1      38.862  26.491  29.909  1.00  0.00    -0.206 F 
ATOM     68  C   UNL A   1      40.734  26.091  26.840  1.00  0.00     0.022 A 
BRANCH  65  69
ATOM     69  S   UNL A   1      42.662  27.625  25.532  1.00  0.00     0.124 S 
ATOM     70  O   UNL A   1      42.582  26.425  24.702  1.00  0.00    -0.237 OA
ATOM     71  O   UNL A   1      41.982  28.806  25.013  1.00  0.00    -0.237 OA
ATOM     72  O   UNL A   1      43.970  27.871  26.133  1.00  0.00    -0.744 OA
ENDBRANCH  65  69
ENDBRANCH  48  62
BRANCH  49  73
ATOM     73  C   UNL A   1      39.716  33.803  37.064  1.00  0.00     0.023 A 
ATOM     74  C   UNL A   1      39.046  33.324  38.201  1.00  0.00     0.031 A 
ATOM     75  C   UNL A   1      40.175  35.133  37.082  1.00  0.00     0.131 A 
ATOM     76  C   UNL A   1      38.805  34.182  39.286  1.00  0.00     0.055 A 
ATOM     77  C   UNL A   1      39.985  35.964  38.187  1.00  0.00     0.041 A 
ATOM     78  F   UNL A   1      40.823  35.642  36.023  1.00  0.00    -0.206 F 
ATOM     79  C   UNL A   1      39.282  35.494  39.292  1.00  0.00     0.022 A 
BRANCH  76  80
ATOM     80  S   UNL A   1      37.766  33.587  40.649  1.00  0.00     0.124 S 
ATOM     81  O   UNL A   1      37.422  34.833  41.325  1.00  0.00    -0.237 OA
ATOM     82  O   UNL A   1      36.680  32.924  39.934  1.00  0.00    -0.237 OA
ATOM     83  O   UNL A   1      38.656  32.698  41.391  1.00  0.00    -0.744 OA
ENDBRANCH  76  80
ENDBRANCH  49  73
BRANCH  61  84
ATOM     84  C   UNL A   1      44.161  28.680  35.431  1.00  0.00     0.023 A 
ATOM     85  C   UNL A   1      44.027  27.671  36.401  1.00  0.00     0.031 A 
ATOM     86  C   UNL A   1      45.454  29.161  35.154  1.00  0.00     0.131 A 
ATOM     87  C   UNL A   1      45.156  27.219  37.101  1.00  0.00     0.055 A 
ATOM     88  C   UNL A   1      46.581  28.660  35.805  1.00  0.00     0.041 A 
ATOM     89  F   UNL A   1      45.643  30.127  34.240  1.00  0.00    -0.206 F 
ATOM     90  C   UNL A   1      46.435  27.693  36.796  1.00  0.00     0.022 A 
BRANCH  87  91
ATOM     91  S   UNL A   1      44.922  26.075  38.490  1.00  0.00     0.124 S 
ATOM     92  O   UNL A   1      46.097  26.349  39.310  1.00  0.00    -0.237 OA
ATOM     93  O   UNL A   1      43.644  26.513  39.042  1.00  0.00    -0.237 OA
ATOM     94  O   UNL A   1      44.903  24.760  37.852  1.00  0.00    -0.744 OA
ENDBRANCH  87  91
ENDBRANCH  61  84
ENDBRANCH  35  36
ENDBRANCH  27  30
ENDBRANCH  25  26
ENDBRANCH  24  25
ENDBRANCH   1  24
TORSDOF 18
ENDMDL
MODEL 2
REMARK VINA RESULT:     -11.3      2.931      4.892
REMARK SMILES COc1ccc(-c2nc(SCC(=O)NCCCCNC(=O)c3ccc(-c4c5nc(c(-c6cc(S(=O)(=O)[O-])ccc6F)c6ccc([nH]6)c(-c6cc(S(=O)(=O)[O-])ccc6F)c6nc(c(-c7cc(S(=O)(=O)[O-])ccc7F)c7ccc4[nH]7)C=C6)C=C5)cc3)[nH]c2C)cc1
REMARK SMILES IDX 16 1 15 2 14 3 12 4 13 5 11 7 10 8 9 9 7 10 8 11 86 12 85 13
REMARK SMILES IDX 87 14 6 16 3 17 4 18 89 19 5 20 88 21 2 22 1 23 17 24 18 25
REMARK SMILES IDX 19 26 20 27 21 29 22 30 23 31 84 32 24 33 83 34 25 35 26 36
REMARK SMILES IDX 27 37 77 38 28 39 82 40 76 41 78 42 29 43 81 44 75 45 74 46
REMARK SMILES IDX 30 48 62 49 42 50 61 51 43 52 46 53 60 54 79 55 44 56 45 57
REMARK SMILES IDX 59 59 80 60 47 61 31 62 32 63 40 64 33 65 39 66 41 67 38 68
REMARK SMILES IDX 34 69 35 70 36 71 37 72 63 73 64 74 72 75 65 76 71 77 73 78
REMARK SMILES IDX 70 79 66 80 67 81 68 82 69 83 48 84 49 85 57 86 50 87 56 88
REMARK SMILES IDX 58 89 55 90 51 91 52 92 53 93 54 94
REMARK H PARENT 14 6 85 15 19 28 78 47 46 58
REMARK Flexibility Score: inf
ROOT
ATOM      1  C   UNL A   1      31.483  27.513  26.889  1.00  0.00     0.023 C 
ENDROOT
BRANCH   1   2
ATOM      2  C   UNL A   1      32.198  26.204  26.554  1.00  0.00     0.116 C 
BRANCH   2   3
ATOM      3  N   UNL A   1      31.395  25.052  26.911  1.00  0.00    -0.355 N 
ATOM      4  C   UNL A   1      31.527  23.741  26.555  1.00  0.00     0.230 C 
ATOM      5  O   UNL A   1      30.732  22.941  27.056  1.00  0.00    -0.274 OA
ATOM      6  H   UNL A   1      30.633  25.246  27.505  1.00  0.00     0.163 HD
BRANCH   4   7
ATOM      7  C   UNL A   1      32.699  23.266  25.716  1.00  0.00     0.178 C 
BRANCH   7   8
ATOM      8  S   UNL A   1      32.363  23.103  23.944  1.00  0.00    -0.078 SA
BRANCH   8   9
ATOM      9  C   UNL A   1      32.112  24.731  23.465  1.00  0.00     0.166 A 
ATOM     10  C   UNL A   1      31.334  26.643  22.946  1.00  0.00     0.092 A 
ATOM     11  N   UNL A   1      30.991  25.402  23.433  1.00  0.00    -0.222 NA
ATOM     12  C   UNL A   1      32.693  26.718  22.689  1.00  0.00     0.040 A 
ATOM     13  N   UNL A   1      33.168  25.477  23.037  1.00  0.00    -0.337 N 
ATOM     14  C   UNL A   1      33.588  27.787  22.193  1.00  0.00     0.067 C 
ATOM     15  H   UNL A   1      34.105  25.180  22.988  1.00  0.00     0.168 HD
BRANCH  10  16
ATOM     16  C   UNL A   1      30.365  27.701  22.761  1.00  0.00     0.002 A 
ATOM     17  C   UNL A   1      28.508  29.769  22.414  1.00  0.00     0.118 A 
ATOM     18  C   UNL A   1      29.814  29.916  21.945  1.00  0.00     0.047 A 
ATOM     19  C   UNL A   1      28.119  28.582  23.033  1.00  0.00     0.047 A 
ATOM     20  C   UNL A   1      30.746  28.893  22.137  1.00  0.00     0.014 A 
ATOM     21  C   UNL A   1      29.047  27.552  23.211  1.00  0.00     0.014 A 
BRANCH  17  22
ATOM     22  O   UNL A   1      27.653  30.811  22.173  1.00  0.00    -0.497 OA
ATOM     23  C   UNL A   1      27.742  31.851  23.142  1.00  0.00     0.278 C 
ENDBRANCH  17  22
ENDBRANCH  10  16
ENDBRANCH   8   9
ENDBRANCH   7   8
ENDBRANCH   4   7
ENDBRANCH   2   3
ENDBRANCH   1   2
BRANCH   1  24
ATOM     24  C   UNL A   1      31.525  28.566  25.777  1.00  0.00     0.023 C 
BRANCH  24  25
ATOM     25  C   UNL A   1      32.734  29.497  25.804  1.00  0.00     0.116 C 
BRANCH  25  26
ATOM     26  N   UNL A   1      32.384  30.862  26.165  1.00  0.00    -0.352 N 
ATOM     27  C   UNL A   1      33.010  31.716  27.042  1.00  0.00     0.251 C 
ATOM     28  H   UNL A   1      31.587  31.226  25.718  1.00  0.00     0.163 HD
ATOM     29  O   UNL A   1      32.472  32.781  27.335  1.00  0.00    -0.269 OA
BRANCH  27  30
ATOM     30  C   UNL A   1      34.303  31.336  27.656  1.00  0.00     0.039 A 
ATOM     31  C   UNL A   1      35.246  32.334  27.912  1.00  0.00     0.014 A 
ATOM     32  C   UNL A   1      34.584  30.007  27.985  1.00  0.00     0.014 A 
ATOM     33  C   UNL A   1      36.441  32.009  28.562  1.00  0.00     0.010 A 
ATOM     34  C   UNL A   1      35.740  29.698  28.698  1.00  0.00     0.010 A 
ATOM     35  C   UNL A   1      36.682  30.695  28.996  1.00  0.00    -0.014 A 
BRANCH  35  36
ATOM     36  C   UNL A   1      37.909  30.351  29.765  1.00  0.00     0.031 A 
ATOM     37  C   UNL A   1      38.910  29.381  29.196  1.00  0.00     0.074 A 
ATOM     38  C   UNL A   1      38.094  30.867  30.997  1.00  0.00     0.049 A 
ATOM     39  N   UNL A   1      40.001  28.902  29.740  1.00  0.00    -0.248 NA
ATOM     40  C   UNL A   1      38.633  28.860  27.850  1.00  0.00     0.031 C 
ATOM     41  C   UNL A   1      37.178  31.788  31.671  1.00  0.00     0.029 A 
ATOM     42  N   UNL A   1      39.107  30.686  31.906  1.00  0.00    -0.354 N 
ATOM     43  C   UNL A   1      40.534  28.018  28.808  1.00  0.00     0.074 A 
ATOM     44  C   UNL A   1      39.611  27.981  27.693  1.00  0.00     0.031 C 
ATOM     45  C   UNL A   1      37.683  32.113  32.872  1.00  0.00     0.029 A 
ATOM     46  C   UNL A   1      38.931  31.385  33.079  1.00  0.00     0.049 A 
ATOM     47  H   UNL A   1      39.887  30.110  31.735  1.00  0.00     0.167 HD
ATOM     48  C   UNL A   1      41.697  27.321  28.866  1.00  0.00     0.034 A 
ATOM     49  C   UNL A   1      39.681  31.425  34.198  1.00  0.00     0.034 A 
ATOM     50  C   UNL A   1      42.609  27.374  29.983  1.00  0.00     0.049 A 
ATOM     51  C   UNL A   1      40.950  30.611  34.254  1.00  0.00     0.074 A 
ATOM     52  C   UNL A   1      43.835  26.746  30.124  1.00  0.00     0.029 A 
ATOM     53  N   UNL A   1      42.395  28.087  31.156  1.00  0.00    -0.354 N 
ATOM     54  N   UNL A   1      41.465  29.817  33.343  1.00  0.00    -0.248 NA
ATOM     55  C   UNL A   1      41.745  30.706  35.486  1.00  0.00     0.031 C 
ATOM     56  C   UNL A   1      44.324  27.017  31.406  1.00  0.00     0.029 A 
ATOM     57  C   UNL A   1      43.448  27.886  32.036  1.00  0.00     0.049 A 
ATOM     58  H   UNL A   1      41.609  28.652  31.337  1.00  0.00     0.167 HD
ATOM     59  C   UNL A   1      42.662  29.350  33.879  1.00  0.00     0.074 A 
ATOM     60  C   UNL A   1      42.798  29.962  35.185  1.00  0.00     0.031 C 
ATOM     61  C   UNL A   1      43.570  28.497  33.340  1.00  0.00     0.034 A 
BRANCH  48  62
ATOM     62  C   UNL A   1      42.029  26.423  27.697  1.00  0.00     0.023 A 
ATOM     63  C   UNL A   1      41.489  25.129  27.581  1.00  0.00     0.031 A 
ATOM     64  C   UNL A   1      42.911  26.856  26.692  1.00  0.00     0.131 A 
ATOM     65  C   UNL A   1      41.894  24.291  26.532  1.00  0.00     0.055 A 
ATOM     66  C   UNL A   1      43.242  26.048  25.603  1.00  0.00     0.041 A 
ATOM     67  F   UNL A   1      43.477  28.073  26.756  1.00  0.00    -0.206 F 
ATOM     68  C   UNL A   1      42.745  24.750  25.526  1.00  0.00     0.022 A 
BRANCH  65  69
ATOM     69  S   UNL A   1      41.405  22.544  26.581  1.00  0.00     0.124 S 
ATOM     70  O   UNL A   1      39.964  22.635  26.357  1.00  0.00    -0.237 OA
ATOM     71  O   UNL A   1      42.186  21.966  25.495  1.00  0.00    -0.237 OA
ATOM     72  O   UNL A   1      41.792  22.118  27.925  1.00  0.00    -0.744 OA
ENDBRANCH  65  69
ENDBRANCH  48  62
BRANCH  49  73
ATOM     73  C   UNL A   1      39.255  32.248  35.369  1.00  0.00     0.023 A 
ATOM     74  C   UNL A   1      39.657  33.587  35.496  1.00  0.00     0.031 A 
ATOM     75  C   UNL A   1      38.485  31.691  36.405  1.00  0.00     0.131 A 
ATOM     76  C   UNL A   1      39.335  34.308  36.657  1.00  0.00     0.055 A 
ATOM     77  C   UNL A   1      38.116  32.430  37.530  1.00  0.00     0.041 A 
ATOM     78  F   UNL A   1      38.072  30.416  36.335  1.00  0.00    -0.206 F 
ATOM     79  C   UNL A   1      38.555  33.743  37.667  1.00  0.00     0.022 A 
BRANCH  76  80
ATOM     80  S   UNL A   1      40.039  35.966  36.872  1.00  0.00     0.124 S 
ATOM     81  O   UNL A   1      39.883  36.530  35.536  1.00  0.00    -0.237 OA
ATOM     82  O   UNL A   1      39.178  36.528  37.909  1.00  0.00    -0.237 OA
ATOM     83  O   UNL A   1      41.416  35.701  37.283  1.00  0.00    -0.744 OA
ENDBRANCH  76  80
ENDBRANCH  49  73
BRANCH  61  84
ATOM     84  C   UNL A   1      44.819  28.219  34.145  1.00  0.00     0.023 A 
ATOM     85  C   UNL A   1      44.900  27.142  35.044  1.00  0.00     0.031 A 
ATOM     86  C   UNL A   1      45.940  29.060  34.018  1.00  0.00     0.131 A 
ATOM     87  C   UNL A   1      46.054  26.968  35.824  1.00  0.00     0.055 A 
ATOM     88  C   UNL A   1      47.109  28.841  34.747  1.00  0.00     0.041 A 
ATOM     89  F   UNL A   1      45.918  30.107  33.178  1.00  0.00    -0.206 F 
ATOM     90  C   UNL A   1      47.166  27.799  35.668  1.00  0.00     0.022 A 
BRANCH  87  91
ATOM     91  S   UNL A   1      46.045  25.701  37.124  1.00  0.00     0.124 S 
ATOM     92  O   UNL A   1      47.120  24.815  36.690  1.00  0.00    -0.237 OA
ATOM     93  O   UNL A   1      46.311  26.485  38.325  1.00  0.00    -0.237 OA
ATOM     94  O   UNL A   1      44.701  25.133  37.039  1.00  0.00    -0.744 OA
ENDBRANCH  87  91
ENDBRANCH  61  84
ENDBRANCH  35  36
ENDBRANCH  27  30
ENDBRANCH  25  26
ENDBRANCH  24  25
ENDBRANCH   1  24
TORSDOF 18
ENDMDL
MODEL 3
REMARK VINA RESULT:     -11.3      4.225      9.448
REMARK SMILES COc1ccc(-c2nc(SCC(=O)NCCCCNC(=O)c3ccc(-c4c5nc(c(-c6cc(S(=O)(=O)[O-])ccc6F)c6ccc([nH]6)c(-c6cc(S(=O)(=O)[O-])ccc6F)c6nc(c(-c7cc(S(=O)(=O)[O-])ccc7F)c7ccc4[nH]7)C=C6)C=C5)cc3)[nH]c2C)cc1
REMARK SMILES IDX 16 1 15 2 14 3 12 4 13 5 11 7 10 8 9 9 7 10 8 11 86 12 85 13
REMARK SMILES IDX 87 14 6 16 3 17 4 18 89 19 5 20 88 21 2 22 1 23 17 24 18 25
REMARK SMILES IDX 19 26 20 27 21 29 22 30 23 31 84 32 24 33 83 34 25 35 26 36
REMARK SMILES IDX 27 37 77 38 28 39 82 40 76 41 78 42 29 43 81 44 75 45 74 46
REMARK SMILES IDX 30 48 62 49 42 50 61 51 43 52 46 53 60 54 79 55 44 56 45 57
REMARK SMILES IDX 59 59 80 60 47 61 31 62 32 63 40 64 33 65 39 66 41 67 38 68
REMARK SMILES IDX 34 69 35 70 36 71 37 72 63 73 64 74 72 75 65 76 71 77 73 78
REMARK SMILES IDX 70 79 66 80 67 81 68 82 69 83 48 84 49 85 57 86 50 87 56 88
REMARK SMILES IDX 58 89 55 90 51 91 52 92 53 93 54 94
REMARK H PARENT 14 6 85 15 19 28 78 47 46 58
REMARK Flexibility Score: inf
ROOT
ATOM      1  C   UNL A   1      31.393  27.763  26.527  1.00  0.00     0.023 C 
ENDROOT
BRANCH   1   2
ATOM      2  C   UNL A   1      32.169  26.447  26.493  1.00  0.00     0.116 C 
BRANCH   2   3
ATOM      3  N   UNL A   1      31.378  25.349  27.008  1.00  0.00    -0.355 N 
ATOM      4  C   UNL A   1      31.371  24.028  26.662  1.00  0.00     0.230 C 
ATOM      5  O   UNL A   1      30.634  23.281  27.312  1.00  0.00    -0.274 OA
ATOM      6  H   UNL A   1      30.745  25.593  27.722  1.00  0.00     0.163 HD
BRANCH   4   7
ATOM      7  C   UNL A   1      32.350  23.476  25.641  1.00  0.00     0.178 C 
BRANCH   7   8
ATOM      8  S   UNL A   1      31.713  23.356  23.950  1.00  0.00    -0.078 SA
BRANCH   8   9
ATOM      9  C   UNL A   1      31.625  25.001  23.472  1.00  0.00     0.166 A 
ATOM     10  C   UNL A   1      31.038  26.974  22.931  1.00  0.00     0.092 A 
ATOM     11  N   UNL A   1      30.568  25.765  23.391  1.00  0.00    -0.222 NA
ATOM     12  C   UNL A   1      32.410  26.934  22.741  1.00  0.00     0.040 A 
ATOM     13  N   UNL A   1      32.760  25.656  23.102  1.00  0.00    -0.337 N 
ATOM     14  C   UNL A   1      33.416  27.924  22.298  1.00  0.00     0.067 C 
ATOM     15  H   UNL A   1      33.670  25.280  23.096  1.00  0.00     0.168 HD
BRANCH  10  16
ATOM     16  C   UNL A   1      30.173  28.112  22.707  1.00  0.00     0.002 A 
ATOM     17  C   UNL A   1      28.476  30.296  22.262  1.00  0.00     0.118 A 
ATOM     18  C   UNL A   1      27.993  29.154  22.903  1.00  0.00     0.047 A 
ATOM     19  C   UNL A   1      29.811  30.360  21.865  1.00  0.00     0.047 A 
ATOM     20  C   UNL A   1      28.833  28.056  23.107  1.00  0.00     0.014 A 
ATOM     21  C   UNL A   1      30.656  29.268  22.082  1.00  0.00     0.014 A 
BRANCH  17  22
ATOM     22  O   UNL A   1      27.594  31.332  22.115  1.00  0.00    -0.497 OA
ATOM     23  C   UNL A   1      28.032  32.321  21.188  1.00  0.00     0.278 C 
ENDBRANCH  17  22
ENDBRANCH  10  16
ENDBRANCH   8   9
ENDBRANCH   7   8
ENDBRANCH   4   7
ENDBRANCH   2   3
ENDBRANCH   1   2
BRANCH   1  24
ATOM     24  C   UNL A   1      32.177  28.980  26.025  1.00  0.00     0.023 C 
BRANCH  24  25
ATOM     25  C   UNL A   1      33.447  29.307  26.804  1.00  0.00     0.116 C 
BRANCH  25  26
ATOM     26  N   UNL A   1      33.574  30.725  27.103  1.00  0.00    -0.352 N 
ATOM     27  C   UNL A   1      34.555  31.378  27.812  1.00  0.00     0.251 C 
ATOM     28  H   UNL A   1      32.857  31.297  26.749  1.00  0.00     0.163 HD
ATOM     29  O   UNL A   1      34.405  32.565  28.094  1.00  0.00    -0.269 OA
BRANCH  27  30
ATOM     30  C   UNL A   1      35.761  30.647  28.260  1.00  0.00     0.039 A 
ATOM     31  C   UNL A   1      36.975  30.888  27.612  1.00  0.00     0.014 A 
ATOM     32  C   UNL A   1      35.702  29.736  29.317  1.00  0.00     0.014 A 
ATOM     33  C   UNL A   1      38.141  30.268  28.070  1.00  0.00     0.010 A 
ATOM     34  C   UNL A   1      36.876  29.177  29.819  1.00  0.00     0.010 A 
ATOM     35  C   UNL A   1      38.109  29.437  29.202  1.00  0.00    -0.014 A 
BRANCH  35  36
ATOM     36  C   UNL A   1      39.356  28.838  29.753  1.00  0.00     0.031 A 
ATOM     37  C   UNL A   1      40.010  29.438  30.969  1.00  0.00     0.074 A 
ATOM     38  C   UNL A   1      39.928  27.790  29.127  1.00  0.00     0.049 A 
ATOM     39  N   UNL A   1      41.132  29.106  31.555  1.00  0.00    -0.248 NA
ATOM     40  C   UNL A   1      39.325  30.582  31.590  1.00  0.00     0.031 C 
ATOM     41  C   UNL A   1      39.410  27.143  27.920  1.00  0.00     0.029 A 
ATOM     42  N   UNL A   1      41.074  27.088  29.410  1.00  0.00    -0.354 N 
ATOM     43  C   UNL A   1      41.293  30.003  32.606  1.00  0.00     0.074 A 
ATOM     44  C   UNL A   1      40.185  30.932  32.534  1.00  0.00     0.031 C 
ATOM     45  C   UNL A   1      40.219  26.125  27.584  1.00  0.00     0.029 A 
ATOM     46  C   UNL A   1      41.340  26.076  28.516  1.00  0.00     0.049 A 
ATOM     47  H   UNL A   1      41.652  27.291  30.181  1.00  0.00     0.167 HD
ATOM     48  C   UNL A   1      42.261  30.034  33.556  1.00  0.00     0.034 A 
ATOM     49  C   UNL A   1      42.376  25.215  28.447  1.00  0.00     0.034 A 
ATOM     50  C   UNL A   1      43.356  29.096  33.617  1.00  0.00     0.049 A 
ATOM     51  C   UNL A   1      43.460  25.294  29.492  1.00  0.00     0.074 A 
ATOM     52  C   UNL A   1      44.363  29.008  34.563  1.00  0.00     0.029 A 
ATOM     53  N   UNL A   1      43.597  28.089  32.691  1.00  0.00    -0.354 N 
ATOM     54  N   UNL A   1      43.571  26.118  30.509  1.00  0.00    -0.248 NA
ATOM     55  C   UNL A   1      44.554  24.320  29.388  1.00  0.00     0.031 C 
ATOM     56  C   UNL A   1      45.251  28.002  34.169  1.00  0.00     0.029 A 
ATOM     57  C   UNL A   1      44.754  27.399  33.025  1.00  0.00     0.049 A 
ATOM     58  H   UNL A   1      43.030  27.893  31.910  1.00  0.00     0.167 HD
ATOM     59  C   UNL A   1      44.727  25.736  31.185  1.00  0.00     0.074 A 
ATOM     60  C   UNL A   1      45.268  24.599  30.467  1.00  0.00     0.031 C 
ATOM     61  C   UNL A   1      45.289  26.271  32.298  1.00  0.00     0.034 A 
BRANCH  48  62
ATOM     62  C   UNL A   1      42.188  31.135  34.588  1.00  0.00     0.023 A 
ATOM     63  C   UNL A   1      42.815  32.379  34.389  1.00  0.00     0.031 A 
ATOM     64  C   UNL A   1      41.498  30.936  35.796  1.00  0.00     0.131 A 
ATOM     65  C   UNL A   1      42.804  33.342  35.409  1.00  0.00     0.055 A 
ATOM     66  C   UNL A   1      41.417  31.932  36.772  1.00  0.00     0.041 A 
ATOM     67  F   UNL A   1      40.896  29.764  36.056  1.00  0.00    -0.206 F 
ATOM     68  C   UNL A   1      42.086  33.138  36.589  1.00  0.00     0.022 A 
BRANCH  65  69
ATOM     69  S   UNL A   1      43.863  34.803  35.231  1.00  0.00     0.124 S 
ATOM     70  O   UNL A   1      42.999  35.859  35.754  1.00  0.00    -0.237 OA
ATOM     71  O   UNL A   1      45.019  34.459  36.050  1.00  0.00    -0.237 OA
ATOM     72  O   UNL A   1      44.114  34.871  33.793  1.00  0.00    -0.744 OA
ENDBRANCH  65  69
ENDBRANCH  48  62
BRANCH  49  73
ATOM     73  C   UNL A   1      42.456  24.211  27.345  1.00  0.00     0.023 A 
ATOM     74  C   UNL A   1      41.664  23.052  27.363  1.00  0.00     0.031 A 
ATOM     75  C   UNL A   1      43.365  24.370  26.284  1.00  0.00     0.131 A 
ATOM     76  C   UNL A   1      41.836  22.071  26.374  1.00  0.00     0.055 A 
ATOM     77  C   UNL A   1      43.489  23.421  25.268  1.00  0.00     0.041 A 
ATOM     78  F   UNL A   1      44.145  25.461  26.215  1.00  0.00    -0.206 F 
ATOM     79  C   UNL A   1      42.731  22.254  25.319  1.00  0.00     0.022 A 
BRANCH  76  80
ATOM     80  S   UNL A   1      40.940  20.502  26.542  1.00  0.00     0.124 S 
ATOM     81  O   UNL A   1      41.171  20.178  27.945  1.00  0.00    -0.237 OA
ATOM     82  O   UNL A   1      39.578  20.892  26.191  1.00  0.00    -0.237 OA
ATOM     83  O   UNL A   1      41.604  19.626  25.579  1.00  0.00    -0.744 OA
ENDBRANCH  76  80
ENDBRANCH  49  73
BRANCH  61  84
ATOM     84  C   UNL A   1      46.526  25.594  32.840  1.00  0.00     0.023 A 
ATOM     85  C   UNL A   1      47.807  25.865  32.327  1.00  0.00     0.031 A 
ATOM     86  C   UNL A   1      46.417  24.650  33.878  1.00  0.00     0.131 A 
ATOM     87  C   UNL A   1      48.918  25.157  32.811  1.00  0.00     0.055 A 
ATOM     88  C   UNL A   1      47.534  23.999  34.401  1.00  0.00     0.041 A 
ATOM     89  F   UNL A   1      45.219  24.349  34.403  1.00  0.00    -0.206 F 
ATOM     90  C   UNL A   1      48.792  24.240  33.858  1.00  0.00     0.022 A 
BRANCH  87  91
ATOM     91  S   UNL A   1      50.519  25.374  31.984  1.00  0.00     0.124 S 
ATOM     92  O   UNL A   1      51.339  25.934  33.053  1.00  0.00    -0.237 OA
ATOM     93  O   UNL A   1      50.846  24.013  31.575  1.00  0.00    -0.237 OA
ATOM     94  O   UNL A   1      50.216  26.295  30.889  1.00  0.00    -0.744 OA
ENDBRANCH  87  91
ENDBRANCH  61  84
ENDBRANCH  35  36
ENDBRANCH  27  30
ENDBRANCH  25  26
ENDBRANCH  24  25
ENDBRANCH   1  24
TORSDOF 18
ENDMDL
