MODEL 1
REMARK VINA RESULT:     -11.5      0.000      0.000
REMARK SMILES C[C@H](CNS(=O)(=O)c1ccc(C(=O)NCCCCNC(=O)c2ccc(-c3c4nc(c(-c5cc(S(=O)(=O)[O-])ccc5F)c5ccc([nH]5)c(-c5cc(S(=O)(=O)[O-])ccc5F)c5nc(c(-c6cc(S(=O)(=O)[O-])ccc6F)c6ccc3[nH]6)C=C5)C=C4)cc2)cc1F)[NH+](C)C
REMARK SMILES IDX 15 1 14 2 12 3 13 4 11 6 8 7 9 8 86 9 10 10 85 11 87 12 5 13
REMARK SMILES IDX 6 14 7 15 4 16 3 18 2 19 1 20 88 21 89 22 90 23 16 25 17 26
REMARK SMILES IDX 18 27 19 28 20 29 21 31 22 32 23 33 84 34 24 35 83 36 25 37
REMARK SMILES IDX 26 38 27 39 77 40 28 41 82 42 76 43 78 44 29 45 81 46 75 47
REMARK SMILES IDX 74 48 30 50 62 51 42 52 61 53 43 54 46 55 60 56 79 57 44 58
REMARK SMILES IDX 45 59 59 61 80 62 47 63 31 64 32 65 40 66 33 67 39 68 41 69
REMARK SMILES IDX 38 70 34 71 35 72 36 73 37 74 63 75 64 76 72 77 65 78 71 79
REMARK SMILES IDX 73 80 70 81 66 82 67 83 68 84 69 85 48 86 49 87 57 88 50 89
REMARK SMILES IDX 56 90 58 91 55 92 51 93 52 94 53 95 54 96
REMARK H PARENT 14 5 4 17 88 24 19 30 78 49 46 60
REMARK Flexibility Score: inf
ROOT
ATOM      1  C   UNL A   1      36.270  21.641  25.898  1.00  0.00     0.116 C 
ENDROOT
BRANCH   1   2
ATOM      2  N   UNL A   1      35.015  20.962  25.636  1.00  0.00    -0.352 N 
ATOM      3  C   UNL A   1      33.928  21.253  24.853  1.00  0.00     0.251 C 
ATOM      4  O   UNL A   1      33.027  20.413  24.820  1.00  0.00    -0.269 OA
ATOM      5  H   UNL A   1      34.924  20.112  26.124  1.00  0.00     0.163 HD
BRANCH   3   6
ATOM      6  C   UNL A   1      33.761  22.499  24.042  1.00  0.00     0.042 A 
ATOM      7  C   UNL A   1      33.327  24.741  22.370  1.00  0.00     0.118 A 
ATOM      8  C   UNL A   1      33.130  23.449  21.872  1.00  0.00     0.026 A 
ATOM      9  C   UNL A   1      33.750  24.900  23.676  1.00  0.00     0.144 A 
ATOM     10  C   UNL A   1      33.357  22.342  22.701  1.00  0.00     0.015 A 
ATOM     11  C   UNL A   1      33.938  23.798  24.509  1.00  0.00     0.054 A 
ATOM     12  F   UNL A   1      33.995  26.099  24.210  1.00  0.00    -0.205 F 
BRANCH   7  13
ATOM     13  S   UNL A   1      32.973  26.100  21.312  1.00  0.00     0.243 S 
ATOM     14  O   UNL A   1      32.948  25.596  19.955  1.00  0.00    -0.207 OA
ATOM     15  O   UNL A   1      33.868  27.167  21.702  1.00  0.00    -0.207 OA
BRANCH  13  16
ATOM     16  N   UNL A   1      31.441  26.653  21.679  1.00  0.00    -0.205 NA
ATOM     17  H   UNL A   1      31.056  27.043  20.818  1.00  0.00     0.141 HD
BRANCH  16  18
ATOM     18  C   UNL A   1      31.254  27.670  22.726  1.00  0.00     0.163 C 
BRANCH  18  19
ATOM     19  C   UNL A   1      29.758  28.072  22.912  1.00  0.00     0.195 C 
ATOM     20  C   UNL A   1      28.932  26.976  23.610  1.00  0.00     0.076 C 
BRANCH  19  21
ATOM     21  N   UNL A   1      29.580  29.434  23.477  1.00  0.00    -0.337 N 
ATOM     22  C   UNL A   1      30.734  29.873  24.261  1.00  0.00     0.332 C 
ATOM     23  C   UNL A   1      29.192  30.461  22.518  1.00  0.00     0.332 C 
ATOM     24  H   UNL A   1      28.781  29.324  24.101  1.00  0.00     0.347 HD
ENDBRANCH  19  21
ENDBRANCH  18  19
ENDBRANCH  16  18
ENDBRANCH  13  16
ENDBRANCH   7  13
ENDBRANCH   3   6
ENDBRANCH   1   2
BRANCH   1  25
ATOM     25  C   UNL A   1      37.312  21.341  24.814  1.00  0.00     0.023 C 
BRANCH  25  26
ATOM     26  C   UNL A   1      38.180  20.112  25.098  1.00  0.00     0.023 C 
BRANCH  26  27
ATOM     27  C   UNL A   1      39.510  20.421  25.776  1.00  0.00     0.116 C 
BRANCH  27  28
ATOM     28  N   UNL A   1      40.382  19.260  25.899  1.00  0.00    -0.352 N 
ATOM     29  C   UNL A   1      41.739  19.260  26.131  1.00  0.00     0.251 C 
ATOM     30  H   UNL A   1      39.953  18.380  25.806  1.00  0.00     0.163 HD
ATOM     31  O   UNL A   1      42.378  18.215  26.115  1.00  0.00    -0.269 OA
BRANCH  29  32
ATOM     32  C   UNL A   1      42.411  20.559  26.340  1.00  0.00     0.039 A 
ATOM     33  C   UNL A   1      42.826  21.291  25.226  1.00  0.00     0.014 A 
ATOM     34  C   UNL A   1      42.529  21.088  27.628  1.00  0.00     0.014 A 
ATOM     35  C   UNL A   1      43.281  22.600  25.397  1.00  0.00     0.010 A 
ATOM     36  C   UNL A   1      42.930  22.410  27.789  1.00  0.00     0.010 A 
ATOM     37  C   UNL A   1      43.289  23.184  26.674  1.00  0.00    -0.014 A 
BRANCH  37  38
ATOM     38  C   UNL A   1      43.635  24.613  26.877  1.00  0.00     0.031 A 
ATOM     39  C   UNL A   1      45.045  25.078  26.656  1.00  0.00     0.074 A 
ATOM     40  C   UNL A   1      42.704  25.467  27.348  1.00  0.00     0.049 A 
ATOM     41  N   UNL A   1      45.595  26.224  26.960  1.00  0.00    -0.248 NA
ATOM     42  C   UNL A   1      45.965  24.110  26.038  1.00  0.00     0.031 C 
ATOM     43  C   UNL A   1      41.305  25.132  27.619  1.00  0.00     0.029 A 
ATOM     44  N   UNL A   1      42.802  26.790  27.699  1.00  0.00    -0.354 N 
ATOM     45  C   UNL A   1      46.931  26.111  26.595  1.00  0.00     0.074 A 
ATOM     46  C   UNL A   1      47.113  24.770  26.077  1.00  0.00     0.031 C 
ATOM     47  C   UNL A   1      40.672  26.225  28.076  1.00  0.00     0.029 A 
ATOM     48  C   UNL A   1      41.629  27.322  28.179  1.00  0.00     0.049 A 
ATOM     49  H   UNL A   1      43.634  27.309  27.615  1.00  0.00     0.167 HD
ATOM     50  C   UNL A   1      47.913  27.041  26.678  1.00  0.00     0.034 A 
ATOM     51  C   UNL A   1      41.358  28.547  28.667  1.00  0.00     0.034 A 
ATOM     52  C   UNL A   1      47.716  28.380  27.176  1.00  0.00     0.049 A 
ATOM     53  C   UNL A   1      42.464  29.563  28.752  1.00  0.00     0.074 A 
ATOM     54  C   UNL A   1      48.639  29.406  27.281  1.00  0.00     0.029 A 
ATOM     55  N   UNL A   1      46.509  28.883  27.644  1.00  0.00    -0.354 N 
ATOM     56  N   UNL A   1      43.732  29.429  28.438  1.00  0.00    -0.248 NA
ATOM     57  C   UNL A   1      42.104  30.892  29.262  1.00  0.00     0.031 C 
ATOM     58  C   UNL A   1      48.001  30.515  27.849  1.00  0.00     0.029 A 
ATOM     59  C   UNL A   1      46.667  30.200  28.047  1.00  0.00     0.049 A 
ATOM     60  H   UNL A   1      45.665  28.379  27.683  1.00  0.00     0.167 HD
ATOM     61  C   UNL A   1      44.318  30.663  28.703  1.00  0.00     0.074 A 
ATOM     62  C   UNL A   1      43.264  31.530  29.190  1.00  0.00     0.031 C 
ATOM     63  C   UNL A   1      45.612  31.044  28.551  1.00  0.00     0.034 A 
BRANCH  50  64
ATOM     64  C   UNL A   1      49.293  26.625  26.245  1.00  0.00     0.023 A 
ATOM     65  C   UNL A   1      49.871  27.118  25.063  1.00  0.00     0.031 A 
ATOM     66  C   UNL A   1      50.034  25.711  27.015  1.00  0.00     0.131 A 
ATOM     67  C   UNL A   1      51.128  26.649  24.653  1.00  0.00     0.055 A 
ATOM     68  C   UNL A   1      51.313  25.300  26.636  1.00  0.00     0.041 A 
ATOM     69  F   UNL A   1      49.519  25.194  28.142  1.00  0.00    -0.206 F 
ATOM     70  C   UNL A   1      51.862  25.762  25.443  1.00  0.00     0.022 A 
BRANCH  67  71
ATOM     71  S   UNL A   1      51.751  27.142  23.024  1.00  0.00     0.124 S 
ATOM     72  O   UNL A   1      51.955  28.577  23.213  1.00  0.00    -0.237 OA
ATOM     73  O   UNL A   1      52.961  26.339  22.888  1.00  0.00    -0.237 OA
ATOM     74  O   UNL A   1      50.662  26.787  22.118  1.00  0.00    -0.744 OA
ENDBRANCH  67  71
ENDBRANCH  50  64
BRANCH  51  75
ATOM     75  C   UNL A   1      39.987  28.878  29.135  1.00  0.00     0.023 A 
ATOM     76  C   UNL A   1      39.663  28.826  30.499  1.00  0.00     0.031 A 
ATOM     77  C   UNL A   1      38.980  29.244  28.224  1.00  0.00     0.131 A 
ATOM     78  C   UNL A   1      38.353  29.110  30.915  1.00  0.00     0.055 A 
ATOM     79  C   UNL A   1      37.688  29.557  28.647  1.00  0.00     0.041 A 
ATOM     80  F   UNL A   1      39.249  29.320  26.912  1.00  0.00    -0.206 F 
ATOM     81  C   UNL A   1      37.366  29.485  29.999  1.00  0.00     0.022 A 
BRANCH  78  82
ATOM     82  S   UNL A   1      37.949  28.967  32.677  1.00  0.00     0.124 S 
ATOM     83  O   UNL A   1      36.614  29.552  32.723  1.00  0.00    -0.237 OA
ATOM     84  O   UNL A   1      38.026  27.526  32.894  1.00  0.00    -0.237 OA
ATOM     85  O   UNL A   1      38.998  29.747  33.330  1.00  0.00    -0.744 OA
ENDBRANCH  78  82
ENDBRANCH  51  75
BRANCH  63  86
ATOM     86  C   UNL A   1      45.946  32.470  28.895  1.00  0.00     0.023 A 
ATOM     87  C   UNL A   1      45.947  33.480  27.919  1.00  0.00     0.031 A 
ATOM     88  C   UNL A   1      46.263  32.820  30.219  1.00  0.00     0.131 A 
ATOM     89  C   UNL A   1      46.298  34.790  28.275  1.00  0.00     0.055 A 
ATOM     90  C   UNL A   1      46.567  34.133  30.575  1.00  0.00     0.041 A 
ATOM     91  F   UNL A   1      46.275  31.890  31.187  1.00  0.00    -0.206 F 
ATOM     92  C   UNL A   1      46.595  35.127  29.599  1.00  0.00     0.022 A 
BRANCH  89  93
ATOM     93  S   UNL A   1      46.416  36.046  26.971  1.00  0.00     0.124 S 
ATOM     94  O   UNL A   1      45.036  36.127  26.505  1.00  0.00    -0.237 OA
ATOM     95  O   UNL A   1      46.913  37.209  27.700  1.00  0.00    -0.237 OA
ATOM     96  O   UNL A   1      47.360  35.464  26.019  1.00  0.00    -0.744 OA
ENDBRANCH  89  93
ENDBRANCH  63  86
ENDBRANCH  37  38
ENDBRANCH  29  32
ENDBRANCH  27  28
ENDBRANCH  26  27
ENDBRANCH  25  26
ENDBRANCH   1  25
TORSDOF 19
ENDMDL
MODEL 2
REMARK VINA RESULT:     -11.5      2.536      8.049
REMARK SMILES C[C@H](CNS(=O)(=O)c1ccc(C(=O)NCCCCNC(=O)c2ccc(-c3c4nc(c(-c5cc(S(=O)(=O)[O-])ccc5F)c5ccc([nH]5)c(-c5cc(S(=O)(=O)[O-])ccc5F)c5nc(c(-c6cc(S(=O)(=O)[O-])ccc6F)c6ccc3[nH]6)C=C5)C=C4)cc2)cc1F)[NH+](C)C
REMARK SMILES IDX 15 1 14 2 12 3 13 4 11 6 8 7 9 8 86 9 10 10 85 11 87 12 5 13
REMARK SMILES IDX 6 14 7 15 4 16 3 18 2 19 1 20 88 21 89 22 90 23 16 25 17 26
REMARK SMILES IDX 18 27 19 28 20 29 21 31 22 32 23 33 84 34 24 35 83 36 25 37
REMARK SMILES IDX 26 38 27 39 77 40 28 41 82 42 76 43 78 44 29 45 81 46 75 47
REMARK SMILES IDX 74 48 30 50 62 51 42 52 61 53 43 54 46 55 60 56 79 57 44 58
REMARK SMILES IDX 45 59 59 61 80 62 47 63 31 64 32 65 40 66 33 67 39 68 41 69
REMARK SMILES IDX 38 70 34 71 35 72 36 73 37 74 63 75 64 76 72 77 65 78 71 79
REMARK SMILES IDX 73 80 70 81 66 82 67 83 68 84 69 85 48 86 49 87 57 88 50 89
REMARK SMILES IDX 56 90 58 91 55 92 51 93 52 94 53 95 54 96
REMARK H PARENT 14 5 4 17 88 24 19 30 78 49 46 60
REMARK Flexibility Score: inf
ROOT
ATOM      1  C   UNL A   1      34.071  21.467  27.101  1.00  0.00     0.116 C 
ENDROOT
BRANCH   1   2
ATOM      2  N   UNL A   1      33.277  20.541  26.314  1.00  0.00    -0.352 N 
ATOM      3  C   UNL A   1      32.554  20.662  25.156  1.00  0.00     0.251 C 
ATOM      4  O   UNL A   1      32.026  19.637  24.721  1.00  0.00    -0.269 OA
ATOM      5  H   UNL A   1      33.252  19.633  26.693  1.00  0.00     0.163 HD
BRANCH   3   6
ATOM      6  C   UNL A   1      32.367  21.933  24.388  1.00  0.00     0.042 A 
ATOM      7  C   UNL A   1      31.920  24.419  23.112  1.00  0.00     0.118 A 
ATOM      8  C   UNL A   1      31.186  24.076  24.251  1.00  0.00     0.026 A 
ATOM      9  C   UNL A   1      32.846  23.522  22.615  1.00  0.00     0.144 A 
ATOM     10  C   UNL A   1      31.404  22.840  24.873  1.00  0.00     0.015 A 
ATOM     11  C   UNL A   1      33.088  22.308  23.258  1.00  0.00     0.054 A 
ATOM     12  F   UNL A   1      33.557  23.761  21.510  1.00  0.00    -0.205 F 
BRANCH   7  13
ATOM     13  S   UNL A   1      31.654  26.004  22.400  1.00  0.00     0.243 S 
ATOM     14  O   UNL A   1      30.509  26.590  23.064  1.00  0.00    -0.207 OA
ATOM     15  O   UNL A   1      31.679  25.820  20.966  1.00  0.00    -0.207 OA
BRANCH  13  16
ATOM     16  N   UNL A   1      32.984  26.953  22.746  1.00  0.00    -0.205 NA
ATOM     17  H   UNL A   1      33.735  26.318  23.014  1.00  0.00     0.141 HD
BRANCH  16  18
ATOM     18  C   UNL A   1      32.903  27.983  23.794  1.00  0.00     0.163 C 
BRANCH  18  19
ATOM     19  C   UNL A   1      32.509  27.393  25.185  1.00  0.00     0.195 C 
ATOM     20  C   UNL A   1      33.636  26.553  25.813  1.00  0.00     0.076 C 
BRANCH  19  21
ATOM     21  N   UNL A   1      31.904  28.396  26.099  1.00  0.00    -0.337 N 
ATOM     22  C   UNL A   1      32.523  28.397  27.424  1.00  0.00     0.332 C 
ATOM     23  C   UNL A   1      31.822  29.752  25.571  1.00  0.00     0.332 C 
ATOM     24  H   UNL A   1      30.939  28.076  26.187  1.00  0.00     0.347 HD
ENDBRANCH  19  21
ENDBRANCH  18  19
ENDBRANCH  16  18
ENDBRANCH  13  16
ENDBRANCH   7  13
ENDBRANCH   3   6
ENDBRANCH   1   2
BRANCH   1  25
ATOM     25  C   UNL A   1      35.090  22.216  26.235  1.00  0.00     0.023 C 
BRANCH  25  26
ATOM     26  C   UNL A   1      35.932  21.312  25.330  1.00  0.00     0.023 C 
BRANCH  26  27
ATOM     27  C   UNL A   1      37.398  21.717  25.222  1.00  0.00     0.116 C 
BRANCH  27  28
ATOM     28  N   UNL A   1      38.323  20.619  25.470  1.00  0.00    -0.352 N 
ATOM     29  C   UNL A   1      39.536  20.684  26.118  1.00  0.00     0.251 C 
ATOM     30  H   UNL A   1      38.050  19.734  25.137  1.00  0.00     0.163 HD
ATOM     31  O   UNL A   1      40.269  19.704  26.176  1.00  0.00    -0.269 OA
BRANCH  29  32
ATOM     32  C   UNL A   1      39.953  21.981  26.689  1.00  0.00     0.039 A 
ATOM     33  C   UNL A   1      40.908  21.994  27.707  1.00  0.00     0.014 A 
ATOM     34  C   UNL A   1      39.476  23.174  26.141  1.00  0.00     0.014 A 
ATOM     35  C   UNL A   1      41.455  23.212  28.118  1.00  0.00     0.010 A 
ATOM     36  C   UNL A   1      40.061  24.380  26.513  1.00  0.00     0.010 A 
ATOM     37  C   UNL A   1      41.071  24.407  27.489  1.00  0.00    -0.014 A 
BRANCH  37  38
ATOM     38  C   UNL A   1      41.727  25.700  27.803  1.00  0.00     0.031 A 
ATOM     39  C   UNL A   1      40.974  26.755  28.562  1.00  0.00     0.074 A 
ATOM     40  C   UNL A   1      42.961  25.958  27.325  1.00  0.00     0.049 A 
ATOM     41  N   UNL A   1      41.287  28.007  28.768  1.00  0.00    -0.248 NA
ATOM     42  C   UNL A   1      39.683  26.350  29.138  1.00  0.00     0.031 C 
ATOM     43  C   UNL A   1      43.788  25.023  26.560  1.00  0.00     0.029 A 
ATOM     44  N   UNL A   1      43.729  27.093  27.400  1.00  0.00    -0.354 N 
ATOM     45  C   UNL A   1      40.223  28.551  29.476  1.00  0.00     0.074 A 
ATOM     46  C   UNL A   1      39.241  27.496  29.634  1.00  0.00     0.031 C 
ATOM     47  C   UNL A   1      44.953  25.616  26.252  1.00  0.00     0.029 A 
ATOM     48  C   UNL A   1      44.936  26.987  26.752  1.00  0.00     0.049 A 
ATOM     49  H   UNL A   1      43.441  27.908  27.873  1.00  0.00     0.167 HD
ATOM     50  C   UNL A   1      40.080  29.810  29.955  1.00  0.00     0.034 A 
ATOM     51  C   UNL A   1      45.911  27.895  26.562  1.00  0.00     0.034 A 
ATOM     52  C   UNL A   1      41.073  30.845  29.811  1.00  0.00     0.049 A 
ATOM     53  C   UNL A   1      45.730  29.288  27.101  1.00  0.00     0.074 A 
ATOM     54  C   UNL A   1      41.035  32.148  30.278  1.00  0.00     0.029 A 
ATOM     55  N   UNL A   1      42.287  30.694  29.155  1.00  0.00    -0.354 N 
ATOM     56  N   UNL A   1      44.701  29.798  27.736  1.00  0.00    -0.248 NA
ATOM     57  C   UNL A   1      46.839  30.228  26.892  1.00  0.00     0.031 C 
ATOM     58  C   UNL A   1      42.208  32.795  29.872  1.00  0.00     0.029 A 
ATOM     59  C   UNL A   1      43.003  31.881  29.198  1.00  0.00     0.049 A 
ATOM     60  H   UNL A   1      42.596  29.866  28.723  1.00  0.00     0.167 HD
ATOM     61  C   UNL A   1      45.045  31.118  28.013  1.00  0.00     0.074 A 
ATOM     62  C   UNL A   1      46.380  31.320  27.487  1.00  0.00     0.031 C 
ATOM     63  C   UNL A   1      44.322  32.073  28.650  1.00  0.00     0.034 A 
BRANCH  50  64
ATOM     64  C   UNL A   1      38.788  30.137  30.657  1.00  0.00     0.023 A 
ATOM     65  C   UNL A   1      37.745  30.809  29.998  1.00  0.00     0.031 A 
ATOM     66  C   UNL A   1      38.605  29.787  32.006  1.00  0.00     0.131 A 
ATOM     67  C   UNL A   1      36.588  31.164  30.705  1.00  0.00     0.055 A 
ATOM     68  C   UNL A   1      37.422  30.083  32.686  1.00  0.00     0.041 A 
ATOM     69  F   UNL A   1      39.578  29.162  32.687  1.00  0.00    -0.206 F 
ATOM     70  C   UNL A   1      36.410  30.784  32.038  1.00  0.00     0.022 A 
BRANCH  67  71
ATOM     71  S   UNL A   1      35.355  32.211  29.888  1.00  0.00     0.124 S 
ATOM     72  O   UNL A   1      34.884  31.328  28.824  1.00  0.00    -0.237 OA
ATOM     73  O   UNL A   1      34.403  32.481  30.960  1.00  0.00    -0.237 OA
ATOM     74  O   UNL A   1      36.130  33.364  29.437  1.00  0.00    -0.744 OA
ENDBRANCH  67  71
ENDBRANCH  50  64
BRANCH  51  75
ATOM     75  C   UNL A   1      47.139  27.527  25.808  1.00  0.00     0.023 A 
ATOM     76  C   UNL A   1      47.235  27.773  24.430  1.00  0.00     0.031 A 
ATOM     77  C   UNL A   1      48.229  26.918  26.455  1.00  0.00     0.131 A 
ATOM     78  C   UNL A   1      48.390  27.387  23.733  1.00  0.00     0.055 A 
ATOM     79  C   UNL A   1      49.388  26.566  25.763  1.00  0.00     0.041 A 
ATOM     80  F   UNL A   1      48.185  26.677  27.774  1.00  0.00    -0.206 F 
ATOM     81  C   UNL A   1      49.471  26.795  24.392  1.00  0.00     0.022 A 
BRANCH  78  82
ATOM     82  S   UNL A   1      48.456  27.657  21.941  1.00  0.00     0.124 S 
ATOM     83  O   UNL A   1      49.572  28.588  21.823  1.00  0.00    -0.237 OA
ATOM     84  O   UNL A   1      48.691  26.307  21.437  1.00  0.00    -0.237 OA
ATOM     85  O   UNL A   1      47.141  28.212  21.633  1.00  0.00    -0.744 OA
ENDBRANCH  78  82
ENDBRANCH  51  75
BRANCH  63  86
ATOM     86  C   UNL A   1      44.978  33.416  28.831  1.00  0.00     0.023 A 
ATOM     87  C   UNL A   1      45.754  33.707  29.965  1.00  0.00     0.031 A 
ATOM     88  C   UNL A   1      44.825  34.412  27.852  1.00  0.00     0.131 A 
ATOM     89  C   UNL A   1      46.319  34.982  30.112  1.00  0.00     0.055 A 
ATOM     90  C   UNL A   1      45.428  35.663  27.982  1.00  0.00     0.041 A 
ATOM     91  F   UNL A   1      44.093  34.181  26.751  1.00  0.00    -0.206 F 
ATOM     92  C   UNL A   1      46.173  35.958  29.121  1.00  0.00     0.022 A 
BRANCH  89  93
ATOM     93  S   UNL A   1      47.208  35.370  31.644  1.00  0.00     0.124 S 
ATOM     94  O   UNL A   1      46.138  35.886  32.492  1.00  0.00    -0.237 OA
ATOM     95  O   UNL A   1      47.758  34.073  32.026  1.00  0.00    -0.237 OA
ATOM     96  O   UNL A   1      48.199  36.361  31.224  1.00  0.00    -0.744 OA
ENDBRANCH  89  93
ENDBRANCH  63  86
ENDBRANCH  37  38
ENDBRANCH  29  32
ENDBRANCH  27  28
ENDBRANCH  26  27
ENDBRANCH  25  26
ENDBRANCH   1  25
TORSDOF 19
ENDMDL
MODEL 3
REMARK VINA RESULT:     -11.3      2.530      3.213
REMARK SMILES C[C@H](CNS(=O)(=O)c1ccc(C(=O)NCCCCNC(=O)c2ccc(-c3c4nc(c(-c5cc(S(=O)(=O)[O-])ccc5F)c5ccc([nH]5)c(-c5cc(S(=O)(=O)[O-])ccc5F)c5nc(c(-c6cc(S(=O)(=O)[O-])ccc6F)c6ccc3[nH]6)C=C5)C=C4)cc2)cc1F)[NH+](C)C
REMARK SMILES IDX 15 1 14 2 12 3 13 4 11 6 8 7 9 8 86 9 10 10 85 11 87 12 5 13
REMARK SMILES IDX 6 14 7 15 4 16 3 18 2 19 1 20 88 21 89 22 90 23 16 25 17 26
REMARK SMILES IDX 18 27 19 28 20 29 21 31 22 32 23 33 84 34 24 35 83 36 25 37
REMARK SMILES IDX 26 38 27 39 77 40 28 41 82 42 76 43 78 44 29 45 81 46 75 47
REMARK SMILES IDX 74 48 30 50 62 51 42 52 61 53 43 54 46 55 60 56 79 57 44 58
REMARK SMILES IDX 45 59 59 61 80 62 47 63 31 64 32 65 40 66 33 67 39 68 41 69
REMARK SMILES IDX 38 70 34 71 35 72 36 73 37 74 63 75 64 76 72 77 65 78 71 79
REMARK SMILES IDX 73 80 70 81 66 82 67 83 68 84 69 85 48 86 49 87 57 88 50 89
REMARK SMILES IDX 56 90 58 91 55 92 51 93 52 94 53 95 54 96
REMARK H PARENT 14 5 4 17 88 24 19 30 78 49 46 60
REMARK Flexibility Score: inf
ROOT
ATOM      1  C   UNL A   1      34.146  21.700  27.232  1.00  0.00     0.116 C 
ENDROOT
BRANCH   1   2
ATOM      2  N   UNL A   1      33.250  20.831  26.493  1.00  0.00    -0.352 N 
ATOM      3  C   UNL A   1      32.560  20.964  25.316  1.00  0.00     0.251 C 
ATOM      4  O   UNL A   1      31.910  19.986  24.940  1.00  0.00    -0.269 OA
ATOM      5  H   UNL A   1      33.106  19.960  26.931  1.00  0.00     0.163 HD
BRANCH   3   6
ATOM      6  C   UNL A   1      32.543  22.193  24.463  1.00  0.00     0.042 A 
ATOM      7  C   UNL A   1      32.501  24.634  23.033  1.00  0.00     0.118 A 
ATOM      8  C   UNL A   1      32.059  24.594  24.358  1.00  0.00     0.026 A 
ATOM      9  C   UNL A   1      32.937  23.467  22.434  1.00  0.00     0.144 A 
ATOM     10  C   UNL A   1      32.072  23.380  25.059  1.00  0.00     0.015 A 
ATOM     11  C   UNL A   1      32.985  22.269  23.146  1.00  0.00     0.054 A 
ATOM     12  F   UNL A   1      33.338  23.419  21.161  1.00  0.00    -0.205 F 
BRANCH   7  13
ATOM     13  S   UNL A   1      32.521  26.189  22.212  1.00  0.00     0.243 S 
ATOM     14  O   UNL A   1      31.359  26.239  21.351  1.00  0.00    -0.207 OA
ATOM     15  O   UNL A   1      33.857  26.357  21.684  1.00  0.00    -0.207 OA
BRANCH  13  16
ATOM     16  N   UNL A   1      32.351  27.382  23.368  1.00  0.00    -0.205 NA
ATOM     17  H   UNL A   1      31.907  28.176  22.907  1.00  0.00     0.141 HD
BRANCH  16  18
ATOM     18  C   UNL A   1      33.535  27.907  24.068  1.00  0.00     0.163 C 
BRANCH  18  19
ATOM     19  C   UNL A   1      33.315  28.030  25.608  1.00  0.00     0.195 C 
ATOM     20  C   UNL A   1      34.477  28.749  26.317  1.00  0.00     0.076 C 
BRANCH  19  21
ATOM     21  N   UNL A   1      31.965  28.532  25.971  1.00  0.00    -0.337 N 
ATOM     22  C   UNL A   1      31.527  28.070  27.288  1.00  0.00     0.332 C 
ATOM     23  C   UNL A   1      31.780  29.973  25.847  1.00  0.00     0.332 C 
ATOM     24  H   UNL A   1      31.363  28.115  25.260  1.00  0.00     0.347 HD
ENDBRANCH  19  21
ENDBRANCH  18  19
ENDBRANCH  16  18
ENDBRANCH  13  16
ENDBRANCH   7  13
ENDBRANCH   3   6
ENDBRANCH   1   2
BRANCH   1  25
ATOM     25  C   UNL A   1      35.282  22.225  26.347  1.00  0.00     0.023 C 
BRANCH  25  26
ATOM     26  C   UNL A   1      36.105  21.130  25.662  1.00  0.00     0.023 C 
BRANCH  26  27
ATOM     27  C   UNL A   1      37.525  21.546  25.292  1.00  0.00     0.116 C 
BRANCH  27  28
ATOM     28  N   UNL A   1      38.529  20.548  25.635  1.00  0.00    -0.352 N 
ATOM     29  C   UNL A   1      39.710  20.756  26.311  1.00  0.00     0.251 C 
ATOM     30  H   UNL A   1      38.343  19.624  25.351  1.00  0.00     0.163 HD
ATOM     31  O   UNL A   1      40.521  19.848  26.451  1.00  0.00    -0.269 OA
BRANCH  29  32
ATOM     32  C   UNL A   1      39.998  22.116  26.810  1.00  0.00     0.039 A 
ATOM     33  C   UNL A   1      40.982  22.282  27.786  1.00  0.00     0.014 A 
ATOM     34  C   UNL A   1      39.369  23.222  26.234  1.00  0.00     0.014 A 
ATOM     35  C   UNL A   1      41.402  23.571  28.123  1.00  0.00     0.010 A 
ATOM     36  C   UNL A   1      39.827  24.501  26.531  1.00  0.00     0.010 A 
ATOM     37  C   UNL A   1      40.862  24.686  27.462  1.00  0.00    -0.014 A 
BRANCH  37  38
ATOM     38  C   UNL A   1      41.378  26.057  27.695  1.00  0.00     0.031 A 
ATOM     39  C   UNL A   1      42.776  26.410  27.276  1.00  0.00     0.074 A 
ATOM     40  C   UNL A   1      40.624  26.951  28.365  1.00  0.00     0.049 A 
ATOM     41  N   UNL A   1      43.480  27.476  27.558  1.00  0.00    -0.248 NA
ATOM     42  C   UNL A   1      43.485  25.416  26.456  1.00  0.00     0.031 C 
ATOM     43  C   UNL A   1      39.258  26.722  28.841  1.00  0.00     0.029 A 
ATOM     44  N   UNL A   1      40.909  28.228  28.778  1.00  0.00    -0.354 N 
ATOM     45  C   UNL A   1      44.723  27.273  26.972  1.00  0.00     0.074 A 
ATOM     46  C   UNL A   1      44.685  25.966  26.348  1.00  0.00     0.031 C 
ATOM     47  C   UNL A   1      38.818  27.828  29.463  1.00  0.00     0.029 A 
ATOM     48  C   UNL A   1      39.885  28.823  29.476  1.00  0.00     0.049 A 
ATOM     49  H   UNL A   1      41.765  28.676  28.592  1.00  0.00     0.167 HD
ATOM     50  C   UNL A   1      45.795  28.102  26.952  1.00  0.00     0.034 A 
ATOM     51  C   UNL A   1      39.819  30.026  30.079  1.00  0.00     0.034 A 
ATOM     52  C   UNL A   1      45.814  29.410  27.558  1.00  0.00     0.049 A 
ATOM     53  C   UNL A   1      41.021  30.929  30.045  1.00  0.00     0.074 A 
ATOM     54  C   UNL A   1      46.841  30.338  27.576  1.00  0.00     0.029 A 
ATOM     55  N   UNL A   1      44.753  29.980  28.249  1.00  0.00    -0.354 N 
ATOM     56  N   UNL A   1      42.204  30.708  29.520  1.00  0.00    -0.248 NA
ATOM     57  C   UNL A   1      40.882  32.241  30.690  1.00  0.00     0.031 C 
ATOM     58  C   UNL A   1      46.415  31.451  28.310  1.00  0.00     0.029 A 
ATOM     59  C   UNL A   1      45.104  31.242  28.703  1.00  0.00     0.049 A 
ATOM     60  H   UNL A   1      43.879  29.552  28.394  1.00  0.00     0.167 HD
ATOM     61  C   UNL A   1      42.946  31.860  29.763  1.00  0.00     0.074 A 
ATOM     62  C   UNL A   1      42.075  32.776  30.470  1.00  0.00     0.031 C 
ATOM     63  C   UNL A   1      44.231  32.134  29.426  1.00  0.00     0.034 A 
BRANCH  50  64
ATOM     64  C   UNL A   1      47.041  27.600  26.273  1.00  0.00     0.023 A 
ATOM     65  C   UNL A   1      48.112  27.064  27.006  1.00  0.00     0.031 A 
ATOM     66  C   UNL A   1      47.165  27.673  24.874  1.00  0.00     0.131 A 
ATOM     67  C   UNL A   1      49.286  26.677  26.345  1.00  0.00     0.055 A 
ATOM     68  C   UNL A   1      48.311  27.223  24.215  1.00  0.00     0.041 A 
ATOM     69  F   UNL A   1      46.179  28.196  24.128  1.00  0.00    -0.206 F 
ATOM     70  C   UNL A   1      49.383  26.731  24.953  1.00  0.00     0.022 A 
BRANCH  67  71
ATOM     71  S   UNL A   1      50.723  26.188  27.336  1.00  0.00     0.124 S 
ATOM     72  O   UNL A   1      51.695  27.214  26.965  1.00  0.00    -0.237 OA
ATOM     73  O   UNL A   1      50.210  26.260  28.700  1.00  0.00    -0.237 OA
ATOM     74  O   UNL A   1      51.029  24.844  26.855  1.00  0.00    -0.744 OA
ENDBRANCH  67  71
ENDBRANCH  50  64
BRANCH  51  75
ATOM     75  C   UNL A   1      38.579  30.440  30.785  1.00  0.00     0.023 A 
ATOM     76  C   UNL A   1      37.589  31.181  30.122  1.00  0.00     0.031 A 
ATOM     77  C   UNL A   1      38.370  30.107  32.136  1.00  0.00     0.131 A 
ATOM     78  C   UNL A   1      36.441  31.590  30.819  1.00  0.00     0.055 A 
ATOM     79  C   UNL A   1      37.212  30.488  32.814  1.00  0.00     0.041 A 
ATOM     80  F   UNL A   1      39.284  29.388  32.805  1.00  0.00    -0.206 F 
ATOM     81  C   UNL A   1      36.242  31.239  32.157  1.00  0.00     0.022 A 
BRANCH  78  82
ATOM     82  S   UNL A   1      35.212  32.604  29.953  1.00  0.00     0.124 S 
ATOM     83  O   UNL A   1      34.315  32.975  31.041  1.00  0.00    -0.237 OA
ATOM     84  O   UNL A   1      36.034  33.678  29.404  1.00  0.00    -0.237 OA
ATOM     85  O   UNL A   1      34.652  31.687  28.963  1.00  0.00    -0.744 OA
ENDBRANCH  78  82
ENDBRANCH  51  75
BRANCH  63  86
ATOM     86  C   UNL A   1      44.758  33.494  29.799  1.00  0.00     0.023 A 
ATOM     87  C   UNL A   1      44.572  34.608  28.965  1.00  0.00     0.031 A 
ATOM     88  C   UNL A   1      45.450  33.673  31.010  1.00  0.00     0.131 A 
ATOM     89  C   UNL A   1      45.109  35.850  29.334  1.00  0.00     0.055 A 
ATOM     90  C   UNL A   1      45.941  34.920  31.393  1.00  0.00     0.041 A 
ATOM     91  F   UNL A   1      45.652  32.638  31.840  1.00  0.00    -0.206 F 
ATOM     92  C   UNL A   1      45.780  36.017  30.549  1.00  0.00     0.022 A 
BRANCH  89  93
ATOM     93  S   UNL A   1      44.965  37.241  28.178  1.00  0.00     0.124 S 
ATOM     94  O   UNL A   1      43.794  37.942  28.694  1.00  0.00    -0.237 OA
ATOM     95  O   UNL A   1      46.244  37.922  28.347  1.00  0.00    -0.237 OA
ATOM     96  O   UNL A   1      44.778  36.590  26.882  1.00  0.00    -0.744 OA
ENDBRANCH  89  93
ENDBRANCH  63  86
ENDBRANCH  37  38
ENDBRANCH  29  32
ENDBRANCH  27  28
ENDBRANCH  26  27
ENDBRANCH  25  26
ENDBRANCH   1  25
TORSDOF 19
ENDMDL
