MODEL 1
REMARK VINA RESULT:     -12.7      0.000      0.000
REMARK SMILES O=C(NCCCCNC(=O)c1ccc(-c2c3nc(c(-c4cc(S(=O)(=O)[O-])ccc4F)c4ccc([nH]4)c(-c4cc(S(=O)(=O)[O-])ccc4F)c4nc(c(-c5cc(S(=O)(=O)[O-])ccc5F)c5ccc2[nH]5)C=C4)C=C3)cc1)C1=Cc2c(Cl)ccc(Cl)c2O[C@@H]1C(F)(F)F
REMARK SMILES IDX 6 1 5 2 4 3 3 4 1 5 2 6 74 8 75 9 85 10 76 11 84 12 77 13
REMARK SMILES IDX 83 14 78 15 79 16 81 17 80 18 82 19 86 20 87 21 88 22 89 23
REMARK SMILES IDX 7 24 8 25 9 26 10 28 11 29 12 30 73 31 13 32 72 33 14 34
REMARK SMILES IDX 15 35 16 36 66 37 17 38 71 39 65 40 67 41 18 42 70 43 64 44
REMARK SMILES IDX 63 45 19 47 51 48 31 49 50 50 32 51 35 52 49 53 68 54 33 55
REMARK SMILES IDX 34 56 48 58 69 59 36 60 20 61 21 62 29 63 22 64 28 65 30 66
REMARK SMILES IDX 27 67 23 68 24 69 25 70 26 71 52 72 53 73 61 74 54 75 60 76
REMARK SMILES IDX 62 77 59 78 55 79 56 80 57 81 58 82 37 83 38 84 46 85 39 86
REMARK SMILES IDX 45 87 47 88 44 89 40 90 41 91 42 92 43 93
REMARK H PARENT 3 7 8 27 67 46 35 57
REMARK Flexibility Score: inf
ROOT
ATOM      1  C   UNL A   1      35.633  20.712  25.331  1.00  0.00     0.023 C 
ENDROOT
BRANCH   1   2
ATOM      2  C   UNL A   1      34.721  21.364  26.364  1.00  0.00     0.023 C 
BRANCH   2   3
ATOM      3  C   UNL A   1      33.237  21.400  26.022  1.00  0.00     0.116 C 
BRANCH   3   4
ATOM      4  N   UNL A   1      32.435  22.299  26.834  1.00  0.00    -0.352 N 
ATOM      5  O   UNL A   1      31.211  24.123  27.321  1.00  0.00    -0.270 OA
ATOM      6  C   UNL A   1      32.031  23.582  26.582  1.00  0.00     0.251 C 
ATOM      7  H   UNL A   1      32.137  21.929  27.697  1.00  0.00     0.163 HD
BRANCH   6   8
ATOM      8  C   UNL A   1      32.485  24.330  25.373  1.00  0.00     0.067 C 
ATOM      9  C   UNL A   1      31.623  25.026  24.613  1.00  0.00     0.027 C 
ATOM     10  C   UNL A   1      33.925  24.763  25.442  1.00  0.00     0.314 C 
ATOM     11  C   UNL A   1      31.831  26.497  24.701  1.00  0.00     0.037 A 
ATOM     12  O   UNL A   1      34.041  26.185  25.700  1.00  0.00    -0.474 OA
ATOM     13  C   UNL A   1      30.772  27.378  24.403  1.00  0.00     0.052 A 
ATOM     14  C   UNL A   1      32.982  26.990  25.346  1.00  0.00     0.148 A 
ATOM     15  Cl  UNL A   1      29.317  26.833  23.643  1.00  0.00    -0.084 Cl
ATOM     16  C   UNL A   1      30.828  28.710  24.819  1.00  0.00     0.023 A 
ATOM     17  C   UNL A   1      33.032  28.333  25.742  1.00  0.00     0.083 A 
ATOM     18  C   UNL A   1      31.949  29.182  25.502  1.00  0.00     0.026 A 
ATOM     19  Cl  UNL A   1      34.382  28.958  26.618  1.00  0.00    -0.080 Cl
BRANCH  10  20
ATOM     20  C   UNL A   1      34.703  24.361  24.177  1.00  0.00     0.429 C 
ATOM     21  F   UNL A   1      36.025  24.217  24.431  1.00  0.00    -0.167 F 
ATOM     22  F   UNL A   1      34.268  23.182  23.671  1.00  0.00    -0.167 F 
ATOM     23  F   UNL A   1      34.584  25.282  23.188  1.00  0.00    -0.167 F 
ENDBRANCH  10  20
ENDBRANCH   6   8
ENDBRANCH   3   4
ENDBRANCH   2   3
ENDBRANCH   1   2
BRANCH   1  24
ATOM     24  C   UNL A   1      37.022  21.324  25.150  1.00  0.00     0.116 C 
BRANCH  24  25
ATOM     25  N   UNL A   1      38.133  20.396  25.308  1.00  0.00    -0.352 N 
ATOM     26  C   UNL A   1      39.337  20.572  25.963  1.00  0.00     0.251 C 
ATOM     27  H   UNL A   1      38.008  19.516  24.886  1.00  0.00     0.163 HD
ATOM     28  O   UNL A   1      40.156  19.662  25.983  1.00  0.00    -0.269 OA
BRANCH  26  29
ATOM     29  C   UNL A   1      39.652  21.883  26.580  1.00  0.00     0.039 A 
ATOM     30  C   UNL A   1      40.663  21.944  27.544  1.00  0.00     0.014 A 
ATOM     31  C   UNL A   1      39.022  23.053  26.154  1.00  0.00     0.014 A 
ATOM     32  C   UNL A   1      41.126  23.190  27.981  1.00  0.00     0.010 A 
ATOM     33  C   UNL A   1      39.537  24.292  26.529  1.00  0.00     0.010 A 
ATOM     34  C   UNL A   1      40.615  24.374  27.424  1.00  0.00    -0.014 A 
BRANCH  34  35
ATOM     35  C   UNL A   1      41.251  25.689  27.708  1.00  0.00     0.031 A 
ATOM     36  C   UNL A   1      42.654  25.985  27.255  1.00  0.00     0.074 A 
ATOM     37  C   UNL A   1      40.584  26.594  28.454  1.00  0.00     0.049 A 
ATOM     38  N   UNL A   1      43.369  27.068  27.431  1.00  0.00    -0.248 NA
ATOM     39  C   UNL A   1      43.355  24.911  26.540  1.00  0.00     0.031 C 
ATOM     40  C   UNL A   1      39.248  26.399  29.025  1.00  0.00     0.029 A 
ATOM     41  N   UNL A   1      40.934  27.856  28.864  1.00  0.00    -0.354 N 
ATOM     42  C   UNL A   1      44.608  26.804  26.857  1.00  0.00     0.074 A 
ATOM     43  C   UNL A   1      44.563  25.432  26.391  1.00  0.00     0.031 C 
ATOM     44  C   UNL A   1      38.879  27.513  29.676  1.00  0.00     0.029 A 
ATOM     45  C   UNL A   1      39.959  28.489  29.601  1.00  0.00     0.049 A 
ATOM     46  H   UNL A   1      41.802  28.271  28.651  1.00  0.00     0.167 HD
ATOM     47  C   UNL A   1      45.673  27.632  26.709  1.00  0.00     0.034 A 
ATOM     48  C   UNL A   1      39.934  29.720  30.151  1.00  0.00     0.034 A 
ATOM     49  C   UNL A   1      45.701  28.999  27.175  1.00  0.00     0.049 A 
ATOM     50  C   UNL A   1      41.123  30.625  29.969  1.00  0.00     0.074 A 
ATOM     51  C   UNL A   1      46.696  29.947  27.010  1.00  0.00     0.029 A 
ATOM     52  N   UNL A   1      44.694  29.609  27.914  1.00  0.00    -0.354 N 
ATOM     53  N   UNL A   1      42.255  30.388  29.350  1.00  0.00    -0.248 NA
ATOM     54  C   UNL A   1      41.020  31.969  30.551  1.00  0.00     0.031 C 
ATOM     55  C   UNL A   1      46.318  31.107  27.699  1.00  0.00     0.029 A 
ATOM     56  C   UNL A   1      45.058  30.908  28.239  1.00  0.00     0.049 A 
ATOM     57  H   UNL A   1      43.845  29.182  28.168  1.00  0.00     0.167 HD
ATOM     58  C   UNL A   1      42.994  31.564  29.451  1.00  0.00     0.074 A 
ATOM     59  C   UNL A   1      42.167  32.511  30.172  1.00  0.00     0.031 C 
ATOM     60  C   UNL A   1      44.240  31.836  28.986  1.00  0.00     0.034 A 
BRANCH  47  61
ATOM     61  C   UNL A   1      46.899  27.061  26.032  1.00  0.00     0.023 A 
ATOM     62  C   UNL A   1      47.880  26.361  26.757  1.00  0.00     0.031 A 
ATOM     63  C   UNL A   1      47.115  27.260  24.658  1.00  0.00     0.131 A 
ATOM     64  C   UNL A   1      49.073  25.972  26.128  1.00  0.00     0.055 A 
ATOM     65  C   UNL A   1      48.266  26.792  24.018  1.00  0.00     0.041 A 
ATOM     66  F   UNL A   1      46.224  27.934  23.915  1.00  0.00    -0.206 F 
ATOM     67  C   UNL A   1      49.262  26.161  24.759  1.00  0.00     0.022 A 
BRANCH  64  68
ATOM     68  S   UNL A   1      50.436  25.371  27.163  1.00  0.00     0.124 S 
ATOM     69  O   UNL A   1      51.415  24.967  26.156  1.00  0.00    -0.237 OA
ATOM     70  O   UNL A   1      50.777  26.549  27.950  1.00  0.00    -0.237 OA
ATOM     71  O   UNL A   1      49.837  24.268  27.913  1.00  0.00    -0.744 OA
ENDBRANCH  64  68
ENDBRANCH  47  61
BRANCH  48  72
ATOM     72  C   UNL A   1      38.739  30.178  30.912  1.00  0.00     0.023 A 
ATOM     73  C   UNL A   1      37.716  30.900  30.278  1.00  0.00     0.031 A 
ATOM     74  C   UNL A   1      38.615  29.921  32.289  1.00  0.00     0.131 A 
ATOM     75  C   UNL A   1      36.628  31.375  31.027  1.00  0.00     0.055 A 
ATOM     76  C   UNL A   1      37.510  30.360  33.021  1.00  0.00     0.041 A 
ATOM     77  F   UNL A   1      39.561  29.224  32.937  1.00  0.00    -0.206 F 
ATOM     78  C   UNL A   1      36.514  31.100  32.392  1.00  0.00     0.022 A 
BRANCH  75  79
ATOM     79  S   UNL A   1      35.387  32.404  30.198  1.00  0.00     0.124 S 
ATOM     80  O   UNL A   1      36.149  33.613  29.906  1.00  0.00    -0.237 OA
ATOM     81  O   UNL A   1      35.026  31.579  29.050  1.00  0.00    -0.237 OA
ATOM     82  O   UNL A   1      34.340  32.554  31.207  1.00  0.00    -0.744 OA
ENDBRANCH  75  79
ENDBRANCH  48  72
BRANCH  60  83
ATOM     83  C   UNL A   1      44.765  33.229  29.234  1.00  0.00     0.023 A 
ATOM     84  C   UNL A   1      44.481  34.289  28.354  1.00  0.00     0.031 A 
ATOM     85  C   UNL A   1      45.592  33.491  30.339  1.00  0.00     0.131 A 
ATOM     86  C   UNL A   1      45.073  35.545  28.558  1.00  0.00     0.055 A 
ATOM     87  C   UNL A   1      46.130  34.758  30.571  1.00  0.00     0.041 A 
ATOM     88  F   UNL A   1      45.899  32.515  31.209  1.00  0.00    -0.206 F 
ATOM     89  C   UNL A   1      45.884  35.790  29.669  1.00  0.00     0.022 A 
BRANCH  86  90
ATOM     90  S   UNL A   1      44.858  36.826  27.292  1.00  0.00     0.124 S 
ATOM     91  O   UNL A   1      46.070  36.672  26.494  1.00  0.00    -0.237 OA
ATOM     92  O   UNL A   1      43.613  36.420  26.647  1.00  0.00    -0.237 OA
ATOM     93  O   UNL A   1      44.780  38.064  28.065  1.00  0.00    -0.744 OA
ENDBRANCH  86  90
ENDBRANCH  60  83
ENDBRANCH  34  35
ENDBRANCH  26  29
ENDBRANCH  24  25
ENDBRANCH   1  24
TORSDOF 15
ENDMDL
MODEL 2
REMARK VINA RESULT:     -12.5      4.746     10.121
REMARK SMILES O=C(NCCCCNC(=O)c1ccc(-c2c3nc(c(-c4cc(S(=O)(=O)[O-])ccc4F)c4ccc([nH]4)c(-c4cc(S(=O)(=O)[O-])ccc4F)c4nc(c(-c5cc(S(=O)(=O)[O-])ccc5F)c5ccc2[nH]5)C=C4)C=C3)cc1)C1=Cc2c(Cl)ccc(Cl)c2O[C@@H]1C(F)(F)F
REMARK SMILES IDX 6 1 5 2 4 3 3 4 1 5 2 6 74 8 75 9 85 10 76 11 84 12 77 13
REMARK SMILES IDX 83 14 78 15 79 16 81 17 80 18 82 19 86 20 87 21 88 22 89 23
REMARK SMILES IDX 7 24 8 25 9 26 10 28 11 29 12 30 73 31 13 32 72 33 14 34
REMARK SMILES IDX 15 35 16 36 66 37 17 38 71 39 65 40 67 41 18 42 70 43 64 44
REMARK SMILES IDX 63 45 19 47 51 48 31 49 50 50 32 51 35 52 49 53 68 54 33 55
REMARK SMILES IDX 34 56 48 58 69 59 36 60 20 61 21 62 29 63 22 64 28 65 30 66
REMARK SMILES IDX 27 67 23 68 24 69 25 70 26 71 52 72 53 73 61 74 54 75 60 76
REMARK SMILES IDX 62 77 59 78 55 79 56 80 57 81 58 82 37 83 38 84 46 85 39 86
REMARK SMILES IDX 45 87 47 88 44 89 40 90 41 91 42 92 43 93
REMARK H PARENT 3 7 8 27 67 46 35 57
REMARK Flexibility Score: inf
ROOT
ATOM      1  C   UNL A   1      31.415  30.049  25.370  1.00  0.00     0.023 C 
ENDROOT
BRANCH   1   2
ATOM      2  C   UNL A   1      31.215  28.557  25.127  1.00  0.00     0.023 C 
BRANCH   2   3
ATOM      3  C   UNL A   1      31.561  27.635  26.289  1.00  0.00     0.116 C 
BRANCH   3   4
ATOM      4  N   UNL A   1      30.743  26.439  26.396  1.00  0.00    -0.352 N 
ATOM      5  O   UNL A   1      30.279  24.237  26.424  1.00  0.00    -0.270 OA
ATOM      6  C   UNL A   1      31.055  25.137  26.108  1.00  0.00     0.251 C 
ATOM      7  H   UNL A   1      29.827  26.586  26.725  1.00  0.00     0.163 HD
BRANCH   6   8
ATOM      8  C   UNL A   1      32.362  24.754  25.498  1.00  0.00     0.067 C 
ATOM      9  C   UNL A   1      33.181  23.871  26.092  1.00  0.00     0.027 C 
ATOM     10  C   UNL A   1      32.387  24.892  23.999  1.00  0.00     0.314 C 
ATOM     11  C   UNL A   1      33.289  22.588  25.346  1.00  0.00     0.037 A 
ATOM     12  O   UNL A   1      32.317  23.601  23.343  1.00  0.00    -0.474 OA
ATOM     13  C   UNL A   1      33.671  21.410  26.019  1.00  0.00     0.052 A 
ATOM     14  C   UNL A   1      32.744  22.499  24.050  1.00  0.00     0.148 A 
ATOM     15  Cl  UNL A   1      34.316  21.443  27.624  1.00  0.00    -0.084 Cl
ATOM     16  C   UNL A   1      33.432  20.161  25.441  1.00  0.00     0.023 A 
ATOM     17  C   UNL A   1      32.525  21.240  23.475  1.00  0.00     0.083 A 
ATOM     18  C   UNL A   1      32.844  20.077  24.179  1.00  0.00     0.026 A 
ATOM     19  Cl  UNL A   1      31.773  21.081  21.929  1.00  0.00    -0.080 Cl
BRANCH  10  20
ATOM     20  C   UNL A   1      33.609  25.694  23.521  1.00  0.00     0.429 C 
ATOM     21  F   UNL A   1      33.331  26.406  22.402  1.00  0.00    -0.167 F 
ATOM     22  F   UNL A   1      34.029  26.579  24.456  1.00  0.00    -0.167 F 
ATOM     23  F   UNL A   1      34.666  24.894  23.233  1.00  0.00    -0.167 F 
ENDBRANCH  10  20
ENDBRANCH   6   8
ENDBRANCH   3   4
ENDBRANCH   2   3
ENDBRANCH   1   2
BRANCH   1  24
ATOM     24  C   UNL A   1      32.408  30.445  26.462  1.00  0.00     0.116 C 
BRANCH  24  25
ATOM     25  N   UNL A   1      32.350  31.841  26.875  1.00  0.00    -0.352 N 
ATOM     26  C   UNL A   1      33.319  32.617  27.481  1.00  0.00     0.251 C 
ATOM     27  H   UNL A   1      31.496  32.296  26.697  1.00  0.00     0.163 HD
ATOM     28  O   UNL A   1      33.076  33.785  27.757  1.00  0.00    -0.269 OA
BRANCH  26  29
ATOM     29  C   UNL A   1      34.622  32.011  27.850  1.00  0.00     0.039 A 
ATOM     30  C   UNL A   1      35.708  32.855  28.096  1.00  0.00     0.014 A 
ATOM     31  C   UNL A   1      34.751  30.634  28.035  1.00  0.00     0.014 A 
ATOM     32  C   UNL A   1      36.879  32.330  28.651  1.00  0.00     0.010 A 
ATOM     33  C   UNL A   1      35.887  30.124  28.661  1.00  0.00     0.010 A 
ATOM     34  C   UNL A   1      36.951  30.972  29.004  1.00  0.00    -0.014 A 
BRANCH  34  35
ATOM     35  C   UNL A   1      38.096  30.449  29.799  1.00  0.00     0.031 A 
ATOM     36  C   UNL A   1      38.315  30.885  31.221  1.00  0.00     0.074 A 
ATOM     37  C   UNL A   1      38.992  29.635  29.204  1.00  0.00     0.049 A 
ATOM     38  N   UNL A   1      39.268  30.545  32.053  1.00  0.00    -0.248 NA
ATOM     39  C   UNL A   1      37.358  31.856  31.766  1.00  0.00     0.031 C 
ATOM     40  C   UNL A   1      38.940  29.200  27.804  1.00  0.00     0.029 A 
ATOM     41  N   UNL A   1      40.122  29.027  29.693  1.00  0.00    -0.354 N 
ATOM     42  C   UNL A   1      39.031  31.267  33.218  1.00  0.00     0.074 A 
ATOM     43  C   UNL A   1      37.884  32.113  32.954  1.00  0.00     0.031 C 
ATOM     44  C   UNL A   1      39.966  28.370  27.561  1.00  0.00     0.029 A 
ATOM     45  C   UNL A   1      40.769  28.237  28.771  1.00  0.00     0.049 A 
ATOM     46  H   UNL A   1      40.439  29.147  30.617  1.00  0.00     0.167 HD
ATOM     47  C   UNL A   1      39.689  31.212  34.404  1.00  0.00     0.034 A 
ATOM     48  C   UNL A   1      41.881  27.484  28.887  1.00  0.00     0.034 A 
ATOM     49  C   UNL A   1      40.828  30.360  34.653  1.00  0.00     0.049 A 
ATOM     50  C   UNL A   1      42.593  27.431  30.212  1.00  0.00     0.074 A 
ATOM     51  C   UNL A   1      41.521  30.168  35.837  1.00  0.00     0.029 A 
ATOM     52  N   UNL A   1      41.455  29.568  33.698  1.00  0.00    -0.354 N 
ATOM     53  N   UNL A   1      42.305  28.056  31.330  1.00  0.00    -0.248 NA
ATOM     54  C   UNL A   1      43.771  26.560  30.291  1.00  0.00     0.031 C 
ATOM     55  C   UNL A   1      42.600  29.312  35.582  1.00  0.00     0.029 A 
ATOM     56  C   UNL A   1      42.544  28.913  34.257  1.00  0.00     0.049 A 
ATOM     57  H   UNL A   1      41.167  29.483  32.761  1.00  0.00     0.167 HD
ATOM     58  C   UNL A   1      43.258  27.635  32.253  1.00  0.00     0.074 A 
ATOM     59  C   UNL A   1      44.113  26.689  31.564  1.00  0.00     0.031 C 
ATOM     60  C   UNL A   1      43.410  27.996  33.553  1.00  0.00     0.034 A 
BRANCH  47  61
ATOM     61  C   UNL A   1      39.196  32.120  35.507  1.00  0.00     0.023 A 
ATOM     62  C   UNL A   1      39.589  33.469  35.580  1.00  0.00     0.031 A 
ATOM     63  C   UNL A   1      38.363  31.623  36.525  1.00  0.00     0.131 A 
ATOM     64  C   UNL A   1      39.232  34.245  36.693  1.00  0.00     0.055 A 
ATOM     65  C   UNL A   1      37.938  32.427  37.586  1.00  0.00     0.041 A 
ATOM     66  F   UNL A   1      37.967  30.342  36.520  1.00  0.00    -0.206 F 
ATOM     67  C   UNL A   1      38.390  33.740  37.685  1.00  0.00     0.022 A 
BRANCH  64  68
ATOM     68  S   UNL A   1      40.025  35.863  36.906  1.00  0.00     0.124 S 
ATOM     69  O   UNL A   1      41.386  35.479  37.272  1.00  0.00    -0.237 OA
ATOM     70  O   UNL A   1      39.863  36.468  35.590  1.00  0.00    -0.237 OA
ATOM     71  O   UNL A   1      39.252  36.483  37.981  1.00  0.00    -0.744 OA
ENDBRANCH  64  68
ENDBRANCH  47  61
BRANCH  48  72
ATOM     72  C   UNL A   1      42.385  26.705  27.722  1.00  0.00     0.023 A 
ATOM     73  C   UNL A   1      42.017  25.363  27.541  1.00  0.00     0.031 A 
ATOM     74  C   UNL A   1      43.261  27.284  26.787  1.00  0.00     0.131 A 
ATOM     75  C   UNL A   1      42.552  24.629  26.471  1.00  0.00     0.055 A 
ATOM     76  C   UNL A   1      43.757  26.562  25.700  1.00  0.00     0.041 A 
ATOM     77  F   UNL A   1      43.632  28.568  26.910  1.00  0.00    -0.206 F 
ATOM     78  C   UNL A   1      43.411  25.224  25.543  1.00  0.00     0.022 A 
BRANCH  75  79
ATOM     79  S   UNL A   1      42.148  22.867  26.338  1.00  0.00     0.124 S 
ATOM     80  O   UNL A   1      40.696  22.883  26.478  1.00  0.00    -0.237 OA
ATOM     81  O   UNL A   1      42.661  22.537  25.012  1.00  0.00    -0.237 OA
ATOM     82  O   UNL A   1      42.877  22.265  27.452  1.00  0.00    -0.744 OA
ENDBRANCH  75  79
ENDBRANCH  48  72
BRANCH  60  83
ATOM     83  C   UNL A   1      44.538  27.338  34.310  1.00  0.00     0.023 A 
ATOM     84  C   UNL A   1      44.378  26.084  34.926  1.00  0.00     0.031 A 
ATOM     85  C   UNL A   1      45.775  27.991  34.451  1.00  0.00     0.131 A 
ATOM     86  C   UNL A   1      45.413  25.553  35.711  1.00  0.00     0.055 A 
ATOM     87  C   UNL A   1      46.823  27.429  35.183  1.00  0.00     0.041 A 
ATOM     88  F   UNL A   1      45.982  29.191  33.887  1.00  0.00    -0.206 F 
ATOM     89  C   UNL A   1      46.639  26.211  35.831  1.00  0.00     0.022 A 
BRANCH  86  90
ATOM     90  S   UNL A   1      45.097  24.040  36.662  1.00  0.00     0.124 S 
ATOM     91  O   UNL A   1      46.412  23.407  36.671  1.00  0.00    -0.237 OA
ATOM     92  O   UNL A   1      44.635  24.568  37.942  1.00  0.00    -0.237 OA
ATOM     93  O   UNL A   1      44.081  23.345  35.875  1.00  0.00    -0.744 OA
ENDBRANCH  86  90
ENDBRANCH  60  83
ENDBRANCH  34  35
ENDBRANCH  26  29
ENDBRANCH  24  25
ENDBRANCH   1  24
TORSDOF 15
ENDMDL
MODEL 3
REMARK VINA RESULT:     -12.5      1.515      7.621
REMARK SMILES O=C(NCCCCNC(=O)c1ccc(-c2c3nc(c(-c4cc(S(=O)(=O)[O-])ccc4F)c4ccc([nH]4)c(-c4cc(S(=O)(=O)[O-])ccc4F)c4nc(c(-c5cc(S(=O)(=O)[O-])ccc5F)c5ccc2[nH]5)C=C4)C=C3)cc1)C1=Cc2c(Cl)ccc(Cl)c2O[C@@H]1C(F)(F)F
REMARK SMILES IDX 6 1 5 2 4 3 3 4 1 5 2 6 74 8 75 9 85 10 76 11 84 12 77 13
REMARK SMILES IDX 83 14 78 15 79 16 81 17 80 18 82 19 86 20 87 21 88 22 89 23
REMARK SMILES IDX 7 24 8 25 9 26 10 28 11 29 12 30 73 31 13 32 72 33 14 34
REMARK SMILES IDX 15 35 16 36 66 37 17 38 71 39 65 40 67 41 18 42 70 43 64 44
REMARK SMILES IDX 63 45 19 47 51 48 31 49 50 50 32 51 35 52 49 53 68 54 33 55
REMARK SMILES IDX 34 56 48 58 69 59 36 60 20 61 21 62 29 63 22 64 28 65 30 66
REMARK SMILES IDX 27 67 23 68 24 69 25 70 26 71 52 72 53 73 61 74 54 75 60 76
REMARK SMILES IDX 62 77 59 78 55 79 56 80 57 81 58 82 37 83 38 84 46 85 39 86
REMARK SMILES IDX 45 87 47 88 44 89 40 90 41 91 42 92 43 93
REMARK H PARENT 3 7 8 27 67 46 35 57
REMARK Flexibility Score: inf
ROOT
ATOM      1  C   UNL A   1      35.667  20.687  25.462  1.00  0.00     0.023 C 
ENDROOT
BRANCH   1   2
ATOM      2  C   UNL A   1      34.759  21.473  26.401  1.00  0.00     0.023 C 
BRANCH   2   3
ATOM      3  C   UNL A   1      33.271  21.448  26.074  1.00  0.00     0.116 C 
BRANCH   3   4
ATOM      4  N   UNL A   1      32.448  22.347  26.864  1.00  0.00    -0.352 N 
ATOM      5  O   UNL A   1      31.182  24.154  27.306  1.00  0.00    -0.270 OA
ATOM      6  C   UNL A   1      32.016  23.615  26.581  1.00  0.00     0.251 C 
ATOM      7  H   UNL A   1      32.155  21.991  27.734  1.00  0.00     0.163 HD
BRANCH   6   8
ATOM      8  C   UNL A   1      32.456  24.345  25.356  1.00  0.00     0.067 C 
ATOM      9  C   UNL A   1      31.590  25.050  24.610  1.00  0.00     0.027 C 
ATOM     10  C   UNL A   1      33.905  24.752  25.390  1.00  0.00     0.314 C 
ATOM     11  C   UNL A   1      31.827  26.518  24.681  1.00  0.00     0.037 A 
ATOM     12  O   UNL A   1      34.053  26.174  25.633  1.00  0.00    -0.474 OA
ATOM     13  C   UNL A   1      30.778  27.416  24.399  1.00  0.00     0.052 A 
ATOM     14  C   UNL A   1      33.001  26.995  25.296  1.00  0.00     0.148 A 
ATOM     15  Cl  UNL A   1      29.297  26.892  23.676  1.00  0.00    -0.084 Cl
ATOM     16  C   UNL A   1      30.868  28.750  24.802  1.00  0.00     0.023 A 
ATOM     17  C   UNL A   1      33.084  28.340  25.680  1.00  0.00     0.083 A 
ATOM     18  C   UNL A   1      32.012  29.207  25.457  1.00  0.00     0.026 A 
ATOM     19  Cl  UNL A   1      34.464  28.947  26.521  1.00  0.00    -0.080 Cl
BRANCH  10  20
ATOM     20  C   UNL A   1      34.648  24.326  24.112  1.00  0.00     0.429 C 
ATOM     21  F   UNL A   1      34.526  25.253  23.132  1.00  0.00    -0.167 F 
ATOM     22  F   UNL A   1      35.974  24.157  24.332  1.00  0.00    -0.167 F 
ATOM     23  F   UNL A   1      34.179  23.154  23.614  1.00  0.00    -0.167 F 
ENDBRANCH  10  20
ENDBRANCH   6   8
ENDBRANCH   3   4
ENDBRANCH   2   3
ENDBRANCH   1   2
BRANCH   1  24
ATOM     24  C   UNL A   1      37.050  21.275  25.184  1.00  0.00     0.116 C 
BRANCH  24  25
ATOM     25  N   UNL A   1      38.159  20.341  25.323  1.00  0.00    -0.352 N 
ATOM     26  C   UNL A   1      39.376  20.512  25.953  1.00  0.00     0.251 C 
ATOM     27  H   UNL A   1      38.021  19.460  24.906  1.00  0.00     0.163 HD
ATOM     28  O   UNL A   1      40.190  19.598  25.960  1.00  0.00    -0.269 OA
BRANCH  26  29
ATOM     29  C   UNL A   1      39.711  21.823  26.561  1.00  0.00     0.039 A 
ATOM     30  C   UNL A   1      40.750  21.884  27.494  1.00  0.00     0.014 A 
ATOM     31  C   UNL A   1      39.068  22.993  26.153  1.00  0.00     0.014 A 
ATOM     32  C   UNL A   1      41.226  23.129  27.917  1.00  0.00     0.010 A 
ATOM     33  C   UNL A   1      39.596  24.232  26.513  1.00  0.00     0.010 A 
ATOM     34  C   UNL A   1      40.700  24.313  27.375  1.00  0.00    -0.014 A 
BRANCH  34  35
ATOM     35  C   UNL A   1      41.345  25.628  27.641  1.00  0.00     0.031 A 
ATOM     36  C   UNL A   1      40.628  26.701  28.412  1.00  0.00     0.074 A 
ATOM     37  C   UNL A   1      42.559  25.884  27.110  1.00  0.00     0.049 A 
ATOM     38  N   UNL A   1      41.031  27.908  28.720  1.00  0.00    -0.248 NA
ATOM     39  C   UNL A   1      39.268  26.386  28.867  1.00  0.00     0.031 C 
ATOM     40  C   UNL A   1      43.327  24.957  26.273  1.00  0.00     0.029 A 
ATOM     41  N   UNL A   1      43.361  26.995  27.190  1.00  0.00    -0.354 N 
ATOM     42  C   UNL A   1      39.972  28.503  29.397  1.00  0.00     0.074 A 
ATOM     43  C   UNL A   1      38.887  27.542  29.390  1.00  0.00     0.031 C 
ATOM     44  C   UNL A   1      44.501  25.523  25.950  1.00  0.00     0.029 A 
ATOM     45  C   UNL A   1      44.559  26.862  26.526  1.00  0.00     0.049 A 
ATOM     46  H   UNL A   1      43.103  27.810  27.677  1.00  0.00     0.167 HD
ATOM     47  C   UNL A   1      39.916  29.722  29.990  1.00  0.00     0.034 A 
ATOM     48  C   UNL A   1      45.591  27.719  26.397  1.00  0.00     0.034 A 
ATOM     49  C   UNL A   1      41.007  30.668  29.992  1.00  0.00     0.049 A 
ATOM     50  C   UNL A   1      45.512  29.064  27.068  1.00  0.00     0.074 A 
ATOM     51  C   UNL A   1      41.086  31.896  30.627  1.00  0.00     0.029 A 
ATOM     52  N   UNL A   1      42.208  30.499  29.313  1.00  0.00    -0.354 N 
ATOM     53  N   UNL A   1      44.534  29.577  27.777  1.00  0.00    -0.248 NA
ATOM     54  C   UNL A   1      46.684  29.937  26.930  1.00  0.00     0.031 C 
ATOM     55  C   UNL A   1      42.305  32.493  30.281  1.00  0.00     0.029 A 
ATOM     56  C   UNL A   1      43.018  31.612  29.486  1.00  0.00     0.049 A 
ATOM     57  H   UNL A   1      42.450  29.703  28.786  1.00  0.00     0.167 HD
ATOM     58  C   UNL A   1      44.984  30.829  28.188  1.00  0.00     0.074 A 
ATOM     59  C   UNL A   1      46.326  30.980  27.664  1.00  0.00     0.031 C 
ATOM     60  C   UNL A   1      44.344  31.767  28.933  1.00  0.00     0.034 A 
BRANCH  47  61
ATOM     61  C   UNL A   1      38.616  30.100  30.664  1.00  0.00     0.023 A 
ATOM     62  C   UNL A   1      37.599  30.782  29.971  1.00  0.00     0.031 A 
ATOM     63  C   UNL A   1      38.408  29.820  32.026  1.00  0.00     0.131 A 
ATOM     64  C   UNL A   1      36.469  31.245  30.661  1.00  0.00     0.055 A 
ATOM     65  C   UNL A   1      37.240  30.207  32.687  1.00  0.00     0.041 A 
ATOM     66  F   UNL A   1      39.347  29.186  32.745  1.00  0.00    -0.206 F 
ATOM     67  C   UNL A   1      36.271  30.942  32.009  1.00  0.00     0.022 A 
BRANCH  64  68
ATOM     68  S   UNL A   1      35.350  32.393  29.811  1.00  0.00     0.124 S 
ATOM     69  O   UNL A   1      34.390  32.706  30.867  1.00  0.00    -0.237 OA
ATOM     70  O   UNL A   1      36.246  33.474  29.420  1.00  0.00    -0.237 OA
ATOM     71  O   UNL A   1      34.813  31.595  28.710  1.00  0.00    -0.744 OA
ENDBRANCH  64  68
ENDBRANCH  47  61
BRANCH  48  72
ATOM     72  C   UNL A   1      46.797  27.330  25.614  1.00  0.00     0.023 A 
ATOM     73  C   UNL A   1      46.961  27.757  24.287  1.00  0.00     0.031 A 
ATOM     74  C   UNL A   1      47.789  26.506  26.173  1.00  0.00     0.131 A 
ATOM     75  C   UNL A   1      48.074  27.329  23.548  1.00  0.00     0.055 A 
ATOM     76  C   UNL A   1      48.916  26.116  25.446  1.00  0.00     0.041 A 
ATOM     77  F   UNL A   1      47.683  26.081  27.442  1.00  0.00    -0.206 F 
ATOM     78  C   UNL A   1      49.058  26.519  24.122  1.00  0.00     0.022 A 
BRANCH  75  79
ATOM     79  S   UNL A   1      48.192  27.803  21.802  1.00  0.00     0.124 S 
ATOM     80  O   UNL A   1      48.389  26.511  21.154  1.00  0.00    -0.237 OA
ATOM     81  O   UNL A   1      46.902  28.446  21.574  1.00  0.00    -0.237 OA
ATOM     82  O   UNL A   1      49.346  28.700  21.770  1.00  0.00    -0.744 OA
ENDBRANCH  75  79
ENDBRANCH  48  72
BRANCH  60  83
ATOM     83  C   UNL A   1      45.115  33.029  29.238  1.00  0.00     0.023 A 
ATOM     84  C   UNL A   1      44.919  34.207  28.495  1.00  0.00     0.031 A 
ATOM     85  C   UNL A   1      46.085  33.041  30.254  1.00  0.00     0.131 A 
ATOM     86  C   UNL A   1      45.728  35.328  28.736  1.00  0.00     0.055 A 
ATOM     87  C   UNL A   1      46.846  34.179  30.530  1.00  0.00     0.041 A 
ATOM     88  F   UNL A   1      46.316  31.943  30.991  1.00  0.00    -0.206 F 
ATOM     89  C   UNL A   1      46.680  35.326  29.758  1.00  0.00     0.022 A 
BRANCH  86  90
ATOM     90  S   UNL A   1      45.595  36.755  27.623  1.00  0.00     0.124 S 
ATOM     91  O   UNL A   1      45.381  37.852  28.560  1.00  0.00    -0.237 OA
ATOM     92  O   UNL A   1      46.885  36.740  26.942  1.00  0.00    -0.237 OA
ATOM     93  O   UNL A   1      44.446  36.427  26.781  1.00  0.00    -0.744 OA
ENDBRANCH  86  90
ENDBRANCH  60  83
ENDBRANCH  34  35
ENDBRANCH  26  29
ENDBRANCH  24  25
ENDBRANCH   1  24
TORSDOF 15
ENDMDL
