MODEL 1
REMARK VINA RESULT:     -13.2      0.000      0.000
REMARK SMILES O=C(NCCCCNC(=O)[C@H](c1c[nH]c2ccc(Br)cc12)[N@H+]1CCC[C@H](c2nc3ccccc3s2)C1)c1ccc(-c2c3nc(c(-c4cc(S(=O)(=O)[O-])ccc4F)c4ccc([nH]4)c(-c4cc(S(=O)(=O)[O-])ccc4F)c4nc(c(-c5cc(S(=O)(=O)[O-])ccc5F)c5ccc2[nH]5)C=C4)C=C3)cc1
REMARK SMILES IDX 5 1 4 2 3 3 1 4 2 5 37 7 38 8 99 9 39 10 98 11 40 12 41 13
REMARK SMILES IDX 42 14 92 15 43 16 97 17 91 18 93 19 44 20 96 21 90 22 89 23
REMARK SMILES IDX 45 25 77 26 57 27 76 28 58 29 61 30 75 31 94 32 59 33 60 34
REMARK SMILES IDX 74 36 95 37 62 38 46 39 47 40 55 41 48 42 54 43 56 44 53 45
REMARK SMILES IDX 49 46 50 47 51 48 52 49 78 50 79 51 87 52 80 53 86 54 88 55
REMARK SMILES IDX 85 56 81 57 82 58 83 59 84 60 63 61 64 62 72 63 65 64 71 65
REMARK SMILES IDX 73 66 70 67 66 68 67 69 68 70 69 71 6 72 7 73 8 74 9 75
REMARK SMILES IDX 10 77 11 78 22 79 23 80 36 81 24 83 26 84 25 85 27 86 28 87
REMARK SMILES IDX 35 88 29 89 34 90 30 91 33 92 31 93 32 94 12 95 13 96 21 97
REMARK SMILES IDX 14 98 15 99 20 100 16 102 18 103 17 104 19 105
REMARK H PARENT 3 6 93 24 61 35 8 76 22 82 14 101
REMARK Flexibility Score: inf
ROOT
ATOM      1  C   UNL A   1      38.255  19.897  24.864  1.00  0.00     0.023 C 
ENDROOT
BRANCH   1   2
ATOM      2  C   UNL A   1      39.221  20.075  26.031  1.00  0.00     0.116 C 
BRANCH   2   3
ATOM      3  N   UNL A   1      40.387  19.206  25.962  1.00  0.00    -0.352 N 
ATOM      4  O   UNL A   1      42.576  18.668  25.862  1.00  0.00    -0.269 OA
ATOM      5  C   UNL A   1      41.719  19.526  26.063  1.00  0.00     0.251 C 
ATOM      6  H   UNL A   1      40.192  18.251  25.823  1.00  0.00     0.163 HD
BRANCH   5   7
ATOM      7  C   UNL A   1      42.125  20.911  26.388  1.00  0.00     0.039 A 
ATOM      8  C   UNL A   1      42.288  21.866  25.380  1.00  0.00     0.014 A 
ATOM      9  C   UNL A   1      42.346  21.254  27.724  1.00  0.00     0.014 A 
ATOM     10  C   UNL A   1      42.796  23.126  25.695  1.00  0.00     0.010 A 
ATOM     11  C   UNL A   1      42.799  22.537  28.043  1.00  0.00     0.010 A 
ATOM     12  C   UNL A   1      43.061  23.471  27.028  1.00  0.00    -0.014 A 
BRANCH  12  13
ATOM     13  C   UNL A   1      43.606  24.812  27.365  1.00  0.00     0.031 A 
ATOM     14  C   UNL A   1      42.700  25.893  27.887  1.00  0.00     0.074 A 
ATOM     15  C   UNL A   1      44.915  25.062  27.176  1.00  0.00     0.049 A 
ATOM     16  N   UNL A   1      42.968  27.148  28.147  1.00  0.00    -0.248 NA
ATOM     17  C   UNL A   1      41.304  25.511  28.140  1.00  0.00     0.031 C 
ATOM     18  C   UNL A   1      45.893  24.092  26.682  1.00  0.00     0.029 A 
ATOM     19  N   UNL A   1      45.645  26.208  27.363  1.00  0.00    -0.354 N 
ATOM     20  C   UNL A   1      41.771  27.713  28.574  1.00  0.00     0.074 A 
ATOM     21  C   UNL A   1      40.771  26.668  28.505  1.00  0.00     0.031 C 
ATOM     22  C   UNL A   1      47.094  24.684  26.602  1.00  0.00     0.029 A 
ATOM     23  C   UNL A   1      46.960  26.086  26.982  1.00  0.00     0.049 A 
ATOM     24  H   UNL A   1      45.264  27.037  27.733  1.00  0.00     0.167 HD
ATOM     25  C   UNL A   1      41.534  28.984  28.991  1.00  0.00     0.034 A 
ATOM     26  C   UNL A   1      47.941  27.007  26.907  1.00  0.00     0.034 A 
ATOM     27  C   UNL A   1      42.547  30.013  29.048  1.00  0.00     0.049 A 
ATOM     28  C   UNL A   1      47.648  28.423  27.317  1.00  0.00     0.074 A 
ATOM     29  C   UNL A   1      42.428  31.321  29.484  1.00  0.00     0.029 A 
ATOM     30  N   UNL A   1      43.867  29.854  28.639  1.00  0.00    -0.354 N 
ATOM     31  N   UNL A   1      46.516  28.943  27.731  1.00  0.00    -0.248 NA
ATOM     32  C   UNL A   1      48.764  29.375  27.257  1.00  0.00     0.031 C 
ATOM     33  C   UNL A   1      43.651  31.970  29.278  1.00  0.00     0.029 A 
ATOM     34  C   UNL A   1      44.560  31.048  28.782  1.00  0.00     0.049 A 
ATOM     35  H   UNL A   1      44.254  29.016  28.296  1.00  0.00     0.167 HD
ATOM     36  C   UNL A   1      46.790  30.279  28.005  1.00  0.00     0.074 A 
ATOM     37  C   UNL A   1      48.194  30.484  27.710  1.00  0.00     0.031 C 
ATOM     38  C   UNL A   1      45.957  31.244  28.472  1.00  0.00     0.034 A 
BRANCH  25  39
ATOM     39  C   UNL A   1      40.112  29.336  29.363  1.00  0.00     0.023 A 
ATOM     40  C   UNL A   1      39.693  29.410  30.704  1.00  0.00     0.031 A 
ATOM     41  C   UNL A   1      39.148  29.552  28.362  1.00  0.00     0.131 A 
ATOM     42  C   UNL A   1      38.336  29.602  31.004  1.00  0.00     0.055 A 
ATOM     43  C   UNL A   1      37.814  29.828  28.671  1.00  0.00     0.041 A 
ATOM     44  F   UNL A   1      39.481  29.476  27.064  1.00  0.00    -0.206 F 
ATOM     45  C   UNL A   1      37.396  29.835  29.998  1.00  0.00     0.022 A 
BRANCH  42  46
ATOM     46  S   UNL A   1      37.788  29.368  32.719  1.00  0.00     0.124 S 
ATOM     47  O   UNL A   1      38.880  29.985  33.468  1.00  0.00    -0.237 OA
ATOM     48  O   UNL A   1      36.516  30.078  32.743  1.00  0.00    -0.237 OA
ATOM     49  O   UNL A   1      37.696  27.915  32.854  1.00  0.00    -0.744 OA
ENDBRANCH  42  46
ENDBRANCH  25  39
BRANCH  26  50
ATOM     50  C   UNL A   1      49.274  26.614  26.374  1.00  0.00     0.023 A 
ATOM     51  C   UNL A   1      49.718  27.059  25.122  1.00  0.00     0.031 A 
ATOM     52  C   UNL A   1      50.134  25.800  27.135  1.00  0.00     0.131 A 
ATOM     53  C   UNL A   1      50.984  26.670  24.655  1.00  0.00     0.055 A 
ATOM     54  C   UNL A   1      51.407  25.451  26.684  1.00  0.00     0.041 A 
ATOM     55  F   UNL A   1      49.755  25.359  28.345  1.00  0.00    -0.206 F 
ATOM     56  C   UNL A   1      51.836  25.883  25.435  1.00  0.00     0.022 A 
BRANCH  53  57
ATOM     57  S   UNL A   1      51.495  27.187  22.993  1.00  0.00     0.124 S 
ATOM     58  O   UNL A   1      52.626  26.303  22.742  1.00  0.00    -0.237 OA
ATOM     59  O   UNL A   1      50.290  26.929  22.211  1.00  0.00    -0.237 OA
ATOM     60  O   UNL A   1      51.830  28.599  23.165  1.00  0.00    -0.744 OA
ENDBRANCH  53  57
ENDBRANCH  26  50
BRANCH  38  61
ATOM     61  C   UNL A   1      46.561  32.597  28.747  1.00  0.00     0.023 A 
ATOM     62  C   UNL A   1      46.594  33.609  27.772  1.00  0.00     0.031 A 
ATOM     63  C   UNL A   1      47.100  32.878  30.015  1.00  0.00     0.131 A 
ATOM     64  C   UNL A   1      47.190  34.845  28.072  1.00  0.00     0.055 A 
ATOM     65  C   UNL A   1      47.648  34.124  30.321  1.00  0.00     0.041 A 
ATOM     66  F   UNL A   1      47.095  31.945  30.980  1.00  0.00    -0.206 F 
ATOM     67  C   UNL A   1      47.702  35.113  29.344  1.00  0.00     0.022 A 
BRANCH  64  68
ATOM     68  S   UNL A   1      47.339  36.088  26.758  1.00  0.00     0.124 S 
ATOM     69  O   UNL A   1      47.673  35.265  25.599  1.00  0.00    -0.237 OA
ATOM     70  O   UNL A   1      46.012  36.694  26.748  1.00  0.00    -0.237 OA
ATOM     71  O   UNL A   1      48.413  36.959  27.230  1.00  0.00    -0.744 OA
ENDBRANCH  64  68
ENDBRANCH  38  61
ENDBRANCH  12  13
ENDBRANCH   5   7
ENDBRANCH   2   3
ENDBRANCH   1   2
BRANCH   1  72
ATOM     72  C   UNL A   1      36.904  20.597  24.992  1.00  0.00     0.023 C 
BRANCH  72  73
ATOM     73  C   UNL A   1      36.922  22.115  24.878  1.00  0.00     0.116 C 
BRANCH  73  74
ATOM     74  N   UNL A   1      36.224  22.645  23.727  1.00  0.00    -0.351 N 
ATOM     75  C   UNL A   1      34.869  22.835  23.570  1.00  0.00     0.283 C 
ATOM     76  H   UNL A   1      36.788  22.902  22.962  1.00  0.00     0.163 HD
ATOM     77  O   UNL A   1      34.536  23.627  22.680  1.00  0.00    -0.268 OA
BRANCH  75  78
ATOM     78  C   UNL A   1      33.845  22.024  24.446  1.00  0.00     0.307 C 
BRANCH  78  79
ATOM     79  N   UNL A   1      32.887  22.964  25.106  1.00  0.00    -0.320 N 
ATOM     80  C   UNL A   1      31.671  22.384  25.678  1.00  0.00     0.263 C 
ATOM     81  C   UNL A   1      33.518  23.943  26.000  1.00  0.00     0.274 C 
ATOM     82  H   UNL A   1      32.541  23.480  24.297  1.00  0.00     0.349 HD
ATOM     83  C   UNL A   1      30.682  23.425  26.215  1.00  0.00     0.062 C 
ATOM     84  C   UNL A   1      32.561  25.083  26.435  1.00  0.00     0.104 C 
ATOM     85  C   UNL A   1      31.356  24.440  27.134  1.00  0.00     0.022 C 
BRANCH  84  86
ATOM     86  C   UNL A   1      32.118  25.975  25.284  1.00  0.00     0.103 A 
ATOM     87  N   UNL A   1      30.873  26.166  24.907  1.00  0.00    -0.241 NA
ATOM     88  S   UNL A   1      33.280  26.897  24.398  1.00  0.00    -0.118 S 
ATOM     89  C   UNL A   1      30.787  27.196  23.989  1.00  0.00     0.082 A 
ATOM     90  C   UNL A   1      32.009  27.737  23.590  1.00  0.00     0.055 A 
ATOM     91  C   UNL A   1      29.597  27.732  23.456  1.00  0.00     0.030 A 
ATOM     92  C   UNL A   1      32.081  28.802  22.676  1.00  0.00     0.021 A 
ATOM     93  C   UNL A   1      29.656  28.793  22.547  1.00  0.00     0.002 A 
ATOM     94  C   UNL A   1      30.886  29.320  22.166  1.00  0.00     0.002 A 
ENDBRANCH  84  86
ENDBRANCH  78  79
BRANCH  78  95
ATOM     95  C   UNL A   1      33.166  20.919  23.631  1.00  0.00     0.044 A 
ATOM     96  C   UNL A   1      32.254  21.085  22.598  1.00  0.00     0.094 A 
ATOM     97  C   UNL A   1      33.380  19.497  23.732  1.00  0.00     0.010 A 
ATOM     98  N   UNL A   1      31.868  19.863  22.133  1.00  0.00    -0.361 N 
ATOM     99  C   UNL A   1      32.542  18.873  22.802  1.00  0.00     0.046 A 
ATOM    100  C   UNL A   1      34.218  18.678  24.519  1.00  0.00     0.026 A 
ATOM    101  H   UNL A   1      31.202  19.715  21.423  1.00  0.00     0.166 HD
ATOM    102  C   UNL A   1      32.479  17.486  22.630  1.00  0.00     0.028 A 
ATOM    103  C   UNL A   1      34.178  17.288  24.340  1.00  0.00     0.018 A 
ATOM    104  C   UNL A   1      33.320  16.699  23.417  1.00  0.00     0.018 A 
ATOM    105  Br  UNL A   1      35.326  16.188  25.367  1.00  0.00    -0.051 Br
ENDBRANCH  78  95
ENDBRANCH  75  78
ENDBRANCH  73  74
ENDBRANCH  72  73
ENDBRANCH   1  72
TORSDOF 17
ENDMDL
MODEL 2
REMARK VINA RESULT:     -13.2      5.449     10.134
REMARK SMILES O=C(NCCCCNC(=O)[C@H](c1c[nH]c2ccc(Br)cc12)[N@H+]1CCC[C@H](c2nc3ccccc3s2)C1)c1ccc(-c2c3nc(c(-c4cc(S(=O)(=O)[O-])ccc4F)c4ccc([nH]4)c(-c4cc(S(=O)(=O)[O-])ccc4F)c4nc(c(-c5cc(S(=O)(=O)[O-])ccc5F)c5ccc2[nH]5)C=C4)C=C3)cc1
REMARK SMILES IDX 5 1 4 2 3 3 1 4 2 5 37 7 38 8 99 9 39 10 98 11 40 12 41 13
REMARK SMILES IDX 42 14 92 15 43 16 97 17 91 18 93 19 44 20 96 21 90 22 89 23
REMARK SMILES IDX 45 25 77 26 57 27 76 28 58 29 61 30 75 31 94 32 59 33 60 34
REMARK SMILES IDX 74 36 95 37 62 38 46 39 47 40 55 41 48 42 54 43 56 44 53 45
REMARK SMILES IDX 49 46 50 47 51 48 52 49 78 50 79 51 87 52 80 53 86 54 88 55
REMARK SMILES IDX 85 56 81 57 82 58 83 59 84 60 63 61 64 62 72 63 65 64 71 65
REMARK SMILES IDX 73 66 70 67 66 68 67 69 68 70 69 71 6 72 7 73 8 74 9 75
REMARK SMILES IDX 10 77 11 78 22 79 23 80 36 81 24 83 26 84 25 85 27 86 28 87
REMARK SMILES IDX 35 88 29 89 34 90 30 91 33 92 31 93 32 94 12 95 13 96 21 97
REMARK SMILES IDX 14 98 15 99 20 100 16 102 18 103 17 104 19 105
REMARK H PARENT 3 6 93 24 61 35 8 76 22 82 14 101
REMARK Flexibility Score: inf
ROOT
ATOM      1  C   UNL A   1      31.560  28.669  25.800  1.00  0.00     0.023 C 
ENDROOT
BRANCH   1   2
ATOM      2  C   UNL A   1      32.694  29.688  25.732  1.00  0.00     0.116 C 
BRANCH   2   3
ATOM      3  N   UNL A   1      32.305  31.023  26.163  1.00  0.00    -0.352 N 
ATOM      4  O   UNL A   1      32.366  32.906  27.405  1.00  0.00    -0.269 OA
ATOM      5  C   UNL A   1      32.906  31.851  27.080  1.00  0.00     0.251 C 
ATOM      6  H   UNL A   1      31.496  31.384  25.736  1.00  0.00     0.163 HD
BRANCH   5   7
ATOM      7  C   UNL A   1      34.193  31.460  27.699  1.00  0.00     0.039 A 
ATOM      8  C   UNL A   1      34.399  30.159  28.167  1.00  0.00     0.014 A 
ATOM      9  C   UNL A   1      35.206  32.416  27.812  1.00  0.00     0.014 A 
ATOM     10  C   UNL A   1      35.566  29.849  28.862  1.00  0.00     0.010 A 
ATOM     11  C   UNL A   1      36.400  32.086  28.458  1.00  0.00     0.010 A 
ATOM     12  C   UNL A   1      36.575  30.810  29.019  1.00  0.00    -0.014 A 
BRANCH  12  13
ATOM     13  C   UNL A   1      37.819  30.483  29.762  1.00  0.00     0.031 A 
ATOM     14  C   UNL A   1      38.851  29.571  29.158  1.00  0.00     0.074 A 
ATOM     15  C   UNL A   1      38.007  30.989  30.995  1.00  0.00     0.049 A 
ATOM     16  N   UNL A   1      39.950  29.094  29.686  1.00  0.00    -0.248 NA
ATOM     17  C   UNL A   1      38.605  29.129  27.778  1.00  0.00     0.031 C 
ATOM     18  C   UNL A   1      37.081  31.890  31.684  1.00  0.00     0.029 A 
ATOM     19  N   UNL A   1      39.028  30.809  31.893  1.00  0.00    -0.354 N 
ATOM     20  C   UNL A   1      40.518  28.279  28.712  1.00  0.00     0.074 A 
ATOM     21  C   UNL A   1      39.621  28.303  27.575  1.00  0.00     0.031 C 
ATOM     22  C   UNL A   1      37.575  32.182  32.896  1.00  0.00     0.029 A 
ATOM     23  C   UNL A   1      38.819  31.445  33.093  1.00  0.00     0.049 A 
ATOM     24  H   UNL A   1      39.833  30.276  31.697  1.00  0.00     0.167 HD
ATOM     25  C   UNL A   1      41.683  27.583  28.763  1.00  0.00     0.034 A 
ATOM     26  C   UNL A   1      39.525  31.409  34.240  1.00  0.00     0.034 A 
ATOM     27  C   UNL A   1      42.562  27.569  29.910  1.00  0.00     0.049 A 
ATOM     28  C   UNL A   1      40.783  30.587  34.300  1.00  0.00     0.074 A 
ATOM     29  C   UNL A   1      43.780  26.929  30.059  1.00  0.00     0.029 A 
ATOM     30  N   UNL A   1      42.308  28.216  31.115  1.00  0.00    -0.354 N 
ATOM     31  N   UNL A   1      41.317  29.830  33.369  1.00  0.00    -0.248 NA
ATOM     32  C   UNL A   1      41.537  30.619  35.560  1.00  0.00     0.031 C 
ATOM     33  C   UNL A   1      44.228  27.131  31.370  1.00  0.00     0.029 A 
ATOM     34  C   UNL A   1      43.328  27.961  32.020  1.00  0.00     0.049 A 
ATOM     35  H   UNL A   1      41.517  28.773  31.300  1.00  0.00     0.167 HD
ATOM     36  C   UNL A   1      42.484  29.315  33.923  1.00  0.00     0.074 A 
ATOM     37  C   UNL A   1      42.576  29.847  35.268  1.00  0.00     0.031 C 
ATOM     38  C   UNL A   1      43.403  28.488  33.363  1.00  0.00     0.034 A 
BRANCH  25  39
ATOM     39  C   UNL A   1      42.038  26.738  27.560  1.00  0.00     0.023 A 
ATOM     40  C   UNL A   1      41.818  25.349  27.540  1.00  0.00     0.031 A 
ATOM     41  C   UNL A   1      42.650  27.323  26.437  1.00  0.00     0.131 A 
ATOM     42  C   UNL A   1      42.287  24.582  26.462  1.00  0.00     0.055 A 
ATOM     43  C   UNL A   1      43.037  26.563  25.330  1.00  0.00     0.041 A 
ATOM     44  F   UNL A   1      42.904  28.640  26.403  1.00  0.00    -0.206 F 
ATOM     45  C   UNL A   1      42.875  25.181  25.346  1.00  0.00     0.022 A 
BRANCH  42  46
ATOM     46  S   UNL A   1      42.277  22.773  26.620  1.00  0.00     0.124 S 
ATOM     47  O   UNL A   1      41.024  22.544  27.335  1.00  0.00    -0.237 OA
ATOM     48  O   UNL A   1      42.310  22.336  25.230  1.00  0.00    -0.237 OA
ATOM     49  O   UNL A   1      43.485  22.491  27.394  1.00  0.00    -0.744 OA
ENDBRANCH  42  46
ENDBRANCH  25  39
BRANCH  26  50
ATOM     50  C   UNL A   1      39.020  32.142  35.434  1.00  0.00     0.023 A 
ATOM     51  C   UNL A   1      38.364  31.472  36.475  1.00  0.00     0.031 A 
ATOM     52  C   UNL A   1      39.216  33.530  35.553  1.00  0.00     0.131 A 
ATOM     53  C   UNL A   1      37.905  32.196  37.587  1.00  0.00     0.055 A 
ATOM     54  C   UNL A   1      38.795  34.237  36.679  1.00  0.00     0.041 A 
ATOM     55  F   UNL A   1      39.850  34.211  34.586  1.00  0.00    -0.206 F 
ATOM     56  C   UNL A   1      38.131  33.571  37.702  1.00  0.00     0.022 A 
BRANCH  53  57
ATOM     57  S   UNL A   1      36.980  31.318  38.876  1.00  0.00     0.124 S 
ATOM     58  O   UNL A   1      35.769  32.124  38.973  1.00  0.00    -0.237 OA
ATOM     59  O   UNL A   1      36.824  29.992  38.288  1.00  0.00    -0.237 OA
ATOM     60  O   UNL A   1      37.868  31.381  40.034  1.00  0.00    -0.744 OA
ENDBRANCH  53  57
ENDBRANCH  26  50
BRANCH  38  61
ATOM     61  C   UNL A   1      44.619  28.153  34.189  1.00  0.00     0.023 A 
ATOM     62  C   UNL A   1      44.709  26.965  34.934  1.00  0.00     0.031 A 
ATOM     63  C   UNL A   1      45.711  29.039  34.216  1.00  0.00     0.131 A 
ATOM     64  C   UNL A   1      45.854  26.713  35.706  1.00  0.00     0.055 A 
ATOM     65  C   UNL A   1      46.865  28.760  34.947  1.00  0.00     0.041 A 
ATOM     66  F   UNL A   1      45.674  30.189  33.523  1.00  0.00    -0.206 F 
ATOM     67  C   UNL A   1      46.938  27.595  35.704  1.00  0.00     0.022 A 
BRANCH  64  68
ATOM     68  S   UNL A   1      45.892  25.237  36.762  1.00  0.00     0.124 S 
ATOM     69  O   UNL A   1      44.511  25.163  37.228  1.00  0.00    -0.237 OA
ATOM     70  O   UNL A   1      46.307  24.195  35.829  1.00  0.00    -0.237 OA
ATOM     71  O   UNL A   1      46.876  25.575  37.788  1.00  0.00    -0.744 OA
ENDBRANCH  64  68
ENDBRANCH  38  61
ENDBRANCH  12  13
ENDBRANCH   5   7
ENDBRANCH   2   3
ENDBRANCH   1   2
BRANCH   1  72
ATOM     72  C   UNL A   1      31.841  27.397  26.598  1.00  0.00     0.023 C 
BRANCH  72  73
ATOM     73  C   UNL A   1      31.017  26.174  26.221  1.00  0.00     0.116 C 
BRANCH  73  74
ATOM     74  N   UNL A   1      31.261  25.004  27.035  1.00  0.00    -0.351 N 
ATOM     75  C   UNL A   1      31.854  23.818  26.660  1.00  0.00     0.283 C 
ATOM     76  H   UNL A   1      30.966  25.061  27.972  1.00  0.00     0.163 HD
ATOM     77  O   UNL A   1      32.288  23.118  27.582  1.00  0.00    -0.268 OA
BRANCH  75  78
ATOM     78  C   UNL A   1      31.894  23.392  25.146  1.00  0.00     0.307 C 
BRANCH  78  79
ATOM     79  N   UNL A   1      32.276  24.564  24.300  1.00  0.00    -0.320 N 
ATOM     80  C   UNL A   1      33.586  25.167  24.548  1.00  0.00     0.263 C 
ATOM     81  C   UNL A   1      31.996  24.395  22.868  1.00  0.00     0.274 C 
ATOM     82  H   UNL A   1      31.626  25.268  24.648  1.00  0.00     0.349 HD
ATOM     83  C   UNL A   1      33.847  26.440  23.735  1.00  0.00     0.062 C 
ATOM     84  C   UNL A   1      32.117  25.712  22.059  1.00  0.00     0.104 C 
ATOM     85  C   UNL A   1      33.542  26.250  22.252  1.00  0.00     0.022 C 
BRANCH  84  86
ATOM     86  C   UNL A   1      31.078  26.757  22.444  1.00  0.00     0.103 A 
ATOM     87  N   UNL A   1      31.144  28.036  22.149  1.00  0.00    -0.241 NA
ATOM     88  S   UNL A   1      29.636  26.290  23.272  1.00  0.00    -0.118 S 
ATOM     89  C   UNL A   1      29.950  28.671  22.437  1.00  0.00     0.082 A 
ATOM     90  C   UNL A   1      28.987  27.872  23.052  1.00  0.00     0.055 A 
ATOM     91  C   UNL A   1      29.638  30.016  22.151  1.00  0.00     0.030 A 
ATOM     92  C   UNL A   1      27.717  28.372  23.388  1.00  0.00     0.021 A 
ATOM     93  C   UNL A   1      28.378  30.525  22.480  1.00  0.00     0.002 A 
ATOM     94  C   UNL A   1      27.430  29.708  23.089  1.00  0.00     0.002 A 
ENDBRANCH  84  86
ENDBRANCH  78  79
BRANCH  78  95
ATOM     95  C   UNL A   1      32.781  22.161  24.937  1.00  0.00     0.044 A 
ATOM     96  C   UNL A   1      32.385  20.919  24.460  1.00  0.00     0.094 A 
ATOM     97  C   UNL A   1      34.205  22.061  25.135  1.00  0.00     0.010 A 
ATOM     98  N   UNL A   1      33.458  20.081  24.429  1.00  0.00    -0.361 N 
ATOM     99  C   UNL A   1      34.587  20.751  24.830  1.00  0.00     0.046 A 
ATOM    100  C   UNL A   1      35.212  22.966  25.533  1.00  0.00     0.026 A 
ATOM    101  H   UNL A   1      33.428  19.135  24.159  1.00  0.00     0.166 HD
ATOM    102  C   UNL A   1      35.905  20.291  24.920  1.00  0.00     0.028 A 
ATOM    103  C   UNL A   1      36.540  22.522  25.607  1.00  0.00     0.018 A 
ATOM    104  C   UNL A   1      36.882  21.205  25.313  1.00  0.00     0.018 A 
ATOM    105  Br  UNL A   1      37.899  23.741  26.107  1.00  0.00    -0.051 Br
ENDBRANCH  78  95
ENDBRANCH  75  78
ENDBRANCH  73  74
ENDBRANCH  72  73
ENDBRANCH   1  72
TORSDOF 17
ENDMDL
MODEL 3
REMARK VINA RESULT:     -13.1      1.770      2.068
REMARK SMILES O=C(NCCCCNC(=O)[C@H](c1c[nH]c2ccc(Br)cc12)[N@H+]1CCC[C@H](c2nc3ccccc3s2)C1)c1ccc(-c2c3nc(c(-c4cc(S(=O)(=O)[O-])ccc4F)c4ccc([nH]4)c(-c4cc(S(=O)(=O)[O-])ccc4F)c4nc(c(-c5cc(S(=O)(=O)[O-])ccc5F)c5ccc2[nH]5)C=C4)C=C3)cc1
REMARK SMILES IDX 5 1 4 2 3 3 1 4 2 5 37 7 38 8 99 9 39 10 98 11 40 12 41 13
REMARK SMILES IDX 42 14 92 15 43 16 97 17 91 18 93 19 44 20 96 21 90 22 89 23
REMARK SMILES IDX 45 25 77 26 57 27 76 28 58 29 61 30 75 31 94 32 59 33 60 34
REMARK SMILES IDX 74 36 95 37 62 38 46 39 47 40 55 41 48 42 54 43 56 44 53 45
REMARK SMILES IDX 49 46 50 47 51 48 52 49 78 50 79 51 87 52 80 53 86 54 88 55
REMARK SMILES IDX 85 56 81 57 82 58 83 59 84 60 63 61 64 62 72 63 65 64 71 65
REMARK SMILES IDX 73 66 70 67 66 68 67 69 68 70 69 71 6 72 7 73 8 74 9 75
REMARK SMILES IDX 10 77 11 78 22 79 23 80 36 81 24 83 26 84 25 85 27 86 28 87
REMARK SMILES IDX 35 88 29 89 34 90 30 91 33 92 31 93 32 94 12 95 13 96 21 97
REMARK SMILES IDX 14 98 15 99 20 100 16 102 18 103 17 104 19 105
REMARK H PARENT 3 6 93 24 61 35 8 76 22 82 14 101
REMARK Flexibility Score: inf
ROOT
ATOM      1  C   UNL A   1      38.035  19.920  24.794  1.00  0.00     0.023 C 
ENDROOT
BRANCH   1   2
ATOM      2  C   UNL A   1      39.119  20.242  25.818  1.00  0.00     0.116 C 
BRANCH   2   3
ATOM      3  N   UNL A   1      40.170  19.238  25.889  1.00  0.00    -0.352 N 
ATOM      4  O   UNL A   1      42.277  18.439  26.030  1.00  0.00    -0.269 OA
ATOM      5  C   UNL A   1      41.515  19.400  26.121  1.00  0.00     0.251 C 
ATOM      6  H   UNL A   1      39.875  18.309  25.753  1.00  0.00     0.163 HD
BRANCH   5   7
ATOM      7  C   UNL A   1      42.053  20.738  26.455  1.00  0.00     0.039 A 
ATOM      8  C   UNL A   1      42.310  21.098  27.780  1.00  0.00     0.014 A 
ATOM      9  C   UNL A   1      42.300  21.643  25.419  1.00  0.00     0.014 A 
ATOM     10  C   UNL A   1      42.691  22.404  28.082  1.00  0.00     0.010 A 
ATOM     11  C   UNL A   1      42.739  22.935  25.721  1.00  0.00     0.010 A 
ATOM     12  C   UNL A   1      42.904  23.336  27.056  1.00  0.00    -0.014 A 
BRANCH  12  13
ATOM     13  C   UNL A   1      43.307  24.730  27.376  1.00  0.00     0.031 A 
ATOM     14  C   UNL A   1      42.330  25.678  28.017  1.00  0.00     0.074 A 
ATOM     15  C   UNL A   1      44.548  25.149  27.067  1.00  0.00     0.049 A 
ATOM     16  N   UNL A   1      42.463  26.952  28.285  1.00  0.00    -0.248 NA
ATOM     17  C   UNL A   1      41.027  25.116  28.395  1.00  0.00     0.031 C 
ATOM     18  C   UNL A   1      45.585  24.320  26.450  1.00  0.00     0.029 A 
ATOM     19  N   UNL A   1      45.143  26.376  27.214  1.00  0.00    -0.354 N 
ATOM     20  C   UNL A   1      41.255  27.352  28.845  1.00  0.00     0.074 A 
ATOM     21  C   UNL A   1      40.392  26.188  28.844  1.00  0.00     0.031 C 
ATOM     22  C   UNL A   1      46.688  25.062  26.270  1.00  0.00     0.029 A 
ATOM     23  C   UNL A   1      46.418  26.429  26.702  1.00  0.00     0.049 A 
ATOM     24  H   UNL A   1      44.701  27.143  27.644  1.00  0.00     0.167 HD
ATOM     25  C   UNL A   1      40.903  28.575  29.320  1.00  0.00     0.034 A 
ATOM     26  C   UNL A   1      47.262  27.469  26.557  1.00  0.00     0.034 A 
ATOM     27  C   UNL A   1      41.779  29.724  29.306  1.00  0.00     0.049 A 
ATOM     28  C   UNL A   1      46.837  28.829  27.035  1.00  0.00     0.074 A 
ATOM     29  C   UNL A   1      41.541  30.999  29.790  1.00  0.00     0.029 A 
ATOM     30  N   UNL A   1      43.060  29.743  28.765  1.00  0.00    -0.354 N 
ATOM     31  N   UNL A   1      45.696  29.194  27.574  1.00  0.00    -0.248 NA
ATOM     32  C   UNL A   1      47.812  29.918  26.893  1.00  0.00     0.031 C 
ATOM     33  C   UNL A   1      42.645  31.803  29.483  1.00  0.00     0.029 A 
ATOM     34  C   UNL A   1      43.608  31.013  28.874  1.00  0.00     0.049 A 
ATOM     35  H   UNL A   1      43.512  28.967  28.361  1.00  0.00     0.167 HD
ATOM     36  C   UNL A   1      45.826  30.549  27.858  1.00  0.00     0.074 A 
ATOM     37  C   UNL A   1      47.156  30.937  27.432  1.00  0.00     0.031 C 
ATOM     38  C   UNL A   1      44.931  31.391  28.433  1.00  0.00     0.034 A 
BRANCH  25  39
ATOM     39  C   UNL A   1      39.493  28.736  29.841  1.00  0.00     0.023 A 
ATOM     40  C   UNL A   1      38.452  29.214  29.025  1.00  0.00     0.031 A 
ATOM     41  C   UNL A   1      39.195  28.454  31.186  1.00  0.00     0.131 A 
ATOM     42  C   UNL A   1      37.191  29.481  29.581  1.00  0.00     0.055 A 
ATOM     43  C   UNL A   1      37.915  28.641  31.712  1.00  0.00     0.041 A 
ATOM     44  F   UNL A   1      40.149  28.013  32.020  1.00  0.00    -0.206 F 
ATOM     45  C   UNL A   1      36.908  29.176  30.914  1.00  0.00     0.022 A 
BRANCH  42  46
ATOM     46  S   UNL A   1      35.982  30.396  28.584  1.00  0.00     0.124 S 
ATOM     47  O   UNL A   1      35.399  31.297  29.575  1.00  0.00    -0.237 OA
ATOM     48  O   UNL A   1      36.821  31.020  27.568  1.00  0.00    -0.237 OA
ATOM     49  O   UNL A   1      35.081  29.353  28.097  1.00  0.00    -0.744 OA
ENDBRANCH  42  46
ENDBRANCH  25  39
BRANCH  26  50
ATOM     50  C   UNL A   1      48.574  27.259  25.884  1.00  0.00     0.023 A 
ATOM     51  C   UNL A   1      48.714  27.412  24.498  1.00  0.00     0.031 A 
ATOM     52  C   UNL A   1      49.714  26.922  26.636  1.00  0.00     0.131 A 
ATOM     53  C   UNL A   1      49.967  27.209  23.900  1.00  0.00     0.055 A 
ATOM     54  C   UNL A   1      50.966  26.763  26.042  1.00  0.00     0.041 A 
ATOM     55  F   UNL A   1      49.630  26.777  27.968  1.00  0.00    -0.206 F 
ATOM     56  C   UNL A   1      51.096  26.902  24.665  1.00  0.00     0.022 A 
BRANCH  53  57
ATOM     57  S   UNL A   1      50.100  27.326  22.095  1.00  0.00     0.124 S 
ATOM     58  O   UNL A   1      51.399  26.711  21.853  1.00  0.00    -0.237 OA
ATOM     59  O   UNL A   1      48.935  26.565  21.655  1.00  0.00    -0.237 OA
ATOM     60  O   UNL A   1      50.031  28.764  21.842  1.00  0.00    -0.744 OA
ENDBRANCH  53  57
ENDBRANCH  26  50
BRANCH  38  61
ATOM     61  C   UNL A   1      45.384  32.806  28.686  1.00  0.00     0.023 A 
ATOM     62  C   UNL A   1      46.087  33.166  29.849  1.00  0.00     0.031 A 
ATOM     63  C   UNL A   1      45.114  33.807  27.736  1.00  0.00     0.131 A 
ATOM     64  C   UNL A   1      46.465  34.503  30.048  1.00  0.00     0.055 A 
ATOM     65  C   UNL A   1      45.535  35.125  27.918  1.00  0.00     0.041 A 
ATOM     66  F   UNL A   1      44.444  33.516  26.610  1.00  0.00    -0.206 F 
ATOM     67  C   UNL A   1      46.208  35.480  29.083  1.00  0.00     0.022 A 
BRANCH  64  68
ATOM     68  S   UNL A   1      47.255  34.967  31.614  1.00  0.00     0.124 S 
ATOM     69  O   UNL A   1      48.646  34.595  31.374  1.00  0.00    -0.237 OA
ATOM     70  O   UNL A   1      46.983  36.398  31.691  1.00  0.00    -0.237 OA
ATOM     71  O   UNL A   1      46.557  34.151  32.606  1.00  0.00    -0.744 OA
ENDBRANCH  64  68
ENDBRANCH  38  61
ENDBRANCH  12  13
ENDBRANCH   5   7
ENDBRANCH   2   3
ENDBRANCH   1   2
BRANCH   1  72
ATOM     72  C   UNL A   1      36.692  20.620  24.988  1.00  0.00     0.023 C 
BRANCH  72  73
ATOM     73  C   UNL A   1      36.726  22.143  25.002  1.00  0.00     0.116 C 
BRANCH  73  74
ATOM     74  N   UNL A   1      36.090  22.774  23.867  1.00  0.00    -0.351 N 
ATOM     75  C   UNL A   1      34.750  23.033  23.681  1.00  0.00     0.283 C 
ATOM     76  H   UNL A   1      36.689  23.053  23.137  1.00  0.00     0.163 HD
ATOM     77  O   UNL A   1      34.480  23.893  22.834  1.00  0.00    -0.268 OA
BRANCH  75  78
ATOM     78  C   UNL A   1      33.664  22.215  24.471  1.00  0.00     0.307 C 
BRANCH  78  79
ATOM     79  N   UNL A   1      32.689  23.152  25.110  1.00  0.00    -0.320 N 
ATOM     80  C   UNL A   1      31.477  22.565  25.682  1.00  0.00     0.263 C 
ATOM     81  C   UNL A   1      33.302  24.153  25.994  1.00  0.00     0.274 C 
ATOM     82  H   UNL A   1      32.343  23.652  24.292  1.00  0.00     0.349 HD
ATOM     83  C   UNL A   1      30.471  23.601  26.197  1.00  0.00     0.062 C 
ATOM     84  C   UNL A   1      32.327  25.287  26.405  1.00  0.00     0.104 C 
ATOM     85  C   UNL A   1      31.125  24.638  27.105  1.00  0.00     0.022 C 
BRANCH  84  86
ATOM     86  C   UNL A   1      31.881  26.155  25.237  1.00  0.00     0.103 A 
ATOM     87  N   UNL A   1      30.633  26.350  24.870  1.00  0.00    -0.241 NA
ATOM     88  S   UNL A   1      33.042  27.044  24.317  1.00  0.00    -0.118 S 
ATOM     89  C   UNL A   1      30.548  27.359  23.927  1.00  0.00     0.082 A 
ATOM     90  C   UNL A   1      31.771  27.877  23.503  1.00  0.00     0.055 A 
ATOM     91  C   UNL A   1      29.358  27.895  23.395  1.00  0.00     0.030 A 
ATOM     92  C   UNL A   1      31.844  28.919  22.562  1.00  0.00     0.021 A 
ATOM     93  C   UNL A   1      29.418  28.932  22.460  1.00  0.00     0.002 A 
ATOM     94  C   UNL A   1      30.649  29.438  22.052  1.00  0.00     0.002 A 
ENDBRANCH  84  86
ENDBRANCH  78  79
BRANCH  78  95
ATOM     95  C   UNL A   1      33.011  21.152  23.584  1.00  0.00     0.044 A 
ATOM     96  C   UNL A   1      32.155  21.371  22.513  1.00  0.00     0.094 A 
ATOM     97  C   UNL A   1      33.196  19.724  23.643  1.00  0.00     0.010 A 
ATOM     98  N   UNL A   1      31.773  20.174  21.985  1.00  0.00    -0.361 N 
ATOM     99  C   UNL A   1      32.397  19.149  22.649  1.00  0.00     0.046 A 
ATOM    100  C   UNL A   1      33.981  18.863  24.439  1.00  0.00     0.026 A 
ATOM    101  H   UNL A   1      31.143  20.063  21.237  1.00  0.00     0.166 HD
ATOM    102  C   UNL A   1      32.321  17.771  22.422  1.00  0.00     0.028 A 
ATOM    103  C   UNL A   1      33.929  17.481  24.207  1.00  0.00     0.018 A 
ATOM    104  C   UNL A   1      33.109  16.941  23.221  1.00  0.00     0.018 A 
ATOM    105  Br  UNL A   1      35.006  16.325  25.249  1.00  0.00    -0.051 Br
ENDBRANCH  78  95
ENDBRANCH  75  78
ENDBRANCH  73  74
ENDBRANCH  72  73
ENDBRANCH   1  72
TORSDOF 17
ENDMDL
