MODEL 1
REMARK VINA RESULT:     -12.8      0.000      0.000
REMARK SMILES O=C(NCCCCNC(=O)c1ccc2c(c1)CCN2C(=O)c1ccn[nH]1)c1ccc(-c2c3nc(c(-c4cc(S(=O)(=O)[O-])ccc4F)c4ccc([nH]4)c(-c4cc(S(=O)(=O)[O-])ccc4F)c4nc(c(-c5cc(S(=O)(=O)[O-])ccc5F)c5ccc2[nH]5)C=C4)C=C3)cc1
REMARK SMILES IDX 5 1 4 2 3 3 1 4 2 5 27 7 28 8 89 9 29 10 88 11 30 12 31 13
REMARK SMILES IDX 32 14 82 15 33 16 87 17 81 18 83 19 34 20 86 21 80 22 79 23
REMARK SMILES IDX 35 25 67 26 47 27 66 28 48 29 51 30 65 31 84 32 49 33 50 34
REMARK SMILES IDX 64 36 85 37 52 38 36 39 37 40 45 41 38 42 44 43 46 44 43 45
REMARK SMILES IDX 39 46 40 47 41 48 42 49 68 50 69 51 77 52 70 53 76 54 78 55
REMARK SMILES IDX 75 56 71 57 72 58 73 59 74 60 53 61 54 62 62 63 55 64 61 65
REMARK SMILES IDX 63 66 60 67 56 68 57 69 58 70 59 71 6 72 7 73 8 74 9 75
REMARK SMILES IDX 10 77 11 78 12 79 16 80 13 81 15 82 14 83 17 84 19 85 18 86
REMARK SMILES IDX 20 87 21 88 22 89 23 90 26 91 24 92 25 93
REMARK H PARENT 3 6 83 24 51 35 8 76 26 94
REMARK Flexibility Score: inf
ROOT
ATOM      1  C   UNL A   1      35.683  22.180  24.226  1.00  0.00     0.023 C 
ENDROOT
BRANCH   1   2
ATOM      2  C   UNL A   1      36.428  22.147  25.556  1.00  0.00     0.116 C 
BRANCH   2   3
ATOM      3  N   UNL A   1      37.379  21.049  25.641  1.00  0.00    -0.352 N 
ATOM      4  O   UNL A   1      39.394  20.060  25.815  1.00  0.00    -0.269 OA
ATOM      5  C   UNL A   1      38.716  21.073  25.960  1.00  0.00     0.251 C 
ATOM      6  H   UNL A   1      37.011  20.159  25.440  1.00  0.00     0.163 HD
BRANCH   5   7
ATOM      7  C   UNL A   1      39.336  22.320  26.457  1.00  0.00     0.039 A 
ATOM      8  C   UNL A   1      38.839  23.570  26.077  1.00  0.00     0.014 A 
ATOM      9  C   UNL A   1      40.427  22.231  27.326  1.00  0.00     0.014 A 
ATOM     10  C   UNL A   1      39.512  24.728  26.456  1.00  0.00     0.010 A 
ATOM     11  C   UNL A   1      41.056  23.398  27.766  1.00  0.00     0.010 A 
ATOM     12  C   UNL A   1      40.622  24.655  27.311  1.00  0.00    -0.014 A 
BRANCH  12  13
ATOM     13  C   UNL A   1      41.310  25.893  27.756  1.00  0.00     0.031 A 
ATOM     14  C   UNL A   1      40.561  26.954  28.511  1.00  0.00     0.074 A 
ATOM     15  C   UNL A   1      42.608  26.072  27.445  1.00  0.00     0.049 A 
ATOM     16  N   UNL A   1      40.956  28.145  28.880  1.00  0.00    -0.248 NA
ATOM     17  C   UNL A   1      39.177  26.635  28.887  1.00  0.00     0.031 C 
ATOM     18  C   UNL A   1      43.439  25.108  26.722  1.00  0.00     0.029 A 
ATOM     19  N   UNL A   1      43.449  27.130  27.678  1.00  0.00    -0.354 N 
ATOM     20  C   UNL A   1      39.865  28.731  29.512  1.00  0.00     0.074 A 
ATOM     21  C   UNL A   1      38.782  27.771  29.442  1.00  0.00     0.031 C 
ATOM     22  C   UNL A   1      44.669  25.619  26.570  1.00  0.00     0.029 A 
ATOM     23  C   UNL A   1      44.694  26.970  27.119  1.00  0.00     0.049 A 
ATOM     24  H   UNL A   1      43.186  27.926  28.195  1.00  0.00     0.167 HD
ATOM     25  C   UNL A   1      39.780  29.952  30.099  1.00  0.00     0.034 A 
ATOM     26  C   UNL A   1      45.727  27.828  27.013  1.00  0.00     0.034 A 
ATOM     27  C   UNL A   1      40.875  30.895  30.146  1.00  0.00     0.049 A 
ATOM     28  C   UNL A   1      45.597  29.203  27.609  1.00  0.00     0.074 A 
ATOM     29  C   UNL A   1      40.916  32.142  30.745  1.00  0.00     0.029 A 
ATOM     30  N   UNL A   1      42.119  30.702  29.554  1.00  0.00    -0.354 N 
ATOM     31  N   UNL A   1      44.566  29.740  28.218  1.00  0.00    -0.248 NA
ATOM     32  C   UNL A   1      46.766  30.083  27.507  1.00  0.00     0.031 C 
ATOM     33  C   UNL A   1      42.150  32.733  30.450  1.00  0.00     0.029 A 
ATOM     34  C   UNL A   1      42.918  31.821  29.740  1.00  0.00     0.049 A 
ATOM     35  H   UNL A   1      42.393  29.888  29.071  1.00  0.00     0.167 HD
ATOM     36  C   UNL A   1      44.973  31.014  28.600  1.00  0.00     0.074 A 
ATOM     37  C   UNL A   1      46.342  31.164  28.150  1.00  0.00     0.031 C 
ATOM     38  C   UNL A   1      44.279  31.965  29.277  1.00  0.00     0.034 A 
BRANCH  25  39
ATOM     39  C   UNL A   1      38.442  30.353  30.677  1.00  0.00     0.023 A 
ATOM     40  C   UNL A   1      37.447  30.964  29.892  1.00  0.00     0.031 A 
ATOM     41  C   UNL A   1      38.175  30.174  32.047  1.00  0.00     0.131 A 
ATOM     42  C   UNL A   1      36.282  31.462  30.497  1.00  0.00     0.055 A 
ATOM     43  C   UNL A   1      36.973  30.588  32.625  1.00  0.00     0.041 A 
ATOM     44  F   UNL A   1      39.089  29.615  32.854  1.00  0.00    -0.206 F 
ATOM     45  C   UNL A   1      36.027  31.256  31.853  1.00  0.00     0.022 A 
BRANCH  42  46
ATOM     46  S   UNL A   1      35.201  32.548  29.523  1.00  0.00     0.124 S 
ATOM     47  O   UNL A   1      34.328  33.101  30.556  1.00  0.00    -0.237 OA
ATOM     48  O   UNL A   1      36.148  33.477  28.921  1.00  0.00    -0.237 OA
ATOM     49  O   UNL A   1      34.545  31.631  28.592  1.00  0.00    -0.744 OA
ENDBRANCH  42  46
ENDBRANCH  25  39
BRANCH  26  50
ATOM     50  C   UNL A   1      46.944  27.414  26.264  1.00  0.00     0.023 A 
ATOM     51  C   UNL A   1      47.099  27.709  24.901  1.00  0.00     0.031 A 
ATOM     52  C   UNL A   1      47.992  26.741  26.920  1.00  0.00     0.131 A 
ATOM     53  C   UNL A   1      48.269  27.317  24.234  1.00  0.00     0.055 A 
ATOM     54  C   UNL A   1      49.171  26.394  26.263  1.00  0.00     0.041 A 
ATOM     55  F   UNL A   1      47.895  26.448  28.227  1.00  0.00    -0.206 F 
ATOM     56  C   UNL A   1      49.312  26.676  24.909  1.00  0.00     0.022 A 
BRANCH  53  57
ATOM     57  S   UNL A   1      48.398  27.626  22.452  1.00  0.00     0.124 S 
ATOM     58  O   UNL A   1      48.537  26.274  21.925  1.00  0.00    -0.237 OA
ATOM     59  O   UNL A   1      47.136  28.300  22.168  1.00  0.00    -0.237 OA
ATOM     60  O   UNL A   1      49.589  28.466  22.338  1.00  0.00    -0.744 OA
ENDBRANCH  53  57
ENDBRANCH  26  50
BRANCH  38  61
ATOM     61  C   UNL A   1      45.012  33.235  29.626  1.00  0.00     0.023 A 
ATOM     62  C   UNL A   1      45.002  34.361  28.785  1.00  0.00     0.031 A 
ATOM     63  C   UNL A   1      45.711  33.324  30.845  1.00  0.00     0.131 A 
ATOM     64  C   UNL A   1      45.704  35.517  29.161  1.00  0.00     0.055 A 
ATOM     65  C   UNL A   1      46.364  34.492  31.235  1.00  0.00     0.041 A 
ATOM     66  F   UNL A   1      45.754  32.276  31.684  1.00  0.00    -0.206 F 
ATOM     67  C   UNL A   1      46.368  35.596  30.388  1.00  0.00     0.022 A 
BRANCH  64  68
ATOM     68  S   UNL A   1      45.784  36.910  28.001  1.00  0.00     0.124 S 
ATOM     69  O   UNL A   1      44.947  37.905  28.664  1.00  0.00    -0.237 OA
ATOM     70  O   UNL A   1      47.213  37.204  27.959  1.00  0.00    -0.237 OA
ATOM     71  O   UNL A   1      45.230  36.360  26.765  1.00  0.00    -0.744 OA
ENDBRANCH  64  68
ENDBRANCH  38  61
ENDBRANCH  12  13
ENDBRANCH   5   7
ENDBRANCH   2   3
ENDBRANCH   1   2
BRANCH   1  72
ATOM     72  C   UNL A   1      34.220  22.608  24.310  1.00  0.00     0.023 C 
BRANCH  72  73
ATOM     73  C   UNL A   1      33.894  23.603  25.416  1.00  0.00     0.116 C 
BRANCH  73  74
ATOM     74  N   UNL A   1      32.827  23.154  26.299  1.00  0.00    -0.352 N 
ATOM     75  C   UNL A   1      31.647  23.785  26.610  1.00  0.00     0.251 C 
ATOM     76  H   UNL A   1      32.970  22.280  26.730  1.00  0.00     0.163 HD
ATOM     77  O   UNL A   1      30.895  23.332  27.469  1.00  0.00    -0.269 OA
BRANCH  75  78
ATOM     78  C   UNL A   1      31.289  25.042  25.923  1.00  0.00     0.040 A 
ATOM     79  C   UNL A   1      30.481  25.019  24.778  1.00  0.00     0.016 A 
ATOM     80  C   UNL A   1      31.789  26.250  26.410  1.00  0.00     0.019 A 
ATOM     81  C   UNL A   1      30.252  26.186  24.047  1.00  0.00     0.027 A 
ATOM     82  C   UNL A   1      31.506  27.410  25.696  1.00  0.00    -0.022 A 
ATOM     83  C   UNL A   1      30.750  27.389  24.516  1.00  0.00     0.047 A 
ATOM     84  C   UNL A   1      32.022  28.781  25.994  1.00  0.00     0.059 C 
ATOM     85  N   UNL A   1      30.665  28.691  23.986  1.00  0.00    -0.306 N 
ATOM     86  C   UNL A   1      31.312  29.616  24.928  1.00  0.00     0.131 C 
BRANCH  85  87
ATOM     87  C   UNL A   1      30.141  29.190  22.798  1.00  0.00     0.276 C 
ATOM     88  O   UNL A   1      30.362  28.616  21.731  1.00  0.00    -0.267 OA
BRANCH  87  89
ATOM     89  C   UNL A   1      29.290  30.347  22.815  1.00  0.00     0.123 A 
ATOM     90  C   UNL A   1      28.092  30.609  23.452  1.00  0.00     0.055 A 
ATOM     91  N   UNL A   1      29.639  31.524  22.214  1.00  0.00    -0.273 N 
ATOM     92  C   UNL A   1      27.751  31.916  23.058  1.00  0.00     0.135 A 
ATOM     93  N   UNL A   1      28.690  32.473  22.290  1.00  0.00    -0.183 NA
ATOM     94  H   UNL A   1      30.505  31.665  21.766  1.00  0.00     0.190 HD
ENDBRANCH  87  89
ENDBRANCH  85  87
ENDBRANCH  75  78
ENDBRANCH  73  74
ENDBRANCH  72  73
ENDBRANCH   1  72
TORSDOF 16
ENDMDL
MODEL 2
REMARK VINA RESULT:     -12.7      5.661     10.971
REMARK SMILES O=C(NCCCCNC(=O)c1ccc2c(c1)CCN2C(=O)c1ccn[nH]1)c1ccc(-c2c3nc(c(-c4cc(S(=O)(=O)[O-])ccc4F)c4ccc([nH]4)c(-c4cc(S(=O)(=O)[O-])ccc4F)c4nc(c(-c5cc(S(=O)(=O)[O-])ccc5F)c5ccc2[nH]5)C=C4)C=C3)cc1
REMARK SMILES IDX 5 1 4 2 3 3 1 4 2 5 27 7 28 8 89 9 29 10 88 11 30 12 31 13
REMARK SMILES IDX 32 14 82 15 33 16 87 17 81 18 83 19 34 20 86 21 80 22 79 23
REMARK SMILES IDX 35 25 67 26 47 27 66 28 48 29 51 30 65 31 84 32 49 33 50 34
REMARK SMILES IDX 64 36 85 37 52 38 36 39 37 40 45 41 38 42 44 43 46 44 43 45
REMARK SMILES IDX 39 46 40 47 41 48 42 49 68 50 69 51 77 52 70 53 76 54 78 55
REMARK SMILES IDX 75 56 71 57 72 58 73 59 74 60 53 61 54 62 62 63 55 64 61 65
REMARK SMILES IDX 63 66 60 67 56 68 57 69 58 70 59 71 6 72 7 73 8 74 9 75
REMARK SMILES IDX 10 77 11 78 12 79 16 80 13 81 15 82 14 83 17 84 19 85 18 86
REMARK SMILES IDX 20 87 21 88 22 89 23 90 26 91 24 92 25 93
REMARK H PARENT 3 6 83 24 51 35 8 76 26 94
REMARK Flexibility Score: inf
ROOT
ATOM      1  C   UNL A   1      31.554  32.016  26.649  1.00  0.00     0.023 C 
ENDROOT
BRANCH   1   2
ATOM      2  C   UNL A   1      32.836  32.683  27.138  1.00  0.00     0.116 C 
BRANCH   2   3
ATOM      3  N   UNL A   1      32.601  34.001  27.708  1.00  0.00    -0.352 N 
ATOM      4  O   UNL A   1      32.757  35.666  29.216  1.00  0.00    -0.269 OA
ATOM      5  C   UNL A   1      33.209  34.611  28.779  1.00  0.00     0.251 C 
ATOM      6  H   UNL A   1      31.905  34.534  27.260  1.00  0.00     0.163 HD
BRANCH   5   7
ATOM      7  C   UNL A   1      34.390  33.988  29.414  1.00  0.00     0.039 A 
ATOM      8  C   UNL A   1      34.242  33.000  30.392  1.00  0.00     0.014 A 
ATOM      9  C   UNL A   1      35.665  34.395  29.013  1.00  0.00     0.014 A 
ATOM     10  C   UNL A   1      35.360  32.516  31.064  1.00  0.00     0.010 A 
ATOM     11  C   UNL A   1      36.791  33.853  29.638  1.00  0.00     0.010 A 
ATOM     12  C   UNL A   1      36.647  32.931  30.688  1.00  0.00    -0.014 A 
BRANCH  12  13
ATOM     13  C   UNL A   1      37.844  32.377  31.371  1.00  0.00     0.031 A 
ATOM     14  C   UNL A   1      38.629  31.258  30.748  1.00  0.00     0.074 A 
ATOM     15  C   UNL A   1      38.199  32.866  32.574  1.00  0.00     0.049 A 
ATOM     16  N   UNL A   1      39.626  30.570  31.242  1.00  0.00    -0.248 NA
ATOM     17  C   UNL A   1      38.226  30.850  29.395  1.00  0.00     0.031 C 
ATOM     18  C   UNL A   1      37.517  33.957  33.272  1.00  0.00     0.029 A 
ATOM     19  N   UNL A   1      39.207  32.500  33.429  1.00  0.00    -0.354 N 
ATOM     20  C   UNL A   1      39.959  29.630  30.271  1.00  0.00     0.074 A 
ATOM     21  C   UNL A   1      39.029  29.819  29.177  1.00  0.00     0.031 C 
ATOM     22  C   UNL A   1      38.123  34.170  34.449  1.00  0.00     0.029 A 
ATOM     23  C   UNL A   1      39.189  33.188  34.619  1.00  0.00     0.049 A 
ATOM     24  H   UNL A   1      39.876  31.811  33.213  1.00  0.00     0.167 HD
ATOM     25  C   UNL A   1      40.951  28.703  30.294  1.00  0.00     0.034 A 
ATOM     26  C   UNL A   1      39.912  33.020  35.743  1.00  0.00     0.034 A 
ATOM     27  C   UNL A   1      41.859  28.530  31.405  1.00  0.00     0.049 A 
ATOM     28  C   UNL A   1      40.963  31.945  35.779  1.00  0.00     0.074 A 
ATOM     29  C   UNL A   1      42.923  27.652  31.522  1.00  0.00     0.029 A 
ATOM     30  N   UNL A   1      41.800  29.239  32.601  1.00  0.00    -0.354 N 
ATOM     31  N   UNL A   1      41.279  31.073  34.851  1.00  0.00    -0.248 NA
ATOM     32  C   UNL A   1      41.755  31.833  37.009  1.00  0.00     0.031 C 
ATOM     33  C   UNL A   1      43.454  27.774  32.811  1.00  0.00     0.029 A 
ATOM     34  C   UNL A   1      42.780  28.790  33.473  1.00  0.00     0.049 A 
ATOM     35  H   UNL A   1      41.153  29.955  32.800  1.00  0.00     0.167 HD
ATOM     36  C   UNL A   1      42.330  30.326  35.373  1.00  0.00     0.074 A 
ATOM     37  C   UNL A   1      42.591  30.849  36.700  1.00  0.00     0.031 C 
ATOM     38  C   UNL A   1      43.024  29.311  34.799  1.00  0.00     0.034 A 
BRANCH  25  39
ATOM     39  C   UNL A   1      41.056  27.772  29.108  1.00  0.00     0.023 A 
ATOM     40  C   UNL A   1      42.048  27.931  28.124  1.00  0.00     0.031 A 
ATOM     41  C   UNL A   1      40.116  26.741  28.926  1.00  0.00     0.131 A 
ATOM     42  C   UNL A   1      42.018  27.145  26.961  1.00  0.00     0.055 A 
ATOM     43  C   UNL A   1      40.148  25.900  27.811  1.00  0.00     0.041 A 
ATOM     44  F   UNL A   1      39.132  26.547  29.818  1.00  0.00    -0.206 F 
ATOM     45  C   UNL A   1      41.089  26.114  26.809  1.00  0.00     0.022 A 
BRANCH  42  46
ATOM     46  S   UNL A   1      43.086  27.618  25.572  1.00  0.00     0.124 S 
ATOM     47  O   UNL A   1      44.061  28.485  26.229  1.00  0.00    -0.237 OA
ATOM     48  O   UNL A   1      43.587  26.329  25.108  1.00  0.00    -0.237 OA
ATOM     49  O   UNL A   1      42.175  28.301  24.657  1.00  0.00    -0.744 OA
ENDBRANCH  42  46
ENDBRANCH  25  39
BRANCH  26  50
ATOM     50  C   UNL A   1      39.616  33.863  36.933  1.00  0.00     0.023 A 
ATOM     51  C   UNL A   1      38.949  33.340  38.051  1.00  0.00     0.031 A 
ATOM     52  C   UNL A   1      40.032  35.206  36.978  1.00  0.00     0.131 A 
ATOM     53  C   UNL A   1      38.704  34.162  39.161  1.00  0.00     0.055 A 
ATOM     54  C   UNL A   1      39.826  36.006  38.100  1.00  0.00     0.041 A 
ATOM     55  F   UNL A   1      40.686  35.748  35.937  1.00  0.00    -0.206 F 
ATOM     56  C   UNL A   1      39.151  35.486  39.200  1.00  0.00     0.022 A 
BRANCH  53  57
ATOM     57  S   UNL A   1      37.755  33.486  40.550  1.00  0.00     0.124 S 
ATOM     58  O   UNL A   1      38.716  32.566  41.147  1.00  0.00    -0.237 OA
ATOM     59  O   UNL A   1      37.447  34.686  41.322  1.00  0.00    -0.237 OA
ATOM     60  O   UNL A   1      36.606  32.855  39.902  1.00  0.00    -0.744 OA
ENDBRANCH  53  57
ENDBRANCH  26  50
BRANCH  38  61
ATOM     61  C   UNL A   1      44.178  28.736  35.581  1.00  0.00     0.023 A 
ATOM     62  C   UNL A   1      44.013  27.678  36.491  1.00  0.00     0.031 A 
ATOM     63  C   UNL A   1      45.475  29.245  35.384  1.00  0.00     0.131 A 
ATOM     64  C   UNL A   1      45.123  27.183  37.193  1.00  0.00     0.055 A 
ATOM     65  C   UNL A   1      46.582  28.715  36.048  1.00  0.00     0.041 A 
ATOM     66  F   UNL A   1      45.689  30.258  34.529  1.00  0.00    -0.206 F 
ATOM     67  C   UNL A   1      46.407  27.682  36.963  1.00  0.00     0.022 A 
BRANCH  64  68
ATOM     68  S   UNL A   1      44.864  25.906  38.455  1.00  0.00     0.124 S 
ATOM     69  O   UNL A   1      44.189  26.655  39.510  1.00  0.00    -0.237 OA
ATOM     70  O   UNL A   1      44.048  24.924  37.747  1.00  0.00    -0.237 OA
ATOM     71  O   UNL A   1      46.218  25.464  38.780  1.00  0.00    -0.744 OA
ENDBRANCH  64  68
ENDBRANCH  38  61
ENDBRANCH  12  13
ENDBRANCH   5   7
ENDBRANCH   2   3
ENDBRANCH   1   2
BRANCH   1  72
ATOM     72  C   UNL A   1      31.633  30.502  26.478  1.00  0.00     0.023 C 
BRANCH  72  73
ATOM     73  C   UNL A   1      32.988  29.966  26.030  1.00  0.00     0.116 C 
BRANCH  73  74
ATOM     74  N   UNL A   1      33.065  29.723  24.597  1.00  0.00    -0.352 N 
ATOM     75  C   UNL A   1      33.104  28.523  23.929  1.00  0.00     0.251 C 
ATOM     76  H   UNL A   1      33.092  30.527  24.029  1.00  0.00     0.163 HD
ATOM     77  O   UNL A   1      33.290  28.479  22.717  1.00  0.00    -0.269 OA
BRANCH  75  78
ATOM     78  C   UNL A   1      32.948  27.263  24.685  1.00  0.00     0.040 A 
ATOM     79  C   UNL A   1      34.072  26.506  25.041  1.00  0.00     0.016 A 
ATOM     80  C   UNL A   1      31.666  26.822  25.015  1.00  0.00     0.019 A 
ATOM     81  C   UNL A   1      33.923  25.250  25.633  1.00  0.00     0.027 A 
ATOM     82  C   UNL A   1      31.542  25.593  25.653  1.00  0.00    -0.022 A 
ATOM     83  C   UNL A   1      32.656  24.799  25.957  1.00  0.00     0.047 A 
ATOM     84  C   UNL A   1      30.263  24.903  26.003  1.00  0.00     0.059 C 
ATOM     85  N   UNL A   1      32.231  23.595  26.552  1.00  0.00    -0.306 N 
ATOM     86  C   UNL A   1      30.773  23.661  26.735  1.00  0.00     0.131 C 
BRANCH  85  87
ATOM     87  C   UNL A   1      32.909  22.441  26.929  1.00  0.00     0.276 C 
ATOM     88  O   UNL A   1      33.367  22.334  28.068  1.00  0.00    -0.267 OA
BRANCH  87  89
ATOM     89  C   UNL A   1      33.031  21.343  26.012  1.00  0.00     0.123 A 
ATOM     90  C   UNL A   1      34.126  20.643  25.541  1.00  0.00     0.055 A 
ATOM     91  N   UNL A   1      31.944  20.693  25.497  1.00  0.00    -0.273 N 
ATOM     92  C   UNL A   1      33.592  19.690  24.654  1.00  0.00     0.135 A 
ATOM     93  N   UNL A   1      32.258  19.728  24.615  1.00  0.00    -0.183 NA
ATOM     94  H   UNL A   1      31.017  20.911  25.747  1.00  0.00     0.190 HD
ENDBRANCH  87  89
ENDBRANCH  85  87
ENDBRANCH  75  78
ENDBRANCH  73  74
ENDBRANCH  72  73
ENDBRANCH   1  72
TORSDOF 16
ENDMDL
MODEL 3
REMARK VINA RESULT:     -12.6      4.856      8.188
REMARK SMILES O=C(NCCCCNC(=O)c1ccc2c(c1)CCN2C(=O)c1ccn[nH]1)c1ccc(-c2c3nc(c(-c4cc(S(=O)(=O)[O-])ccc4F)c4ccc([nH]4)c(-c4cc(S(=O)(=O)[O-])ccc4F)c4nc(c(-c5cc(S(=O)(=O)[O-])ccc5F)c5ccc2[nH]5)C=C4)C=C3)cc1
REMARK SMILES IDX 5 1 4 2 3 3 1 4 2 5 27 7 28 8 89 9 29 10 88 11 30 12 31 13
REMARK SMILES IDX 32 14 82 15 33 16 87 17 81 18 83 19 34 20 86 21 80 22 79 23
REMARK SMILES IDX 35 25 67 26 47 27 66 28 48 29 51 30 65 31 84 32 49 33 50 34
REMARK SMILES IDX 64 36 85 37 52 38 36 39 37 40 45 41 38 42 44 43 46 44 43 45
REMARK SMILES IDX 39 46 40 47 41 48 42 49 68 50 69 51 77 52 70 53 76 54 78 55
REMARK SMILES IDX 75 56 71 57 72 58 73 59 74 60 53 61 54 62 62 63 55 64 61 65
REMARK SMILES IDX 63 66 60 67 56 68 57 69 58 70 59 71 6 72 7 73 8 74 9 75
REMARK SMILES IDX 10 77 11 78 12 79 16 80 13 81 15 82 14 83 17 84 19 85 18 86
REMARK SMILES IDX 20 87 21 88 22 89 23 90 26 91 24 92 25 93
REMARK H PARENT 3 6 83 24 51 35 8 76 26 94
REMARK Flexibility Score: inf
ROOT
ATOM      1  C   UNL A   1      34.052  27.942  25.116  1.00  0.00     0.023 C 
ENDROOT
BRANCH   1   2
ATOM      2  C   UNL A   1      33.775  28.325  26.565  1.00  0.00     0.116 C 
BRANCH   2   3
ATOM      3  N   UNL A   1      33.609  29.760  26.745  1.00  0.00    -0.352 N 
ATOM      4  O   UNL A   1      33.985  31.796  27.629  1.00  0.00    -0.269 OA
ATOM      5  C   UNL A   1      34.381  30.646  27.457  1.00  0.00     0.251 C 
ATOM      6  H   UNL A   1      32.831  30.153  26.289  1.00  0.00     0.163 HD
BRANCH   5   7
ATOM      7  C   UNL A   1      35.672  30.210  28.030  1.00  0.00     0.039 A 
ATOM      8  C   UNL A   1      36.856  30.314  27.293  1.00  0.00     0.014 A 
ATOM      9  C   UNL A   1      35.695  29.697  29.330  1.00  0.00     0.014 A 
ATOM     10  C   UNL A   1      38.038  29.783  27.802  1.00  0.00     0.010 A 
ATOM     11  C   UNL A   1      36.898  29.233  29.867  1.00  0.00     0.010 A 
ATOM     12  C   UNL A   1      38.074  29.245  29.097  1.00  0.00    -0.014 A 
BRANCH  12  13
ATOM     13  C   UNL A   1      39.346  28.726  29.660  1.00  0.00     0.031 A 
ATOM     14  C   UNL A   1      40.025  29.434  30.797  1.00  0.00     0.074 A 
ATOM     15  C   UNL A   1      39.905  27.628  29.116  1.00  0.00     0.049 A 
ATOM     16  N   UNL A   1      41.190  29.201  31.342  1.00  0.00    -0.248 NA
ATOM     17  C   UNL A   1      39.299  30.567  31.388  1.00  0.00     0.031 C 
ATOM     18  C   UNL A   1      39.334  26.853  28.013  1.00  0.00     0.029 A 
ATOM     19  N   UNL A   1      41.083  26.987  29.400  1.00  0.00    -0.354 N 
ATOM     20  C   UNL A   1      41.353  30.170  32.327  1.00  0.00     0.074 A 
ATOM     21  C   UNL A   1      40.176  31.013  32.275  1.00  0.00     0.031 C 
ATOM     22  C   UNL A   1      40.162  25.842  27.714  1.00  0.00     0.029 A 
ATOM     23  C   UNL A   1      41.352  25.939  28.552  1.00  0.00     0.049 A 
ATOM     24  H   UNL A   1      41.679  27.251  30.138  1.00  0.00     0.167 HD
ATOM     25  C   UNL A   1      42.385  30.333  33.193  1.00  0.00     0.034 A 
ATOM     26  C   UNL A   1      42.451  25.171  28.424  1.00  0.00     0.034 A 
ATOM     27  C   UNL A   1      43.552  29.482  33.216  1.00  0.00     0.049 A 
ATOM     28  C   UNL A   1      43.615  25.406  29.347  1.00  0.00     0.074 A 
ATOM     29  C   UNL A   1      44.639  29.529  34.073  1.00  0.00     0.029 A 
ATOM     30  N   UNL A   1      43.795  28.437  32.330  1.00  0.00    -0.354 N 
ATOM     31  N   UNL A   1      43.751  26.314  30.284  1.00  0.00    -0.248 NA
ATOM     32  C   UNL A   1      44.770  24.512  29.198  1.00  0.00     0.031 C 
ATOM     33  C   UNL A   1      45.570  28.570  33.657  1.00  0.00     0.029 A 
ATOM     34  C   UNL A   1      45.029  27.861  32.594  1.00  0.00     0.049 A 
ATOM     35  H   UNL A   1      43.180  28.150  31.617  1.00  0.00     0.167 HD
ATOM     36  C   UNL A   1      44.997  26.083  30.859  1.00  0.00     0.074 A 
ATOM     37  C   UNL A   1      45.572  24.951  30.160  1.00  0.00     0.031 C 
ATOM     38  C   UNL A   1      45.599  26.739  31.883  1.00  0.00     0.034 A 
BRANCH  25  39
ATOM     39  C   UNL A   1      42.318  31.512  34.138  1.00  0.00     0.023 A 
ATOM     40  C   UNL A   1      41.548  31.478  35.315  1.00  0.00     0.031 A 
ATOM     41  C   UNL A   1      42.987  32.711  33.830  1.00  0.00     0.131 A 
ATOM     42  C   UNL A   1      41.387  32.642  36.083  1.00  0.00     0.055 A 
ATOM     43  C   UNL A   1      42.897  33.838  34.649  1.00  0.00     0.041 A 
ATOM     44  F   UNL A   1      43.722  32.816  32.712  1.00  0.00    -0.206 F 
ATOM     45  C   UNL A   1      42.076  33.815  35.772  1.00  0.00     0.022 A 
BRANCH  42  46
ATOM     46  S   UNL A   1      40.115  32.651  37.379  1.00  0.00     0.124 S 
ATOM     47  O   UNL A   1      40.911  32.399  38.578  1.00  0.00    -0.237 OA
ATOM     48  O   UNL A   1      39.551  33.989  37.255  1.00  0.00    -0.237 OA
ATOM     49  O   UNL A   1      39.225  31.558  36.992  1.00  0.00    -0.744 OA
ENDBRANCH  42  46
ENDBRANCH  25  39
BRANCH  26  50
ATOM     50  C   UNL A   1      42.506  24.151  27.342  1.00  0.00     0.023 A 
ATOM     51  C   UNL A   1      41.739  22.978  27.405  1.00  0.00     0.031 A 
ATOM     52  C   UNL A   1      43.311  24.357  26.206  1.00  0.00     0.131 A 
ATOM     53  C   UNL A   1      41.805  22.047  26.357  1.00  0.00     0.055 A 
ATOM     54  C   UNL A   1      43.338  23.451  25.148  1.00  0.00     0.041 A 
ATOM     55  F   UNL A   1      44.053  25.470  26.095  1.00  0.00    -0.206 F 
ATOM     56  C   UNL A   1      42.587  22.283  25.222  1.00  0.00     0.022 A 
BRANCH  53  57
ATOM     57  S   UNL A   1      40.877  20.497  26.511  1.00  0.00     0.124 S 
ATOM     58  O   UNL A   1      41.014  20.210  27.934  1.00  0.00    -0.237 OA
ATOM     59  O   UNL A   1      39.547  20.893  26.060  1.00  0.00    -0.237 OA
ATOM     60  O   UNL A   1      41.589  19.585  25.618  1.00  0.00    -0.744 OA
ENDBRANCH  53  57
ENDBRANCH  26  50
BRANCH  38  61
ATOM     61  C   UNL A   1      46.931  26.210  32.353  1.00  0.00     0.023 A 
ATOM     62  C   UNL A   1      47.034  25.202  33.326  1.00  0.00     0.031 A 
ATOM     63  C   UNL A   1      48.118  26.713  31.789  1.00  0.00     0.131 A 
ATOM     64  C   UNL A   1      48.301  24.749  33.728  1.00  0.00     0.055 A 
ATOM     65  C   UNL A   1      49.371  26.223  32.156  1.00  0.00     0.041 A 
ATOM     66  F   UNL A   1      48.075  27.679  30.858  1.00  0.00    -0.206 F 
ATOM     67  C   UNL A   1      49.468  25.240  33.135  1.00  0.00     0.022 A 
BRANCH  64  68
ATOM     68  S   UNL A   1      48.413  23.540  35.076  1.00  0.00     0.124 S 
ATOM     69  O   UNL A   1      47.087  22.933  35.049  1.00  0.00    -0.237 OA
ATOM     70  O   UNL A   1      49.516  22.687  34.643  1.00  0.00    -0.237 OA
ATOM     71  O   UNL A   1      48.694  24.362  36.252  1.00  0.00    -0.744 OA
ENDBRANCH  64  68
ENDBRANCH  38  61
ENDBRANCH  12  13
ENDBRANCH   5   7
ENDBRANCH   2   3
ENDBRANCH   1   2
BRANCH   1  72
ATOM     72  C   UNL A   1      33.371  28.820  24.069  1.00  0.00     0.023 C 
BRANCH  72  73
ATOM     73  C   UNL A   1      32.167  28.194  23.377  1.00  0.00     0.116 C 
BRANCH  73  74
ATOM     74  N   UNL A   1      32.487  27.608  22.083  1.00  0.00    -0.352 N 
ATOM     75  C   UNL A   1      32.880  26.323  21.796  1.00  0.00     0.251 C 
ATOM     76  H   UNL A   1      32.411  28.213  21.310  1.00  0.00     0.163 HD
ATOM     77  O   UNL A   1      33.231  26.007  20.663  1.00  0.00    -0.269 OA
BRANCH  75  78
ATOM     78  C   UNL A   1      32.907  25.311  22.872  1.00  0.00     0.040 A 
ATOM     79  C   UNL A   1      34.035  24.499  23.054  1.00  0.00     0.016 A 
ATOM     80  C   UNL A   1      31.785  25.153  23.686  1.00  0.00     0.019 A 
ATOM     81  C   UNL A   1      34.015  23.453  23.978  1.00  0.00     0.027 A 
ATOM     82  C   UNL A   1      31.805  24.139  24.637  1.00  0.00    -0.022 A 
ATOM     83  C   UNL A   1      32.904  23.282  24.785  1.00  0.00     0.047 A 
ATOM     84  C   UNL A   1      30.677  23.746  25.536  1.00  0.00     0.059 C 
ATOM     85  N   UNL A   1      32.628  22.326  25.781  1.00  0.00    -0.306 N 
ATOM     86  C   UNL A   1      31.324  22.647  26.381  1.00  0.00     0.131 C 
BRANCH  85  87
ATOM     87  C   UNL A   1      33.319  21.204  26.227  1.00  0.00     0.276 C 
ATOM     88  O   UNL A   1      34.178  21.311  27.104  1.00  0.00    -0.267 OA
BRANCH  87  89
ATOM     89  C   UNL A   1      32.996  19.905  25.709  1.00  0.00     0.123 A 
ATOM     90  C   UNL A   1      32.843  19.430  24.420  1.00  0.00     0.055 A 
ATOM     91  N   UNL A   1      32.882  18.802  26.510  1.00  0.00    -0.273 N 
ATOM     92  C   UNL A   1      32.510  18.071  24.572  1.00  0.00     0.135 A 
ATOM     93  N   UNL A   1      32.520  17.688  25.850  1.00  0.00    -0.183 NA
ATOM     94  H   UNL A   1      33.048  18.822  27.481  1.00  0.00     0.190 HD
ENDBRANCH  87  89
ENDBRANCH  85  87
ENDBRANCH  75  78
ENDBRANCH  73  74
ENDBRANCH  72  73
ENDBRANCH   1  72
TORSDOF 16
ENDMDL
