MODEL 1
REMARK VINA RESULT:     -11.7      0.000      0.000
REMARK SMILES O=C(Cc1cccc(-c2ccn(C(F)F)c(=O)c2)c1)NCCCCNC(=O)c1ccc(-c2c3nc(c(-c4cc(S(=O)(=O)[O-])ccc4F)c4ccc([nH]4)c(-c4cc(S(=O)(=O)[O-])ccc4F)c4nc(c(-c5cc(S(=O)(=O)[O-])ccc5F)c5ccc2[nH]5)C=C4)C=C3)cc1
REMARK SMILES IDX 22 1 21 2 20 3 1 4 2 5 3 7 4 8 5 9 19 10 6 11 8 12 7 13 9 14
REMARK SMILES IDX 10 15 18 16 11 17 16 18 12 19 17 20 13 21 14 22 15 23 23 24
REMARK SMILES IDX 24 25 25 26 26 27 27 29 28 30 29 31 90 32 30 33 89 34 31 35
REMARK SMILES IDX 32 36 33 37 83 38 34 39 88 40 82 41 84 42 35 43 87 44 81 45
REMARK SMILES IDX 80 46 36 48 68 49 48 50 67 51 49 52 52 53 66 54 85 55 50 56
REMARK SMILES IDX 51 57 65 59 86 60 53 61 37 62 38 63 46 64 39 65 45 66 47 67
REMARK SMILES IDX 44 68 40 69 41 70 42 71 43 72 69 73 70 74 78 75 71 76 77 77
REMARK SMILES IDX 79 78 76 79 72 80 73 81 74 82 75 83 54 84 55 85 63 86 56 87
REMARK SMILES IDX 62 88 64 89 61 90 57 91 58 92 59 93 60 94
REMARK H PARENT 20 6 25 28 84 47 52 58
REMARK Flexibility Score: inf
ROOT
ATOM      1  C   UNL A   1      31.738  30.192  26.528  1.00  0.00     0.023 C 
ENDROOT
BRANCH   1   2
ATOM      2  C   UNL A   1      33.179  29.906  26.118  1.00  0.00     0.116 C 
BRANCH   2   3
ATOM      3  N   UNL A   1      33.547  28.523  26.335  1.00  0.00    -0.356 N 
ATOM      4  O   UNL A   1      32.819  27.739  24.298  1.00  0.00    -0.275 OA
ATOM      5  C   UNL A   1      33.379  27.548  25.374  1.00  0.00     0.224 C 
ATOM      6  H   UNL A   1      33.935  28.268  27.203  1.00  0.00     0.163 HD
BRANCH   5   7
ATOM      7  C   UNL A   1      33.958  26.200  25.760  1.00  0.00     0.135 C 
BRANCH   7   8
ATOM      8  C   UNL A   1      32.969  25.055  25.850  1.00  0.00    -0.038 A 
ATOM      9  C   UNL A   1      31.643  25.202  26.279  1.00  0.00     0.004 A 
ATOM     10  C   UNL A   1      33.403  23.775  25.463  1.00  0.00     0.013 A 
ATOM     11  C   UNL A   1      30.775  24.109  26.307  1.00  0.00     0.001 A 
ATOM     12  C   UNL A   1      32.548  22.663  25.518  1.00  0.00    -0.018 A 
ATOM     13  C   UNL A   1      31.225  22.844  25.932  1.00  0.00     0.009 A 
BRANCH  12  14
ATOM     14  C   UNL A   1      33.073  21.318  25.217  1.00  0.00    -0.011 A 
ATOM     15  C   UNL A   1      34.499  21.056  25.153  1.00  0.00     0.027 A 
ATOM     16  C   UNL A   1      32.215  20.304  25.008  1.00  0.00     0.080 A 
ATOM     17  C   UNL A   1      34.957  19.830  24.884  1.00  0.00     0.095 A 
ATOM     18  C   UNL A   1      32.712  18.929  24.716  1.00  0.00     0.255 A 
ATOM     19  N   UNL A   1      34.089  18.779  24.667  1.00  0.00    -0.258 N 
ATOM     20  O   UNL A   1      31.893  18.031  24.543  1.00  0.00    -0.269 OA
BRANCH  19  21
ATOM     21  C   UNL A   1      34.594  17.465  24.370  1.00  0.00     0.451 C 
ATOM     22  F   UNL A   1      34.524  17.195  23.044  1.00  0.00    -0.185 F 
ATOM     23  F   UNL A   1      35.886  17.336  24.761  1.00  0.00    -0.185 F 
ENDBRANCH  19  21
ENDBRANCH  12  14
ENDBRANCH   7   8
ENDBRANCH   5   7
ENDBRANCH   2   3
ENDBRANCH   1   2
BRANCH   1  24
ATOM     24  C   UNL A   1      31.438  31.655  26.870  1.00  0.00     0.023 C 
BRANCH  24  25
ATOM     25  C   UNL A   1      32.578  32.637  26.613  1.00  0.00     0.116 C 
BRANCH  25  26
ATOM     26  N   UNL A   1      32.405  33.893  27.323  1.00  0.00    -0.352 N 
ATOM     27  C   UNL A   1      33.076  34.378  28.421  1.00  0.00     0.251 C 
ATOM     28  H   UNL A   1      31.704  34.485  26.965  1.00  0.00     0.163 HD
ATOM     29  O   UNL A   1      32.657  35.387  28.984  1.00  0.00    -0.269 OA
BRANCH  27  30
ATOM     30  C   UNL A   1      34.270  33.675  28.945  1.00  0.00     0.039 A 
ATOM     31  C   UNL A   1      35.530  34.249  28.751  1.00  0.00     0.014 A 
ATOM     32  C   UNL A   1      34.159  32.454  29.616  1.00  0.00     0.014 A 
ATOM     33  C   UNL A   1      36.665  33.638  29.295  1.00  0.00     0.010 A 
ATOM     34  C   UNL A   1      35.279  31.888  30.222  1.00  0.00     0.010 A 
ATOM     35  C   UNL A   1      36.546  32.474  30.072  1.00  0.00    -0.014 A 
BRANCH  35  36
ATOM     36  C   UNL A   1      37.731  31.866  30.740  1.00  0.00     0.031 A 
ATOM     37  C   UNL A   1      38.537  30.804  30.039  1.00  0.00     0.074 A 
ATOM     38  C   UNL A   1      38.047  32.228  31.999  1.00  0.00     0.049 A 
ATOM     39  N   UNL A   1      39.556  30.112  30.481  1.00  0.00    -0.248 NA
ATOM     40  C   UNL A   1      38.125  30.459  28.671  1.00  0.00     0.031 C 
ATOM     41  C   UNL A   1      37.327  33.224  32.797  1.00  0.00     0.029 A 
ATOM     42  N   UNL A   1      39.050  31.801  32.834  1.00  0.00    -0.354 N 
ATOM     43  C   UNL A   1      39.899  29.240  29.453  1.00  0.00     0.074 A 
ATOM     44  C   UNL A   1      38.940  29.451  28.391  1.00  0.00     0.031 C 
ATOM     45  C   UNL A   1      37.930  33.352  33.990  1.00  0.00     0.029 A 
ATOM     46  C   UNL A   1      39.044  32.412  34.069  1.00  0.00     0.049 A 
ATOM     47  H   UNL A   1      39.713  31.121  32.575  1.00  0.00     0.167 HD
ATOM     48  C   UNL A   1      40.930  28.359  29.394  1.00  0.00     0.034 A 
ATOM     49  C   UNL A   1      39.832  32.228  35.146  1.00  0.00     0.034 A 
ATOM     50  C   UNL A   1      41.884  28.165  30.461  1.00  0.00     0.049 A 
ATOM     51  C   UNL A   1      40.944  31.210  35.072  1.00  0.00     0.074 A 
ATOM     52  C   UNL A   1      42.997  27.342  30.480  1.00  0.00     0.029 A 
ATOM     53  N   UNL A   1      41.831  28.786  31.702  1.00  0.00    -0.354 N 
ATOM     54  N   UNL A   1      41.287  30.431  34.071  1.00  0.00    -0.248 NA
ATOM     55  C   UNL A   1      41.780  31.052  36.269  1.00  0.00     0.031 C 
ATOM     56  C   UNL A   1      43.566  27.401  31.756  1.00  0.00     0.029 A 
ATOM     57  C   UNL A   1      42.868  28.333  32.506  1.00  0.00     0.049 A 
ATOM     58  H   UNL A   1      41.158  29.452  31.972  1.00  0.00     0.167 HD
ATOM     59  C   UNL A   1      42.401  29.719  34.509  1.00  0.00     0.074 A 
ATOM     60  C   UNL A   1      42.679  30.173  35.856  1.00  0.00     0.031 C 
ATOM     61  C   UNL A   1      43.133  28.782  33.854  1.00  0.00     0.034 A 
BRANCH  48  62
ATOM     62  C   UNL A   1      41.058  27.516  28.145  1.00  0.00     0.023 A 
ATOM     63  C   UNL A   1      40.750  26.144  28.141  1.00  0.00     0.031 A 
ATOM     64  C   UNL A   1      41.509  28.090  26.942  1.00  0.00     0.131 A 
ATOM     65  C   UNL A   1      40.971  25.379  26.986  1.00  0.00     0.055 A 
ATOM     66  C   UNL A   1      41.643  27.340  25.772  1.00  0.00     0.041 A 
ATOM     67  F   UNL A   1      41.840  29.389  26.887  1.00  0.00    -0.206 F 
ATOM     68  C   UNL A   1      41.389  25.972  25.793  1.00  0.00     0.022 A 
BRANCH  65  69
ATOM     69  S   UNL A   1      40.853  23.572  27.109  1.00  0.00     0.124 S 
ATOM     70  O   UNL A   1      41.588  23.313  28.345  1.00  0.00    -0.237 OA
ATOM     71  O   UNL A   1      39.413  23.353  27.163  1.00  0.00    -0.237 OA
ATOM     72  O   UNL A   1      41.512  23.103  25.892  1.00  0.00    -0.744 OA
ENDBRANCH  65  69
ENDBRANCH  48  62
BRANCH  49  73
ATOM     73  C   UNL A   1      39.603  33.009  36.398  1.00  0.00     0.023 A 
ATOM     74  C   UNL A   1      38.796  32.501  37.429  1.00  0.00     0.031 A 
ATOM     75  C   UNL A   1      40.145  34.296  36.561  1.00  0.00     0.131 A 
ATOM     76  C   UNL A   1      38.510  33.295  38.550  1.00  0.00     0.055 A 
ATOM     77  C   UNL A   1      39.908  35.058  37.706  1.00  0.00     0.041 A 
ATOM     78  F   UNL A   1      40.925  34.831  35.607  1.00  0.00    -0.206 F 
ATOM     79  C   UNL A   1      39.073  34.563  38.704  1.00  0.00     0.022 A 
BRANCH  76  80
ATOM     80  S   UNL A   1      37.307  32.683  39.763  1.00  0.00     0.124 S 
ATOM     81  O   UNL A   1      37.269  33.783  40.721  1.00  0.00    -0.237 OA
ATOM     82  O   UNL A   1      36.114  32.504  38.943  1.00  0.00    -0.237 OA
ATOM     83  O   UNL A   1      37.917  31.448  40.252  1.00  0.00    -0.744 OA
ENDBRANCH  76  80
ENDBRANCH  49  73
BRANCH  61  84
ATOM     84  C   UNL A   1      44.339  28.221  34.570  1.00  0.00     0.023 A 
ATOM     85  C   UNL A   1      44.263  27.064  35.365  1.00  0.00     0.031 A 
ATOM     86  C   UNL A   1      45.585  28.866  34.463  1.00  0.00     0.131 A 
ATOM     87  C   UNL A   1      45.394  26.621  36.067  1.00  0.00     0.055 A 
ATOM     88  C   UNL A   1      46.723  28.381  35.108  1.00  0.00     0.041 A 
ATOM     89  F   UNL A   1      45.718  29.979  33.724  1.00  0.00    -0.206 F 
ATOM     90  C   UNL A   1      46.629  27.260  35.928  1.00  0.00     0.022 A 
BRANCH  87  91
ATOM     91  S   UNL A   1      45.209  25.258  37.250  1.00  0.00     0.124 S 
ATOM     92  O   UNL A   1      45.953  24.186  36.595  1.00  0.00    -0.237 OA
ATOM     93  O   UNL A   1      45.814  25.808  38.458  1.00  0.00    -0.237 OA
ATOM     94  O   UNL A   1      43.762  25.056  37.318  1.00  0.00    -0.744 OA
ENDBRANCH  87  91
ENDBRANCH  61  84
ENDBRANCH  35  36
ENDBRANCH  27  30
ENDBRANCH  25  26
ENDBRANCH  24  25
ENDBRANCH   1  24
TORSDOF 17
ENDMDL
MODEL 2
REMARK VINA RESULT:     -11.6      2.016      2.364
REMARK SMILES O=C(Cc1cccc(-c2ccn(C(F)F)c(=O)c2)c1)NCCCCNC(=O)c1ccc(-c2c3nc(c(-c4cc(S(=O)(=O)[O-])ccc4F)c4ccc([nH]4)c(-c4cc(S(=O)(=O)[O-])ccc4F)c4nc(c(-c5cc(S(=O)(=O)[O-])ccc5F)c5ccc2[nH]5)C=C4)C=C3)cc1
REMARK SMILES IDX 22 1 21 2 20 3 1 4 2 5 3 7 4 8 5 9 19 10 6 11 8 12 7 13 9 14
REMARK SMILES IDX 10 15 18 16 11 17 16 18 12 19 17 20 13 21 14 22 15 23 23 24
REMARK SMILES IDX 24 25 25 26 26 27 27 29 28 30 29 31 90 32 30 33 89 34 31 35
REMARK SMILES IDX 32 36 33 37 83 38 34 39 88 40 82 41 84 42 35 43 87 44 81 45
REMARK SMILES IDX 80 46 36 48 68 49 48 50 67 51 49 52 52 53 66 54 85 55 50 56
REMARK SMILES IDX 51 57 65 59 86 60 53 61 37 62 38 63 46 64 39 65 45 66 47 67
REMARK SMILES IDX 44 68 40 69 41 70 42 71 43 72 69 73 70 74 78 75 71 76 77 77
REMARK SMILES IDX 79 78 76 79 72 80 73 81 74 82 75 83 54 84 55 85 63 86 56 87
REMARK SMILES IDX 62 88 64 89 61 90 57 91 58 92 59 93 60 94
REMARK H PARENT 20 6 25 28 84 47 52 58
REMARK Flexibility Score: inf
ROOT
ATOM      1  C   UNL A   1      31.435  30.828  25.647  1.00  0.00     0.023 C 
ENDROOT
BRANCH   1   2
ATOM      2  C   UNL A   1      32.470  29.725  25.451  1.00  0.00     0.116 C 
BRANCH   2   3
ATOM      3  N   UNL A   1      31.947  28.416  25.780  1.00  0.00    -0.356 N 
ATOM      4  O   UNL A   1      33.976  27.438  26.252  1.00  0.00    -0.275 OA
ATOM      5  C   UNL A   1      32.751  27.379  26.206  1.00  0.00     0.224 C 
ATOM      6  H   UNL A   1      30.979  28.259  25.697  1.00  0.00     0.163 HD
BRANCH   5   7
ATOM      7  C   UNL A   1      31.981  26.141  26.628  1.00  0.00     0.135 C 
BRANCH   7   8
ATOM      8  C   UNL A   1      31.656  25.155  25.523  1.00  0.00    -0.038 A 
ATOM      9  C   UNL A   1      30.677  25.376  24.544  1.00  0.00     0.004 A 
ATOM     10  C   UNL A   1      32.392  23.959  25.467  1.00  0.00     0.013 A 
ATOM     11  C   UNL A   1      30.451  24.438  23.535  1.00  0.00     0.001 A 
ATOM     12  C   UNL A   1      32.150  22.995  24.475  1.00  0.00    -0.018 A 
ATOM     13  C   UNL A   1      31.180  23.252  23.501  1.00  0.00     0.009 A 
BRANCH  12  14
ATOM     14  C   UNL A   1      32.859  21.702  24.520  1.00  0.00    -0.011 A 
ATOM     15  C   UNL A   1      34.307  21.632  24.586  1.00  0.00     0.027 A 
ATOM     16  C   UNL A   1      32.152  20.559  24.511  1.00  0.00     0.080 A 
ATOM     17  C   UNL A   1      34.933  20.452  24.631  1.00  0.00     0.095 A 
ATOM     18  C   UNL A   1      32.836  19.236  24.569  1.00  0.00     0.255 A 
ATOM     19  N   UNL A   1      34.220  19.269  24.622  1.00  0.00    -0.258 N 
ATOM     20  O   UNL A   1      32.150  18.217  24.570  1.00  0.00    -0.269 OA
BRANCH  19  21
ATOM     21  C   UNL A   1      34.906  18.005  24.662  1.00  0.00     0.451 C 
ATOM     22  F   UNL A   1      34.754  17.323  23.501  1.00  0.00    -0.185 F 
ATOM     23  F   UNL A   1      36.232  18.173  24.884  1.00  0.00    -0.185 F 
ENDBRANCH  19  21
ENDBRANCH  12  14
ENDBRANCH   7   8
ENDBRANCH   5   7
ENDBRANCH   2   3
ENDBRANCH   1   2
BRANCH   1  24
ATOM     24  C   UNL A   1      31.502  31.552  26.995  1.00  0.00     0.023 C 
BRANCH  24  25
ATOM     25  C   UNL A   1      32.802  32.302  27.273  1.00  0.00     0.116 C 
BRANCH  25  26
ATOM     26  N   UNL A   1      32.583  33.710  27.564  1.00  0.00    -0.352 N 
ATOM     27  C   UNL A   1      33.172  34.509  28.515  1.00  0.00     0.251 C 
ATOM     28  H   UNL A   1      31.914  34.157  26.996  1.00  0.00     0.163 HD
ATOM     29  O   UNL A   1      32.717  35.633  28.721  1.00  0.00    -0.269 OA
BRANCH  27  30
ATOM     30  C   UNL A   1      34.319  34.014  29.310  1.00  0.00     0.039 A 
ATOM     31  C   UNL A   1      34.085  33.087  30.329  1.00  0.00     0.014 A 
ATOM     32  C   UNL A   1      35.620  34.461  29.064  1.00  0.00     0.014 A 
ATOM     33  C   UNL A   1      35.160  32.554  31.048  1.00  0.00     0.010 A 
ATOM     34  C   UNL A   1      36.696  33.873  29.728  1.00  0.00     0.010 A 
ATOM     35  C   UNL A   1      36.480  32.910  30.726  1.00  0.00    -0.014 A 
BRANCH  35  36
ATOM     36  C   UNL A   1      37.640  32.279  31.415  1.00  0.00     0.031 A 
ATOM     37  C   UNL A   1      38.381  31.138  30.769  1.00  0.00     0.074 A 
ATOM     38  C   UNL A   1      37.990  32.694  32.650  1.00  0.00     0.049 A 
ATOM     39  N   UNL A   1      39.367  30.419  31.240  1.00  0.00    -0.248 NA
ATOM     40  C   UNL A   1      37.935  30.739  29.426  1.00  0.00     0.031 C 
ATOM     41  C   UNL A   1      37.332  33.769  33.397  1.00  0.00     0.029 A 
ATOM     42  N   UNL A   1      38.979  32.262  33.499  1.00  0.00    -0.354 N 
ATOM     43  C   UNL A   1      39.652  29.474  30.260  1.00  0.00     0.074 A 
ATOM     44  C   UNL A   1      38.692  29.676  29.196  1.00  0.00     0.031 C 
ATOM     45  C   UNL A   1      37.956  33.932  34.575  1.00  0.00     0.029 A 
ATOM     46  C   UNL A   1      39.019  32.940  34.696  1.00  0.00     0.049 A 
ATOM     47  H   UNL A   1      39.602  31.534  33.272  1.00  0.00     0.167 HD
ATOM     48  C   UNL A   1      40.634  28.538  30.240  1.00  0.00     0.034 A 
ATOM     49  C   UNL A   1      39.810  32.775  35.776  1.00  0.00     0.034 A 
ATOM     50  C   UNL A   1      41.589  28.353  31.308  1.00  0.00     0.049 A 
ATOM     51  C   UNL A   1      40.866  31.697  35.748  1.00  0.00     0.074 A 
ATOM     52  C   UNL A   1      42.658  27.475  31.363  1.00  0.00     0.029 A 
ATOM     53  N   UNL A   1      41.584  29.045  32.513  1.00  0.00    -0.354 N 
ATOM     54  N   UNL A   1      41.155  30.846  34.790  1.00  0.00    -0.248 NA
ATOM     55  C   UNL A   1      41.707  31.562  36.945  1.00  0.00     0.031 C 
ATOM     56  C   UNL A   1      43.245  27.575  32.629  1.00  0.00     0.029 A 
ATOM     57  C   UNL A   1      42.605  28.583  33.331  1.00  0.00     0.049 A 
ATOM     58  H   UNL A   1      40.950  29.759  32.751  1.00  0.00     0.167 HD
ATOM     59  C   UNL A   1      42.236  30.102  35.258  1.00  0.00     0.074 A 
ATOM     60  C   UNL A   1      42.554  30.614  36.574  1.00  0.00     0.031 C 
ATOM     61  C   UNL A   1      42.910  29.091  34.649  1.00  0.00     0.034 A 
BRANCH  48  62
ATOM     62  C   UNL A   1      40.702  27.620  29.040  1.00  0.00     0.023 A 
ATOM     63  C   UNL A   1      41.652  27.802  28.020  1.00  0.00     0.031 A 
ATOM     64  C   UNL A   1      39.793  26.556  28.906  1.00  0.00     0.131 A 
ATOM     65  C   UNL A   1      41.621  26.987  26.879  1.00  0.00     0.055 A 
ATOM     66  C   UNL A   1      39.824  25.692  27.810  1.00  0.00     0.041 A 
ATOM     67  F   UNL A   1      38.848  26.342  29.835  1.00  0.00    -0.206 F 
ATOM     68  C   UNL A   1      40.732  25.915  26.778  1.00  0.00     0.022 A 
BRANCH  65  69
ATOM     69  S   UNL A   1      42.656  27.444  25.460  1.00  0.00     0.124 S 
ATOM     70  O   UNL A   1      41.909  28.568  24.901  1.00  0.00    -0.237 OA
ATOM     71  O   UNL A   1      43.929  27.773  26.091  1.00  0.00    -0.237 OA
ATOM     72  O   UNL A   1      42.660  26.237  24.636  1.00  0.00    -0.744 OA
ENDBRANCH  65  69
ENDBRANCH  48  62
BRANCH  49  73
ATOM     73  C   UNL A   1      39.637  33.635  36.983  1.00  0.00     0.023 A 
ATOM     74  C   UNL A   1      40.494  34.721  37.226  1.00  0.00     0.031 A 
ATOM     75  C   UNL A   1      38.646  33.354  37.940  1.00  0.00     0.131 A 
ATOM     76  C   UNL A   1      40.379  35.452  38.418  1.00  0.00     0.055 A 
ATOM     77  C   UNL A   1      38.495  34.122  39.096  1.00  0.00     0.041 A 
ATOM     78  F   UNL A   1      37.799  32.328  37.759  1.00  0.00    -0.206 F 
ATOM     79  C   UNL A   1      39.375  35.170  39.347  1.00  0.00     0.022 A 
BRANCH  76  80
ATOM     80  S   UNL A   1      41.626  36.717  38.785  1.00  0.00     0.124 S 
ATOM     81  O   UNL A   1      42.550  35.981  39.641  1.00  0.00    -0.237 OA
ATOM     82  O   UNL A   1      42.115  37.056  37.453  1.00  0.00    -0.237 OA
ATOM     83  O   UNL A   1      40.858  37.768  39.451  1.00  0.00    -0.744 OA
ENDBRANCH  76  80
ENDBRANCH  49  73
BRANCH  61  84
ATOM     84  C   UNL A   1      44.093  28.509  35.385  1.00  0.00     0.023 A 
ATOM     85  C   UNL A   1      43.950  27.478  36.330  1.00  0.00     0.031 A 
ATOM     86  C   UNL A   1      45.388  29.004  35.143  1.00  0.00     0.131 A 
ATOM     87  C   UNL A   1      45.070  27.017  37.040  1.00  0.00     0.055 A 
ATOM     88  C   UNL A   1      46.507  28.494  35.801  1.00  0.00     0.041 A 
ATOM     89  F   UNL A   1      45.586  29.992  34.256  1.00  0.00    -0.206 F 
ATOM     90  C   UNL A   1      46.350  27.504  36.767  1.00  0.00     0.022 A 
BRANCH  87  91
ATOM     91  S   UNL A   1      44.818  25.844  38.401  1.00  0.00     0.124 S 
ATOM     92  O   UNL A   1      44.011  24.809  37.763  1.00  0.00    -0.237 OA
ATOM     93  O   UNL A   1      46.185  25.466  38.745  1.00  0.00    -0.237 OA
ATOM     94  O   UNL A   1      44.122  26.637  39.413  1.00  0.00    -0.744 OA
ENDBRANCH  87  91
ENDBRANCH  61  84
ENDBRANCH  35  36
ENDBRANCH  27  30
ENDBRANCH  25  26
ENDBRANCH  24  25
ENDBRANCH   1  24
TORSDOF 17
ENDMDL
MODEL 3
REMARK VINA RESULT:     -11.5      2.231      2.716
REMARK SMILES O=C(Cc1cccc(-c2ccn(C(F)F)c(=O)c2)c1)NCCCCNC(=O)c1ccc(-c2c3nc(c(-c4cc(S(=O)(=O)[O-])ccc4F)c4ccc([nH]4)c(-c4cc(S(=O)(=O)[O-])ccc4F)c4nc(c(-c5cc(S(=O)(=O)[O-])ccc5F)c5ccc2[nH]5)C=C4)C=C3)cc1
REMARK SMILES IDX 22 1 21 2 20 3 1 4 2 5 3 7 4 8 5 9 19 10 6 11 8 12 7 13 9 14
REMARK SMILES IDX 10 15 18 16 11 17 16 18 12 19 17 20 13 21 14 22 15 23 23 24
REMARK SMILES IDX 24 25 25 26 26 27 27 29 28 30 29 31 90 32 30 33 89 34 31 35
REMARK SMILES IDX 32 36 33 37 83 38 34 39 88 40 82 41 84 42 35 43 87 44 81 45
REMARK SMILES IDX 80 46 36 48 68 49 48 50 67 51 49 52 52 53 66 54 85 55 50 56
REMARK SMILES IDX 51 57 65 59 86 60 53 61 37 62 38 63 46 64 39 65 45 66 47 67
REMARK SMILES IDX 44 68 40 69 41 70 42 71 43 72 69 73 70 74 78 75 71 76 77 77
REMARK SMILES IDX 79 78 76 79 72 80 73 81 74 82 75 83 54 84 55 85 63 86 56 87
REMARK SMILES IDX 62 88 64 89 61 90 57 91 58 92 59 93 60 94
REMARK H PARENT 20 6 25 28 84 47 52 58
REMARK Flexibility Score: inf
ROOT
ATOM      1  C   UNL A   1      31.372  31.209  26.301  1.00  0.00     0.023 C 
ENDROOT
BRANCH   1   2
ATOM      2  C   UNL A   1      32.709  30.502  26.506  1.00  0.00     0.116 C 
BRANCH   2   3
ATOM      3  N   UNL A   1      32.903  29.412  25.574  1.00  0.00    -0.356 N 
ATOM      4  O   UNL A   1      34.391  28.227  26.868  1.00  0.00    -0.275 OA
ATOM      5  C   UNL A   1      33.703  28.325  25.856  1.00  0.00     0.224 C 
ATOM      6  H   UNL A   1      32.445  29.449  24.703  1.00  0.00     0.163 HD
BRANCH   5   7
ATOM      7  C   UNL A   1      33.655  27.238  24.798  1.00  0.00     0.135 C 
BRANCH   7   8
ATOM      8  C   UNL A   1      33.682  25.812  25.311  1.00  0.00    -0.038 A 
ATOM      9  C   UNL A   1      32.558  25.142  25.813  1.00  0.00     0.004 A 
ATOM     10  C   UNL A   1      34.903  25.116  25.261  1.00  0.00     0.013 A 
ATOM     11  C   UNL A   1      32.647  23.815  26.239  1.00  0.00     0.001 A 
ATOM     12  C   UNL A   1      35.010  23.792  25.717  1.00  0.00    -0.018 A 
ATOM     13  C   UNL A   1      33.867  23.143  26.196  1.00  0.00     0.009 A 
BRANCH  12  14
ATOM     14  C   UNL A   1      36.330  23.136  25.760  1.00  0.00    -0.011 A 
ATOM     15  C   UNL A   1      37.509  23.832  26.243  1.00  0.00     0.027 A 
ATOM     16  C   UNL A   1      36.449  21.859  25.355  1.00  0.00     0.080 A 
ATOM     17  C   UNL A   1      38.697  23.220  26.279  1.00  0.00     0.095 A 
ATOM     18  C   UNL A   1      37.766  21.162  25.398  1.00  0.00     0.255 A 
ATOM     19  N   UNL A   1      38.834  21.910  25.866  1.00  0.00    -0.258 N 
ATOM     20  O   UNL A   1      37.825  19.992  25.029  1.00  0.00    -0.269 OA
BRANCH  19  21
ATOM     21  C   UNL A   1      40.120  21.265  25.902  1.00  0.00     0.451 C 
ATOM     22  F   UNL A   1      41.127  22.159  25.754  1.00  0.00    -0.185 F 
ATOM     23  F   UNL A   1      40.306  20.607  27.073  1.00  0.00    -0.185 F 
ENDBRANCH  19  21
ENDBRANCH  12  14
ENDBRANCH   7   8
ENDBRANCH   5   7
ENDBRANCH   2   3
ENDBRANCH   1   2
BRANCH   1  24
ATOM     24  C   UNL A   1      31.378  32.710  26.605  1.00  0.00     0.023 C 
BRANCH  24  25
ATOM     25  C   UNL A   1      32.672  33.254  27.206  1.00  0.00     0.116 C 
BRANCH  25  26
ATOM     26  N   UNL A   1      32.481  34.521  27.891  1.00  0.00    -0.352 N 
ATOM     27  C   UNL A   1      33.101  35.010  29.017  1.00  0.00     0.251 C 
ATOM     28  H   UNL A   1      31.807  35.118  27.491  1.00  0.00     0.163 HD
ATOM     29  O   UNL A   1      32.668  36.033  29.546  1.00  0.00    -0.269 OA
BRANCH  27  30
ATOM     30  C   UNL A   1      34.256  34.298  29.610  1.00  0.00     0.039 A 
ATOM     31  C   UNL A   1      35.536  34.556  29.112  1.00  0.00     0.014 A 
ATOM     32  C   UNL A   1      34.087  33.374  30.645  1.00  0.00     0.014 A 
ATOM     33  C   UNL A   1      36.649  33.946  29.701  1.00  0.00     0.010 A 
ATOM     34  C   UNL A   1      35.201  32.827  31.279  1.00  0.00     0.010 A 
ATOM     35  C   UNL A   1      36.496  33.109  30.818  1.00  0.00    -0.014 A 
BRANCH  35  36
ATOM     36  C   UNL A   1      37.678  32.530  31.517  1.00  0.00     0.031 A 
ATOM     37  C   UNL A   1      38.445  31.391  30.898  1.00  0.00     0.074 A 
ATOM     38  C   UNL A   1      38.025  32.991  32.736  1.00  0.00     0.049 A 
ATOM     39  N   UNL A   1      39.454  30.713  31.383  1.00  0.00    -0.248 NA
ATOM     40  C   UNL A   1      38.000  30.940  29.572  1.00  0.00     0.031 C 
ATOM     41  C   UNL A   1      37.344  34.070  33.455  1.00  0.00     0.029 A 
ATOM     42  N   UNL A   1      39.032  32.611  33.588  1.00  0.00    -0.354 N 
ATOM     43  C   UNL A   1      39.757  29.747  30.429  1.00  0.00     0.074 A 
ATOM     44  C   UNL A   1      38.785  29.892  29.366  1.00  0.00     0.031 C 
ATOM     45  C   UNL A   1      37.971  34.285  34.624  1.00  0.00     0.029 A 
ATOM     46  C   UNL A   1      39.062  33.326  34.765  1.00  0.00     0.049 A 
ATOM     47  H   UNL A   1      39.673  31.895  33.378  1.00  0.00     0.167 HD
ATOM     48  C   UNL A   1      40.765  28.838  30.429  1.00  0.00     0.034 A 
ATOM     49  C   UNL A   1      39.865  33.215  35.843  1.00  0.00     0.034 A 
ATOM     50  C   UNL A   1      41.733  28.712  31.494  1.00  0.00     0.049 A 
ATOM     51  C   UNL A   1      40.950  32.166  35.839  1.00  0.00     0.074 A 
ATOM     52  C   UNL A   1      42.826  27.865  31.566  1.00  0.00     0.029 A 
ATOM     53  N   UNL A   1      41.717  29.439  32.677  1.00  0.00    -0.354 N 
ATOM     54  N   UNL A   1      41.256  31.295  34.904  1.00  0.00    -0.248 NA
ATOM     55  C   UNL A   1      41.803  32.089  37.032  1.00  0.00     0.031 C 
ATOM     56  C   UNL A   1      43.419  28.019  32.824  1.00  0.00     0.029 A 
ATOM     57  C   UNL A   1      42.757  29.030  33.501  1.00  0.00     0.049 A 
ATOM     58  H   UNL A   1      41.065  30.142  32.899  1.00  0.00     0.167 HD
ATOM     59  C   UNL A   1      42.360  30.595  35.385  1.00  0.00     0.074 A 
ATOM     60  C   UNL A   1      42.673  31.154  36.683  1.00  0.00     0.031 C 
ATOM     61  C   UNL A   1      43.056  29.585  34.801  1.00  0.00     0.034 A 
BRANCH  48  62
ATOM     62  C   UNL A   1      40.850  27.888  29.256  1.00  0.00     0.023 A 
ATOM     63  C   UNL A   1      41.764  28.084  28.206  1.00  0.00     0.031 A 
ATOM     64  C   UNL A   1      39.992  26.776  29.178  1.00  0.00     0.131 A 
ATOM     65  C   UNL A   1      41.746  27.232  27.092  1.00  0.00     0.055 A 
ATOM     66  C   UNL A   1      40.039  25.881  28.108  1.00  0.00     0.041 A 
ATOM     67  F   UNL A   1      39.082  26.546  30.138  1.00  0.00    -0.206 F 
ATOM     68  C   UNL A   1      40.909  26.115  27.047  1.00  0.00     0.022 A 
BRANCH  65  69
ATOM     69  S   UNL A   1      42.721  27.694  25.633  1.00  0.00     0.124 S 
ATOM     70  O   UNL A   1      41.958  28.827  25.116  1.00  0.00    -0.237 OA
ATOM     71  O   UNL A   1      44.023  28.010  26.211  1.00  0.00    -0.237 OA
ATOM     72  O   UNL A   1      42.682  26.494  24.800  1.00  0.00    -0.744 OA
ENDBRANCH  65  69
ENDBRANCH  48  62
BRANCH  49  73
ATOM     73  C   UNL A   1      39.678  34.106  37.025  1.00  0.00     0.023 A 
ATOM     74  C   UNL A   1      39.090  33.625  38.207  1.00  0.00     0.031 A 
ATOM     75  C   UNL A   1      40.035  35.465  36.975  1.00  0.00     0.131 A 
ATOM     76  C   UNL A   1      38.829  34.505  39.268  1.00  0.00     0.055 A 
ATOM     77  C   UNL A   1      39.829  36.324  38.056  1.00  0.00     0.041 A 
ATOM     78  F   UNL A   1      40.600  35.979  35.871  1.00  0.00    -0.206 F 
ATOM     79  C   UNL A   1      39.209  35.847  39.207  1.00  0.00     0.022 A 
BRANCH  76  80
ATOM     80  S   UNL A   1      37.892  33.890  40.695  1.00  0.00     0.124 S 
ATOM     81  O   UNL A   1      37.379  35.130  41.267  1.00  0.00    -0.237 OA
ATOM     82  O   UNL A   1      36.909  33.019  40.060  1.00  0.00    -0.237 OA
ATOM     83  O   UNL A   1      38.905  33.205  41.496  1.00  0.00    -0.744 OA
ENDBRANCH  76  80
ENDBRANCH  49  73
BRANCH  61  84
ATOM     84  C   UNL A   1      44.261  29.057  35.544  1.00  0.00     0.023 A 
ATOM     85  C   UNL A   1      44.174  27.964  36.424  1.00  0.00     0.031 A 
ATOM     86  C   UNL A   1      45.517  29.668  35.376  1.00  0.00     0.131 A 
ATOM     87  C   UNL A   1      45.306  27.554  37.146  1.00  0.00     0.055 A 
ATOM     88  C   UNL A   1      46.654  29.212  36.043  1.00  0.00     0.041 A 
ATOM     89  F   UNL A   1      45.661  30.720  34.554  1.00  0.00    -0.206 F 
ATOM     90  C   UNL A   1      46.550  28.158  36.945  1.00  0.00     0.022 A 
BRANCH  87  91
ATOM     91  S   UNL A   1      45.111  26.287  38.429  1.00  0.00     0.124 S 
ATOM     92  O   UNL A   1      43.883  25.618  38.009  1.00  0.00    -0.237 OA
ATOM     93  O   UNL A   1      46.338  25.511  38.292  1.00  0.00    -0.237 OA
ATOM     94  O   UNL A   1      45.002  27.062  39.664  1.00  0.00    -0.744 OA
ENDBRANCH  87  91
ENDBRANCH  61  84
ENDBRANCH  35  36
ENDBRANCH  27  30
ENDBRANCH  25  26
ENDBRANCH  24  25
ENDBRANCH   1  24
TORSDOF 17
ENDMDL
