MODEL 1
REMARK VINA RESULT:     -11.5      0.000      0.000
REMARK SMILES CS(=O)(=O)c1ccc(-c2cc(Cl)cnc2-c2ccc(C(=O)NCCCCNC(=O)c3ccc(-c4c5nc(c(-c6cc(S(=O)(=O)[O-])ccc6F)c6ccc([nH]6)c(-c6cc(S(=O)(=O)[O-])ccc6F)c6nc(c(-c7cc(S(=O)(=O)[O-])ccc7F)c7ccc4[nH]7)C=C6)C=C5)cc3)nc2)cc1
REMARK SMILES IDX 24 1 23 2 22 3 20 4 21 5 19 7 16 8 17 9 94 10 18 11 93 12
REMARK SMILES IDX 15 13 9 14 10 15 11 16 14 17 12 18 13 19 8 20 5 21 6 22
REMARK SMILES IDX 96 23 7 24 95 25 2 26 1 27 3 28 4 29 25 30 26 31 27 32 28 33
REMARK SMILES IDX 29 35 30 36 31 37 92 38 32 39 91 40 33 41 34 42 35 43 85 44
REMARK SMILES IDX 36 45 90 46 84 47 86 48 37 49 89 50 83 51 82 52 38 54 70 55
REMARK SMILES IDX 50 56 69 57 51 58 54 59 68 60 87 61 52 62 53 63 67 65 88 66
REMARK SMILES IDX 55 67 39 68 40 69 48 70 41 71 47 72 49 73 46 74 42 75 43 76
REMARK SMILES IDX 44 77 45 78 71 79 72 80 80 81 73 82 79 83 81 84 78 85 74 86
REMARK SMILES IDX 75 87 76 88 77 89 56 90 57 91 65 92 58 93 64 94 66 95 63 96
REMARK SMILES IDX 59 97 60 98 61 99 62 100
REMARK H PARENT 22 6 27 34 86 53 54 64
REMARK Flexibility Score: inf
ROOT
ATOM      1  C   UNL A   1      35.178  33.650  29.241  1.00  0.00     0.023 C 
ENDROOT
BRANCH   1   2
ATOM      2  C   UNL A   1      35.554  32.816  28.014  1.00  0.00     0.116 C 
BRANCH   2   3
ATOM      3  N   UNL A   1      35.931  31.468  28.393  1.00  0.00    -0.351 N 
ATOM      4  C   UNL A   1      35.464  30.232  28.002  1.00  0.00     0.269 C 
ATOM      5  O   UNL A   1      36.045  29.249  28.467  1.00  0.00    -0.268 OA
ATOM      6  H   UNL A   1      36.659  31.430  29.056  1.00  0.00     0.163 HD
BRANCH   4   7
ATOM      7  C   UNL A   1      34.330  30.039  27.029  1.00  0.00     0.128 A 
ATOM      8  C   UNL A   1      32.105  29.757  25.394  1.00  0.00     0.019 A 
ATOM      9  C   UNL A   1      33.307  29.137  25.054  1.00  0.00     0.014 A 
ATOM     10  C   UNL A   1      32.115  30.552  26.533  1.00  0.00     0.122 A 
ATOM     11  C   UNL A   1      34.432  29.296  25.860  1.00  0.00     0.035 A 
ATOM     12  N   UNL A   1      33.179  30.684  27.363  1.00  0.00    -0.250 NA
BRANCH   8  13
ATOM     13  C   UNL A   1      30.891  29.551  24.606  1.00  0.00     0.080 A 
ATOM     14  C   UNL A   1      30.454  28.270  24.207  1.00  0.00     0.010 A 
ATOM     15  C   UNL A   1      29.326  28.210  23.371  1.00  0.00     0.033 A 
ATOM     16  C   UNL A   1      28.686  29.380  22.978  1.00  0.00     0.060 A 
ATOM     17  N   UNL A   1      30.261  30.700  24.244  1.00  0.00    -0.254 NA
ATOM     18  Cl  UNL A   1      27.318  29.324  21.944  1.00  0.00    -0.083 Cl
ATOM     19  C   UNL A   1      29.179  30.589  23.438  1.00  0.00     0.132 A 
BRANCH  14  20
ATOM     20  C   UNL A   1      31.122  27.025  24.628  1.00  0.00    -0.016 A 
ATOM     21  C   UNL A   1      32.396  24.650  25.429  1.00  0.00     0.067 A 
ATOM     22  C   UNL A   1      31.607  25.351  26.340  1.00  0.00     0.021 A 
ATOM     23  C   UNL A   1      32.554  25.118  24.122  1.00  0.00     0.021 A 
ATOM     24  C   UNL A   1      30.977  26.533  25.937  1.00  0.00     0.010 A 
ATOM     25  C   UNL A   1      31.917  26.297  23.727  1.00  0.00     0.010 A 
BRANCH  21  26
ATOM     26  S   UNL A   1      33.171  23.124  25.912  1.00  0.00     0.175 S 
ATOM     27  C   UNL A   1      33.680  22.358  24.395  1.00  0.00     0.163 C 
ATOM     28  O   UNL A   1      32.147  22.289  26.498  1.00  0.00    -0.224 OA
ATOM     29  O   UNL A   1      34.360  23.493  26.662  1.00  0.00    -0.224 OA
ENDBRANCH  21  26
ENDBRANCH  14  20
ENDBRANCH   8  13
ENDBRANCH   4   7
ENDBRANCH   2   3
ENDBRANCH   1   2
BRANCH   1  30
ATOM     30  C   UNL A   1      33.761  34.229  29.214  1.00  0.00     0.023 C 
BRANCH  30  31
ATOM     31  C   UNL A   1      33.662  35.717  29.530  1.00  0.00     0.116 C 
BRANCH  31  32
ATOM     32  N   UNL A   1      32.609  36.036  30.482  1.00  0.00    -0.352 N 
ATOM     33  C   UNL A   1      32.560  35.742  31.825  1.00  0.00     0.251 C 
ATOM     34  H   UNL A   1      31.835  36.523  30.121  1.00  0.00     0.163 HD
ATOM     35  O   UNL A   1      31.548  35.996  32.470  1.00  0.00    -0.269 OA
BRANCH  33  36
ATOM     36  C   UNL A   1      33.714  35.072  32.458  1.00  0.00     0.039 A 
ATOM     37  C   UNL A   1      33.537  33.797  33.001  1.00  0.00     0.014 A 
ATOM     38  C   UNL A   1      34.973  35.677  32.468  1.00  0.00     0.014 A 
ATOM     39  C   UNL A   1      34.642  33.096  33.486  1.00  0.00     0.010 A 
ATOM     40  C   UNL A   1      36.081  34.953  32.895  1.00  0.00     0.010 A 
ATOM     41  C   UNL A   1      35.928  33.651  33.398  1.00  0.00    -0.014 A 
BRANCH  41  42
ATOM     42  C   UNL A   1      37.130  32.888  33.822  1.00  0.00     0.031 A 
ATOM     43  C   UNL A   1      37.876  33.293  35.062  1.00  0.00     0.074 A 
ATOM     44  C   UNL A   1      37.586  31.883  33.049  1.00  0.00     0.049 A 
ATOM     45  N   UNL A   1      38.999  32.827  35.543  1.00  0.00    -0.248 NA
ATOM     46  C   UNL A   1      37.293  34.391  35.849  1.00  0.00     0.031 C 
ATOM     47  C   UNL A   1      36.968  31.427  31.802  1.00  0.00     0.029 A 
ATOM     48  N   UNL A   1      38.685  31.073  33.190  1.00  0.00    -0.354 N 
ATOM     49  C   UNL A   1      39.266  33.581  36.680  1.00  0.00     0.074 A 
ATOM     50  C   UNL A   1      38.216  34.572  36.781  1.00  0.00     0.031 C 
ATOM     51  C   UNL A   1      37.685  30.406  31.303  1.00  0.00     0.029 A 
ATOM     52  C   UNL A   1      38.836  30.164  32.167  1.00  0.00     0.049 A 
ATOM     53  H   UNL A   1      39.306  31.136  33.950  1.00  0.00     0.167 HD
ATOM     54  C   UNL A   1      40.281  33.444  37.569  1.00  0.00     0.034 A 
ATOM     55  C   UNL A   1      39.799  29.249  31.947  1.00  0.00     0.034 A 
ATOM     56  C   UNL A   1      41.313  32.441  37.461  1.00  0.00     0.049 A 
ATOM     57  C   UNL A   1      40.926  29.125  32.941  1.00  0.00     0.074 A 
ATOM     58  C   UNL A   1      42.363  32.185  38.324  1.00  0.00     0.029 A 
ATOM     59  N   UNL A   1      41.424  31.527  36.420  1.00  0.00    -0.354 N 
ATOM     60  N   UNL A   1      41.144  29.822  34.032  1.00  0.00    -0.248 NA
ATOM     61  C   UNL A   1      41.930  28.086  32.678  1.00  0.00     0.031 C 
ATOM     62  C   UNL A   1      43.138  31.153  37.782  1.00  0.00     0.029 A 
ATOM     63  C   UNL A   1      42.536  30.722  36.611  1.00  0.00     0.049 A 
ATOM     64  H   UNL A   1      40.805  31.461  35.658  1.00  0.00     0.167 HD
ATOM     65  C   UNL A   1      42.293  29.282  34.602  1.00  0.00     0.074 A 
ATOM     66  C   UNL A   1      42.714  28.196  33.741  1.00  0.00     0.031 C 
ATOM     67  C   UNL A   1      42.942  29.646  35.738  1.00  0.00     0.034 A 
BRANCH  54  68
ATOM     68  C   UNL A   1      40.327  34.418  38.719  1.00  0.00     0.023 A 
ATOM     69  C   UNL A   1      39.640  34.168  39.920  1.00  0.00     0.031 A 
ATOM     70  C   UNL A   1      41.038  35.625  38.606  1.00  0.00     0.131 A 
ATOM     71  C   UNL A   1      39.613  35.144  40.928  1.00  0.00     0.055 A 
ATOM     72  C   UNL A   1      41.074  36.559  39.645  1.00  0.00     0.041 A 
ATOM     73  F   UNL A   1      41.697  35.927  37.476  1.00  0.00    -0.206 F 
ATOM     74  C   UNL A   1      40.346  36.327  40.809  1.00  0.00     0.022 A 
BRANCH  71  75
ATOM     75  S   UNL A   1      38.493  34.905  42.334  1.00  0.00     0.124 S 
ATOM     76  O   UNL A   1      38.829  36.053  43.174  1.00  0.00    -0.237 OA
ATOM     77  O   UNL A   1      37.180  34.937  41.702  1.00  0.00    -0.237 OA
ATOM     78  O   UNL A   1      38.895  33.608  42.875  1.00  0.00    -0.744 OA
ENDBRANCH  71  75
ENDBRANCH  54  68
BRANCH  55  79
ATOM     79  C   UNL A   1      39.757  28.378  30.738  1.00  0.00     0.023 A 
ATOM     80  C   UNL A   1      40.491  28.705  29.589  1.00  0.00     0.031 A 
ATOM     81  C   UNL A   1      38.941  27.233  30.698  1.00  0.00     0.131 A 
ATOM     82  C   UNL A   1      40.359  27.927  28.428  1.00  0.00     0.055 A 
ATOM     83  C   UNL A   1      38.851  26.434  29.556  1.00  0.00     0.041 A 
ATOM     84  F   UNL A   1      38.224  26.871  31.773  1.00  0.00    -0.206 F 
ATOM     85  C   UNL A   1      39.551  26.788  28.408  1.00  0.00     0.022 A 
BRANCH  82  86
ATOM     86  S   UNL A   1      41.190  28.480  26.914  1.00  0.00     0.124 S 
ATOM     87  O   UNL A   1      42.310  29.245  27.451  1.00  0.00    -0.237 OA
ATOM     88  O   UNL A   1      41.527  27.212  26.276  1.00  0.00    -0.237 OA
ATOM     89  O   UNL A   1      40.165  29.266  26.231  1.00  0.00    -0.744 OA
ENDBRANCH  82  86
ENDBRANCH  55  79
BRANCH  67  90
ATOM     90  C   UNL A   1      44.142  28.823  36.130  1.00  0.00     0.023 A 
ATOM     91  C   UNL A   1      44.057  27.805  37.095  1.00  0.00     0.031 A 
ATOM     92  C   UNL A   1      45.391  29.073  35.537  1.00  0.00     0.131 A 
ATOM     93  C   UNL A   1      45.213  27.107  37.476  1.00  0.00     0.055 A 
ATOM     94  C   UNL A   1      46.527  28.340  35.882  1.00  0.00     0.041 A 
ATOM     95  F   UNL A   1      45.527  30.036  34.609  1.00  0.00    -0.206 F 
ATOM     96  C   UNL A   1      46.444  27.360  36.865  1.00  0.00     0.022 A 
BRANCH  93  97
ATOM     97  S   UNL A   1      45.102  25.917  38.840  1.00  0.00     0.124 S 
ATOM     98  O   UNL A   1      46.473  25.899  39.340  1.00  0.00    -0.237 OA
ATOM     99  O   UNL A   1      44.112  26.536  39.716  1.00  0.00    -0.237 OA
ATOM    100  O   UNL A   1      44.664  24.685  38.186  1.00  0.00    -0.744 OA
ENDBRANCH  93  97
ENDBRANCH  67  90
ENDBRANCH  41  42
ENDBRANCH  33  36
ENDBRANCH  31  32
ENDBRANCH  30  31
ENDBRANCH   1  30
TORSDOF 17
ENDMDL
MODEL 2
REMARK VINA RESULT:     -11.4      5.720     11.262
REMARK SMILES CS(=O)(=O)c1ccc(-c2cc(Cl)cnc2-c2ccc(C(=O)NCCCCNC(=O)c3ccc(-c4c5nc(c(-c6cc(S(=O)(=O)[O-])ccc6F)c6ccc([nH]6)c(-c6cc(S(=O)(=O)[O-])ccc6F)c6nc(c(-c7cc(S(=O)(=O)[O-])ccc7F)c7ccc4[nH]7)C=C6)C=C5)cc3)nc2)cc1
REMARK SMILES IDX 24 1 23 2 22 3 20 4 21 5 19 7 16 8 17 9 94 10 18 11 93 12
REMARK SMILES IDX 15 13 9 14 10 15 11 16 14 17 12 18 13 19 8 20 5 21 6 22
REMARK SMILES IDX 96 23 7 24 95 25 2 26 1 27 3 28 4 29 25 30 26 31 27 32 28 33
REMARK SMILES IDX 29 35 30 36 31 37 92 38 32 39 91 40 33 41 34 42 35 43 85 44
REMARK SMILES IDX 36 45 90 46 84 47 86 48 37 49 89 50 83 51 82 52 38 54 70 55
REMARK SMILES IDX 50 56 69 57 51 58 54 59 68 60 87 61 52 62 53 63 67 65 88 66
REMARK SMILES IDX 55 67 39 68 40 69 48 70 41 71 47 72 49 73 46 74 42 75 43 76
REMARK SMILES IDX 44 77 45 78 71 79 72 80 80 81 73 82 79 83 81 84 78 85 74 86
REMARK SMILES IDX 75 87 76 88 77 89 56 90 57 91 65 92 58 93 64 94 66 95 63 96
REMARK SMILES IDX 59 97 60 98 61 99 62 100
REMARK H PARENT 22 6 27 34 86 53 54 64
REMARK Flexibility Score: inf
ROOT
ATOM      1  C   UNL A   1      34.499  21.913  25.680  1.00  0.00     0.023 C 
ENDROOT
BRANCH   1   2
ATOM      2  C   UNL A   1      33.979  23.126  26.456  1.00  0.00     0.116 C 
BRANCH   2   3
ATOM      3  N   UNL A   1      32.724  22.825  27.116  1.00  0.00    -0.351 N 
ATOM      4  C   UNL A   1      31.468  23.382  27.014  1.00  0.00     0.269 C 
ATOM      5  O   UNL A   1      30.572  22.851  27.675  1.00  0.00    -0.268 OA
ATOM      6  H   UNL A   1      32.781  22.081  27.759  1.00  0.00     0.163 HD
BRANCH   4   7
ATOM      7  C   UNL A   1      31.146  24.556  26.126  1.00  0.00     0.128 A 
ATOM      8  C   UNL A   1      30.483  26.824  24.670  1.00  0.00     0.019 A 
ATOM      9  C   UNL A   1      30.716  25.615  24.015  1.00  0.00     0.014 A 
ATOM     10  C   UNL A   1      30.665  26.831  26.047  1.00  0.00     0.122 A 
ATOM     11  C   UNL A   1      31.071  24.480  24.741  1.00  0.00     0.035 A 
ATOM     12  N   UNL A   1      30.960  25.732  26.784  1.00  0.00    -0.250 NA
BRANCH   8  13
ATOM     13  C   UNL A   1      30.041  28.012  23.943  1.00  0.00     0.080 A 
ATOM     14  C   UNL A   1      30.623  29.283  24.139  1.00  0.00     0.010 A 
ATOM     15  C   UNL A   1      30.046  30.364  23.451  1.00  0.00     0.033 A 
ATOM     16  C   UNL A   1      28.954  30.157  22.616  1.00  0.00     0.060 A 
ATOM     17  N   UNL A   1      28.985  27.796  23.113  1.00  0.00    -0.254 NA
ATOM     18  Cl  UNL A   1      28.228  31.471  21.784  1.00  0.00    -0.083 Cl
ATOM     19  C   UNL A   1      28.465  28.870  22.474  1.00  0.00     0.132 A 
BRANCH  14  20
ATOM     20  C   UNL A   1      31.787  29.507  25.014  1.00  0.00    -0.016 A 
ATOM     21  C   UNL A   1      34.007  29.937  26.685  1.00  0.00     0.067 A 
ATOM     22  C   UNL A   1      34.137  29.123  25.562  1.00  0.00     0.021 A 
ATOM     23  C   UNL A   1      32.784  30.543  26.984  1.00  0.00     0.021 A 
ATOM     24  C   UNL A   1      33.030  28.910  24.735  1.00  0.00     0.010 A 
ATOM     25  C   UNL A   1      31.683  30.329  26.150  1.00  0.00     0.010 A 
BRANCH  21  26
ATOM     26  S   UNL A   1      35.415  30.252  27.725  1.00  0.00     0.175 S 
ATOM     27  C   UNL A   1      35.379  31.995  28.048  1.00  0.00     0.163 C 
ATOM     28  O   UNL A   1      36.598  29.979  26.941  1.00  0.00    -0.224 OA
ATOM     29  O   UNL A   1      35.163  29.548  28.972  1.00  0.00    -0.224 OA
ENDBRANCH  21  26
ENDBRANCH  14  20
ENDBRANCH   8  13
ENDBRANCH   4   7
ENDBRANCH   2   3
ENDBRANCH   1   2
BRANCH   1  30
ATOM     30  C   UNL A   1      35.785  22.161  24.886  1.00  0.00     0.023 C 
BRANCH  30  31
ATOM     31  C   UNL A   1      36.993  22.573  25.719  1.00  0.00     0.116 C 
BRANCH  31  32
ATOM     32  N   UNL A   1      37.953  21.497  25.915  1.00  0.00    -0.352 N 
ATOM     33  C   UNL A   1      39.251  21.586  26.361  1.00  0.00     0.251 C 
ATOM     34  H   UNL A   1      37.633  20.591  25.702  1.00  0.00     0.163 HD
ATOM     35  O   UNL A   1      39.963  20.588  26.374  1.00  0.00    -0.269 OA
BRANCH  33  36
ATOM     36  C   UNL A   1      39.784  22.903  26.766  1.00  0.00     0.039 A 
ATOM     37  C   UNL A   1      40.736  22.958  27.786  1.00  0.00     0.014 A 
ATOM     38  C   UNL A   1      39.384  24.068  26.107  1.00  0.00     0.014 A 
ATOM     39  C   UNL A   1      41.346  24.175  28.094  1.00  0.00     0.010 A 
ATOM     40  C   UNL A   1      40.037  25.268  26.373  1.00  0.00     0.010 A 
ATOM     41  C   UNL A   1      41.031  25.331  27.361  1.00  0.00    -0.014 A 
BRANCH  41  42
ATOM     42  C   UNL A   1      41.732  26.617  27.608  1.00  0.00     0.031 A 
ATOM     43  C   UNL A   1      43.143  26.806  27.125  1.00  0.00     0.074 A 
ATOM     44  C   UNL A   1      41.123  27.579  28.328  1.00  0.00     0.049 A 
ATOM     45  N   UNL A   1      43.960  27.805  27.328  1.00  0.00    -0.248 NA
ATOM     46  C   UNL A   1      43.718  25.707  26.335  1.00  0.00     0.031 C 
ATOM     47  C   UNL A   1      39.770  27.493  28.883  1.00  0.00     0.029 A 
ATOM     48  N   UNL A   1      41.567  28.813  28.731  1.00  0.00    -0.354 N 
ATOM     49  C   UNL A   1      45.151  27.453  26.703  1.00  0.00     0.074 A 
ATOM     50  C   UNL A   1      44.964  26.122  26.165  1.00  0.00     0.031 C 
ATOM     51  C   UNL A   1      39.488  28.632  29.536  1.00  0.00     0.029 A 
ATOM     52  C   UNL A   1      40.653  29.511  29.486  1.00  0.00     0.049 A 
ATOM     53  H   UNL A   1      42.457  29.166  28.502  1.00  0.00     0.167 HD
ATOM     54  C   UNL A   1      46.287  28.182  26.570  1.00  0.00     0.034 A 
ATOM     55  C   UNL A   1      40.747  30.716  30.080  1.00  0.00     0.034 A 
ATOM     56  C   UNL A   1      46.453  29.513  27.101  1.00  0.00     0.049 A 
ATOM     57  C   UNL A   1      42.026  31.502  29.931  1.00  0.00     0.074 A 
ATOM     58  C   UNL A   1      47.544  30.358  26.990  1.00  0.00     0.029 A 
ATOM     59  N   UNL A   1      45.499  30.195  27.846  1.00  0.00    -0.354 N 
ATOM     60  N   UNL A   1      43.131  31.169  29.305  1.00  0.00    -0.248 NA
ATOM     61  C   UNL A   1      42.066  32.827  30.562  1.00  0.00     0.031 C 
ATOM     62  C   UNL A   1      47.270  31.527  27.710  1.00  0.00     0.029 A 
ATOM     63  C   UNL A   1      45.984  31.439  28.217  1.00  0.00     0.049 A 
ATOM     64  H   UNL A   1      44.608  29.845  28.077  1.00  0.00     0.167 HD
ATOM     65  C   UNL A   1      43.984  32.260  29.439  1.00  0.00     0.074 A 
ATOM     66  C   UNL A   1      43.262  33.262  30.196  1.00  0.00     0.031 C 
ATOM     67  C   UNL A   1      45.250  32.423  28.977  1.00  0.00     0.034 A 
BRANCH  54  68
ATOM     68  C   UNL A   1      47.440  27.538  25.839  1.00  0.00     0.023 A 
ATOM     69  C   UNL A   1      48.420  26.798  26.524  1.00  0.00     0.031 A 
ATOM     70  C   UNL A   1      47.580  27.690  24.450  1.00  0.00     0.131 A 
ATOM     71  C   UNL A   1      49.536  26.306  25.831  1.00  0.00     0.055 A 
ATOM     72  C   UNL A   1      48.652  27.128  23.752  1.00  0.00     0.041 A 
ATOM     73  F   UNL A   1      46.685  28.402  23.746  1.00  0.00    -0.206 F 
ATOM     74  C   UNL A   1      49.646  26.443  24.446  1.00  0.00     0.022 A 
BRANCH  71  75
ATOM     75  S   UNL A   1      50.908  25.605  26.788  1.00  0.00     0.124 S 
ATOM     76  O   UNL A   1      51.220  26.704  27.700  1.00  0.00    -0.237 OA
ATOM     77  O   UNL A   1      50.302  24.425  27.393  1.00  0.00    -0.237 OA
ATOM     78  O   UNL A   1      51.928  25.335  25.777  1.00  0.00    -0.744 OA
ENDBRANCH  71  75
ENDBRANCH  54  68
BRANCH  55  79
ATOM     79  C   UNL A   1      39.611  31.262  30.875  1.00  0.00     0.023 A 
ATOM     80  C   UNL A   1      39.612  31.189  32.276  1.00  0.00     0.031 A 
ATOM     81  C   UNL A   1      38.485  31.819  30.243  1.00  0.00     0.131 A 
ATOM     82  C   UNL A   1      38.489  31.617  33.000  1.00  0.00     0.055 A 
ATOM     83  C   UNL A   1      37.390  32.289  30.971  1.00  0.00     0.041 A 
ATOM     84  F   UNL A   1      38.437  31.920  28.905  1.00  0.00    -0.206 F 
ATOM     85  C   UNL A   1      37.382  32.176  32.357  1.00  0.00     0.022 A 
BRANCH  82  86
ATOM     86  S   UNL A   1      38.459  31.348  34.794  1.00  0.00     0.124 S 
ATOM     87  O   UNL A   1      37.248  32.061  35.182  1.00  0.00    -0.237 OA
ATOM     88  O   UNL A   1      38.402  29.893  34.878  1.00  0.00    -0.237 OA
ATOM     89  O   UNL A   1      39.712  31.948  35.248  1.00  0.00    -0.744 OA
ENDBRANCH  82  86
ENDBRANCH  55  79
BRANCH  67  90
ATOM     90  C   UNL A   1      45.904  33.755  29.237  1.00  0.00     0.023 A 
ATOM     91  C   UNL A   1      45.729  34.847  28.370  1.00  0.00     0.031 A 
ATOM     92  C   UNL A   1      46.725  33.928  30.365  1.00  0.00     0.131 A 
ATOM     93  C   UNL A   1      46.409  36.049  28.616  1.00  0.00     0.055 A 
ATOM     94  C   UNL A   1      47.356  35.143  30.634  1.00  0.00     0.041 A 
ATOM     95  F   UNL A   1      46.925  32.916  31.225  1.00  0.00    -0.206 F 
ATOM     96  C   UNL A   1      47.210  36.208  29.751  1.00  0.00     0.022 A 
BRANCH  93  97
ATOM     97  S   UNL A   1      46.294  37.382  27.391  1.00  0.00     0.124 S 
ATOM     98  O   UNL A   1      44.862  37.415  27.111  1.00  0.00    -0.237 OA
ATOM     99  O   UNL A   1      46.825  38.527  28.125  1.00  0.00    -0.237 OA
ATOM    100  O   UNL A   1      47.132  36.910  26.291  1.00  0.00    -0.744 OA
ENDBRANCH  93  97
ENDBRANCH  67  90
ENDBRANCH  41  42
ENDBRANCH  33  36
ENDBRANCH  31  32
ENDBRANCH  30  31
ENDBRANCH   1  30
TORSDOF 17
ENDMDL
MODEL 3
REMARK VINA RESULT:     -11.4      5.796     11.226
REMARK SMILES CS(=O)(=O)c1ccc(-c2cc(Cl)cnc2-c2ccc(C(=O)NCCCCNC(=O)c3ccc(-c4c5nc(c(-c6cc(S(=O)(=O)[O-])ccc6F)c6ccc([nH]6)c(-c6cc(S(=O)(=O)[O-])ccc6F)c6nc(c(-c7cc(S(=O)(=O)[O-])ccc7F)c7ccc4[nH]7)C=C6)C=C5)cc3)nc2)cc1
REMARK SMILES IDX 24 1 23 2 22 3 20 4 21 5 19 7 16 8 17 9 94 10 18 11 93 12
REMARK SMILES IDX 15 13 9 14 10 15 11 16 14 17 12 18 13 19 8 20 5 21 6 22
REMARK SMILES IDX 96 23 7 24 95 25 2 26 1 27 3 28 4 29 25 30 26 31 27 32 28 33
REMARK SMILES IDX 29 35 30 36 31 37 92 38 32 39 91 40 33 41 34 42 35 43 85 44
REMARK SMILES IDX 36 45 90 46 84 47 86 48 37 49 89 50 83 51 82 52 38 54 70 55
REMARK SMILES IDX 50 56 69 57 51 58 54 59 68 60 87 61 52 62 53 63 67 65 88 66
REMARK SMILES IDX 55 67 39 68 40 69 48 70 41 71 47 72 49 73 46 74 42 75 43 76
REMARK SMILES IDX 44 77 45 78 71 79 72 80 80 81 73 82 79 83 81 84 78 85 74 86
REMARK SMILES IDX 75 87 76 88 77 89 56 90 57 91 65 92 58 93 64 94 66 95 63 96
REMARK SMILES IDX 59 97 60 98 61 99 62 100
REMARK H PARENT 22 6 27 34 86 53 54 64
REMARK Flexibility Score: inf
ROOT
ATOM      1  C   UNL A   1      34.218  22.219  24.843  1.00  0.00     0.023 C 
ENDROOT
BRANCH   1   2
ATOM      2  C   UNL A   1      33.849  23.040  26.082  1.00  0.00     0.116 C 
BRANCH   2   3
ATOM      3  N   UNL A   1      32.560  22.639  26.610  1.00  0.00    -0.351 N 
ATOM      4  C   UNL A   1      31.300  23.186  26.489  1.00  0.00     0.269 C 
ATOM      5  O   UNL A   1      30.374  22.563  27.014  1.00  0.00    -0.268 OA
ATOM      6  H   UNL A   1      32.590  21.821  27.157  1.00  0.00     0.163 HD
BRANCH   4   7
ATOM      7  C   UNL A   1      31.013  24.458  25.734  1.00  0.00     0.128 A 
ATOM      8  C   UNL A   1      30.371  26.870  24.521  1.00  0.00     0.019 A 
ATOM      9  C   UNL A   1      30.846  25.806  23.755  1.00  0.00     0.014 A 
ATOM     10  C   UNL A   1      30.305  26.669  25.893  1.00  0.00     0.122 A 
ATOM     11  C   UNL A   1      31.192  24.602  24.365  1.00  0.00     0.035 A 
ATOM     12  N   UNL A   1      30.585  25.494  26.507  1.00  0.00    -0.250 NA
BRANCH   8  13
ATOM     13  C   UNL A   1      29.935  28.120  23.900  1.00  0.00     0.080 A 
ATOM     14  C   UNL A   1      30.553  29.359  24.174  1.00  0.00     0.010 A 
ATOM     15  C   UNL A   1      29.981  30.502  23.590  1.00  0.00     0.033 A 
ATOM     16  C   UNL A   1      28.859  30.384  22.778  1.00  0.00     0.060 A 
ATOM     17  N   UNL A   1      28.849  27.991  23.092  1.00  0.00    -0.254 NA
ATOM     18  Cl  UNL A   1      28.141  31.773  22.071  1.00  0.00    -0.083 Cl
ATOM     19  C   UNL A   1      28.336  29.122  22.554  1.00  0.00     0.132 A 
BRANCH  14  20
ATOM     20  C   UNL A   1      31.749  29.490  25.026  1.00  0.00    -0.016 A 
ATOM     21  C   UNL A   1      34.028  29.742  26.652  1.00  0.00     0.067 A 
ATOM     22  C   UNL A   1      34.075  28.929  25.520  1.00  0.00     0.021 A 
ATOM     23  C   UNL A   1      32.860  30.434  26.981  1.00  0.00     0.021 A 
ATOM     24  C   UNL A   1      32.938  28.805  24.716  1.00  0.00     0.010 A 
ATOM     25  C   UNL A   1      31.730  30.308  26.168  1.00  0.00     0.010 A 
BRANCH  21  26
ATOM     26  S   UNL A   1      35.477  29.943  27.663  1.00  0.00     0.175 S 
ATOM     27  C   UNL A   1      35.646  31.694  27.896  1.00  0.00     0.163 C 
ATOM     28  O   UNL A   1      36.610  29.497  26.885  1.00  0.00    -0.224 OA
ATOM     29  O   UNL A   1      35.163  29.337  28.947  1.00  0.00    -0.224 OA
ENDBRANCH  21  26
ENDBRANCH  14  20
ENDBRANCH   8  13
ENDBRANCH   4   7
ENDBRANCH   2   3
ENDBRANCH   1   2
BRANCH   1  30
ATOM     30  C   UNL A   1      35.711  22.199  24.507  1.00  0.00     0.023 C 
BRANCH  30  31
ATOM     31  C   UNL A   1      36.648  22.312  25.705  1.00  0.00     0.116 C 
BRANCH  31  32
ATOM     32  N   UNL A   1      37.666  21.273  25.742  1.00  0.00    -0.352 N 
ATOM     33  C   UNL A   1      38.985  21.388  26.116  1.00  0.00     0.251 C 
ATOM     34  H   UNL A   1      37.374  20.375  25.466  1.00  0.00     0.163 HD
ATOM     35  O   UNL A   1      39.740  20.430  25.994  1.00  0.00    -0.269 OA
BRANCH  33  36
ATOM     36  C   UNL A   1      39.482  22.689  26.608  1.00  0.00     0.039 A 
ATOM     37  C   UNL A   1      40.485  22.701  27.581  1.00  0.00     0.014 A 
ATOM     38  C   UNL A   1      38.998  23.886  26.074  1.00  0.00     0.014 A 
ATOM     39  C   UNL A   1      41.058  23.914  27.963  1.00  0.00     0.010 A 
ATOM     40  C   UNL A   1      39.613  25.088  26.412  1.00  0.00     0.010 A 
ATOM     41  C   UNL A   1      40.656  25.112  27.352  1.00  0.00    -0.014 A 
BRANCH  41  42
ATOM     42  C   UNL A   1      41.314  26.404  27.675  1.00  0.00     0.031 A 
ATOM     43  C   UNL A   1      42.710  26.676  27.188  1.00  0.00     0.074 A 
ATOM     44  C   UNL A   1      40.682  27.293  28.466  1.00  0.00     0.049 A 
ATOM     45  N   UNL A   1      43.494  27.689  27.448  1.00  0.00    -0.248 NA
ATOM     46  C   UNL A   1      43.312  25.654  26.319  1.00  0.00     0.031 C 
ATOM     47  C   UNL A   1      39.341  27.121  29.030  1.00  0.00     0.029 A 
ATOM     48  N   UNL A   1      41.088  28.513  28.945  1.00  0.00    -0.354 N 
ATOM     49  C   UNL A   1      44.687  27.423  26.785  1.00  0.00     0.074 A 
ATOM     50  C   UNL A   1      44.540  26.125  26.162  1.00  0.00     0.031 C 
ATOM     51  C   UNL A   1      39.029  28.203  29.762  1.00  0.00     0.029 A 
ATOM     52  C   UNL A   1      40.160  29.126  29.757  1.00  0.00     0.049 A 
ATOM     53  H   UNL A   1      41.961  28.913  28.729  1.00  0.00     0.167 HD
ATOM     54  C   UNL A   1      45.795  28.201  26.688  1.00  0.00     0.034 A 
ATOM     55  C   UNL A   1      40.220  30.291  30.429  1.00  0.00     0.034 A 
ATOM     56  C   UNL A   1      45.921  29.499  27.304  1.00  0.00     0.049 A 
ATOM     57  C   UNL A   1      41.468  31.132  30.317  1.00  0.00     0.074 A 
ATOM     58  C   UNL A   1      46.979  30.389  27.237  1.00  0.00     0.029 A 
ATOM     59  N   UNL A   1      44.954  30.094  28.106  1.00  0.00    -0.354 N 
ATOM     60  N   UNL A   1      42.574  30.882  29.656  1.00  0.00    -0.248 NA
ATOM     61  C   UNL A   1      41.470  32.412  31.035  1.00  0.00     0.031 C 
ATOM     62  C   UNL A   1      46.674  31.496  28.037  1.00  0.00     0.029 A 
ATOM     63  C   UNL A   1      45.400  31.327  28.553  1.00  0.00     0.049 A 
ATOM     64  H   UNL A   1      44.080  29.697  28.323  1.00  0.00     0.167 HD
ATOM     65  C   UNL A   1      43.390  31.992  29.853  1.00  0.00     0.074 A 
ATOM     66  C   UNL A   1      42.644  32.914  30.684  1.00  0.00     0.031 C 
ATOM     67  C   UNL A   1      44.642  32.231  29.386  1.00  0.00     0.034 A 
BRANCH  54  68
ATOM     68  C   UNL A   1      46.958  27.649  25.901  1.00  0.00     0.023 A 
ATOM     69  C   UNL A   1      47.208  28.056  24.578  1.00  0.00     0.031 A 
ATOM     70  C   UNL A   1      47.808  26.682  26.465  1.00  0.00     0.131 A 
ATOM     71  C   UNL A   1      48.230  27.443  23.839  1.00  0.00     0.055 A 
ATOM     72  C   UNL A   1      48.875  26.134  25.750  1.00  0.00     0.041 A 
ATOM     73  F   UNL A   1      47.606  26.241  27.717  1.00  0.00    -0.206 F 
ATOM     74  C   UNL A   1      49.082  26.503  24.423  1.00  0.00     0.022 A 
BRANCH  71  75
ATOM     75  S   UNL A   1      48.340  27.791  22.063  1.00  0.00     0.124 S 
ATOM     76  O   UNL A   1      47.093  28.516  21.829  1.00  0.00    -0.237 OA
ATOM     77  O   UNL A   1      49.564  28.578  21.970  1.00  0.00    -0.237 OA
ATOM     78  O   UNL A   1      48.403  26.463  21.456  1.00  0.00    -0.744 OA
ENDBRANCH  71  75
ENDBRANCH  54  68
BRANCH  55  79
ATOM     79  C   UNL A   1      39.077  30.741  31.273  1.00  0.00     0.023 A 
ATOM     80  C   UNL A   1      38.207  31.748  30.828  1.00  0.00     0.031 A 
ATOM     81  C   UNL A   1      38.870  30.208  32.557  1.00  0.00     0.131 A 
ATOM     82  C   UNL A   1      37.199  32.227  31.678  1.00  0.00     0.055 A 
ATOM     83  C   UNL A   1      37.835  30.654  33.381  1.00  0.00     0.041 A 
ATOM     84  F   UNL A   1      39.670  29.238  33.027  1.00  0.00    -0.206 F 
ATOM     85  C   UNL A   1      37.001  31.680  32.948  1.00  0.00     0.022 A 
BRANCH  82  86
ATOM     86  S   UNL A   1      36.205  33.643  31.133  1.00  0.00     0.124 S 
ATOM     87  O   UNL A   1      36.910  34.054  29.924  1.00  0.00    -0.237 OA
ATOM     88  O   UNL A   1      34.895  33.032  30.935  1.00  0.00    -0.237 OA
ATOM     89  O   UNL A   1      36.293  34.573  32.256  1.00  0.00    -0.744 OA
ENDBRANCH  82  86
ENDBRANCH  55  79
BRANCH  67  90
ATOM     90  C   UNL A   1      45.252  33.567  29.727  1.00  0.00     0.023 A 
ATOM     91  C   UNL A   1      45.069  34.694  28.908  1.00  0.00     0.031 A 
ATOM     92  C   UNL A   1      46.040  33.706  30.883  1.00  0.00     0.131 A 
ATOM     93  C   UNL A   1      45.708  35.900  29.230  1.00  0.00     0.055 A 
ATOM     94  C   UNL A   1      46.630  34.923  31.226  1.00  0.00     0.041 A 
ATOM     95  F   UNL A   1      46.246  32.659  31.699  1.00  0.00    -0.206 F 
ATOM     96  C   UNL A   1      46.476  36.025  30.392  1.00  0.00     0.022 A 
BRANCH  93  97
ATOM     97  S   UNL A   1      45.588  37.288  28.068  1.00  0.00     0.124 S 
ATOM     98  O   UNL A   1      44.809  38.258  28.832  1.00  0.00    -0.237 OA
ATOM     99  O   UNL A   1      46.989  37.630  27.844  1.00  0.00    -0.237 OA
ATOM    100  O   UNL A   1      44.900  36.710  26.914  1.00  0.00    -0.744 OA
ENDBRANCH  93  97
ENDBRANCH  67  90
ENDBRANCH  41  42
ENDBRANCH  33  36
ENDBRANCH  31  32
ENDBRANCH  30  31
ENDBRANCH   1  30
TORSDOF 17
ENDMDL
