MODEL 1
REMARK VINA RESULT:     -12.9      0.000      0.000
REMARK SMILES N#Cc1ccc2c(c1)C=C(C(=O)NCCCCNC(=O)c1ccc(-c3c4nc(c(-c5cc(S(=O)(=O)[O-])ccc5F)c5ccc([nH]5)c(-c5cc(S(=O)(=O)[O-])ccc5F)c5nc(c(-c6cc(S(=O)(=O)[O-])ccc6F)c6ccc3[nH]6)C=C5)C=C4)cc1)[C@@H](C(F)(F)F)O2
REMARK SMILES IDX 16 1 15 2 14 3 13 4 11 5 12 6 10 8 3 9 4 10 8 11 5 12 7 13
REMARK SMILES IDX 6 14 9 15 89 16 84 17 2 18 1 19 85 20 86 21 87 22 88 23
REMARK SMILES IDX 17 24 18 25 19 26 20 28 21 29 22 30 83 31 23 32 82 33 24 34
REMARK SMILES IDX 25 35 26 36 76 37 27 38 81 39 75 40 77 41 28 42 80 43 74 44
REMARK SMILES IDX 73 45 29 47 61 48 41 49 60 50 42 51 45 52 59 53 78 54 43 55
REMARK SMILES IDX 44 56 58 58 79 59 46 60 30 61 31 62 39 63 32 64 38 65 40 66
REMARK SMILES IDX 37 67 33 68 34 69 35 70 36 71 62 72 63 73 71 74 64 75 70 76
REMARK SMILES IDX 72 77 69 78 65 79 66 80 67 81 68 82 47 83 48 84 56 85 49 86
REMARK SMILES IDX 55 87 57 88 54 89 50 90 51 91 52 92 53 93
REMARK H PARENT 13 7 18 27 77 46 45 57
REMARK Flexibility Score: inf
ROOT
ATOM      1  C   UNL A   1      35.937  21.927  25.997  1.00  0.00     0.023 C 
ENDROOT
BRANCH   1   2
ATOM      2  C   UNL A   1      35.139  23.220  26.086  1.00  0.00     0.023 C 
BRANCH   2   3
ATOM      3  C   UNL A   1      34.039  23.173  27.139  1.00  0.00     0.116 C 
BRANCH   3   4
ATOM      4  N   UNL A   1      32.754  23.607  26.614  1.00  0.00    -0.352 N 
ATOM      5  C   UNL A   1      31.879  23.183  25.670  1.00  0.00     0.251 C 
ATOM      6  O   UNL A   1      30.836  23.834  25.568  1.00  0.00    -0.270 OA
ATOM      7  H   UNL A   1      32.436  24.423  27.063  1.00  0.00     0.163 HD
BRANCH   5   8
ATOM      8  C   UNL A   1      32.107  22.013  24.768  1.00  0.00     0.067 C 
ATOM      9  C   UNL A   1      33.179  17.322  24.245  1.00  0.00     0.053 A 
ATOM     10  C   UNL A   1      32.878  17.411  22.880  1.00  0.00     0.023 A 
ATOM     11  C   UNL A   1      33.041  18.449  25.071  1.00  0.00     0.031 A 
ATOM     12  C   UNL A   1      32.448  18.619  22.343  1.00  0.00     0.048 A 
ATOM     13  C   UNL A   1      32.609  19.663  24.530  1.00  0.00     0.018 A 
ATOM     14  C   UNL A   1      32.325  19.735  23.166  1.00  0.00     0.128 A 
ATOM     15  C   UNL A   1      32.397  20.841  25.366  1.00  0.00     0.025 C 
ATOM     16  O   UNL A   1      31.871  20.863  22.556  1.00  0.00    -0.475 OA
ATOM     17  C   UNL A   1      32.047  22.109  23.272  1.00  0.00     0.314 C 
BRANCH   9  18
ATOM     18  C   UNL A   1      33.612  16.072  24.789  1.00  0.00     0.099 C 
ATOM     19  N   UNL A   1      33.961  15.046  25.210  1.00  0.00    -0.192 NA
ENDBRANCH   9  18
BRANCH  17  20
ATOM     20  C   UNL A   1      33.259  22.856  22.685  1.00  0.00     0.429 C 
ATOM     21  F   UNL A   1      33.224  22.820  21.329  1.00  0.00    -0.167 F 
ATOM     22  F   UNL A   1      33.297  24.163  23.032  1.00  0.00    -0.167 F 
ATOM     23  F   UNL A   1      34.437  22.315  23.074  1.00  0.00    -0.167 F 
ENDBRANCH  17  20
ENDBRANCH   5   8
ENDBRANCH   3   4
ENDBRANCH   2   3
ENDBRANCH   1   2
BRANCH   1  24
ATOM     24  C   UNL A   1      37.182  22.012  25.126  1.00  0.00     0.116 C 
BRANCH  24  25
ATOM     25  N   UNL A   1      38.135  20.927  25.342  1.00  0.00    -0.352 N 
ATOM     26  C   UNL A   1      39.327  20.982  26.034  1.00  0.00     0.251 C 
ATOM     27  H   UNL A   1      37.899  20.056  24.949  1.00  0.00     0.163 HD
ATOM     28  O   UNL A   1      40.093  20.027  26.049  1.00  0.00    -0.269 OA
BRANCH  26  29
ATOM     29  C   UNL A   1      39.668  22.252  26.705  1.00  0.00     0.039 A 
ATOM     30  C   UNL A   1      39.114  23.438  26.224  1.00  0.00     0.014 A 
ATOM     31  C   UNL A   1      40.678  22.270  27.667  1.00  0.00     0.014 A 
ATOM     32  C   UNL A   1      39.738  24.639  26.525  1.00  0.00     0.010 A 
ATOM     33  C   UNL A   1      41.210  23.497  28.070  1.00  0.00     0.010 A 
ATOM     34  C   UNL A   1      40.794  24.687  27.452  1.00  0.00    -0.014 A 
BRANCH  34  35
ATOM     35  C   UNL A   1      41.428  25.997  27.760  1.00  0.00     0.031 A 
ATOM     36  C   UNL A   1      42.807  26.340  27.261  1.00  0.00     0.074 A 
ATOM     37  C   UNL A   1      40.721  26.904  28.464  1.00  0.00     0.049 A 
ATOM     38  N   UNL A   1      43.491  27.441  27.436  1.00  0.00    -0.248 NA
ATOM     39  C   UNL A   1      43.517  25.321  26.469  1.00  0.00     0.031 C 
ATOM     40  C   UNL A   1      39.374  26.682  28.991  1.00  0.00     0.029 A 
ATOM     41  N   UNL A   1      41.015  28.191  28.839  1.00  0.00    -0.354 N 
ATOM     42  C   UNL A   1      44.714  27.243  26.802  1.00  0.00     0.074 A 
ATOM     43  C   UNL A   1      44.693  25.899  26.268  1.00  0.00     0.031 C 
ATOM     44  C   UNL A   1      38.934  27.808  29.563  1.00  0.00     0.029 A 
ATOM     45  C   UNL A   1      40.002  28.802  29.541  1.00  0.00     0.049 A 
ATOM     46  H   UNL A   1      41.869  28.634  28.627  1.00  0.00     0.167 HD
ATOM     47  C   UNL A   1      45.746  28.110  26.669  1.00  0.00     0.034 A 
ATOM     48  C   UNL A   1      39.938  30.013  30.130  1.00  0.00     0.034 A 
ATOM     49  C   UNL A   1      45.733  29.455  27.189  1.00  0.00     0.049 A 
ATOM     50  C   UNL A   1      41.115  30.940  30.001  1.00  0.00     0.074 A 
ATOM     51  C   UNL A   1      46.715  30.423  27.069  1.00  0.00     0.029 A 
ATOM     52  N   UNL A   1      44.703  30.026  27.923  1.00  0.00    -0.354 N 
ATOM     53  N   UNL A   1      42.239  30.755  29.350  1.00  0.00    -0.248 NA
ATOM     54  C   UNL A   1      41.019  32.239  30.677  1.00  0.00     0.031 C 
ATOM     55  C   UNL A   1      46.321  31.540  27.804  1.00  0.00     0.029 A 
ATOM     56  C   UNL A   1      45.045  31.317  28.297  1.00  0.00     0.049 A 
ATOM     57  H   UNL A   1      43.853  29.581  28.147  1.00  0.00     0.167 HD
ATOM     58  C   UNL A   1      42.974  31.924  29.517  1.00  0.00     0.074 A 
ATOM     59  C   UNL A   1      42.153  32.820  30.304  1.00  0.00     0.031 C 
ATOM     60  C   UNL A   1      44.218  32.219  29.064  1.00  0.00     0.034 A 
BRANCH  47  61
ATOM     61  C   UNL A   1      46.990  27.669  25.928  1.00  0.00     0.023 A 
ATOM     62  C   UNL A   1      47.150  28.006  24.569  1.00  0.00     0.031 A 
ATOM     63  C   UNL A   1      47.922  26.786  26.503  1.00  0.00     0.131 A 
ATOM     64  C   UNL A   1      48.177  27.420  23.818  1.00  0.00     0.055 A 
ATOM     65  C   UNL A   1      48.979  26.250  25.764  1.00  0.00     0.041 A 
ATOM     66  F   UNL A   1      47.816  26.426  27.793  1.00  0.00    -0.206 F 
ATOM     67  C   UNL A   1      49.099  26.552  24.411  1.00  0.00     0.022 A 
BRANCH  64  68
ATOM     68  S   UNL A   1      48.296  27.681  22.027  1.00  0.00     0.124 S 
ATOM     69  O   UNL A   1      49.425  28.605  21.934  1.00  0.00    -0.237 OA
ATOM     70  O   UNL A   1      48.555  26.329  21.540  1.00  0.00    -0.237 OA
ATOM     71  O   UNL A   1      47.001  28.246  21.667  1.00  0.00    -0.744 OA
ENDBRANCH  64  68
ENDBRANCH  47  61
BRANCH  48  72
ATOM     72  C   UNL A   1      38.693  30.395  30.858  1.00  0.00     0.023 A 
ATOM     73  C   UNL A   1      37.619  30.998  30.177  1.00  0.00     0.031 A 
ATOM     74  C   UNL A   1      38.610  30.287  32.256  1.00  0.00     0.131 A 
ATOM     75  C   UNL A   1      36.557  31.554  30.901  1.00  0.00     0.055 A 
ATOM     76  C   UNL A   1      37.505  30.761  32.965  1.00  0.00     0.041 A 
ATOM     77  F   UNL A   1      39.614  29.733  32.953  1.00  0.00    -0.206 F 
ATOM     78  C   UNL A   1      36.482  31.419  32.290  1.00  0.00     0.022 A 
BRANCH  75  79
ATOM     79  S   UNL A   1      35.330  32.609  30.081  1.00  0.00     0.124 S 
ATOM     80  O   UNL A   1      36.138  33.747  29.656  1.00  0.00    -0.237 OA
ATOM     81  O   UNL A   1      34.857  31.735  29.010  1.00  0.00    -0.237 OA
ATOM     82  O   UNL A   1      34.354  32.883  31.130  1.00  0.00    -0.744 OA
ENDBRANCH  75  79
ENDBRANCH  48  72
BRANCH  60  83
ATOM     83  C   UNL A   1      44.804  33.578  29.378  1.00  0.00     0.023 A 
ATOM     84  C   UNL A   1      44.554  34.663  28.516  1.00  0.00     0.031 A 
ATOM     85  C   UNL A   1      45.734  33.757  30.417  1.00  0.00     0.131 A 
ATOM     86  C   UNL A   1      45.272  35.855  28.667  1.00  0.00     0.055 A 
ATOM     87  C   UNL A   1      46.397  34.971  30.605  1.00  0.00     0.041 A 
ATOM     88  F   UNL A   1      46.020  32.752  31.260  1.00  0.00    -0.206 F 
ATOM     89  C   UNL A   1      46.183  36.020  29.715  1.00  0.00     0.022 A 
BRANCH  86  90
ATOM     90  S   UNL A   1      45.137  37.189  27.445  1.00  0.00     0.124 S 
ATOM     91  O   UNL A   1      45.399  38.374  28.258  1.00  0.00    -0.237 OA
ATOM     92  O   UNL A   1      46.191  36.840  26.495  1.00  0.00    -0.237 OA
ATOM     93  O   UNL A   1      43.773  37.070  26.942  1.00  0.00    -0.744 OA
ENDBRANCH  86  90
ENDBRANCH  60  83
ENDBRANCH  34  35
ENDBRANCH  26  29
ENDBRANCH  24  25
ENDBRANCH   1  24
TORSDOF 16
ENDMDL
MODEL 2
REMARK VINA RESULT:     -12.7      5.804      8.468
REMARK SMILES N#Cc1ccc2c(c1)C=C(C(=O)NCCCCNC(=O)c1ccc(-c3c4nc(c(-c5cc(S(=O)(=O)[O-])ccc5F)c5ccc([nH]5)c(-c5cc(S(=O)(=O)[O-])ccc5F)c5nc(c(-c6cc(S(=O)(=O)[O-])ccc6F)c6ccc3[nH]6)C=C5)C=C4)cc1)[C@@H](C(F)(F)F)O2
REMARK SMILES IDX 16 1 15 2 14 3 13 4 11 5 12 6 10 8 3 9 4 10 8 11 5 12 7 13
REMARK SMILES IDX 6 14 9 15 89 16 84 17 2 18 1 19 85 20 86 21 87 22 88 23
REMARK SMILES IDX 17 24 18 25 19 26 20 28 21 29 22 30 83 31 23 32 82 33 24 34
REMARK SMILES IDX 25 35 26 36 76 37 27 38 81 39 75 40 77 41 28 42 80 43 74 44
REMARK SMILES IDX 73 45 29 47 61 48 41 49 60 50 42 51 45 52 59 53 78 54 43 55
REMARK SMILES IDX 44 56 58 58 79 59 46 60 30 61 31 62 39 63 32 64 38 65 40 66
REMARK SMILES IDX 37 67 33 68 34 69 35 70 36 71 62 72 63 73 71 74 64 75 70 76
REMARK SMILES IDX 72 77 69 78 65 79 66 80 67 81 68 82 47 83 48 84 56 85 49 86
REMARK SMILES IDX 55 87 57 88 54 89 50 90 51 91 52 92 53 93
REMARK H PARENT 13 7 18 27 77 46 45 57
REMARK Flexibility Score: inf
ROOT
ATOM      1  C   UNL A   1      32.868  29.466  25.505  1.00  0.00     0.023 C 
ENDROOT
BRANCH   1   2
ATOM      2  C   UNL A   1      34.047  28.583  25.124  1.00  0.00     0.023 C 
BRANCH   2   3
ATOM      3  C   UNL A   1      33.795  27.103  25.385  1.00  0.00     0.116 C 
BRANCH   3   4
ATOM      4  N   UNL A   1      33.611  26.348  24.156  1.00  0.00    -0.352 N 
ATOM      5  C   UNL A   1      32.631  26.184  23.235  1.00  0.00     0.251 C 
ATOM      6  O   UNL A   1      32.909  25.464  22.272  1.00  0.00    -0.270 OA
ATOM      7  H   UNL A   1      34.410  25.817  23.935  1.00  0.00     0.163 HD
BRANCH   5   8
ATOM      8  C   UNL A   1      31.273  26.802  23.324  1.00  0.00     0.067 C 
ATOM      9  C   UNL A   1      28.377  30.596  22.523  1.00  0.00     0.053 A 
ATOM     10  C   UNL A   1      27.269  29.820  22.883  1.00  0.00     0.023 A 
ATOM     11  C   UNL A   1      29.662  30.031  22.522  1.00  0.00     0.031 A 
ATOM     12  C   UNL A   1      27.444  28.490  23.244  1.00  0.00     0.048 A 
ATOM     13  C   UNL A   1      29.837  28.693  22.885  1.00  0.00     0.018 A 
ATOM     14  C   UNL A   1      28.722  27.938  23.251  1.00  0.00     0.128 A 
ATOM     15  C   UNL A   1      31.148  28.052  22.839  1.00  0.00     0.025 C 
ATOM     16  O   UNL A   1      28.789  26.623  23.591  1.00  0.00    -0.475 OA
ATOM     17  C   UNL A   1      30.095  26.103  23.937  1.00  0.00     0.314 C 
BRANCH   9  18
ATOM     18  C   UNL A   1      28.185  31.963  22.145  1.00  0.00     0.099 C 
ATOM     19  N   UNL A   1      28.045  33.080  21.856  1.00  0.00    -0.192 NA
ENDBRANCH   9  18
BRANCH  17  20
ATOM     20  C   UNL A   1      30.205  26.010  25.472  1.00  0.00     0.429 C 
ATOM     21  F   UNL A   1      30.566  27.209  25.992  1.00  0.00    -0.167 F 
ATOM     22  F   UNL A   1      29.038  25.670  26.067  1.00  0.00    -0.167 F 
ATOM     23  F   UNL A   1      31.125  25.102  25.869  1.00  0.00    -0.167 F 
ENDBRANCH  17  20
ENDBRANCH   5   8
ENDBRANCH   3   4
ENDBRANCH   2   3
ENDBRANCH   1   2
BRANCH   1  24
ATOM     24  C   UNL A   1      32.803  29.829  26.982  1.00  0.00     0.116 C 
BRANCH  24  25
ATOM     25  N   UNL A   1      32.730  31.264  27.239  1.00  0.00    -0.352 N 
ATOM     26  C   UNL A   1      33.727  32.081  27.731  1.00  0.00     0.251 C 
ATOM     27  H   UNL A   1      31.870  31.700  27.038  1.00  0.00     0.163 HD
ATOM     28  O   UNL A   1      33.505  33.253  28.008  1.00  0.00    -0.269 OA
BRANCH  26  29
ATOM     29  C   UNL A   1      35.053  31.473  27.963  1.00  0.00     0.039 A 
ATOM     30  C   UNL A   1      35.122  30.137  28.359  1.00  0.00     0.014 A 
ATOM     31  C   UNL A   1      36.186  32.285  27.978  1.00  0.00     0.014 A 
ATOM     32  C   UNL A   1      36.267  29.687  28.998  1.00  0.00     0.010 A 
ATOM     33  C   UNL A   1      37.379  31.778  28.498  1.00  0.00     0.010 A 
ATOM     34  C   UNL A   1      37.412  30.498  29.076  1.00  0.00    -0.014 A 
BRANCH  34  35
ATOM     35  C   UNL A   1      38.627  29.973  29.756  1.00  0.00     0.031 A 
ATOM     36  C   UNL A   1      39.527  28.966  29.091  1.00  0.00     0.074 A 
ATOM     37  C   UNL A   1      38.939  30.455  30.975  1.00  0.00     0.049 A 
ATOM     38  N   UNL A   1      40.625  28.420  29.548  1.00  0.00    -0.248 NA
ATOM     39  C   UNL A   1      39.151  28.501  27.745  1.00  0.00     0.031 C 
ATOM     40  C   UNL A   1      38.143  31.440  31.710  1.00  0.00     0.029 A 
ATOM     41  N   UNL A   1      40.007  30.210  31.801  1.00  0.00    -0.354 N 
ATOM     42  C   UNL A   1      41.057  27.536  28.565  1.00  0.00     0.074 A 
ATOM     43  C   UNL A   1      40.082  27.589  27.499  1.00  0.00     0.031 C 
ATOM     44  C   UNL A   1      38.777  31.761  32.843  1.00  0.00     0.029 A 
ATOM     45  C   UNL A   1      39.971  30.932  32.972  1.00  0.00     0.049 A 
ATOM     46  H   UNL A   1      40.729  29.578  31.579  1.00  0.00     0.167 HD
ATOM     47  C   UNL A   1      42.173  26.766  28.553  1.00  0.00     0.034 A 
ATOM     48  C   UNL A   1      40.784  30.916  34.048  1.00  0.00     0.034 A 
ATOM     49  C   UNL A   1      43.144  26.750  29.619  1.00  0.00     0.049 A 
ATOM     50  C   UNL A   1      41.992  30.022  34.024  1.00  0.00     0.074 A 
ATOM     51  C   UNL A   1      44.328  26.035  29.679  1.00  0.00     0.029 A 
ATOM     52  N   UNL A   1      43.056  27.470  30.803  1.00  0.00    -0.354 N 
ATOM     53  N   UNL A   1      42.415  29.236  33.062  1.00  0.00    -0.248 NA
ATOM     54  C   UNL A   1      42.840  30.012  35.222  1.00  0.00     0.031 C 
ATOM     55  C   UNL A   1      44.904  26.248  30.930  1.00  0.00     0.029 A 
ATOM     56  C   UNL A   1      44.142  27.181  31.615  1.00  0.00     0.049 A 
ATOM     57  H   UNL A   1      42.329  28.093  31.032  1.00  0.00     0.167 HD
ATOM     58  C   UNL A   1      43.590  28.657  33.530  1.00  0.00     0.074 A 
ATOM     59  C   UNL A   1      43.827  29.208  34.846  1.00  0.00     0.031 C 
ATOM     60  C   UNL A   1      44.391  27.746  32.921  1.00  0.00     0.034 A 
BRANCH  47  61
ATOM     61  C   UNL A   1      42.441  25.873  27.361  1.00  0.00     0.023 A 
ATOM     62  C   UNL A   1      41.968  24.546  27.362  1.00  0.00     0.031 A 
ATOM     63  C   UNL A   1      43.296  26.269  26.316  1.00  0.00     0.131 A 
ATOM     64  C   UNL A   1      42.397  23.649  26.376  1.00  0.00     0.055 A 
ATOM     65  C   UNL A   1      43.674  25.386  25.303  1.00  0.00     0.041 A 
ATOM     66  F   UNL A   1      43.781  27.520  26.267  1.00  0.00    -0.206 F 
ATOM     67  C   UNL A   1      43.240  24.065  25.340  1.00  0.00     0.022 A 
BRANCH  64  68
ATOM     68  S   UNL A   1      41.963  21.889  26.454  1.00  0.00     0.124 S 
ATOM     69  O   UNL A   1      42.682  21.353  25.300  1.00  0.00    -0.237 OA
ATOM     70  O   UNL A   1      42.499  21.502  27.756  1.00  0.00    -0.237 OA
ATOM     71  O   UNL A   1      40.510  21.880  26.339  1.00  0.00    -0.744 OA
ENDBRANCH  64  68
ENDBRANCH  47  61
BRANCH  48  72
ATOM     72  C   UNL A   1      40.469  31.808  35.202  1.00  0.00     0.023 A 
ATOM     73  C   UNL A   1      39.517  31.426  36.166  1.00  0.00     0.031 A 
ATOM     74  C   UNL A   1      41.011  33.101  35.286  1.00  0.00     0.131 A 
ATOM     75  C   UNL A   1      39.068  32.357  37.110  1.00  0.00     0.055 A 
ATOM     76  C   UNL A   1      40.626  33.994  36.287  1.00  0.00     0.041 A 
ATOM     77  F   UNL A   1      41.911  33.517  34.382  1.00  0.00    -0.206 F 
ATOM     78  C   UNL A   1      39.633  33.632  37.192  1.00  0.00     0.022 A 
BRANCH  75  79
ATOM     79  S   UNL A   1      37.626  31.997  38.151  1.00  0.00     0.124 S 
ATOM     80  O   UNL A   1      36.665  32.999  37.700  1.00  0.00    -0.237 OA
ATOM     81  O   UNL A   1      37.326  30.618  37.774  1.00  0.00    -0.237 OA
ATOM     82  O   UNL A   1      38.129  32.171  39.510  1.00  0.00    -0.744 OA
ENDBRANCH  75  79
ENDBRANCH  48  72
BRANCH  60  83
ATOM     83  C   UNL A   1      45.631  27.270  33.643  1.00  0.00     0.023 A 
ATOM     84  C   UNL A   1      45.538  26.210  34.567  1.00  0.00     0.031 A 
ATOM     85  C   UNL A   1      46.850  27.964  33.551  1.00  0.00     0.131 A 
ATOM     86  C   UNL A   1      46.621  25.918  35.405  1.00  0.00     0.055 A 
ATOM     87  C   UNL A   1      47.949  27.623  34.342  1.00  0.00     0.041 A 
ATOM     88  F   UNL A   1      46.989  28.990  32.697  1.00  0.00    -0.206 F 
ATOM     89  C   UNL A   1      47.830  26.609  35.289  1.00  0.00     0.022 A 
BRANCH  86  90
ATOM     90  S   UNL A   1      46.461  24.712  36.751  1.00  0.00     0.124 S 
ATOM     91  O   UNL A   1      47.444  25.201  37.715  1.00  0.00    -0.237 OA
ATOM     92  O   UNL A   1      45.064  24.879  37.146  1.00  0.00    -0.237 OA
ATOM     93  O   UNL A   1      46.788  23.436  36.123  1.00  0.00    -0.744 OA
ENDBRANCH  86  90
ENDBRANCH  60  83
ENDBRANCH  34  35
ENDBRANCH  26  29
ENDBRANCH  24  25
ENDBRANCH   1  24
TORSDOF 16
ENDMDL
MODEL 3
REMARK VINA RESULT:     -12.6      5.877     10.750
REMARK SMILES N#Cc1ccc2c(c1)C=C(C(=O)NCCCCNC(=O)c1ccc(-c3c4nc(c(-c5cc(S(=O)(=O)[O-])ccc5F)c5ccc([nH]5)c(-c5cc(S(=O)(=O)[O-])ccc5F)c5nc(c(-c6cc(S(=O)(=O)[O-])ccc6F)c6ccc3[nH]6)C=C5)C=C4)cc1)[C@@H](C(F)(F)F)O2
REMARK SMILES IDX 16 1 15 2 14 3 13 4 11 5 12 6 10 8 3 9 4 10 8 11 5 12 7 13
REMARK SMILES IDX 6 14 9 15 89 16 84 17 2 18 1 19 85 20 86 21 87 22 88 23
REMARK SMILES IDX 17 24 18 25 19 26 20 28 21 29 22 30 83 31 23 32 82 33 24 34
REMARK SMILES IDX 25 35 26 36 76 37 27 38 81 39 75 40 77 41 28 42 80 43 74 44
REMARK SMILES IDX 73 45 29 47 61 48 41 49 60 50 42 51 45 52 59 53 78 54 43 55
REMARK SMILES IDX 44 56 58 58 79 59 46 60 30 61 31 62 39 63 32 64 38 65 40 66
REMARK SMILES IDX 37 67 33 68 34 69 35 70 36 71 62 72 63 73 71 74 64 75 70 76
REMARK SMILES IDX 72 77 69 78 65 79 66 80 67 81 68 82 47 83 48 84 56 85 49 86
REMARK SMILES IDX 55 87 57 88 54 89 50 90 51 91 52 92 53 93
REMARK H PARENT 13 7 18 27 77 46 45 57
REMARK Flexibility Score: inf
ROOT
ATOM      1  C   UNL A   1      32.878  29.251  24.885  1.00  0.00     0.023 C 
ENDROOT
BRANCH   1   2
ATOM      2  C   UNL A   1      34.040  28.332  24.537  1.00  0.00     0.023 C 
BRANCH   2   3
ATOM      3  C   UNL A   1      33.757  26.866  24.842  1.00  0.00     0.116 C 
BRANCH   3   4
ATOM      4  N   UNL A   1      33.410  26.111  23.649  1.00  0.00    -0.352 N 
ATOM      5  C   UNL A   1      32.334  25.992  22.834  1.00  0.00     0.251 C 
ATOM      6  O   UNL A   1      32.474  25.248  21.859  1.00  0.00    -0.270 OA
ATOM      7  H   UNL A   1      34.153  25.534  23.357  1.00  0.00     0.163 HD
BRANCH   5   8
ATOM      8  C   UNL A   1      31.027  26.684  23.049  1.00  0.00     0.067 C 
ATOM      9  C   UNL A   1      28.290  30.642  22.528  1.00  0.00     0.053 A 
ATOM     10  C   UNL A   1      27.177  29.927  22.986  1.00  0.00     0.023 A 
ATOM     11  C   UNL A   1      29.535  30.005  22.406  1.00  0.00     0.031 A 
ATOM     12  C   UNL A   1      27.309  28.585  23.326  1.00  0.00     0.048 A 
ATOM     13  C   UNL A   1      29.667  28.656  22.748  1.00  0.00     0.018 A 
ATOM     14  C   UNL A   1      28.549  27.963  23.214  1.00  0.00     0.128 A 
ATOM     15  C   UNL A   1      30.929  27.943  22.580  1.00  0.00     0.025 C 
ATOM     16  O   UNL A   1      28.572  26.643  23.543  1.00  0.00    -0.475 OA
ATOM     17  C   UNL A   1      29.873  26.049  23.766  1.00  0.00     0.314 C 
BRANCH   9  18
ATOM     18  C   UNL A   1      28.142  32.020  22.172  1.00  0.00     0.099 C 
ATOM     19  N   UNL A   1      28.020  33.145  21.907  1.00  0.00    -0.192 NA
ENDBRANCH   9  18
BRANCH  17  20
ATOM     20  C   UNL A   1      30.117  25.938  25.284  1.00  0.00     0.429 C 
ATOM     21  F   UNL A   1      31.026  24.965  25.546  1.00  0.00    -0.167 F 
ATOM     22  F   UNL A   1      30.607  27.076  25.828  1.00  0.00    -0.167 F 
ATOM     23  F   UNL A   1      28.990  25.632  25.967  1.00  0.00    -0.167 F 
ENDBRANCH  17  20
ENDBRANCH   5   8
ENDBRANCH   3   4
ENDBRANCH   2   3
ENDBRANCH   1   2
BRANCH   1  24
ATOM     24  C   UNL A   1      32.744  29.563  26.369  1.00  0.00     0.116 C 
BRANCH  24  25
ATOM     25  N   UNL A   1      32.413  30.956  26.656  1.00  0.00    -0.352 N 
ATOM     26  C   UNL A   1      33.202  31.892  27.292  1.00  0.00     0.251 C 
ATOM     27  H   UNL A   1      31.525  31.262  26.362  1.00  0.00     0.163 HD
ATOM     28  O   UNL A   1      32.765  33.001  27.573  1.00  0.00    -0.269 OA
BRANCH  26  29
ATOM     29  C   UNL A   1      34.570  31.486  27.670  1.00  0.00     0.039 A 
ATOM     30  C   UNL A   1      34.833  30.136  27.903  1.00  0.00     0.014 A 
ATOM     31  C   UNL A   1      35.515  32.464  27.979  1.00  0.00     0.014 A 
ATOM     32  C   UNL A   1      35.937  29.791  28.668  1.00  0.00     0.010 A 
ATOM     33  C   UNL A   1      36.694  32.090  28.628  1.00  0.00     0.010 A 
ATOM     34  C   UNL A   1      36.884  30.761  29.040  1.00  0.00    -0.014 A 
BRANCH  34  35
ATOM     35  C   UNL A   1      38.064  30.349  29.848  1.00  0.00     0.031 A 
ATOM     36  C   UNL A   1      38.262  30.840  31.257  1.00  0.00     0.074 A 
ATOM     37  C   UNL A   1      38.941  29.480  29.307  1.00  0.00     0.049 A 
ATOM     38  N   UNL A   1      39.231  30.565  32.092  1.00  0.00    -0.248 NA
ATOM     39  C   UNL A   1      37.253  31.762  31.805  1.00  0.00     0.031 C 
ATOM     40  C   UNL A   1      38.843  28.933  27.953  1.00  0.00     0.029 A 
ATOM     41  N   UNL A   1      40.065  28.886  29.823  1.00  0.00    -0.354 N 
ATOM     42  C   UNL A   1      38.966  31.292  33.248  1.00  0.00     0.074 A 
ATOM     43  C   UNL A   1      37.762  32.052  32.995  1.00  0.00     0.031 C 
ATOM     44  C   UNL A   1      39.822  28.041  27.766  1.00  0.00     0.029 A 
ATOM     45  C   UNL A   1      40.682  28.025  28.944  1.00  0.00     0.049 A 
ATOM     46  H   UNL A   1      40.397  29.059  30.733  1.00  0.00     0.167 HD
ATOM     47  C   UNL A   1      39.658  31.308  34.413  1.00  0.00     0.034 A 
ATOM     48  C   UNL A   1      41.827  27.321  29.052  1.00  0.00     0.034 A 
ATOM     49  C   UNL A   1      40.843  30.521  34.650  1.00  0.00     0.049 A 
ATOM     50  C   UNL A   1      42.596  27.389  30.342  1.00  0.00     0.074 A 
ATOM     51  C   UNL A   1      41.590  30.437  35.812  1.00  0.00     0.029 A 
ATOM     52  N   UNL A   1      41.457  29.687  33.725  1.00  0.00    -0.354 N 
ATOM     53  N   UNL A   1      42.299  28.038  31.443  1.00  0.00    -0.248 NA
ATOM     54  C   UNL A   1      43.850  26.630  30.413  1.00  0.00     0.031 C 
ATOM     55  C   UNL A   1      42.700  29.633  35.562  1.00  0.00     0.029 A 
ATOM     56  C   UNL A   1      42.596  29.122  34.278  1.00  0.00     0.049 A 
ATOM     57  H   UNL A   1      41.132  29.523  32.810  1.00  0.00     0.167 HD
ATOM     58  C   UNL A   1      43.316  27.745  32.346  1.00  0.00     0.074 A 
ATOM     59  C   UNL A   1      44.218  26.836  31.671  1.00  0.00     0.031 C 
ATOM     60  C   UNL A   1      43.485  28.198  33.614  1.00  0.00     0.034 A 
BRANCH  47  61
ATOM     61  C   UNL A   1      39.174  32.185  35.548  1.00  0.00     0.023 A 
ATOM     62  C   UNL A   1      39.661  33.501  35.670  1.00  0.00     0.031 A 
ATOM     63  C   UNL A   1      38.378  31.676  36.590  1.00  0.00     0.131 A 
ATOM     64  C   UNL A   1      39.398  34.241  36.830  1.00  0.00     0.055 A 
ATOM     65  C   UNL A   1      38.071  32.439  37.718  1.00  0.00     0.041 A 
ATOM     66  F   UNL A   1      37.891  30.426  36.529  1.00  0.00    -0.206 F 
ATOM     67  C   UNL A   1      38.596  33.720  37.851  1.00  0.00     0.022 A 
BRANCH  64  68
ATOM     68  S   UNL A   1      40.166  35.861  37.105  1.00  0.00     0.124 S 
ATOM     69  O   UNL A   1      39.578  36.257  38.383  1.00  0.00    -0.237 OA
ATOM     70  O   UNL A   1      41.585  35.521  37.150  1.00  0.00    -0.237 OA
ATOM     71  O   UNL A   1      39.740  36.651  35.955  1.00  0.00    -0.744 OA
ENDBRANCH  64  68
ENDBRANCH  47  61
BRANCH  48  72
ATOM     72  C   UNL A   1      42.266  26.481  27.900  1.00  0.00     0.023 A 
ATOM     73  C   UNL A   1      41.884  25.129  27.810  1.00  0.00     0.031 A 
ATOM     74  C   UNL A   1      43.176  26.973  26.950  1.00  0.00     0.131 A 
ATOM     75  C   UNL A   1      42.481  24.296  26.857  1.00  0.00     0.055 A 
ATOM     76  C   UNL A   1      43.698  26.159  25.943  1.00  0.00     0.041 A 
ATOM     77  F   UNL A   1      43.582  28.251  27.001  1.00  0.00    -0.206 F 
ATOM     78  C   UNL A   1      43.369  24.808  25.906  1.00  0.00     0.022 A 
BRANCH  75  79
ATOM     79  S   UNL A   1      42.250  22.498  26.923  1.00  0.00     0.124 S 
ATOM     80  O   UNL A   1      43.186  22.031  25.904  1.00  0.00    -0.237 OA
ATOM     81  O   UNL A   1      42.621  22.203  28.304  1.00  0.00    -0.237 OA
ATOM     82  O   UNL A   1      40.836  22.319  26.611  1.00  0.00    -0.744 OA
ENDBRANCH  75  79
ENDBRANCH  48  72
BRANCH  60  83
ATOM     83  C   UNL A   1      44.685  27.722  34.402  1.00  0.00     0.023 A 
ATOM     84  C   UNL A   1      44.571  26.592  35.234  1.00  0.00     0.031 A 
ATOM     85  C   UNL A   1      45.872  28.474  34.464  1.00  0.00     0.131 A 
ATOM     86  C   UNL A   1      45.595  26.283  36.137  1.00  0.00     0.055 A 
ATOM     87  C   UNL A   1      46.918  28.122  35.318  1.00  0.00     0.041 A 
ATOM     88  F   UNL A   1      46.027  29.569  33.702  1.00  0.00    -0.206 F 
ATOM     89  C   UNL A   1      46.774  27.034  36.174  1.00  0.00     0.022 A 
BRANCH  86  90
ATOM     90  S   UNL A   1      45.387  24.971  37.373  1.00  0.00     0.124 S 
ATOM     91  O   UNL A   1      44.220  25.439  38.118  1.00  0.00    -0.237 OA
ATOM     92  O   UNL A   1      45.162  23.796  36.535  1.00  0.00    -0.237 OA
ATOM     93  O   UNL A   1      46.644  24.983  38.115  1.00  0.00    -0.744 OA
ENDBRANCH  86  90
ENDBRANCH  60  83
ENDBRANCH  34  35
ENDBRANCH  26  29
ENDBRANCH  24  25
ENDBRANCH   1  24
TORSDOF 16
ENDMDL
