MODEL 1
REMARK VINA RESULT:     -12.3      0.000      0.000
REMARK SMILES Cc1nc(CNC(=O)[C@H]2CCO[C@H]2C)sc1C(=O)NCCCCNC(=O)c1ccc(-c2c3nc(c(-c4cc(S(=O)(=O)[O-])ccc4F)c4ccc([nH]4)c(-c4cc(S(=O)(=O)[O-])ccc4F)c4nc(c(-c5cc(S(=O)(=O)[O-])ccc5F)c5ccc2[nH]5)C=C4)C=C3)cc1
REMARK SMILES IDX 21 1 20 2 19 3 17 4 18 5 16 7 1 8 2 9 3 10 4 11 15 12 5 13
REMARK SMILES IDX 6 14 7 15 8 17 9 18 10 19 13 20 11 21 12 22 14 23 22 24
REMARK SMILES IDX 23 25 24 26 25 27 26 29 27 30 28 31 89 32 29 33 88 34 30 35
REMARK SMILES IDX 31 36 32 37 82 38 33 39 87 40 81 41 83 42 34 43 86 44 80 45
REMARK SMILES IDX 79 46 35 48 67 49 47 50 66 51 48 52 51 53 65 54 84 55 49 56
REMARK SMILES IDX 50 57 64 59 85 60 52 61 36 62 37 63 45 64 38 65 44 66 46 67
REMARK SMILES IDX 43 68 39 69 40 70 41 71 42 72 68 73 69 74 77 75 70 76 76 77
REMARK SMILES IDX 78 78 75 79 71 80 72 81 73 82 74 83 53 84 54 85 62 86 55 87
REMARK SMILES IDX 61 88 63 89 60 90 56 91 57 92 58 93 59 94
REMARK H PARENT 19 6 6 16 24 28 83 47 51 58
REMARK Flexibility Score: inf
ROOT
ATOM      1  C   UNL A   1      33.904  20.988  25.490  1.00  0.00     0.023 C 
ENDROOT
BRANCH   1   2
ATOM      2  C   UNL A   1      32.799  21.862  24.895  1.00  0.00     0.116 C 
BRANCH   2   3
ATOM      3  N   UNL A   1      31.989  22.430  25.944  1.00  0.00    -0.351 N 
ATOM      4  C   UNL A   1      31.555  23.698  26.227  1.00  0.00     0.263 C 
ATOM      5  O   UNL A   1      30.863  23.747  27.252  1.00  0.00    -0.268 OA
ATOM      6  H   UNL A   1      31.680  21.762  26.597  1.00  0.00     0.163 HD
BRANCH   4   7
ATOM      7  C   UNL A   1      31.828  24.888  25.422  1.00  0.00     0.115 A 
ATOM      8  C   UNL A   1      34.389  25.323  24.986  1.00  0.00     0.068 C 
ATOM      9  C   UNL A   1      32.929  25.564  24.895  1.00  0.00     0.061 A 
ATOM     10  N   UNL A   1      32.625  26.730  24.200  1.00  0.00    -0.244 NA
ATOM     11  C   UNL A   1      31.349  27.012  24.267  1.00  0.00     0.113 A 
ATOM     12  S   UNL A   1      30.399  25.824  25.025  1.00  0.00    -0.111 S 
BRANCH  11  13
ATOM     13  C   UNL A   1      30.746  28.277  23.743  1.00  0.00     0.183 C 
BRANCH  13  14
ATOM     14  N   UNL A   1      29.319  28.068  23.534  1.00  0.00    -0.349 N 
ATOM     15  C   UNL A   1      28.404  28.864  22.915  1.00  0.00     0.226 C 
ATOM     16  H   UNL A   1      28.964  27.223  23.894  1.00  0.00     0.163 HD
ATOM     17  O   UNL A   1      27.226  28.506  22.920  1.00  0.00    -0.275 OA
BRANCH  15  18
ATOM     18  C   UNL A   1      28.864  30.122  22.209  1.00  0.00     0.109 C 
ATOM     19  C   UNL A   1      28.026  30.486  20.998  1.00  0.00     0.044 C 
ATOM     20  C   UNL A   1      28.783  31.406  23.028  1.00  0.00     0.127 C 
ATOM     21  C   UNL A   1      28.411  31.932  20.776  1.00  0.00     0.161 C 
ATOM     22  O   UNL A   1      28.783  32.474  22.052  1.00  0.00    -0.378 OA
ATOM     23  C   UNL A   1      27.524  31.578  23.876  1.00  0.00     0.039 C 
ENDBRANCH  15  18
ENDBRANCH  13  14
ENDBRANCH  11  13
ENDBRANCH   4   7
ENDBRANCH   2   3
ENDBRANCH   1   2
BRANCH   1  24
ATOM     24  C   UNL A   1      34.922  21.735  26.350  1.00  0.00     0.023 C 
BRANCH  24  25
ATOM     25  C   UNL A   1      36.192  22.148  25.617  1.00  0.00     0.116 C 
BRANCH  25  26
ATOM     26  N   UNL A   1      37.161  21.071  25.474  1.00  0.00    -0.352 N 
ATOM     27  C   UNL A   1      38.508  21.093  25.756  1.00  0.00     0.251 C 
ATOM     28  H   UNL A   1      36.807  20.219  25.130  1.00  0.00     0.163 HD
ATOM     29  O   UNL A   1      39.207  20.124  25.502  1.00  0.00    -0.269 OA
BRANCH  27  30
ATOM     30  C   UNL A   1      39.094  22.329  26.317  1.00  0.00     0.039 A 
ATOM     31  C   UNL A   1      40.253  22.230  27.089  1.00  0.00     0.014 A 
ATOM     32  C   UNL A   1      38.546  23.576  26.011  1.00  0.00     0.014 A 
ATOM     33  C   UNL A   1      40.912  23.394  27.486  1.00  0.00     0.010 A 
ATOM     34  C   UNL A   1      39.244  24.731  26.342  1.00  0.00     0.010 A 
ATOM     35  C   UNL A   1      40.438  24.651  27.076  1.00  0.00    -0.014 A 
BRANCH  35  36
ATOM     36  C   UNL A   1      41.177  25.896  27.401  1.00  0.00     0.031 A 
ATOM     37  C   UNL A   1      40.507  26.978  28.199  1.00  0.00     0.074 A 
ATOM     38  C   UNL A   1      42.418  26.080  26.908  1.00  0.00     0.049 A 
ATOM     39  N   UNL A   1      40.945  28.170  28.510  1.00  0.00    -0.248 NA
ATOM     40  C   UNL A   1      39.146  26.691  28.678  1.00  0.00     0.031 C 
ATOM     41  C   UNL A   1      43.149  25.121  26.074  1.00  0.00     0.029 A 
ATOM     42  N   UNL A   1      43.282  27.140  27.025  1.00  0.00    -0.354 N 
ATOM     43  C   UNL A   1      39.910  28.782  29.208  1.00  0.00     0.074 A 
ATOM     44  C   UNL A   1      38.800  27.852  29.215  1.00  0.00     0.031 C 
ATOM     45  C   UNL A   1      44.356  25.628  25.776  1.00  0.00     0.029 A 
ATOM     46  C   UNL A   1      44.472  26.960  26.360  1.00  0.00     0.049 A 
ATOM     47  H   UNL A   1      43.068  27.952  27.538  1.00  0.00     0.167 HD
ATOM     48  C   UNL A   1      39.895  29.997  29.809  1.00  0.00     0.034 A 
ATOM     49  C   UNL A   1      45.531  27.782  26.229  1.00  0.00     0.034 A 
ATOM     50  C   UNL A   1      41.018  30.902  29.808  1.00  0.00     0.049 A 
ATOM     51  C   UNL A   1      45.492  29.130  26.901  1.00  0.00     0.074 A 
ATOM     52  C   UNL A   1      41.140  32.127  30.441  1.00  0.00     0.029 A 
ATOM     53  N   UNL A   1      42.214  30.682  29.136  1.00  0.00    -0.354 N 
ATOM     54  N   UNL A   1      44.526  29.672  27.608  1.00  0.00    -0.248 NA
ATOM     55  C   UNL A   1      46.687  29.972  26.766  1.00  0.00     0.031 C 
ATOM     56  C   UNL A   1      42.384  32.673  30.103  1.00  0.00     0.029 A 
ATOM     57  C   UNL A   1      43.066  31.761  29.314  1.00  0.00     0.049 A 
ATOM     58  H   UNL A   1      42.425  29.878  28.609  1.00  0.00     0.167 HD
ATOM     59  C   UNL A   1      45.010  30.909  28.022  1.00  0.00     0.074 A 
ATOM     60  C   UNL A   1      46.356  31.025  27.499  1.00  0.00     0.031 C 
ATOM     61  C   UNL A   1      44.400  31.863  28.770  1.00  0.00     0.034 A 
BRANCH  48  62
ATOM     62  C   UNL A   1      38.616  30.413  30.496  1.00  0.00     0.023 A 
ATOM     63  C   UNL A   1      37.611  31.121  29.814  1.00  0.00     0.031 A 
ATOM     64  C   UNL A   1      38.416  30.135  31.859  1.00  0.00     0.131 A 
ATOM     65  C   UNL A   1      36.495  31.602  30.514  1.00  0.00     0.055 A 
ATOM     66  C   UNL A   1      37.262  30.543  32.531  1.00  0.00     0.041 A 
ATOM     67  F   UNL A   1      39.349  29.480  32.568  1.00  0.00    -0.206 F 
ATOM     68  C   UNL A   1      36.301  31.297  31.863  1.00  0.00     0.022 A 
BRANCH  65  69
ATOM     69  S   UNL A   1      35.380  32.759  29.673  1.00  0.00     0.124 S 
ATOM     70  O   UNL A   1      34.578  31.852  28.855  1.00  0.00    -0.237 OA
ATOM     71  O   UNL A   1      34.687  33.397  30.787  1.00  0.00    -0.237 OA
ATOM     72  O   UNL A   1      36.287  33.625  28.923  1.00  0.00    -0.744 OA
ENDBRANCH  65  69
ENDBRANCH  48  62
BRANCH  49  73
ATOM     73  C   UNL A   1      46.717  27.365  25.426  1.00  0.00     0.023 A 
ATOM     74  C   UNL A   1      46.898  27.830  24.114  1.00  0.00     0.031 A 
ATOM     75  C   UNL A   1      47.665  26.467  25.946  1.00  0.00     0.131 A 
ATOM     76  C   UNL A   1      47.977  27.359  23.349  1.00  0.00     0.055 A 
ATOM     77  C   UNL A   1      48.762  26.039  25.198  1.00  0.00     0.041 A 
ATOM     78  F   UNL A   1      47.542  26.000  27.199  1.00  0.00    -0.206 F 
ATOM     79  C   UNL A   1      48.916  26.475  23.885  1.00  0.00     0.022 A 
BRANCH  76  80
ATOM     80  S   UNL A   1      48.092  27.863  21.610  1.00  0.00     0.124 S 
ATOM     81  O   UNL A   1      49.249  28.749  21.634  1.00  0.00    -0.237 OA
ATOM     82  O   UNL A   1      48.278  26.582  20.936  1.00  0.00    -0.237 OA
ATOM     83  O   UNL A   1      46.809  28.517  21.360  1.00  0.00    -0.744 OA
ENDBRANCH  76  80
ENDBRANCH  49  73
BRANCH  61  84
ATOM     84  C   UNL A   1      45.206  33.097  29.088  1.00  0.00     0.023 A 
ATOM     85  C   UNL A   1      45.232  34.204  28.223  1.00  0.00     0.031 A 
ATOM     86  C   UNL A   1      45.969  33.158  30.267  1.00  0.00     0.131 A 
ATOM     87  C   UNL A   1      46.046  35.307  28.524  1.00  0.00     0.055 A 
ATOM     88  C   UNL A   1      46.734  34.280  30.590  1.00  0.00     0.041 A 
ATOM     89  F   UNL A   1      45.981  32.126  31.128  1.00  0.00    -0.206 F 
ATOM     90  C   UNL A   1      46.785  35.357  29.709  1.00  0.00     0.022 A 
BRANCH  87  91
ATOM     91  S   UNL A   1      46.192  36.640  27.304  1.00  0.00     0.124 S 
ATOM     92  O   UNL A   1      46.514  35.903  26.086  1.00  0.00    -0.237 OA
ATOM     93  O   UNL A   1      44.867  37.250  27.348  1.00  0.00    -0.237 OA
ATOM     94  O   UNL A   1      47.272  37.471  27.832  1.00  0.00    -0.744 OA
ENDBRANCH  87  91
ENDBRANCH  61  84
ENDBRANCH  35  36
ENDBRANCH  27  30
ENDBRANCH  25  26
ENDBRANCH  24  25
ENDBRANCH   1  24
TORSDOF 17
ENDMDL
MODEL 2
REMARK VINA RESULT:     -12.1      5.741     11.148
REMARK SMILES Cc1nc(CNC(=O)[C@H]2CCO[C@H]2C)sc1C(=O)NCCCCNC(=O)c1ccc(-c2c3nc(c(-c4cc(S(=O)(=O)[O-])ccc4F)c4ccc([nH]4)c(-c4cc(S(=O)(=O)[O-])ccc4F)c4nc(c(-c5cc(S(=O)(=O)[O-])ccc5F)c5ccc2[nH]5)C=C4)C=C3)cc1
REMARK SMILES IDX 21 1 20 2 19 3 17 4 18 5 16 7 1 8 2 9 3 10 4 11 15 12 5 13
REMARK SMILES IDX 6 14 7 15 8 17 9 18 10 19 13 20 11 21 12 22 14 23 22 24
REMARK SMILES IDX 23 25 24 26 25 27 26 29 27 30 28 31 89 32 29 33 88 34 30 35
REMARK SMILES IDX 31 36 32 37 82 38 33 39 87 40 81 41 83 42 34 43 86 44 80 45
REMARK SMILES IDX 79 46 35 48 67 49 47 50 66 51 48 52 51 53 65 54 84 55 49 56
REMARK SMILES IDX 50 57 64 59 85 60 52 61 36 62 37 63 45 64 38 65 44 66 46 67
REMARK SMILES IDX 43 68 39 69 40 70 41 71 42 72 68 73 69 74 77 75 70 76 76 77
REMARK SMILES IDX 78 78 75 79 71 80 72 81 73 82 74 83 53 84 54 85 62 86 55 87
REMARK SMILES IDX 61 88 63 89 60 90 56 91 57 92 58 93 59 94
REMARK H PARENT 19 6 6 16 24 28 83 47 51 58
REMARK Flexibility Score: inf
ROOT
ATOM      1  C   UNL A   1      31.621  30.653  25.820  1.00  0.00     0.023 C 
ENDROOT
BRANCH   1   2
ATOM      2  C   UNL A   1      31.955  29.444  24.947  1.00  0.00     0.116 C 
BRANCH   2   3
ATOM      3  N   UNL A   1      31.164  29.460  23.742  1.00  0.00    -0.351 N 
ATOM      4  C   UNL A   1      30.731  28.490  22.877  1.00  0.00     0.263 C 
ATOM      5  O   UNL A   1      30.058  28.948  21.945  1.00  0.00    -0.268 OA
ATOM      6  H   UNL A   1      30.870  30.364  23.485  1.00  0.00     0.163 HD
BRANCH   4   7
ATOM      7  C   UNL A   1      30.982  27.056  23.016  1.00  0.00     0.115 A 
ATOM      8  C   UNL A   1      29.694  25.931  25.019  1.00  0.00     0.068 C 
ATOM      9  C   UNL A   1      30.588  26.000  23.838  1.00  0.00     0.061 A 
ATOM     10  N   UNL A   1      31.185  24.777  23.553  1.00  0.00    -0.244 NA
ATOM     11  C   UNL A   1      32.088  24.891  22.613  1.00  0.00     0.113 A 
ATOM     12  S   UNL A   1      32.175  26.428  21.894  1.00  0.00    -0.111 S 
BRANCH  11  13
ATOM     13  C   UNL A   1      33.001  23.781  22.194  1.00  0.00     0.183 C 
BRANCH  13  14
ATOM     14  N   UNL A   1      34.096  23.685  23.149  1.00  0.00    -0.349 N 
ATOM     15  C   UNL A   1      34.362  22.723  24.075  1.00  0.00     0.226 C 
ATOM     16  H   UNL A   1      34.742  24.428  23.120  1.00  0.00     0.163 HD
ATOM     17  O   UNL A   1      35.321  22.892  24.829  1.00  0.00    -0.275 OA
BRANCH  15  18
ATOM     18  C   UNL A   1      33.512  21.470  24.117  1.00  0.00     0.109 C 
ATOM     19  C   UNL A   1      34.175  20.302  24.822  1.00  0.00     0.044 C 
ATOM     20  C   UNL A   1      32.204  21.586  24.892  1.00  0.00     0.127 C 
ATOM     21  C   UNL A   1      32.998  19.391  25.091  1.00  0.00     0.161 C 
ATOM     22  O   UNL A   1      31.835  20.223  25.211  1.00  0.00    -0.378 OA
ATOM     23  C   UNL A   1      32.277  22.347  26.214  1.00  0.00     0.039 C 
ENDBRANCH  15  18
ENDBRANCH  13  14
ENDBRANCH  11  13
ENDBRANCH   4   7
ENDBRANCH   2   3
ENDBRANCH   1   2
BRANCH   1  24
ATOM     24  C   UNL A   1      32.355  30.702  27.159  1.00  0.00     0.023 C 
BRANCH  24  25
ATOM     25  C   UNL A   1      33.433  31.775  27.254  1.00  0.00     0.116 C 
BRANCH  25  26
ATOM     26  N   UNL A   1      32.909  33.108  27.516  1.00  0.00    -0.352 N 
ATOM     27  C   UNL A   1      33.329  34.018  28.460  1.00  0.00     0.251 C 
ATOM     28  H   UNL A   1      32.160  33.394  26.945  1.00  0.00     0.163 HD
ATOM     29  O   UNL A   1      32.729  35.072  28.610  1.00  0.00    -0.269 OA
BRANCH  27  30
ATOM     30  C   UNL A   1      34.480  33.668  29.319  1.00  0.00     0.039 A 
ATOM     31  C   UNL A   1      34.262  32.852  30.431  1.00  0.00     0.014 A 
ATOM     32  C   UNL A   1      35.771  34.076  28.977  1.00  0.00     0.014 A 
ATOM     33  C   UNL A   1      35.356  32.375  31.155  1.00  0.00     0.010 A 
ATOM     34  C   UNL A   1      36.861  33.540  29.652  1.00  0.00     0.010 A 
ATOM     35  C   UNL A   1      36.663  32.679  30.743  1.00  0.00    -0.014 A 
BRANCH  35  36
ATOM     36  C   UNL A   1      37.842  32.101  31.436  1.00  0.00     0.031 A 
ATOM     37  C   UNL A   1      38.632  31.004  30.780  1.00  0.00     0.074 A 
ATOM     38  C   UNL A   1      38.146  32.510  32.683  1.00  0.00     0.049 A 
ATOM     39  N   UNL A   1      39.633  30.309  31.253  1.00  0.00    -0.248 NA
ATOM     40  C   UNL A   1      38.213  30.614  29.426  1.00  0.00     0.031 C 
ATOM     41  C   UNL A   1      37.416  33.531  33.442  1.00  0.00     0.029 A 
ATOM     42  N   UNL A   1      39.141  32.113  33.541  1.00  0.00    -0.354 N 
ATOM     43  C   UNL A   1      39.956  29.389  30.261  1.00  0.00     0.074 A 
ATOM     44  C   UNL A   1      38.998  29.574  29.191  1.00  0.00     0.031 C 
ATOM     45  C   UNL A   1      38.002  33.692  34.639  1.00  0.00     0.029 A 
ATOM     46  C   UNL A   1      39.121  32.763  34.752  1.00  0.00     0.049 A 
ATOM     47  H   UNL A   1      39.807  31.426  33.309  1.00  0.00     0.167 HD
ATOM     48  C   UNL A   1      40.971  28.491  30.236  1.00  0.00     0.034 A 
ATOM     49  C   UNL A   1      39.911  32.618  35.834  1.00  0.00     0.034 A 
ATOM     50  C   UNL A   1      41.927  28.336  31.304  1.00  0.00     0.049 A 
ATOM     51  C   UNL A   1      41.030  31.610  35.785  1.00  0.00     0.074 A 
ATOM     52  C   UNL A   1      43.034  27.508  31.358  1.00  0.00     0.029 A 
ATOM     53  N   UNL A   1      41.886  29.021  32.512  1.00  0.00    -0.354 N 
ATOM     54  N   UNL A   1      41.358  30.787  34.816  1.00  0.00    -0.248 NA
ATOM     55  C   UNL A   1      41.891  31.519  36.972  1.00  0.00     0.031 C 
ATOM     56  C   UNL A   1      43.626  27.649  32.619  1.00  0.00     0.029 A 
ATOM     57  C   UNL A   1      42.929  28.613  33.328  1.00  0.00     0.049 A 
ATOM     58  H   UNL A   1      41.212  29.697  32.754  1.00  0.00     0.167 HD
ATOM     59  C   UNL A   1      42.480  30.098  35.269  1.00  0.00     0.074 A 
ATOM     60  C   UNL A   1      42.779  30.614  36.589  1.00  0.00     0.031 C 
ATOM     61  C   UNL A   1      43.201  29.129  34.649  1.00  0.00     0.034 A 
BRANCH  48  62
ATOM     62  C   UNL A   1      41.077  27.603  29.019  1.00  0.00     0.023 A 
ATOM     63  C   UNL A   1      42.061  27.813  28.037  1.00  0.00     0.031 A 
ATOM     64  C   UNL A   1      40.157  26.560  28.816  1.00  0.00     0.131 A 
ATOM     65  C   UNL A   1      42.050  27.051  26.860  1.00  0.00     0.055 A 
ATOM     66  C   UNL A   1      40.204  25.748  27.680  1.00  0.00     0.041 A 
ATOM     67  F   UNL A   1      39.182  26.323  29.708  1.00  0.00    -0.206 F 
ATOM     68  C   UNL A   1      41.144  26.003  26.685  1.00  0.00     0.022 A 
BRANCH  65  69
ATOM     69  S   UNL A   1      43.139  27.550  25.498  1.00  0.00     0.124 S 
ATOM     70  O   UNL A   1      44.122  28.376  26.196  1.00  0.00    -0.237 OA
ATOM     71  O   UNL A   1      43.622  26.269  24.994  1.00  0.00    -0.237 OA
ATOM     72  O   UNL A   1      42.250  28.281  24.597  1.00  0.00    -0.744 OA
ENDBRANCH  65  69
ENDBRANCH  48  62
BRANCH  49  73
ATOM     73  C   UNL A   1      39.675  33.436  37.058  1.00  0.00     0.023 A 
ATOM     74  C   UNL A   1      39.025  32.889  38.176  1.00  0.00     0.031 A 
ATOM     75  C   UNL A   1      40.061  34.786  37.113  1.00  0.00     0.131 A 
ATOM     76  C   UNL A   1      38.739  33.701  39.284  1.00  0.00     0.055 A 
ATOM     77  C   UNL A   1      39.818  35.577  38.237  1.00  0.00     0.041 A 
ATOM     78  F   UNL A   1      40.693  35.355  36.074  1.00  0.00    -0.206 F 
ATOM     79  C   UNL A   1      39.140  35.038  39.327  1.00  0.00     0.022 A 
BRANCH  76  80
ATOM     80  S   UNL A   1      37.765  33.000  40.645  1.00  0.00     0.124 S 
ATOM     81  O   UNL A   1      36.407  33.108  40.124  1.00  0.00    -0.237 OA
ATOM     82  O   UNL A   1      38.310  31.650  40.743  1.00  0.00    -0.237 OA
ATOM     83  O   UNL A   1      38.073  33.878  41.771  1.00  0.00    -0.744 OA
ENDBRANCH  76  80
ENDBRANCH  49  73
BRANCH  61  84
ATOM     84  C   UNL A   1      44.401  28.596  35.389  1.00  0.00     0.023 A 
ATOM     85  C   UNL A   1      44.276  27.603  36.377  1.00  0.00     0.031 A 
ATOM     86  C   UNL A   1      45.684  29.098  35.111  1.00  0.00     0.131 A 
ATOM     87  C   UNL A   1      45.409  27.181  37.089  1.00  0.00     0.055 A 
ATOM     88  C   UNL A   1      46.815  28.634  35.783  1.00  0.00     0.041 A 
ATOM     89  F   UNL A   1      45.858  30.048  34.178  1.00  0.00    -0.206 F 
ATOM     90  C   UNL A   1      46.679  27.679  36.787  1.00  0.00     0.022 A 
BRANCH  87  91
ATOM     91  S   UNL A   1      45.188  26.031  38.473  1.00  0.00     0.124 S 
ATOM     92  O   UNL A   1      46.369  26.304  39.286  1.00  0.00    -0.237 OA
ATOM     93  O   UNL A   1      43.913  26.461  39.037  1.00  0.00    -0.237 OA
ATOM     94  O   UNL A   1      45.167  24.719  37.829  1.00  0.00    -0.744 OA
ENDBRANCH  87  91
ENDBRANCH  61  84
ENDBRANCH  35  36
ENDBRANCH  27  30
ENDBRANCH  25  26
ENDBRANCH  24  25
ENDBRANCH   1  24
TORSDOF 17
ENDMDL
MODEL 3
REMARK VINA RESULT:     -12.0      1.972      7.930
REMARK SMILES Cc1nc(CNC(=O)[C@H]2CCO[C@H]2C)sc1C(=O)NCCCCNC(=O)c1ccc(-c2c3nc(c(-c4cc(S(=O)(=O)[O-])ccc4F)c4ccc([nH]4)c(-c4cc(S(=O)(=O)[O-])ccc4F)c4nc(c(-c5cc(S(=O)(=O)[O-])ccc5F)c5ccc2[nH]5)C=C4)C=C3)cc1
REMARK SMILES IDX 21 1 20 2 19 3 17 4 18 5 16 7 1 8 2 9 3 10 4 11 15 12 5 13
REMARK SMILES IDX 6 14 7 15 8 17 9 18 10 19 13 20 11 21 12 22 14 23 22 24
REMARK SMILES IDX 23 25 24 26 25 27 26 29 27 30 28 31 89 32 29 33 88 34 30 35
REMARK SMILES IDX 31 36 32 37 82 38 33 39 87 40 81 41 83 42 34 43 86 44 80 45
REMARK SMILES IDX 79 46 35 48 67 49 47 50 66 51 48 52 51 53 65 54 84 55 49 56
REMARK SMILES IDX 50 57 64 59 85 60 52 61 36 62 37 63 45 64 38 65 44 66 46 67
REMARK SMILES IDX 43 68 39 69 40 70 41 71 42 72 68 73 69 74 77 75 70 76 76 77
REMARK SMILES IDX 78 78 75 79 71 80 72 81 73 82 74 83 53 84 54 85 62 86 55 87
REMARK SMILES IDX 61 88 63 89 60 90 56 91 57 92 58 93 59 94
REMARK H PARENT 19 6 6 16 24 28 83 47 51 58
REMARK Flexibility Score: inf
ROOT
ATOM      1  C   UNL A   1      36.512  19.887  24.967  1.00  0.00     0.023 C 
ENDROOT
BRANCH   1   2
ATOM      2  C   UNL A   1      36.371  21.356  25.366  1.00  0.00     0.116 C 
BRANCH   2   3
ATOM      3  N   UNL A   1      35.503  21.485  26.510  1.00  0.00    -0.351 N 
ATOM      4  C   UNL A   1      34.169  21.756  26.664  1.00  0.00     0.263 C 
ATOM      5  O   UNL A   1      33.820  21.775  27.851  1.00  0.00    -0.268 OA
ATOM      6  H   UNL A   1      35.969  21.347  27.366  1.00  0.00     0.163 HD
BRANCH   4   7
ATOM      7  C   UNL A   1      33.217  21.974  25.575  1.00  0.00     0.115 A 
ATOM      8  C   UNL A   1      32.698  19.816  24.156  1.00  0.00     0.068 C 
ATOM      9  C   UNL A   1      32.596  21.238  24.566  1.00  0.00     0.061 A 
ATOM     10  N   UNL A   1      31.763  21.972  23.728  1.00  0.00    -0.244 NA
ATOM     11  C   UNL A   1      31.810  23.251  24.005  1.00  0.00     0.113 A 
ATOM     12  S   UNL A   1      32.724  23.646  25.382  1.00  0.00    -0.111 S 
BRANCH  11  13
ATOM     13  C   UNL A   1      31.139  24.307  23.183  1.00  0.00     0.183 C 
BRANCH  13  14
ATOM     14  N   UNL A   1      32.085  24.805  22.193  1.00  0.00    -0.349 N 
ATOM     15  C   UNL A   1      32.788  25.971  22.170  1.00  0.00     0.226 C 
ATOM     16  H   UNL A   1      32.239  24.208  21.425  1.00  0.00     0.163 HD
ATOM     17  O   UNL A   1      33.484  26.210  21.183  1.00  0.00    -0.275 OA
BRANCH  15  18
ATOM     18  C   UNL A   1      32.731  26.902  23.364  1.00  0.00     0.109 C 
ATOM     19  C   UNL A   1      33.693  28.071  23.275  1.00  0.00     0.044 C 
ATOM     20  C   UNL A   1      31.402  27.620  23.577  1.00  0.00     0.127 C 
ATOM     21  C   UNL A   1      33.133  29.015  24.317  1.00  0.00     0.161 C 
ATOM     22  O   UNL A   1      31.723  28.763  24.405  1.00  0.00    -0.378 OA
ATOM     23  C   UNL A   1      30.726  28.159  22.319  1.00  0.00     0.039 C 
ENDBRANCH  15  18
ENDBRANCH  13  14
ENDBRANCH  11  13
ENDBRANCH   4   7
ENDBRANCH   2   3
ENDBRANCH   1   2
BRANCH   1  24
ATOM     24  C   UNL A   1      37.950  19.373  24.903  1.00  0.00     0.023 C 
BRANCH  24  25
ATOM     25  C   UNL A   1      38.923  20.091  25.830  1.00  0.00     0.116 C 
BRANCH  25  26
ATOM     26  N   UNL A   1      40.176  19.376  26.030  1.00  0.00    -0.352 N 
ATOM     27  C   UNL A   1      41.392  19.882  26.431  1.00  0.00     0.251 C 
ATOM     28  H   UNL A   1      40.149  18.408  25.855  1.00  0.00     0.163 HD
ATOM     29  O   UNL A   1      42.377  19.161  26.473  1.00  0.00    -0.269 OA
BRANCH  27  30
ATOM     30  C   UNL A   1      41.488  21.322  26.753  1.00  0.00     0.039 A 
ATOM     31  C   UNL A   1      41.815  21.696  28.058  1.00  0.00     0.014 A 
ATOM     32  C   UNL A   1      41.337  22.285  25.753  1.00  0.00     0.014 A 
ATOM     33  C   UNL A   1      42.073  23.038  28.341  1.00  0.00     0.010 A 
ATOM     34  C   UNL A   1      41.668  23.608  26.019  1.00  0.00     0.010 A 
ATOM     35  C   UNL A   1      42.046  23.996  27.314  1.00  0.00    -0.014 A 
BRANCH  35  36
ATOM     36  C   UNL A   1      42.416  25.410  27.570  1.00  0.00     0.031 A 
ATOM     37  C   UNL A   1      43.772  25.914  27.166  1.00  0.00     0.074 A 
ATOM     38  C   UNL A   1      41.561  26.210  28.237  1.00  0.00     0.049 A 
ATOM     39  N   UNL A   1      44.319  27.082  27.380  1.00  0.00    -0.248 NA
ATOM     40  C   UNL A   1      44.641  24.961  26.459  1.00  0.00     0.031 C 
ATOM     41  C   UNL A   1      40.237  25.814  28.728  1.00  0.00     0.029 A 
ATOM     42  N   UNL A   1      41.678  27.520  28.629  1.00  0.00    -0.354 N 
ATOM     43  C   UNL A   1      45.601  27.002  26.848  1.00  0.00     0.074 A 
ATOM     44  C   UNL A   1      45.770  25.648  26.362  1.00  0.00     0.031 C 
ATOM     45  C   UNL A   1      39.660  26.864  29.333  1.00  0.00     0.029 A 
ATOM     46  C   UNL A   1      40.581  27.994  29.311  1.00  0.00     0.049 A 
ATOM     47  H   UNL A   1      42.472  28.068  28.439  1.00  0.00     0.167 HD
ATOM     48  C   UNL A   1      46.541  27.974  26.751  1.00  0.00     0.034 A 
ATOM     49  C   UNL A   1      40.353  29.201  29.864  1.00  0.00     0.034 A 
ATOM     50  C   UNL A   1      46.347  29.322  27.223  1.00  0.00     0.049 A 
ATOM     51  C   UNL A   1      41.413  30.265  29.749  1.00  0.00     0.074 A 
ATOM     52  C   UNL A   1      47.201  30.406  27.116  1.00  0.00     0.029 A 
ATOM     53  N   UNL A   1      45.218  29.773  27.897  1.00  0.00    -0.354 N 
ATOM     54  N   UNL A   1      42.600  30.191  29.191  1.00  0.00    -0.248 NA
ATOM     55  C   UNL A   1      41.100  31.577  30.330  1.00  0.00     0.031 C 
ATOM     56  C   UNL A   1      46.616  31.492  27.778  1.00  0.00     0.029 A 
ATOM     57  C   UNL A   1      45.367  31.107  28.239  1.00  0.00     0.049 A 
ATOM     58  H   UNL A   1      44.428  29.223  28.104  1.00  0.00     0.167 HD
ATOM     59  C   UNL A   1      43.163  31.455  29.332  1.00  0.00     0.074 A 
ATOM     60  C   UNL A   1      42.182  32.274  30.013  1.00  0.00     0.031 C 
ATOM     61  C   UNL A   1      44.382  31.902  28.933  1.00  0.00     0.034 A 
BRANCH  48  62
ATOM     62  C   UNL A   1      47.863  27.596  26.127  1.00  0.00     0.023 A 
ATOM     63  C   UNL A   1      48.099  27.753  24.749  1.00  0.00     0.031 A 
ATOM     64  C   UNL A   1      48.886  27.033  26.909  1.00  0.00     0.131 A 
ATOM     65  C   UNL A   1      49.289  27.274  24.183  1.00  0.00     0.055 A 
ATOM     66  C   UNL A   1      50.104  26.636  26.353  1.00  0.00     0.041 A 
ATOM     67  F   UNL A   1      48.712  26.840  28.226  1.00  0.00    -0.206 F 
ATOM     68  C   UNL A   1      50.304  26.739  24.979  1.00  0.00     0.022 A 
BRANCH  65  69
ATOM     69  S   UNL A   1      49.426  27.221  22.375  1.00  0.00     0.124 S 
ATOM     70  O   UNL A   1      48.551  26.098  22.047  1.00  0.00    -0.237 OA
ATOM     71  O   UNL A   1      48.945  28.542  21.984  1.00  0.00    -0.237 OA
ATOM     72  O   UNL A   1      50.849  26.981  22.146  1.00  0.00    -0.744 OA
ENDBRANCH  65  69
ENDBRANCH  48  62
BRANCH  49  73
ATOM     73  C   UNL A   1      39.075  29.473  30.583  1.00  0.00     0.023 A 
ATOM     74  C   UNL A   1      38.099  30.315  30.025  1.00  0.00     0.031 A 
ATOM     75  C   UNL A   1      38.828  28.928  31.855  1.00  0.00     0.131 A 
ATOM     76  C   UNL A   1      36.942  30.623  30.756  1.00  0.00     0.055 A 
ATOM     77  C   UNL A   1      37.654  29.199  32.558  1.00  0.00     0.041 A 
ATOM     78  F   UNL A   1      39.726  28.110  32.429  1.00  0.00    -0.206 F 
ATOM     79  C   UNL A   1      36.707  30.063  32.014  1.00  0.00     0.022 A 
BRANCH  76  80
ATOM     80  S   UNL A   1      35.778  31.833  30.068  1.00  0.00     0.124 S 
ATOM     81  O   UNL A   1      35.201  31.089  28.955  1.00  0.00    -0.237 OA
ATOM     82  O   UNL A   1      34.894  32.080  31.202  1.00  0.00    -0.237 OA
ATOM     83  O   UNL A   1      36.636  32.954  29.692  1.00  0.00    -0.744 OA
ENDBRANCH  76  80
ENDBRANCH  49  73
BRANCH  61  84
ATOM     84  C   UNL A   1      44.694  33.353  29.198  1.00  0.00     0.023 A 
ATOM     85  C   UNL A   1      44.351  34.361  28.281  1.00  0.00     0.031 A 
ATOM     86  C   UNL A   1      45.357  33.728  30.380  1.00  0.00     0.131 A 
ATOM     87  C   UNL A   1      44.718  35.691  28.536  1.00  0.00     0.055 A 
ATOM     88  C   UNL A   1      45.670  35.060  30.654  1.00  0.00     0.041 A 
ATOM     89  F   UNL A   1      45.710  32.804  31.289  1.00  0.00    -0.206 F 
ATOM     90  C   UNL A   1      45.362  36.048  29.724  1.00  0.00     0.022 A 
BRANCH  87  91
ATOM     91  S   UNL A   1      44.416  36.938  27.255  1.00  0.00     0.124 S 
ATOM     92  O   UNL A   1      43.450  36.262  26.394  1.00  0.00    -0.237 OA
ATOM     93  O   UNL A   1      43.902  38.063  28.028  1.00  0.00    -0.237 OA
ATOM     94  O   UNL A   1      45.736  37.147  26.662  1.00  0.00    -0.744 OA
ENDBRANCH  87  91
ENDBRANCH  61  84
ENDBRANCH  35  36
ENDBRANCH  27  30
ENDBRANCH  25  26
ENDBRANCH  24  25
ENDBRANCH   1  24
TORSDOF 17
ENDMDL
