MODEL 1
REMARK VINA RESULT:     -13.1      0.000      0.000
REMARK SMILES O=C(CN1C(=O)/C(=C/c2cccs2)SC1=S)Nc1ccc(O)cc1C(=O)NCCCCNC(=O)c1ccc(-c2c3nc(c(-c4cc(S(=O)(=O)[O-])ccc4F)c4ccc([nH]4)c(-c4cc(S(=O)(=O)[O-])ccc4F)c4nc(c(-c5cc(S(=O)(=O)[O-])ccc5F)c5ccc2[nH]5)C=C4)C=C3)cc1
REMARK SMILES IDX 29 1 28 2 27 3 25 4 26 5 24 7 18 8 19 9 20 10 23 11 21 12
REMARK SMILES IDX 17 13 1 14 2 15 3 17 4 18 5 19 15 20 6 21 7 22 14 23 16 24
REMARK SMILES IDX 8 25 9 26 10 27 13 28 11 29 12 30 22 31 30 33 31 34 32 35
REMARK SMILES IDX 33 36 34 38 35 39 36 40 97 41 37 42 96 43 38 44 39 45 40 46
REMARK SMILES IDX 90 47 41 48 95 49 89 50 91 51 42 52 94 53 88 54 87 55 43 57
REMARK SMILES IDX 75 58 55 59 74 60 56 61 59 62 73 63 92 64 57 65 58 66 72 68
REMARK SMILES IDX 93 69 60 70 44 71 45 72 53 73 46 74 52 75 54 76 51 77 47 78
REMARK SMILES IDX 48 79 49 80 50 81 76 82 77 83 85 84 78 85 84 86 86 87 83 88
REMARK SMILES IDX 79 89 80 90 81 91 82 92 61 93 62 94 70 95 63 96 69 97 71 98
REMARK SMILES IDX 68 99 64 100 65 101 66 102 67 103
REMARK H PARENT 27 6 17 16 22 32 32 37 91 56 59 67
REMARK Flexibility Score: inf
ROOT
ATOM      1  C   UNL A   1      34.609  29.567  26.985  1.00  0.00     0.023 C 
ENDROOT
BRANCH   1   2
ATOM      2  C   UNL A   1      33.681  28.834  26.049  1.00  0.00     0.116 C 
BRANCH   2   3
ATOM      3  N   UNL A   1      34.150  28.791  24.711  1.00  0.00    -0.352 N 
ATOM      4  C   UNL A   1      33.449  28.707  23.550  1.00  0.00     0.253 C 
ATOM      5  O   UNL A   1      34.129  28.859  22.529  1.00  0.00    -0.269 OA
ATOM      6  H   UNL A   1      35.128  28.827  24.609  1.00  0.00     0.163 HD
BRANCH   4   7
ATOM      7  C   UNL A   1      31.986  28.374  23.413  1.00  0.00     0.067 A 
ATOM      8  C   UNL A   1      31.140  27.405  24.023  1.00  0.00     0.054 A 
ATOM      9  C   UNL A   1      29.756  27.465  23.715  1.00  0.00     0.031 A 
ATOM     10  C   UNL A   1      29.213  28.386  22.811  1.00  0.00     0.048 A 
ATOM     11  C   UNL A   1      31.411  29.242  22.440  1.00  0.00     0.062 A 
ATOM     12  C   UNL A   1      30.058  29.250  22.150  1.00  0.00     0.116 A 
BRANCH   8  13
ATOM     13  N   UNL A   1      31.498  26.405  24.998  1.00  0.00    -0.324 N 
ATOM     14  O   UNL A   1      32.622  25.008  23.528  1.00  0.00    -0.273 OA
ATOM     15  C   UNL A   1      32.153  25.205  24.652  1.00  0.00     0.244 C 
ATOM     16  H   UNL A   1      31.275  26.566  25.944  1.00  0.00     0.170 HD
BRANCH  15  17
ATOM     17  C   UNL A   1      32.357  24.126  25.761  1.00  0.00     0.227 C 
BRANCH  17  18
ATOM     18  N   UNL A   1      33.172  22.960  25.324  1.00  0.00    -0.283 N 
ATOM     19  C   UNL A   1      32.467  21.869  24.911  1.00  0.00     0.266 C 
ATOM     20  C   UNL A   1      34.529  22.816  25.225  1.00  0.00     0.148 C 
ATOM     21  O   UNL A   1      31.254  21.888  24.954  1.00  0.00    -0.268 OA
ATOM     22  C   UNL A   1      33.329  20.682  24.573  1.00  0.00     0.081 C 
ATOM     23  S   UNL A   1      34.947  21.105  24.888  1.00  0.00    -0.054 SA
ATOM     24  S   UNL A   1      35.678  24.016  25.335  1.00  0.00    -0.052 S 
ATOM     25  C   UNL A   1      32.714  19.547  24.215  1.00  0.00     0.040 C 
BRANCH  25  26
ATOM     26  C   UNL A   1      33.065  18.161  24.191  1.00  0.00     0.028 A 
ATOM     27  C   UNL A   1      33.868  17.380  23.379  1.00  0.00     0.020 A 
ATOM     28  S   UNL A   1      32.638  17.232  25.600  1.00  0.00    -0.144 S 
ATOM     29  C   UNL A   1      34.152  16.082  23.935  1.00  0.00     0.012 A 
ATOM     30  C   UNL A   1      33.537  15.876  25.144  1.00  0.00     0.065 A 
ENDBRANCH  25  26
ENDBRANCH  17  18
ENDBRANCH  15  17
ENDBRANCH   8  13
BRANCH  12  31
ATOM     31  O   UNL A   1      29.612  30.138  21.220  1.00  0.00    -0.508 OA
ATOM     32  H   UNL A   1      30.224  30.603  20.684  1.00  0.00     0.293 HD
ENDBRANCH  12  31
ENDBRANCH   4   7
ENDBRANCH   2   3
ENDBRANCH   1   2
BRANCH   1  33
ATOM     33  C   UNL A   1      34.085  30.858  27.642  1.00  0.00     0.023 C 
BRANCH  33  34
ATOM     34  C   UNL A   1      32.923  31.747  27.115  1.00  0.00     0.116 C 
BRANCH  34  35
ATOM     35  N   UNL A   1      32.683  33.106  27.612  1.00  0.00    -0.352 N 
ATOM     36  C   UNL A   1      33.261  34.049  28.438  1.00  0.00     0.251 C 
ATOM     37  H   UNL A   1      31.843  33.458  27.238  1.00  0.00     0.163 HD
ATOM     38  O   UNL A   1      32.659  35.113  28.609  1.00  0.00    -0.269 OA
BRANCH  36  39
ATOM     39  C   UNL A   1      34.472  33.795  29.244  1.00  0.00     0.039 A 
ATOM     40  C   UNL A   1      34.377  32.999  30.407  1.00  0.00     0.014 A 
ATOM     41  C   UNL A   1      35.706  34.284  28.855  1.00  0.00     0.014 A 
ATOM     42  C   UNL A   1      35.528  32.619  31.114  1.00  0.00     0.010 A 
ATOM     43  C   UNL A   1      36.850  33.836  29.503  1.00  0.00     0.010 A 
ATOM     44  C   UNL A   1      36.785  32.997  30.636  1.00  0.00    -0.014 A 
BRANCH  44  45
ATOM     45  C   UNL A   1      38.082  32.608  31.260  1.00  0.00     0.031 A 
ATOM     46  C   UNL A   1      38.816  31.436  30.663  1.00  0.00     0.074 A 
ATOM     47  C   UNL A   1      38.492  33.131  32.435  1.00  0.00     0.049 A 
ATOM     48  N   UNL A   1      39.718  30.654  31.192  1.00  0.00    -0.248 NA
ATOM     49  C   UNL A   1      38.411  31.058  29.298  1.00  0.00     0.031 C 
ATOM     50  C   UNL A   1      37.900  34.281  33.115  1.00  0.00     0.029 A 
ATOM     51  N   UNL A   1      39.473  32.710  33.303  1.00  0.00    -0.354 N 
ATOM     52  C   UNL A   1      39.954  29.666  30.242  1.00  0.00     0.074 A 
ATOM     53  C   UNL A   1      39.034  29.901  29.150  1.00  0.00     0.031 C 
ATOM     54  C   UNL A   1      38.474  34.431  34.320  1.00  0.00     0.029 A 
ATOM     55  C   UNL A   1      39.465  33.378  34.508  1.00  0.00     0.049 A 
ATOM     56  H   UNL A   1      40.118  31.998  33.084  1.00  0.00     0.167 HD
ATOM     57  C   UNL A   1      40.875  28.672  30.267  1.00  0.00     0.034 A 
ATOM     58  C   UNL A   1      40.153  33.152  35.646  1.00  0.00     0.034 A 
ATOM     59  C   UNL A   1      41.804  28.485  31.351  1.00  0.00     0.049 A 
ATOM     60  C   UNL A   1      41.148  32.019  35.679  1.00  0.00     0.074 A 
ATOM     61  C   UNL A   1      42.846  27.581  31.449  1.00  0.00     0.029 A 
ATOM     62  N   UNL A   1      41.799  29.215  32.535  1.00  0.00    -0.354 N 
ATOM     63  N   UNL A   1      41.409  31.123  34.753  1.00  0.00    -0.248 NA
ATOM     64  C   UNL A   1      41.958  31.881  36.896  1.00  0.00     0.031 C 
ATOM     65  C   UNL A   1      43.417  27.710  32.718  1.00  0.00     0.029 A 
ATOM     66  C   UNL A   1      42.793  28.755  33.382  1.00  0.00     0.049 A 
ATOM     67  H   UNL A   1      41.180  29.953  32.740  1.00  0.00     0.167 HD
ATOM     68  C   UNL A   1      42.445  30.344  35.261  1.00  0.00     0.074 A 
ATOM     69  C   UNL A   1      42.761  30.878  36.571  1.00  0.00     0.031 C 
ATOM     70  C   UNL A   1      43.088  29.292  34.691  1.00  0.00     0.034 A 
BRANCH  57  71
ATOM     71  C   UNL A   1      40.902  27.719  29.094  1.00  0.00     0.023 A 
ATOM     72  C   UNL A   1      41.845  27.847  28.058  1.00  0.00     0.031 A 
ATOM     73  C   UNL A   1      39.939  26.700  28.980  1.00  0.00     0.131 A 
ATOM     74  C   UNL A   1      41.743  27.045  26.913  1.00  0.00     0.055 A 
ATOM     75  C   UNL A   1      39.906  25.838  27.882  1.00  0.00     0.041 A 
ATOM     76  F   UNL A   1      38.998  26.540  29.922  1.00  0.00    -0.206 F 
ATOM     77  C   UNL A   1      40.798  26.021  26.829  1.00  0.00     0.022 A 
BRANCH  74  78
ATOM     78  S   UNL A   1      42.744  27.483  25.465  1.00  0.00     0.124 S 
ATOM     79  O   UNL A   1      41.990  28.610  24.917  1.00  0.00    -0.237 OA
ATOM     80  O   UNL A   1      44.034  27.808  26.060  1.00  0.00    -0.237 OA
ATOM     81  O   UNL A   1      42.717  26.270  24.649  1.00  0.00    -0.744 OA
ENDBRANCH  74  78
ENDBRANCH  57  71
BRANCH  58  82
ATOM     82  C   UNL A   1      39.933  34.009  36.848  1.00  0.00     0.023 A 
ATOM     83  C   UNL A   1      39.287  33.501  37.987  1.00  0.00     0.031 A 
ATOM     84  C   UNL A   1      40.339  35.357  36.869  1.00  0.00     0.131 A 
ATOM     85  C   UNL A   1      39.029  34.341  39.082  1.00  0.00     0.055 A 
ATOM     86  C   UNL A   1      40.121  36.175  37.980  1.00  0.00     0.041 A 
ATOM     87  F   UNL A   1      40.967  35.894  35.811  1.00  0.00    -0.206 F 
ATOM     88  C   UNL A   1      39.453  35.671  39.093  1.00  0.00     0.022 A 
BRANCH  85  89
ATOM     89  S   UNL A   1      38.063  33.684  40.470  1.00  0.00     0.124 S 
ATOM     90  O   UNL A   1      38.985  32.706  41.037  1.00  0.00    -0.237 OA
ATOM     91  O   UNL A   1      37.825  34.881  41.267  1.00  0.00    -0.237 OA
ATOM     92  O   UNL A   1      36.878  33.123  39.823  1.00  0.00    -0.744 OA
ENDBRANCH  85  89
ENDBRANCH  58  82
BRANCH  70  93
ATOM     93  C   UNL A   1      44.230  28.680  35.463  1.00  0.00     0.023 A 
ATOM     94  C   UNL A   1      44.031  27.624  36.367  1.00  0.00     0.031 A 
ATOM     95  C   UNL A   1      45.540  29.160  35.283  1.00  0.00     0.131 A 
ATOM     96  C   UNL A   1      45.117  27.116  37.096  1.00  0.00     0.055 A 
ATOM     97  C   UNL A   1      46.626  28.604  35.958  1.00  0.00     0.041 A 
ATOM     98  F   UNL A   1      45.788  30.171  34.435  1.00  0.00    -0.206 F 
ATOM     99  C   UNL A   1      46.415  27.583  36.881  1.00  0.00     0.022 A 
BRANCH  96 100
ATOM    100  S   UNL A   1      44.794  25.897  38.399  1.00  0.00     0.124 S 
ATOM    101  O   UNL A   1      46.145  25.493  38.774  1.00  0.00    -0.237 OA
ATOM    102  O   UNL A   1      44.065  26.683  39.389  1.00  0.00    -0.237 OA
ATOM    103  O   UNL A   1      44.005  24.870  37.720  1.00  0.00    -0.744 OA
ENDBRANCH  96 100
ENDBRANCH  70  93
ENDBRANCH  44  45
ENDBRANCH  36  39
ENDBRANCH  34  35
ENDBRANCH  33  34
ENDBRANCH   1  33
TORSDOF 19
ENDMDL
MODEL 2
REMARK VINA RESULT:     -13.0      1.620      2.255
REMARK SMILES O=C(CN1C(=O)/C(=C/c2cccs2)SC1=S)Nc1ccc(O)cc1C(=O)NCCCCNC(=O)c1ccc(-c2c3nc(c(-c4cc(S(=O)(=O)[O-])ccc4F)c4ccc([nH]4)c(-c4cc(S(=O)(=O)[O-])ccc4F)c4nc(c(-c5cc(S(=O)(=O)[O-])ccc5F)c5ccc2[nH]5)C=C4)C=C3)cc1
REMARK SMILES IDX 29 1 28 2 27 3 25 4 26 5 24 7 18 8 19 9 20 10 23 11 21 12
REMARK SMILES IDX 17 13 1 14 2 15 3 17 4 18 5 19 15 20 6 21 7 22 14 23 16 24
REMARK SMILES IDX 8 25 9 26 10 27 13 28 11 29 12 30 22 31 30 33 31 34 32 35
REMARK SMILES IDX 33 36 34 38 35 39 36 40 97 41 37 42 96 43 38 44 39 45 40 46
REMARK SMILES IDX 90 47 41 48 95 49 89 50 91 51 42 52 94 53 88 54 87 55 43 57
REMARK SMILES IDX 75 58 55 59 74 60 56 61 59 62 73 63 92 64 57 65 58 66 72 68
REMARK SMILES IDX 93 69 60 70 44 71 45 72 53 73 46 74 52 75 54 76 51 77 47 78
REMARK SMILES IDX 48 79 49 80 50 81 76 82 77 83 85 84 78 85 84 86 86 87 83 88
REMARK SMILES IDX 79 89 80 90 81 91 82 92 61 93 62 94 70 95 63 96 69 97 71 98
REMARK SMILES IDX 68 99 64 100 65 101 66 102 67 103
REMARK H PARENT 27 6 17 16 22 32 32 37 91 56 59 67
REMARK Flexibility Score: inf
ROOT
ATOM      1  C   UNL A   1      34.786  29.437  27.011  1.00  0.00     0.023 C 
ENDROOT
BRANCH   1   2
ATOM      2  C   UNL A   1      34.098  28.442  26.111  1.00  0.00     0.116 C 
BRANCH   2   3
ATOM      3  N   UNL A   1      32.976  27.819  26.715  1.00  0.00    -0.352 N 
ATOM      4  C   UNL A   1      31.850  27.318  26.142  1.00  0.00     0.253 C 
ATOM      5  O   UNL A   1      31.122  26.682  26.913  1.00  0.00    -0.269 OA
ATOM      6  H   UNL A   1      33.020  27.737  27.695  1.00  0.00     0.163 HD
BRANCH   4   7
ATOM      7  C   UNL A   1      31.398  27.539  24.722  1.00  0.00     0.067 A 
ATOM      8  C   UNL A   1      31.368  26.714  23.562  1.00  0.00     0.054 A 
ATOM      9  C   UNL A   1      30.756  27.249  22.399  1.00  0.00     0.031 A 
ATOM     10  C   UNL A   1      30.243  28.550  22.335  1.00  0.00     0.048 A 
ATOM     11  C   UNL A   1      30.939  28.883  24.595  1.00  0.00     0.062 A 
ATOM     12  C   UNL A   1      30.372  29.373  23.432  1.00  0.00     0.116 A 
BRANCH   8  13
ATOM     13  N   UNL A   1      31.808  25.347  23.437  1.00  0.00    -0.324 N 
ATOM     14  O   UNL A   1      33.830  25.825  22.408  1.00  0.00    -0.273 OA
ATOM     15  C   UNL A   1      32.999  24.989  22.771  1.00  0.00     0.244 C 
ATOM     16  H   UNL A   1      31.255  24.633  23.831  1.00  0.00     0.170 HD
BRANCH  15  17
ATOM     17  C   UNL A   1      33.304  23.473  22.560  1.00  0.00     0.227 C 
BRANCH  17  18
ATOM     18  N   UNL A   1      34.001  22.834  23.708  1.00  0.00    -0.283 N 
ATOM     19  C   UNL A   1      35.363  22.847  23.652  1.00  0.00     0.266 C 
ATOM     20  C   UNL A   1      33.497  22.267  24.847  1.00  0.00     0.148 C 
ATOM     21  O   UNL A   1      35.919  23.328  22.686  1.00  0.00    -0.268 OA
ATOM     22  C   UNL A   1      36.024  22.104  24.783  1.00  0.00     0.081 C 
ATOM     23  S   UNL A   1      34.798  21.427  25.750  1.00  0.00    -0.054 SA
ATOM     24  S   UNL A   1      31.929  22.352  25.402  1.00  0.00    -0.052 S 
ATOM     25  C   UNL A   1      37.361  22.015  24.773  1.00  0.00     0.040 C 
BRANCH  25  26
ATOM     26  C   UNL A   1      38.329  21.146  25.366  1.00  0.00     0.028 A 
ATOM     27  C   UNL A   1      38.650  19.808  25.217  1.00  0.00     0.020 A 
ATOM     28  S   UNL A   1      39.582  21.911  26.302  1.00  0.00    -0.144 S 
ATOM     29  C   UNL A   1      39.910  19.451  25.816  1.00  0.00     0.012 A 
ATOM     30  C   UNL A   1      40.517  20.510  26.443  1.00  0.00     0.065 A 
ENDBRANCH  25  26
ENDBRANCH  17  18
ENDBRANCH  15  17
ENDBRANCH   8  13
BRANCH  12  31
ATOM     31  O   UNL A   1      29.944  30.666  23.429  1.00  0.00    -0.508 OA
ATOM     32  H   UNL A   1      29.051  30.864  23.630  1.00  0.00     0.293 HD
ENDBRANCH  12  31
ENDBRANCH   4   7
ENDBRANCH   2   3
ENDBRANCH   1   2
BRANCH   1  33
ATOM     33  C   UNL A   1      33.909  30.495  27.708  1.00  0.00     0.023 C 
BRANCH  33  34
ATOM     34  C   UNL A   1      32.915  31.465  27.007  1.00  0.00     0.116 C 
BRANCH  34  35
ATOM     35  N   UNL A   1      32.653  32.819  27.506  1.00  0.00    -0.352 N 
ATOM     36  C   UNL A   1      33.214  33.769  28.334  1.00  0.00     0.251 C 
ATOM     37  H   UNL A   1      31.808  33.158  27.130  1.00  0.00     0.163 HD
ATOM     38  O   UNL A   1      32.595  34.823  28.506  1.00  0.00    -0.269 OA
BRANCH  36  39
ATOM     39  C   UNL A   1      34.426  33.533  29.144  1.00  0.00     0.039 A 
ATOM     40  C   UNL A   1      34.345  32.713  30.291  1.00  0.00     0.014 A 
ATOM     41  C   UNL A   1      35.649  34.062  28.772  1.00  0.00     0.014 A 
ATOM     42  C   UNL A   1      35.502  32.352  30.999  1.00  0.00     0.010 A 
ATOM     43  C   UNL A   1      36.801  33.632  29.419  1.00  0.00     0.010 A 
ATOM     44  C   UNL A   1      36.752  32.771  30.536  1.00  0.00    -0.014 A 
BRANCH  44  45
ATOM     45  C   UNL A   1      38.055  32.405  31.161  1.00  0.00     0.031 A 
ATOM     46  C   UNL A   1      38.809  31.246  30.565  1.00  0.00     0.074 A 
ATOM     47  C   UNL A   1      38.454  32.937  32.336  1.00  0.00     0.049 A 
ATOM     48  N   UNL A   1      39.724  30.481  31.095  1.00  0.00    -0.248 NA
ATOM     49  C   UNL A   1      38.413  30.861  29.200  1.00  0.00     0.031 C 
ATOM     50  C   UNL A   1      37.842  34.077  33.015  1.00  0.00     0.029 A 
ATOM     51  N   UNL A   1      39.442  32.533  33.205  1.00  0.00    -0.354 N 
ATOM     52  C   UNL A   1      39.979  29.496  30.147  1.00  0.00     0.074 A 
ATOM     53  C   UNL A   1      39.056  29.715  29.053  1.00  0.00     0.031 C 
ATOM     54  C   UNL A   1      38.413  34.237  34.220  1.00  0.00     0.029 A 
ATOM     55  C   UNL A   1      39.422  33.203  34.410  1.00  0.00     0.049 A 
ATOM     56  H   UNL A   1      40.100  31.833  32.987  1.00  0.00     0.167 HD
ATOM     57  C   UNL A   1      40.918  28.519  30.172  1.00  0.00     0.034 A 
ATOM     58  C   UNL A   1      40.112  32.989  35.548  1.00  0.00     0.034 A 
ATOM     59  C   UNL A   1      41.849  28.350  31.258  1.00  0.00     0.049 A 
ATOM     60  C   UNL A   1      41.128  31.874  35.582  1.00  0.00     0.074 A 
ATOM     61  C   UNL A   1      42.906  27.464  31.356  1.00  0.00     0.029 A 
ATOM     62  N   UNL A   1      41.830  29.080  32.440  1.00  0.00    -0.354 N 
ATOM     63  N   UNL A   1      41.405  30.982  34.658  1.00  0.00    -0.248 NA
ATOM     64  C   UNL A   1      41.939  31.751  36.800  1.00  0.00     0.031 C 
ATOM     65  C   UNL A   1      43.475  27.604  32.626  1.00  0.00     0.029 A 
ATOM     66  C   UNL A   1      42.832  28.638  33.289  1.00  0.00     0.049 A 
ATOM     67  H   UNL A   1      41.198  29.807  32.645  1.00  0.00     0.167 HD
ATOM     68  C   UNL A   1      42.454  30.222  35.167  1.00  0.00     0.074 A 
ATOM     69  C   UNL A   1      42.759  30.762  36.476  1.00  0.00     0.031 C 
ATOM     70  C   UNL A   1      43.116  29.181  34.597  1.00  0.00     0.034 A 
BRANCH  57  71
ATOM     71  C   UNL A   1      40.962  27.566  29.000  1.00  0.00     0.023 A 
ATOM     72  C   UNL A   1      41.940  27.674  27.996  1.00  0.00     0.031 A 
ATOM     73  C   UNL A   1      39.983  26.568  28.855  1.00  0.00     0.131 A 
ATOM     74  C   UNL A   1      41.858  26.875  26.847  1.00  0.00     0.055 A 
ATOM     75  C   UNL A   1      39.967  25.706  27.756  1.00  0.00     0.041 A 
ATOM     76  F   UNL A   1      39.008  26.427  29.766  1.00  0.00    -0.206 F 
ATOM     77  C   UNL A   1      40.896  25.871  26.732  1.00  0.00     0.022 A 
BRANCH  74  78
ATOM     78  S   UNL A   1      42.914  27.293  25.432  1.00  0.00     0.124 S 
ATOM     79  O   UNL A   1      44.132  27.749  26.097  1.00  0.00    -0.237 OA
ATOM     80  O   UNL A   1      43.011  26.021  24.725  1.00  0.00    -0.237 OA
ATOM     81  O   UNL A   1      42.161  28.338  24.740  1.00  0.00    -0.744 OA
ENDBRANCH  74  78
ENDBRANCH  57  71
BRANCH  58  82
ATOM     82  C   UNL A   1      39.876  33.843  36.750  1.00  0.00     0.023 A 
ATOM     83  C   UNL A   1      39.213  33.333  37.877  1.00  0.00     0.031 A 
ATOM     84  C   UNL A   1      40.285  35.190  36.781  1.00  0.00     0.131 A 
ATOM     85  C   UNL A   1      38.941  34.170  38.971  1.00  0.00     0.055 A 
ATOM     86  C   UNL A   1      40.053  36.006  37.891  1.00  0.00     0.041 A 
ATOM     87  F   UNL A   1      40.929  35.729  35.734  1.00  0.00    -0.206 F 
ATOM     88  C   UNL A   1      39.367  35.499  38.992  1.00  0.00     0.022 A 
BRANCH  85  89
ATOM     89  S   UNL A   1      37.953  33.510  40.342  1.00  0.00     0.124 S 
ATOM     90  O   UNL A   1      37.772  34.694  41.175  1.00  0.00    -0.237 OA
ATOM     91  O   UNL A   1      36.765  33.023  39.652  1.00  0.00    -0.237 OA
ATOM     92  O   UNL A   1      38.811  32.472  40.911  1.00  0.00    -0.744 OA
ENDBRANCH  85  89
ENDBRANCH  58  82
BRANCH  70  93
ATOM     93  C   UNL A   1      44.268  28.590  35.371  1.00  0.00     0.023 A 
ATOM     94  C   UNL A   1      44.078  27.575  36.323  1.00  0.00     0.031 A 
ATOM     95  C   UNL A   1      45.579  29.047  35.143  1.00  0.00     0.131 A 
ATOM     96  C   UNL A   1      45.174  27.087  37.050  1.00  0.00     0.055 A 
ATOM     97  C   UNL A   1      46.674  28.509  35.818  1.00  0.00     0.041 A 
ATOM     98  F   UNL A   1      45.819  30.018  34.248  1.00  0.00    -0.206 F 
ATOM     99  C   UNL A   1      46.472  27.530  36.788  1.00  0.00     0.022 A 
BRANCH  96 100
ATOM    100  S   UNL A   1      44.867  25.928  38.410  1.00  0.00     0.124 S 
ATOM    101  O   UNL A   1      46.090  26.055  39.196  1.00  0.00    -0.237 OA
ATOM    102  O   UNL A   1      43.659  26.474  39.020  1.00  0.00    -0.237 OA
ATOM    103  O   UNL A   1      44.694  24.643  37.734  1.00  0.00    -0.744 OA
ENDBRANCH  96 100
ENDBRANCH  70  93
ENDBRANCH  44  45
ENDBRANCH  36  39
ENDBRANCH  34  35
ENDBRANCH  33  34
ENDBRANCH   1  33
TORSDOF 19
ENDMDL
MODEL 3
REMARK VINA RESULT:     -12.6      5.378      9.105
REMARK SMILES O=C(CN1C(=O)/C(=C/c2cccs2)SC1=S)Nc1ccc(O)cc1C(=O)NCCCCNC(=O)c1ccc(-c2c3nc(c(-c4cc(S(=O)(=O)[O-])ccc4F)c4ccc([nH]4)c(-c4cc(S(=O)(=O)[O-])ccc4F)c4nc(c(-c5cc(S(=O)(=O)[O-])ccc5F)c5ccc2[nH]5)C=C4)C=C3)cc1
REMARK SMILES IDX 29 1 28 2 27 3 25 4 26 5 24 7 18 8 19 9 20 10 23 11 21 12
REMARK SMILES IDX 17 13 1 14 2 15 3 17 4 18 5 19 15 20 6 21 7 22 14 23 16 24
REMARK SMILES IDX 8 25 9 26 10 27 13 28 11 29 12 30 22 31 30 33 31 34 32 35
REMARK SMILES IDX 33 36 34 38 35 39 36 40 97 41 37 42 96 43 38 44 39 45 40 46
REMARK SMILES IDX 90 47 41 48 95 49 89 50 91 51 42 52 94 53 88 54 87 55 43 57
REMARK SMILES IDX 75 58 55 59 74 60 56 61 59 62 73 63 92 64 57 65 58 66 72 68
REMARK SMILES IDX 93 69 60 70 44 71 45 72 53 73 46 74 52 75 54 76 51 77 47 78
REMARK SMILES IDX 48 79 49 80 50 81 76 82 77 83 85 84 78 85 84 86 86 87 83 88
REMARK SMILES IDX 79 89 80 90 81 91 82 92 61 93 62 94 70 95 63 96 69 97 71 98
REMARK SMILES IDX 68 99 64 100 65 101 66 102 67 103
REMARK H PARENT 27 6 17 16 22 32 32 37 91 56 59 67
REMARK Flexibility Score: inf
ROOT
ATOM      1  C   UNL A   1      34.916  30.919  27.729  1.00  0.00     0.023 C 
ENDROOT
BRANCH   1   2
ATOM      2  C   UNL A   1      34.254  29.760  27.026  1.00  0.00     0.116 C 
BRANCH   2   3
ATOM      3  N   UNL A   1      33.057  29.331  27.654  1.00  0.00    -0.352 N 
ATOM      4  C   UNL A   1      31.987  28.680  27.125  1.00  0.00     0.253 C 
ATOM      5  O   UNL A   1      31.162  28.289  27.959  1.00  0.00    -0.269 OA
ATOM      6  H   UNL A   1      32.991  29.535  28.614  1.00  0.00     0.163 HD
BRANCH   4   7
ATOM      7  C   UNL A   1      31.699  28.481  25.660  1.00  0.00     0.067 A 
ATOM      8  C   UNL A   1      32.030  27.459  24.725  1.00  0.00     0.054 A 
ATOM      9  C   UNL A   1      31.477  27.566  23.423  1.00  0.00     0.031 A 
ATOM     10  C   UNL A   1      30.682  28.644  23.016  1.00  0.00     0.048 A 
ATOM     11  C   UNL A   1      30.954  29.600  25.186  1.00  0.00     0.062 A 
ATOM     12  C   UNL A   1      30.455  29.677  23.898  1.00  0.00     0.116 A 
BRANCH   8  13
ATOM     13  N   UNL A   1      32.797  26.261  24.958  1.00  0.00    -0.324 N 
ATOM     14  O   UNL A   1      31.167  25.147  26.172  1.00  0.00    -0.273 OA
ATOM     15  C   UNL A   1      32.328  25.202  25.761  1.00  0.00     0.244 C 
ATOM     16  H   UNL A   1      33.685  26.180  24.539  1.00  0.00     0.170 HD
BRANCH  15  17
ATOM     17  C   UNL A   1      33.300  24.020  26.071  1.00  0.00     0.227 C 
BRANCH  17  18
ATOM     18  N   UNL A   1      32.975  22.766  25.339  1.00  0.00    -0.283 N 
ATOM     19  C   UNL A   1      33.042  21.620  26.075  1.00  0.00     0.266 C 
ATOM     20  C   UNL A   1      32.574  22.574  24.045  1.00  0.00     0.148 C 
ATOM     21  O   UNL A   1      33.386  21.674  27.238  1.00  0.00    -0.268 OA
ATOM     22  C   UNL A   1      32.803  20.369  25.272  1.00  0.00     0.081 C 
ATOM     23  S   UNL A   1      32.580  20.826  23.648  1.00  0.00    -0.054 SA
ATOM     24  S   UNL A   1      32.084  23.740  22.962  1.00  0.00    -0.052 S 
ATOM     25  C   UNL A   1      32.909  19.193  25.905  1.00  0.00     0.040 C 
BRANCH  25  26
ATOM     26  C   UNL A   1      33.143  17.840  25.508  1.00  0.00     0.028 A 
ATOM     27  C   UNL A   1      32.472  16.644  25.698  1.00  0.00     0.020 A 
ATOM     28  S   UNL A   1      34.382  17.590  24.310  1.00  0.00    -0.144 S 
ATOM     29  C   UNL A   1      32.941  15.583  24.845  1.00  0.00     0.012 A 
ATOM     30  C   UNL A   1      33.984  15.970  24.041  1.00  0.00     0.065 A 
ENDBRANCH  25  26
ENDBRANCH  17  18
ENDBRANCH  15  17
ENDBRANCH   8  13
BRANCH  12  31
ATOM     31  O   UNL A   1      29.735  30.782  23.560  1.00  0.00    -0.508 OA
ATOM     32  H   UNL A   1      29.433  31.367  24.226  1.00  0.00     0.293 HD
ENDBRANCH  12  31
ENDBRANCH   4   7
ENDBRANCH   2   3
ENDBRANCH   1   2
BRANCH   1  33
ATOM     33  C   UNL A   1      34.065  32.179  27.981  1.00  0.00     0.023 C 
BRANCH  33  34
ATOM     34  C   UNL A   1      34.295  33.228  29.107  1.00  0.00     0.116 C 
BRANCH  34  35
ATOM     35  N   UNL A   1      34.269  32.874  30.529  1.00  0.00    -0.352 N 
ATOM     36  C   UNL A   1      35.087  32.335  31.502  1.00  0.00     0.251 C 
ATOM     37  H   UNL A   1      33.388  33.088  30.913  1.00  0.00     0.163 HD
ATOM     38  O   UNL A   1      34.613  32.173  32.630  1.00  0.00    -0.269 OA
BRANCH  36  39
ATOM     39  C   UNL A   1      36.437  31.801  31.230  1.00  0.00     0.039 A 
ATOM     40  C   UNL A   1      36.972  30.805  32.076  1.00  0.00     0.014 A 
ATOM     41  C   UNL A   1      37.166  32.224  30.133  1.00  0.00     0.014 A 
ATOM     42  C   UNL A   1      38.187  30.174  31.764  1.00  0.00     0.010 A 
ATOM     43  C   UNL A   1      38.321  31.538  29.779  1.00  0.00     0.010 A 
ATOM     44  C   UNL A   1      38.849  30.504  30.580  1.00  0.00    -0.014 A 
BRANCH  44  45
ATOM     45  C   UNL A   1      40.111  29.864  30.107  1.00  0.00     0.031 A 
ATOM     46  C   UNL A   1      41.312  30.753  29.920  1.00  0.00     0.074 A 
ATOM     47  C   UNL A   1      40.137  28.591  29.659  1.00  0.00     0.049 A 
ATOM     48  N   UNL A   1      42.379  30.576  29.188  1.00  0.00    -0.248 NA
ATOM     49  C   UNL A   1      41.255  32.056  30.604  1.00  0.00     0.031 C 
ATOM     50  C   UNL A   1      39.064  27.609  29.797  1.00  0.00     0.029 A 
ATOM     51  N   UNL A   1      41.094  27.926  28.927  1.00  0.00    -0.354 N 
ATOM     52  C   UNL A   1      43.097  31.763  29.288  1.00  0.00     0.074 A 
ATOM     53  C   UNL A   1      42.296  32.676  30.075  1.00  0.00     0.031 C 
ATOM     54  C   UNL A   1      39.385  26.498  29.113  1.00  0.00     0.029 A 
ATOM     55  C   UNL A   1      40.680  26.692  28.473  1.00  0.00     0.049 A 
ATOM     56  H   UNL A   1      41.989  28.296  28.744  1.00  0.00     0.167 HD
ATOM     57  C   UNL A   1      44.325  32.053  28.794  1.00  0.00     0.034 A 
ATOM     58  C   UNL A   1      41.261  25.828  27.615  1.00  0.00     0.034 A 
ATOM     59  C   UNL A   1      45.116  31.110  28.045  1.00  0.00     0.049 A 
ATOM     60  C   UNL A   1      42.611  26.176  27.038  1.00  0.00     0.074 A 
ATOM     61  C   UNL A   1      46.410  31.250  27.578  1.00  0.00     0.029 A 
ATOM     62  N   UNL A   1      44.683  29.850  27.648  1.00  0.00    -0.354 N 
ATOM     63  N   UNL A   1      43.311  27.277  27.184  1.00  0.00    -0.248 NA
ATOM     64  C   UNL A   1      43.258  25.157  26.202  1.00  0.00     0.031 C 
ATOM     65  C   UNL A   1      46.728  30.110  26.833  1.00  0.00     0.029 A 
ATOM     66  C   UNL A   1      45.669  29.220  26.909  1.00  0.00     0.049 A 
ATOM     67  H   UNL A   1      43.803  29.462  27.863  1.00  0.00     0.167 HD
ATOM     68  C   UNL A   1      44.502  27.064  26.495  1.00  0.00     0.074 A 
ATOM     69  C   UNL A   1      44.423  25.730  25.937  1.00  0.00     0.031 C 
ATOM     70  C   UNL A   1      45.570  27.891  26.350  1.00  0.00     0.034 A 
BRANCH  57  71
ATOM     71  C   UNL A   1      44.864  33.443  29.041  1.00  0.00     0.023 A 
ATOM     72  C   UNL A   1      44.408  34.554  28.308  1.00  0.00     0.031 A 
ATOM     73  C   UNL A   1      45.884  33.656  29.985  1.00  0.00     0.131 A 
ATOM     74  C   UNL A   1      45.039  35.798  28.454  1.00  0.00     0.055 A 
ATOM     75  C   UNL A   1      46.439  34.920  30.197  1.00  0.00     0.041 A 
ATOM     76  F   UNL A   1      46.379  32.635  30.700  1.00  0.00    -0.206 F 
ATOM     77  C   UNL A   1      46.032  35.997  29.415  1.00  0.00     0.022 A 
BRANCH  74  78
ATOM     78  S   UNL A   1      44.667  37.097  27.244  1.00  0.00     0.124 S 
ATOM     79  O   UNL A   1      45.929  37.189  26.513  1.00  0.00    -0.237 OA
ATOM     80  O   UNL A   1      43.543  36.530  26.508  1.00  0.00    -0.237 OA
ATOM     81  O   UNL A   1      44.350  38.258  28.074  1.00  0.00    -0.744 OA
ENDBRANCH  74  78
ENDBRANCH  57  71
BRANCH  58  82
ATOM     82  C   UNL A   1      40.579  24.552  27.247  1.00  0.00     0.023 A 
ATOM     83  C   UNL A   1      39.383  24.560  26.512  1.00  0.00     0.031 A 
ATOM     84  C   UNL A   1      41.096  23.305  27.647  1.00  0.00     0.131 A 
ATOM     85  C   UNL A   1      38.721  23.353  26.233  1.00  0.00     0.055 A 
ATOM     86  C   UNL A   1      40.458  22.105  27.326  1.00  0.00     0.041 A 
ATOM     87  F   UNL A   1      42.240  23.237  28.347  1.00  0.00    -0.206 F 
ATOM     88  C   UNL A   1      39.256  22.125  26.624  1.00  0.00     0.022 A 
BRANCH  85  89
ATOM     89  S   UNL A   1      37.106  23.421  25.410  1.00  0.00     0.124 S 
ATOM     90  O   UNL A   1      36.623  24.738  25.811  1.00  0.00    -0.237 OA
ATOM     91  O   UNL A   1      37.474  23.272  24.007  1.00  0.00    -0.237 OA
ATOM     92  O   UNL A   1      36.382  22.289  25.986  1.00  0.00    -0.744 OA
ENDBRANCH  85  89
ENDBRANCH  58  82
BRANCH  70  93
ATOM     93  C   UNL A   1      46.760  27.353  25.594  1.00  0.00     0.023 A 
ATOM     94  C   UNL A   1      47.058  27.772  24.287  1.00  0.00     0.031 A 
ATOM     95  C   UNL A   1      47.612  26.412  26.198  1.00  0.00     0.131 A 
ATOM     96  C   UNL A   1      48.150  27.213  23.607  1.00  0.00     0.055 A 
ATOM     97  C   UNL A   1      48.737  25.910  25.543  1.00  0.00     0.041 A 
ATOM     98  F   UNL A   1      47.373  25.972  27.444  1.00  0.00    -0.206 F 
ATOM     99  C   UNL A   1      49.004  26.302  24.234  1.00  0.00     0.022 A 
BRANCH  96 100
ATOM    100  S   UNL A   1      48.385  27.621  21.857  1.00  0.00     0.124 S 
ATOM    101  O   UNL A   1      48.643  26.309  21.273  1.00  0.00    -0.237 OA
ATOM    102  O   UNL A   1      47.110  28.236  21.504  1.00  0.00    -0.237 OA
ATOM    103  O   UNL A   1      49.530  28.531  21.867  1.00  0.00    -0.744 OA
ENDBRANCH  96 100
ENDBRANCH  70  93
ENDBRANCH  44  45
ENDBRANCH  36  39
ENDBRANCH  34  35
ENDBRANCH  33  34
ENDBRANCH   1  33
TORSDOF 19
ENDMDL
