MODEL 1
REMARK VINA RESULT:     -11.7      0.000      0.000
REMARK SMILES CSc1ncccc1C(=O)N1CSC[C@H]1C(=O)NCCCCNC(=O)c1ccc(-c2c3nc(c(-c4cc(S(=O)(=O)[O-])ccc4F)c4ccc([nH]4)c(-c4cc(S(=O)(=O)[O-])ccc4F)c4nc(c(-c5cc(S(=O)(=O)[O-])ccc5F)c5ccc2[nH]5)C=C4)C=C3)cc1
REMARK SMILES IDX 20 1 19 2 18 3 16 4 17 5 15 7 11 8 12 9 13 10 14 11 9 12
REMARK SMILES IDX 10 13 8 14 3 15 4 16 5 17 7 18 6 19 2 20 1 21 21 22 22 23
REMARK SMILES IDX 23 24 24 25 25 27 26 28 27 29 88 30 28 31 87 32 29 33 30 34
REMARK SMILES IDX 31 35 81 36 32 37 86 38 80 39 82 40 33 41 85 42 79 43 78 44
REMARK SMILES IDX 34 46 66 47 46 48 65 49 47 50 50 51 64 52 83 53 48 54 49 55
REMARK SMILES IDX 63 57 84 58 51 59 35 60 36 61 44 62 37 63 43 64 45 65 42 66
REMARK SMILES IDX 38 67 39 68 40 69 41 70 67 71 68 72 76 73 69 74 75 75 77 76
REMARK SMILES IDX 74 77 70 78 71 79 72 80 73 81 52 82 53 83 61 84 54 85 60 86
REMARK SMILES IDX 62 87 59 88 55 89 56 90 57 91 58 92
REMARK H PARENT 18 6 23 26 82 45 50 56
REMARK Flexibility Score: inf
ROOT
ATOM      1  C   UNL A   1      34.548  22.237  26.056  1.00  0.00     0.023 C 
ENDROOT
BRANCH   1   2
ATOM      2  C   UNL A   1      33.204  21.529  25.936  1.00  0.00     0.116 C 
BRANCH   2   3
ATOM      3  N   UNL A   1      32.198  22.099  26.802  1.00  0.00    -0.354 N 
ATOM      4  C   UNL A   1      31.180  22.964  26.537  1.00  0.00     0.243 C 
ATOM      5  O   UNL A   1      30.293  23.047  27.396  1.00  0.00    -0.273 OA
ATOM      6  H   UNL A   1      32.259  21.815  27.743  1.00  0.00     0.163 HD
BRANCH   4   7
ATOM      7  C   UNL A   1      31.008  23.681  25.178  1.00  0.00     0.185 C 
ATOM      8  N   UNL A   1      31.502  25.067  25.058  1.00  0.00    -0.316 N 
ATOM      9  C   UNL A   1      32.648  25.229  24.193  1.00  0.00     0.190 C 
ATOM     10  S   UNL A   1      32.505  23.932  22.948  1.00  0.00    -0.138 SA
ATOM     11  C   UNL A   1      31.542  22.827  24.025  1.00  0.00     0.106 C 
BRANCH   8  12
ATOM     12  C   UNL A   1      30.697  26.073  25.599  1.00  0.00     0.257 C 
ATOM     13  O   UNL A   1      29.488  25.913  25.740  1.00  0.00    -0.269 OA
BRANCH  12  14
ATOM     14  C   UNL A   1      31.248  27.432  25.840  1.00  0.00     0.072 A 
ATOM     15  C   UNL A   1      31.302  28.429  24.860  1.00  0.00     0.108 A 
ATOM     16  N   UNL A   1      31.912  29.629  25.089  1.00  0.00    -0.249 NA
ATOM     17  C   UNL A   1      32.514  29.832  26.278  1.00  0.00     0.112 A 
ATOM     18  C   UNL A   1      31.932  27.666  27.046  1.00  0.00     0.018 A 
ATOM     19  C   UNL A   1      32.552  28.888  27.280  1.00  0.00     0.021 A 
BRANCH  15  20
ATOM     20  S   UNL A   1      30.567  28.288  23.238  1.00  0.00    -0.109 SA
ATOM     21  C   UNL A   1      29.519  29.771  23.249  1.00  0.00     0.092 C 
ENDBRANCH  15  20
ENDBRANCH  12  14
ENDBRANCH   8  12
ENDBRANCH   4   7
ENDBRANCH   2   3
ENDBRANCH   1   2
BRANCH   1  22
ATOM     22  C   UNL A   1      35.691  21.566  25.291  1.00  0.00     0.023 C 
BRANCH  22  23
ATOM     23  C   UNL A   1      37.078  22.164  25.522  1.00  0.00     0.116 C 
BRANCH  23  24
ATOM     24  N   UNL A   1      38.107  21.167  25.773  1.00  0.00    -0.352 N 
ATOM     25  C   UNL A   1      39.367  21.345  26.291  1.00  0.00     0.251 C 
ATOM     26  H   UNL A   1      37.869  20.241  25.540  1.00  0.00     0.163 HD
ATOM     27  O   UNL A   1      40.145  20.395  26.331  1.00  0.00    -0.269 OA
BRANCH  25  28
ATOM     28  C   UNL A   1      39.790  22.685  26.754  1.00  0.00     0.039 A 
ATOM     29  C   UNL A   1      40.781  22.772  27.734  1.00  0.00     0.014 A 
ATOM     30  C   UNL A   1      39.230  23.846  26.216  1.00  0.00     0.014 A 
ATOM     31  C   UNL A   1      41.254  24.026  28.128  1.00  0.00     0.010 A 
ATOM     32  C   UNL A   1      39.752  25.091  26.557  1.00  0.00     0.010 A 
ATOM     33  C   UNL A   1      40.767  25.195  27.519  1.00  0.00    -0.014 A 
BRANCH  33  34
ATOM     34  C   UNL A   1      41.314  26.527  27.886  1.00  0.00     0.031 A 
ATOM     35  C   UNL A   1      42.733  26.887  27.534  1.00  0.00     0.074 A 
ATOM     36  C   UNL A   1      40.545  27.394  28.574  1.00  0.00     0.049 A 
ATOM     37  N   UNL A   1      43.391  27.991  27.779  1.00  0.00    -0.248 NA
ATOM     38  C   UNL A   1      43.523  25.857  26.844  1.00  0.00     0.031 C 
ATOM     39  C   UNL A   1      39.174  27.133  29.023  1.00  0.00     0.029 A 
ATOM     40  N   UNL A   1      40.801  28.667  29.017  1.00  0.00    -0.354 N 
ATOM     41  C   UNL A   1      44.675  27.786  27.282  1.00  0.00     0.074 A 
ATOM     42  C   UNL A   1      44.717  26.427  26.786  1.00  0.00     0.031 C 
ATOM     43  C   UNL A   1      38.702  28.222  29.649  1.00  0.00     0.029 A 
ATOM     44  C   UNL A   1      39.742  29.246  29.678  1.00  0.00     0.049 A 
ATOM     45  H   UNL A   1      41.661  29.123  28.875  1.00  0.00     0.167 HD
ATOM     46  C   UNL A   1      45.712  28.658  27.222  1.00  0.00     0.034 A 
ATOM     47  C   UNL A   1      39.623  30.464  30.243  1.00  0.00     0.034 A 
ATOM     48  C   UNL A   1      45.647  30.014  27.714  1.00  0.00     0.049 A 
ATOM     49  C   UNL A   1      40.786  31.419  30.157  1.00  0.00     0.074 A 
ATOM     50  C   UNL A   1      46.615  31.001  27.656  1.00  0.00     0.029 A 
ATOM     51  N   UNL A   1      44.553  30.573  28.364  1.00  0.00    -0.354 N 
ATOM     52  N   UNL A   1      41.971  31.233  29.622  1.00  0.00    -0.248 NA
ATOM     53  C   UNL A   1      40.584  32.755  30.731  1.00  0.00     0.031 C 
ATOM     54  C   UNL A   1      46.132  32.132  28.326  1.00  0.00     0.029 A 
ATOM     55  C   UNL A   1      44.832  31.880  28.735  1.00  0.00     0.049 A 
ATOM     56  H   UNL A   1      43.702  30.108  28.537  1.00  0.00     0.167 HD
ATOM     57  C   UNL A   1      42.646  32.442  29.771  1.00  0.00     0.074 A 
ATOM     58  C   UNL A   1      41.727  33.352  30.424  1.00  0.00     0.031 C 
ATOM     59  C   UNL A   1      43.910  32.772  29.400  1.00  0.00     0.034 A 
BRANCH  46  60
ATOM     60  C   UNL A   1      47.006  28.157  26.622  1.00  0.00     0.023 A 
ATOM     61  C   UNL A   1      47.254  28.223  25.239  1.00  0.00     0.031 A 
ATOM     62  C   UNL A   1      47.992  27.575  27.438  1.00  0.00     0.131 A 
ATOM     63  C   UNL A   1      48.415  27.643  24.705  1.00  0.00     0.055 A 
ATOM     64  C   UNL A   1      49.186  27.076  26.909  1.00  0.00     0.041 A 
ATOM     65  F   UNL A   1      47.807  27.463  28.763  1.00  0.00    -0.206 F 
ATOM     66  C   UNL A   1      49.395  27.094  25.534  1.00  0.00     0.022 A 
BRANCH  63  67
ATOM     67  S   UNL A   1      48.553  27.483  22.904  1.00  0.00     0.124 S 
ATOM     68  O   UNL A   1      48.469  26.034  22.730  1.00  0.00    -0.237 OA
ATOM     69  O   UNL A   1      47.408  28.250  22.429  1.00  0.00    -0.237 OA
ATOM     70  O   UNL A   1      49.861  28.062  22.607  1.00  0.00    -0.744 OA
ENDBRANCH  63  67
ENDBRANCH  46  60
BRANCH  47  71
ATOM     71  C   UNL A   1      38.360  30.856  30.932  1.00  0.00     0.023 A 
ATOM     72  C   UNL A   1      37.342  31.538  30.246  1.00  0.00     0.031 A 
ATOM     73  C   UNL A   1      38.170  30.590  32.299  1.00  0.00     0.131 A 
ATOM     74  C   UNL A   1      36.202  31.973  30.938  1.00  0.00     0.055 A 
ATOM     75  C   UNL A   1      37.010  30.978  32.971  1.00  0.00     0.041 A 
ATOM     76  F   UNL A   1      39.108  29.934  33.000  1.00  0.00    -0.206 F 
ATOM     77  C   UNL A   1      36.023  31.687  32.293  1.00  0.00     0.022 A 
BRANCH  74  78
ATOM     78  S   UNL A   1      34.987  32.992  30.058  1.00  0.00     0.124 S 
ATOM     79  O   UNL A   1      34.457  32.048  29.081  1.00  0.00    -0.237 OA
ATOM     80  O   UNL A   1      34.079  33.377  31.134  1.00  0.00    -0.237 OA
ATOM     81  O   UNL A   1      35.791  34.080  29.505  1.00  0.00    -0.744 OA
ENDBRANCH  74  78
ENDBRANCH  47  71
BRANCH  59  82
ATOM     82  C   UNL A   1      44.346  34.195  29.657  1.00  0.00     0.023 A 
ATOM     83  C   UNL A   1      44.095  35.225  28.734  1.00  0.00     0.031 A 
ATOM     84  C   UNL A   1      45.052  34.518  30.829  1.00  0.00     0.131 A 
ATOM     85  C   UNL A   1      44.607  36.510  28.962  1.00  0.00     0.055 A 
ATOM     86  C   UNL A   1      45.502  35.814  31.083  1.00  0.00     0.041 A 
ATOM     87  F   UNL A   1      45.323  33.574  31.746  1.00  0.00    -0.206 F 
ATOM     88  C   UNL A   1      45.295  36.816  30.139  1.00  0.00     0.022 A 
BRANCH  85  89
ATOM     89  S   UNL A   1      44.465  37.751  27.647  1.00  0.00     0.124 S 
ATOM     90  O   UNL A   1      43.346  37.237  26.864  1.00  0.00    -0.237 OA
ATOM     91  O   UNL A   1      44.208  38.974  28.399  1.00  0.00    -0.237 OA
ATOM     92  O   UNL A   1      45.765  37.695  26.980  1.00  0.00    -0.744 OA
ENDBRANCH  85  89
ENDBRANCH  59  82
ENDBRANCH  33  34
ENDBRANCH  25  28
ENDBRANCH  23  24
ENDBRANCH  22  23
ENDBRANCH   1  22
TORSDOF 17
ENDMDL
MODEL 2
REMARK VINA RESULT:     -11.7      2.137      2.550
REMARK SMILES CSc1ncccc1C(=O)N1CSC[C@H]1C(=O)NCCCCNC(=O)c1ccc(-c2c3nc(c(-c4cc(S(=O)(=O)[O-])ccc4F)c4ccc([nH]4)c(-c4cc(S(=O)(=O)[O-])ccc4F)c4nc(c(-c5cc(S(=O)(=O)[O-])ccc5F)c5ccc2[nH]5)C=C4)C=C3)cc1
REMARK SMILES IDX 20 1 19 2 18 3 16 4 17 5 15 7 11 8 12 9 13 10 14 11 9 12
REMARK SMILES IDX 10 13 8 14 3 15 4 16 5 17 7 18 6 19 2 20 1 21 21 22 22 23
REMARK SMILES IDX 23 24 24 25 25 27 26 28 27 29 88 30 28 31 87 32 29 33 30 34
REMARK SMILES IDX 31 35 81 36 32 37 86 38 80 39 82 40 33 41 85 42 79 43 78 44
REMARK SMILES IDX 34 46 66 47 46 48 65 49 47 50 50 51 64 52 83 53 48 54 49 55
REMARK SMILES IDX 63 57 84 58 51 59 35 60 36 61 44 62 37 63 43 64 45 65 42 66
REMARK SMILES IDX 38 67 39 68 40 69 41 70 67 71 68 72 76 73 69 74 75 75 77 76
REMARK SMILES IDX 74 77 70 78 71 79 72 80 73 81 52 82 53 83 61 84 54 85 60 86
REMARK SMILES IDX 62 87 59 88 55 89 56 90 57 91 58 92
REMARK H PARENT 18 6 23 26 82 45 50 56
REMARK Flexibility Score: inf
ROOT
ATOM      1  C   UNL A   1      34.484  22.476  26.188  1.00  0.00     0.023 C 
ENDROOT
BRANCH   1   2
ATOM      2  C   UNL A   1      33.837  23.814  26.523  1.00  0.00     0.116 C 
BRANCH   2   3
ATOM      3  N   UNL A   1      32.545  23.662  27.152  1.00  0.00    -0.354 N 
ATOM      4  C   UNL A   1      31.294  23.613  26.616  1.00  0.00     0.243 C 
ATOM      5  O   UNL A   1      30.400  23.175  27.351  1.00  0.00    -0.273 OA
ATOM      6  H   UNL A   1      32.574  23.580  28.133  1.00  0.00     0.163 HD
BRANCH   4   7
ATOM      7  C   UNL A   1      30.996  23.904  25.127  1.00  0.00     0.185 C 
ATOM      8  N   UNL A   1      31.363  25.229  24.593  1.00  0.00    -0.316 N 
ATOM      9  C   UNL A   1      32.448  25.219  23.639  1.00  0.00     0.190 C 
ATOM     10  S   UNL A   1      32.358  23.617  22.816  1.00  0.00    -0.138 SA
ATOM     11  C   UNL A   1      31.546  22.798  24.222  1.00  0.00     0.106 C 
BRANCH   8  12
ATOM     12  C   UNL A   1      30.502  26.289  24.888  1.00  0.00     0.257 C 
ATOM     13  O   UNL A   1      29.335  26.288  24.503  1.00  0.00    -0.269 OA
BRANCH  12  14
ATOM     14  C   UNL A   1      31.022  27.534  25.511  1.00  0.00     0.072 A 
ATOM     15  C   UNL A   1      31.342  28.686  24.784  1.00  0.00     0.108 A 
ATOM     16  N   UNL A   1      31.918  29.773  25.376  1.00  0.00    -0.249 NA
ATOM     17  C   UNL A   1      32.222  29.708  26.688  1.00  0.00     0.112 A 
ATOM     18  C   UNL A   1      31.403  27.491  26.863  1.00  0.00     0.018 A 
ATOM     19  C   UNL A   1      31.988  28.597  27.468  1.00  0.00     0.021 A 
BRANCH  15  20
ATOM     20  S   UNL A   1      31.015  28.900  23.041  1.00  0.00    -0.109 SA
ATOM     21  C   UNL A   1      29.440  29.801  23.136  1.00  0.00     0.092 C 
ENDBRANCH  15  20
ENDBRANCH  12  14
ENDBRANCH   8  12
ENDBRANCH   4   7
ENDBRANCH   2   3
ENDBRANCH   1   2
BRANCH   1  22
ATOM     22  C   UNL A   1      35.578  22.548  25.120  1.00  0.00     0.023 C 
BRANCH  22  23
ATOM     23  C   UNL A   1      36.875  23.230  25.549  1.00  0.00     0.116 C 
BRANCH  23  24
ATOM     24  N   UNL A   1      37.936  22.297  25.895  1.00  0.00    -0.352 N 
ATOM     25  C   UNL A   1      39.155  22.557  26.475  1.00  0.00     0.251 C 
ATOM     26  H   UNL A   1      37.758  21.352  25.686  1.00  0.00     0.163 HD
ATOM     27  O   UNL A   1      39.975  21.651  26.595  1.00  0.00    -0.269 OA
BRANCH  25  28
ATOM     28  C   UNL A   1      39.484  23.933  26.908  1.00  0.00     0.039 A 
ATOM     29  C   UNL A   1      39.270  24.284  28.243  1.00  0.00     0.014 A 
ATOM     30  C   UNL A   1      40.017  24.865  26.013  1.00  0.00     0.014 A 
ATOM     31  C   UNL A   1      39.650  25.551  28.693  1.00  0.00     0.010 A 
ATOM     32  C   UNL A   1      40.460  26.100  26.479  1.00  0.00     0.010 A 
ATOM     33  C   UNL A   1      40.278  26.458  27.823  1.00  0.00    -0.014 A 
BRANCH  33  34
ATOM     34  C   UNL A   1      40.745  27.781  28.313  1.00  0.00     0.031 A 
ATOM     35  C   UNL A   1      42.217  28.087  28.383  1.00  0.00     0.074 A 
ATOM     36  C   UNL A   1      39.843  28.689  28.735  1.00  0.00     0.049 A 
ATOM     37  N   UNL A   1      42.818  29.175  28.792  1.00  0.00    -0.248 NA
ATOM     38  C   UNL A   1      43.134  27.015  27.968  1.00  0.00     0.031 C 
ATOM     39  C   UNL A   1      38.392  28.482  28.771  1.00  0.00     0.029 A 
ATOM     40  N   UNL A   1      40.007  29.963  29.214  1.00  0.00    -0.354 N 
ATOM     41  C   UNL A   1      44.181  28.917  28.692  1.00  0.00     0.074 A 
ATOM     42  C   UNL A   1      44.314  27.545  28.251  1.00  0.00     0.031 C 
ATOM     43  C   UNL A   1      37.800  29.601  29.217  1.00  0.00     0.029 A 
ATOM     44  C   UNL A   1      38.825  30.592  29.531  1.00  0.00     0.049 A 
ATOM     45  H   UNL A   1      40.888  30.388  29.322  1.00  0.00     0.167 HD
ATOM     46  C   UNL A   1      45.223  29.754  28.923  1.00  0.00     0.034 A 
ATOM     47  C   UNL A   1      38.592  31.827  30.019  1.00  0.00     0.034 A 
ATOM     48  C   UNL A   1      45.070  31.123  29.355  1.00  0.00     0.049 A 
ATOM     49  C   UNL A   1      39.765  32.742  30.260  1.00  0.00     0.074 A 
ATOM     50  C   UNL A   1      46.050  32.078  29.565  1.00  0.00     0.029 A 
ATOM     51  N   UNL A   1      43.856  31.733  29.650  1.00  0.00    -0.354 N 
ATOM     52  N   UNL A   1      41.047  32.506  30.095  1.00  0.00    -0.248 NA
ATOM     53  C   UNL A   1      39.457  34.098  30.730  1.00  0.00     0.031 C 
ATOM     54  C   UNL A   1      45.436  33.239  30.049  1.00  0.00     0.029 A 
ATOM     55  C   UNL A   1      44.065  33.040  30.067  1.00  0.00     0.049 A 
ATOM     56  H   UNL A   1      42.975  31.300  29.576  1.00  0.00     0.167 HD
ATOM     57  C   UNL A   1      41.695  33.696  30.415  1.00  0.00     0.074 A 
ATOM     58  C   UNL A   1      40.661  34.651  30.759  1.00  0.00     0.031 C 
ATOM     59  C   UNL A   1      43.024  33.976  30.422  1.00  0.00     0.034 A 
BRANCH  46  60
ATOM     60  C   UNL A   1      46.616  29.198  28.733  1.00  0.00     0.023 A 
ATOM     61  C   UNL A   1      47.183  29.046  27.454  1.00  0.00     0.031 A 
ATOM     62  C   UNL A   1      47.375  28.781  29.840  1.00  0.00     0.131 A 
ATOM     63  C   UNL A   1      48.429  28.419  27.308  1.00  0.00     0.055 A 
ATOM     64  C   UNL A   1      48.654  28.236  29.693  1.00  0.00     0.041 A 
ATOM     65  F   UNL A   1      46.883  28.879  31.084  1.00  0.00    -0.206 F 
ATOM     66  C   UNL A   1      49.181  28.037  28.421  1.00  0.00     0.022 A 
BRANCH  63  67
ATOM     67  S   UNL A   1      48.985  27.974  25.640  1.00  0.00     0.124 S 
ATOM     68  O   UNL A   1      50.104  28.894  25.448  1.00  0.00    -0.237 OA
ATOM     69  O   UNL A   1      49.334  26.567  25.788  1.00  0.00    -0.237 OA
ATOM     70  O   UNL A   1      47.817  28.245  24.805  1.00  0.00    -0.744 OA
ENDBRANCH  63  67
ENDBRANCH  46  60
BRANCH  47  71
ATOM     71  C   UNL A   1      37.200  32.277  30.306  1.00  0.00     0.023 A 
ATOM     72  C   UNL A   1      36.367  32.754  29.280  1.00  0.00     0.031 A 
ATOM     73  C   UNL A   1      36.695  32.273  31.618  1.00  0.00     0.131 A 
ATOM     74  C   UNL A   1      35.093  33.252  29.589  1.00  0.00     0.055 A 
ATOM     75  C   UNL A   1      35.406  32.720  31.912  1.00  0.00     0.041 A 
ATOM     76  F   UNL A   1      37.447  31.820  32.633  1.00  0.00    -0.206 F 
ATOM     77  C   UNL A   1      34.602  33.227  30.897  1.00  0.00     0.022 A 
BRANCH  74  78
ATOM     78  S   UNL A   1      34.111  34.011  28.266  1.00  0.00     0.124 S 
ATOM     79  O   UNL A   1      33.426  35.082  28.980  1.00  0.00    -0.237 OA
ATOM     80  O   UNL A   1      35.146  34.428  27.324  1.00  0.00    -0.237 OA
ATOM     81  O   UNL A   1      33.257  32.919  27.806  1.00  0.00    -0.744 OA
ENDBRANCH  74  78
ENDBRANCH  47  71
BRANCH  59  82
ATOM     82  C   UNL A   1      43.420  35.391  30.774  1.00  0.00     0.023 A 
ATOM     83  C   UNL A   1      43.618  35.795  32.106  1.00  0.00     0.031 A 
ATOM     84  C   UNL A   1      43.568  36.357  29.763  1.00  0.00     0.131 A 
ATOM     85  C   UNL A   1      43.882  37.141  32.398  1.00  0.00     0.055 A 
ATOM     86  C   UNL A   1      43.897  37.681  30.054  1.00  0.00     0.041 A 
ATOM     87  F   UNL A   1      43.389  36.029  28.473  1.00  0.00    -0.206 F 
ATOM     88  C   UNL A   1      44.039  38.085  31.379  1.00  0.00     0.022 A 
BRANCH  85  89
ATOM     89  S   UNL A   1      43.900  37.669  34.133  1.00  0.00     0.124 S 
ATOM     90  O   UNL A   1      45.170  38.384  34.219  1.00  0.00    -0.237 OA
ATOM     91  O   UNL A   1      42.699  38.491  34.220  1.00  0.00    -0.237 OA
ATOM     92  O   UNL A   1      43.846  36.411  34.876  1.00  0.00    -0.744 OA
ENDBRANCH  85  89
ENDBRANCH  59  82
ENDBRANCH  33  34
ENDBRANCH  25  28
ENDBRANCH  23  24
ENDBRANCH  22  23
ENDBRANCH   1  22
TORSDOF 17
ENDMDL
MODEL 3
REMARK VINA RESULT:     -11.7      4.668      9.545
REMARK SMILES CSc1ncccc1C(=O)N1CSC[C@H]1C(=O)NCCCCNC(=O)c1ccc(-c2c3nc(c(-c4cc(S(=O)(=O)[O-])ccc4F)c4ccc([nH]4)c(-c4cc(S(=O)(=O)[O-])ccc4F)c4nc(c(-c5cc(S(=O)(=O)[O-])ccc5F)c5ccc2[nH]5)C=C4)C=C3)cc1
REMARK SMILES IDX 20 1 19 2 18 3 16 4 17 5 15 7 11 8 12 9 13 10 14 11 9 12
REMARK SMILES IDX 10 13 8 14 3 15 4 16 5 17 7 18 6 19 2 20 1 21 21 22 22 23
REMARK SMILES IDX 23 24 24 25 25 27 26 28 27 29 88 30 28 31 87 32 29 33 30 34
REMARK SMILES IDX 31 35 81 36 32 37 86 38 80 39 82 40 33 41 85 42 79 43 78 44
REMARK SMILES IDX 34 46 66 47 46 48 65 49 47 50 50 51 64 52 83 53 48 54 49 55
REMARK SMILES IDX 63 57 84 58 51 59 35 60 36 61 44 62 37 63 43 64 45 65 42 66
REMARK SMILES IDX 38 67 39 68 40 69 41 70 67 71 68 72 76 73 69 74 75 75 77 76
REMARK SMILES IDX 74 77 70 78 71 79 72 80 73 81 52 82 53 83 61 84 54 85 60 86
REMARK SMILES IDX 62 87 59 88 55 89 56 90 57 91 58 92
REMARK H PARENT 18 6 23 26 82 45 50 56
REMARK Flexibility Score: inf
ROOT
ATOM      1  C   UNL A   1      31.726  27.832  27.127  1.00  0.00     0.023 C 
ENDROOT
BRANCH   1   2
ATOM      2  C   UNL A   1      32.219  26.490  26.600  1.00  0.00     0.116 C 
BRANCH   2   3
ATOM      3  N   UNL A   1      31.338  25.400  26.951  1.00  0.00    -0.354 N 
ATOM      4  C   UNL A   1      31.433  24.064  26.706  1.00  0.00     0.243 C 
ATOM      5  O   UNL A   1      30.698  23.330  27.379  1.00  0.00    -0.273 OA
ATOM      6  H   UNL A   1      30.533  25.669  27.451  1.00  0.00     0.163 HD
BRANCH   4   7
ATOM      7  C   UNL A   1      32.509  23.444  25.786  1.00  0.00     0.185 C 
ATOM      8  N   UNL A   1      32.988  24.244  24.642  1.00  0.00    -0.316 N 
ATOM      9  C   UNL A   1      34.357  24.695  24.749  1.00  0.00     0.190 C 
ATOM     10  S   UNL A   1      35.207  23.444  25.731  1.00  0.00    -0.138 SA
ATOM     11  C   UNL A   1      33.696  22.913  26.594  1.00  0.00     0.106 C 
BRANCH   8  12
ATOM     12  C   UNL A   1      32.165  24.288  23.514  1.00  0.00     0.257 C 
ATOM     13  O   UNL A   1      32.238  23.429  22.639  1.00  0.00    -0.269 OA
BRANCH  12  14
ATOM     14  C   UNL A   1      31.314  25.476  23.247  1.00  0.00     0.072 A 
ATOM     15  C   UNL A   1      31.789  26.649  22.650  1.00  0.00     0.108 A 
ATOM     16  N   UNL A   1      31.004  27.758  22.517  1.00  0.00    -0.249 NA
ATOM     17  C   UNL A   1      29.752  27.726  23.018  1.00  0.00     0.112 A 
ATOM     18  C   UNL A   1      30.022  25.505  23.800  1.00  0.00     0.018 A 
ATOM     19  C   UNL A   1      29.220  26.632  23.664  1.00  0.00     0.021 A 
BRANCH  15  20
ATOM     20  S   UNL A   1      33.428  26.837  21.964  1.00  0.00    -0.109 SA
ATOM     21  C   UNL A   1      33.868  28.453  22.665  1.00  0.00     0.092 C 
ENDBRANCH  15  20
ENDBRANCH  12  14
ENDBRANCH   8  12
ENDBRANCH   4   7
ENDBRANCH   2   3
ENDBRANCH   1   2
BRANCH   1  22
ATOM     22  C   UNL A   1      31.599  28.926  26.063  1.00  0.00     0.023 C 
BRANCH  22  23
ATOM     23  C   UNL A   1      32.807  29.850  25.922  1.00  0.00     0.116 C 
BRANCH  23  24
ATOM     24  N   UNL A   1      32.546  31.217  26.347  1.00  0.00    -0.352 N 
ATOM     25  C   UNL A   1      33.266  31.998  27.219  1.00  0.00     0.251 C 
ATOM     26  H   UNL A   1      31.746  31.639  25.958  1.00  0.00     0.163 HD
ATOM     27  O   UNL A   1      32.832  33.100  27.544  1.00  0.00    -0.269 OA
BRANCH  25  28
ATOM     28  C   UNL A   1      34.532  31.488  27.790  1.00  0.00     0.039 A 
ATOM     29  C   UNL A   1      35.599  32.375  27.949  1.00  0.00     0.014 A 
ATOM     30  C   UNL A   1      34.662  30.153  28.183  1.00  0.00     0.014 A 
ATOM     31  C   UNL A   1      36.776  31.935  28.561  1.00  0.00     0.010 A 
ATOM     32  C   UNL A   1      35.807  29.737  28.857  1.00  0.00     0.010 A 
ATOM     33  C   UNL A   1      36.877  30.622  29.050  1.00  0.00    -0.014 A 
BRANCH  33  34
ATOM     34  C   UNL A   1      38.101  30.169  29.763  1.00  0.00     0.031 A 
ATOM     35  C   UNL A   1      38.394  30.662  31.154  1.00  0.00     0.074 A 
ATOM     36  C   UNL A   1      38.968  29.350  29.136  1.00  0.00     0.049 A 
ATOM     37  N   UNL A   1      39.412  30.391  31.930  1.00  0.00    -0.248 NA
ATOM     38  C   UNL A   1      37.431  31.608  31.736  1.00  0.00     0.031 C 
ATOM     39  C   UNL A   1      38.820  28.854  27.764  1.00  0.00     0.029 A 
ATOM     40  N   UNL A   1      40.143  28.787  29.566  1.00  0.00    -0.354 N 
ATOM     41  C   UNL A   1      39.217  31.139  33.087  1.00  0.00     0.074 A 
ATOM     42  C   UNL A   1      38.021  31.925  32.878  1.00  0.00     0.031 C 
ATOM     43  C   UNL A   1      39.848  28.039  27.478  1.00  0.00     0.029 A 
ATOM     44  C   UNL A   1      40.745  27.979  28.628  1.00  0.00     0.049 A 
ATOM     45  H   UNL A   1      40.521  28.947  30.460  1.00  0.00     0.167 HD
ATOM     46  C   UNL A   1      39.954  31.149  34.226  1.00  0.00     0.034 A 
ATOM     47  C   UNL A   1      41.889  27.269  28.689  1.00  0.00     0.034 A 
ATOM     48  C   UNL A   1      41.141  30.349  34.419  1.00  0.00     0.049 A 
ATOM     49  C   UNL A   1      42.686  27.289  29.968  1.00  0.00     0.074 A 
ATOM     50  C   UNL A   1      41.932  30.238  35.549  1.00  0.00     0.029 A 
ATOM     51  N   UNL A   1      41.713  29.529  33.454  1.00  0.00    -0.354 N 
ATOM     52  N   UNL A   1      42.452  27.949  31.079  1.00  0.00    -0.248 NA
ATOM     53  C   UNL A   1      43.890  26.450  30.006  1.00  0.00     0.031 C 
ATOM     54  C   UNL A   1      43.016  29.404  35.246  1.00  0.00     0.029 A 
ATOM     55  C   UNL A   1      42.860  28.930  33.953  1.00  0.00     0.049 A 
ATOM     56  H   UNL A   1      41.356  29.393  32.547  1.00  0.00     0.167 HD
ATOM     57  C   UNL A   1      43.466  27.580  31.959  1.00  0.00     0.074 A 
ATOM     58  C   UNL A   1      44.297  26.624  31.255  1.00  0.00     0.031 C 
ATOM     59  C   UNL A   1      43.689  27.991  33.234  1.00  0.00     0.034 A 
BRANCH  46  60
ATOM     60  C   UNL A   1      39.503  32.070  35.336  1.00  0.00     0.023 A 
ATOM     61  C   UNL A   1      39.966  33.395  35.431  1.00  0.00     0.031 A 
ATOM     62  C   UNL A   1      38.624  31.610  36.333  1.00  0.00     0.131 A 
ATOM     63  C   UNL A   1      39.617  34.184  36.538  1.00  0.00     0.055 A 
ATOM     64  C   UNL A   1      38.212  32.430  37.388  1.00  0.00     0.041 A 
ATOM     65  F   UNL A   1      38.163  30.350  36.311  1.00  0.00    -0.206 F 
ATOM     66  C   UNL A   1      38.722  33.719  37.503  1.00  0.00     0.022 A 
BRANCH  63  67
ATOM     67  S   UNL A   1      40.468  35.768  36.776  1.00  0.00     0.124 S 
ATOM     68  O   UNL A   1      41.822  35.444  36.332  1.00  0.00    -0.237 OA
ATOM     69  O   UNL A   1      39.711  36.666  35.912  1.00  0.00    -0.237 OA
ATOM     70  O   UNL A   1      40.335  36.018  38.209  1.00  0.00    -0.744 OA
ENDBRANCH  63  67
ENDBRANCH  46  60
BRANCH  47  71
ATOM     71  C   UNL A   1      42.349  26.475  27.513  1.00  0.00     0.023 A 
ATOM     72  C   UNL A   1      41.978  25.129  27.359  1.00  0.00     0.031 A 
ATOM     73  C   UNL A   1      43.199  27.041  26.547  1.00  0.00     0.131 A 
ATOM     74  C   UNL A   1      42.494  24.380  26.291  1.00  0.00     0.055 A 
ATOM     75  C   UNL A   1      43.667  26.305  25.457  1.00  0.00     0.041 A 
ATOM     76  F   UNL A   1      43.576  28.325  26.643  1.00  0.00    -0.206 F 
ATOM     77  C   UNL A   1      43.326  24.962  25.332  1.00  0.00     0.022 A 
BRANCH  74  78
ATOM     78  S   UNL A   1      42.127  22.605  26.216  1.00  0.00     0.124 S 
ATOM     79  O   UNL A   1      42.813  22.210  24.991  1.00  0.00    -0.237 OA
ATOM     80  O   UNL A   1      42.713  22.123  27.463  1.00  0.00    -0.237 OA
ATOM     81  O   UNL A   1      40.668  22.561  26.158  1.00  0.00    -0.744 OA
ENDBRANCH  74  78
ENDBRANCH  47  71
BRANCH  59  82
ATOM     82  C   UNL A   1      44.860  27.365  33.956  1.00  0.00     0.023 A 
ATOM     83  C   UNL A   1      46.139  27.948  33.934  1.00  0.00     0.031 A 
ATOM     84  C   UNL A   1      44.699  26.152  34.648  1.00  0.00     0.131 A 
ATOM     85  C   UNL A   1      47.221  27.282  34.528  1.00  0.00     0.055 A 
ATOM     86  C   UNL A   1      45.765  25.528  35.294  1.00  0.00     0.041 A 
ATOM     87  F   UNL A   1      43.500  25.549  34.700  1.00  0.00    -0.206 F 
ATOM     88  C   UNL A   1      47.040  26.083  35.223  1.00  0.00     0.022 A 
BRANCH  85  89
ATOM     89  S   UNL A   1      48.892  27.943  34.282  1.00  0.00     0.124 S 
ATOM     90  O   UNL A   1      49.594  27.441  35.459  1.00  0.00    -0.237 OA
ATOM     91  O   UNL A   1      49.278  27.347  33.008  1.00  0.00    -0.237 OA
ATOM     92  O   UNL A   1      48.688  29.391  34.252  1.00  0.00    -0.744 OA
ENDBRANCH  85  89
ENDBRANCH  59  82
ENDBRANCH  33  34
ENDBRANCH  25  28
ENDBRANCH  23  24
ENDBRANCH  22  23
ENDBRANCH   1  22
TORSDOF 17
ENDMDL
