MODEL 1
REMARK VINA RESULT:     -12.9      0.000      0.000
REMARK SMILES CC(C)Cc1cc2c(cc1Cl)C=C(C(=O)NCCCCNC(=O)c1ccc(-c3c4nc(c(-c5cc(S(=O)(=O)[O-])ccc5F)c5ccc([nH]5)c(-c5cc(S(=O)(=O)[O-])ccc5F)c5nc(c(-c6cc(S(=O)(=O)[O-])ccc6F)c6ccc3[nH]6)C=C5)C=C4)cc1)[C@@H](C(F)(F)F)O2
REMARK SMILES IDX 19 1 18 2 17 3 16 4 14 5 15 6 13 8 5 9 6 10 10 11 7 12 9 13
REMARK SMILES IDX 11 14 8 15 92 16 12 17 87 18 4 19 2 20 1 21 3 22 88 23 89 24
REMARK SMILES IDX 90 25 91 26 20 27 21 28 22 29 23 31 24 32 25 33 86 34 26 35
REMARK SMILES IDX 85 36 27 37 28 38 29 39 79 40 30 41 84 42 78 43 80 44 31 45
REMARK SMILES IDX 83 46 77 47 76 48 32 50 64 51 44 52 63 53 45 54 48 55 62 56
REMARK SMILES IDX 81 57 46 58 47 59 61 61 82 62 49 63 33 64 34 65 42 66 35 67
REMARK SMILES IDX 41 68 43 69 40 70 36 71 37 72 38 73 39 74 65 75 66 76 74 77
REMARK SMILES IDX 67 78 73 79 75 80 72 81 68 82 69 83 70 84 71 85 50 86 51 87
REMARK SMILES IDX 59 88 52 89 58 90 60 91 57 92 53 93 54 94 55 95 56 96
REMARK H PARENT 16 7 21 30 80 49 48 60
REMARK Flexibility Score: inf
ROOT
ATOM      1  C   UNL A   1      31.660  29.255  27.217  1.00  0.00     0.023 C 
ENDROOT
BRANCH   1   2
ATOM      2  C   UNL A   1      31.941  27.818  26.768  1.00  0.00     0.023 C 
BRANCH   2   3
ATOM      3  C   UNL A   1      33.412  27.524  26.479  1.00  0.00     0.116 C 
BRANCH   3   4
ATOM      4  N   UNL A   1      33.702  27.475  25.055  1.00  0.00    -0.352 N 
ATOM      5  C   UNL A   1      33.634  26.556  24.061  1.00  0.00     0.251 C 
ATOM      6  O   UNL A   1      33.974  26.954  22.943  1.00  0.00    -0.270 OA
ATOM      7  H   UNL A   1      34.036  28.340  24.725  1.00  0.00     0.163 HD
BRANCH   5   8
ATOM      8  C   UNL A   1      33.205  25.135  24.232  1.00  0.00     0.067 C 
ATOM      9  C   UNL A   1      33.216  20.151  25.093  1.00  0.00    -0.025 A 
ATOM     10  C   UNL A   1      32.233  21.148  25.028  1.00  0.00     0.052 A 
ATOM     11  C   UNL A   1      34.533  20.502  24.758  1.00  0.00     0.045 A 
ATOM     12  C   UNL A   1      32.566  22.467  24.740  1.00  0.00     0.128 A 
ATOM     13  C   UNL A   1      34.856  21.825  24.413  1.00  0.00     0.032 A 
ATOM     14  Cl  UNL A   1      35.820  19.349  24.782  1.00  0.00    -0.084 Cl
ATOM     15  C   UNL A   1      33.874  22.820  24.433  1.00  0.00     0.019 A 
ATOM     16  O   UNL A   1      31.550  23.361  24.868  1.00  0.00    -0.475 OA
ATOM     17  C   UNL A   1      34.197  24.224  24.223  1.00  0.00     0.025 C 
ATOM     18  C   UNL A   1      31.771  24.711  24.387  1.00  0.00     0.314 C 
BRANCH   9  19
ATOM     19  C   UNL A   1      32.798  18.788  25.599  1.00  0.00     0.040 C 
BRANCH  19  20
ATOM     20  C   UNL A   1      32.465  17.785  24.466  1.00  0.00    -0.013 C 
ATOM     21  C   UNL A   1      32.483  18.415  23.068  1.00  0.00     0.008 C 
ATOM     22  C   UNL A   1      33.464  16.627  24.496  1.00  0.00     0.008 C 
ENDBRANCH  19  20
ENDBRANCH   9  19
BRANCH  18  23
ATOM     23  C   UNL A   1      30.948  24.884  23.100  1.00  0.00     0.429 C 
ATOM     24  F   UNL A   1      30.035  23.885  22.992  1.00  0.00    -0.167 F 
ATOM     25  F   UNL A   1      30.255  26.043  23.066  1.00  0.00    -0.167 F 
ATOM     26  F   UNL A   1      31.718  24.846  21.989  1.00  0.00    -0.167 F 
ENDBRANCH  18  23
ENDBRANCH   5   8
ENDBRANCH   3   4
ENDBRANCH   2   3
ENDBRANCH   1   2
BRANCH   1  27
ATOM     27  C   UNL A   1      32.410  30.341  26.448  1.00  0.00     0.116 C 
BRANCH  27  28
ATOM     28  N   UNL A   1      32.139  31.702  26.896  1.00  0.00    -0.352 N 
ATOM     29  C   UNL A   1      33.004  32.553  27.553  1.00  0.00     0.251 C 
ATOM     30  H   UNL A   1      31.238  32.053  26.707  1.00  0.00     0.163 HD
ATOM     31  O   UNL A   1      32.624  33.650  27.949  1.00  0.00    -0.269 OA
BRANCH  29  32
ATOM     32  C   UNL A   1      34.377  32.078  27.828  1.00  0.00     0.039 A 
ATOM     33  C   UNL A   1      34.592  30.743  28.169  1.00  0.00     0.014 A 
ATOM     34  C   UNL A   1      35.424  33.002  27.877  1.00  0.00     0.014 A 
ATOM     35  C   UNL A   1      35.795  30.381  28.762  1.00  0.00     0.010 A 
ATOM     36  C   UNL A   1      36.665  32.608  28.386  1.00  0.00     0.010 A 
ATOM     37  C   UNL A   1      36.838  31.314  28.901  1.00  0.00    -0.014 A 
BRANCH  37  38
ATOM     38  C   UNL A   1      38.073  30.902  29.623  1.00  0.00     0.031 A 
ATOM     39  C   UNL A   1      38.313  31.315  31.051  1.00  0.00     0.074 A 
ATOM     40  C   UNL A   1      38.931  30.062  29.012  1.00  0.00     0.049 A 
ATOM     41  N   UNL A   1      39.265  30.937  31.866  1.00  0.00    -0.248 NA
ATOM     42  C   UNL A   1      37.371  32.277  31.646  1.00  0.00     0.031 C 
ATOM     43  C   UNL A   1      38.800  29.604  27.629  1.00  0.00     0.029 A 
ATOM     44  N   UNL A   1      40.044  29.409  29.477  1.00  0.00    -0.354 N 
ATOM     45  C   UNL A   1      39.050  31.623  33.057  1.00  0.00     0.074 A 
ATOM     46  C   UNL A   1      37.895  32.468  32.849  1.00  0.00     0.031 C 
ATOM     47  C   UNL A   1      39.741  28.684  27.382  1.00  0.00     0.029 A 
ATOM     48  C   UNL A   1      40.583  28.530  28.566  1.00  0.00     0.049 A 
ATOM     49  H   UNL A   1      40.421  29.555  30.375  1.00  0.00     0.167 HD
ATOM     50  C   UNL A   1      39.740  31.542  34.220  1.00  0.00     0.034 A 
ATOM     51  C   UNL A   1      41.629  27.683  28.670  1.00  0.00     0.034 A 
ATOM     52  C   UNL A   1      40.878  30.679  34.421  1.00  0.00     0.049 A 
ATOM     53  C   UNL A   1      42.365  27.594  29.980  1.00  0.00     0.074 A 
ATOM     54  C   UNL A   1      41.644  30.526  35.563  1.00  0.00     0.029 A 
ATOM     55  N   UNL A   1      41.404  29.816  33.469  1.00  0.00    -0.354 N 
ATOM     56  N   UNL A   1      42.123  28.224  31.105  1.00  0.00    -0.248 NA
ATOM     57  C   UNL A   1      43.510  26.675  30.043  1.00  0.00     0.031 C 
ATOM     58  C   UNL A   1      42.658  29.605  35.290  1.00  0.00     0.029 A 
ATOM     59  C   UNL A   1      42.488  29.135  33.998  1.00  0.00     0.049 A 
ATOM     60  H   UNL A   1      41.057  29.704  32.555  1.00  0.00     0.167 HD
ATOM     61  C   UNL A   1      43.072  27.766  32.013  1.00  0.00     0.074 A 
ATOM     62  C   UNL A   1      43.872  26.782  31.316  1.00  0.00     0.031 C 
ATOM     63  C   UNL A   1      43.267  28.137  33.304  1.00  0.00     0.034 A 
BRANCH  50  64
ATOM     64  C   UNL A   1      39.295  32.391  35.385  1.00  0.00     0.023 A 
ATOM     65  C   UNL A   1      39.772  33.709  35.523  1.00  0.00     0.031 A 
ATOM     66  C   UNL A   1      38.499  31.861  36.417  1.00  0.00     0.131 A 
ATOM     67  C   UNL A   1      39.475  34.440  36.681  1.00  0.00     0.055 A 
ATOM     68  C   UNL A   1      38.176  32.607  37.552  1.00  0.00     0.041 A 
ATOM     69  F   UNL A   1      38.016  30.611  36.331  1.00  0.00    -0.206 F 
ATOM     70  C   UNL A   1      38.676  33.899  37.693  1.00  0.00     0.022 A 
BRANCH  67  71
ATOM     71  S   UNL A   1      40.163  36.096  36.948  1.00  0.00     0.124 S 
ATOM     72  O   UNL A   1      41.554  35.792  37.280  1.00  0.00    -0.237 OA
ATOM     73  O   UNL A   1      39.957  36.729  35.649  1.00  0.00    -0.237 OA
ATOM     74  O   UNL A   1      39.367  36.634  38.045  1.00  0.00    -0.744 OA
ENDBRANCH  67  71
ENDBRANCH  50  64
BRANCH  51  75
ATOM     75  C   UNL A   1      41.968  26.811  27.508  1.00  0.00     0.023 A 
ATOM     76  C   UNL A   1      41.500  25.485  27.439  1.00  0.00     0.031 A 
ATOM     77  C   UNL A   1      42.868  27.245  26.521  1.00  0.00     0.131 A 
ATOM     78  C   UNL A   1      41.996  24.620  26.456  1.00  0.00     0.055 A 
ATOM     79  C   UNL A   1      43.299  26.401  25.495  1.00  0.00     0.041 A 
ATOM     80  F   UNL A   1      43.354  28.495  26.551  1.00  0.00    -0.206 F 
ATOM     81  C   UNL A   1      42.880  25.075  25.473  1.00  0.00     0.022 A 
BRANCH  78  82
ATOM     82  S   UNL A   1      41.635  22.843  26.520  1.00  0.00     0.124 S 
ATOM     83  O   UNL A   1      42.215  22.462  27.803  1.00  0.00    -0.237 OA
ATOM     84  O   UNL A   1      40.175  22.832  26.457  1.00  0.00    -0.237 OA
ATOM     85  O   UNL A   1      42.307  22.313  25.338  1.00  0.00    -0.744 OA
ENDBRANCH  78  82
ENDBRANCH  51  75
BRANCH  63  86
ATOM     86  C   UNL A   1      44.383  27.482  34.080  1.00  0.00     0.023 A 
ATOM     87  C   UNL A   1      44.099  26.421  34.962  1.00  0.00     0.031 A 
ATOM     88  C   UNL A   1      45.691  27.996  34.057  1.00  0.00     0.131 A 
ATOM     89  C   UNL A   1      45.102  25.927  35.804  1.00  0.00     0.055 A 
ATOM     90  C   UNL A   1      46.698  27.472  34.869  1.00  0.00     0.041 A 
ATOM     91  F   UNL A   1      46.008  29.016  33.243  1.00  0.00    -0.206 F 
ATOM     92  C   UNL A   1      46.402  26.442  35.757  1.00  0.00     0.022 A 
BRANCH  89  93
ATOM     93  S   UNL A   1      44.739  24.661  37.052  1.00  0.00     0.124 S 
ATOM     94  O   UNL A   1      45.658  25.026  38.126  1.00  0.00    -0.237 OA
ATOM     95  O   UNL A   1      43.325  24.900  37.333  1.00  0.00    -0.237 OA
ATOM     96  O   UNL A   1      45.037  23.403  36.376  1.00  0.00    -0.744 OA
ENDBRANCH  89  93
ENDBRANCH  63  86
ENDBRANCH  37  38
ENDBRANCH  29  32
ENDBRANCH  27  28
ENDBRANCH   1  27
TORSDOF 17
ENDMDL
MODEL 2
REMARK VINA RESULT:     -12.8      1.425      1.632
REMARK SMILES CC(C)Cc1cc2c(cc1Cl)C=C(C(=O)NCCCCNC(=O)c1ccc(-c3c4nc(c(-c5cc(S(=O)(=O)[O-])ccc5F)c5ccc([nH]5)c(-c5cc(S(=O)(=O)[O-])ccc5F)c5nc(c(-c6cc(S(=O)(=O)[O-])ccc6F)c6ccc3[nH]6)C=C5)C=C4)cc1)[C@@H](C(F)(F)F)O2
REMARK SMILES IDX 19 1 18 2 17 3 16 4 14 5 15 6 13 8 5 9 6 10 10 11 7 12 9 13
REMARK SMILES IDX 11 14 8 15 92 16 12 17 87 18 4 19 2 20 1 21 3 22 88 23 89 24
REMARK SMILES IDX 90 25 91 26 20 27 21 28 22 29 23 31 24 32 25 33 86 34 26 35
REMARK SMILES IDX 85 36 27 37 28 38 29 39 79 40 30 41 84 42 78 43 80 44 31 45
REMARK SMILES IDX 83 46 77 47 76 48 32 50 64 51 44 52 63 53 45 54 48 55 62 56
REMARK SMILES IDX 81 57 46 58 47 59 61 61 82 62 49 63 33 64 34 65 42 66 35 67
REMARK SMILES IDX 41 68 43 69 40 70 36 71 37 72 38 73 39 74 65 75 66 76 74 77
REMARK SMILES IDX 67 78 73 79 75 80 72 81 68 82 69 83 70 84 71 85 50 86 51 87
REMARK SMILES IDX 59 88 52 89 58 90 60 91 57 92 53 93 54 94 55 95 56 96
REMARK H PARENT 16 7 21 30 80 49 48 60
REMARK Flexibility Score: inf
ROOT
ATOM      1  C   UNL A   1      31.651  29.745  26.605  1.00  0.00     0.023 C 
ENDROOT
BRANCH   1   2
ATOM      2  C   UNL A   1      31.639  28.540  27.549  1.00  0.00     0.023 C 
BRANCH   2   3
ATOM      3  C   UNL A   1      31.793  27.190  26.850  1.00  0.00     0.116 C 
BRANCH   3   4
ATOM      4  N   UNL A   1      32.698  27.251  25.714  1.00  0.00    -0.352 N 
ATOM      5  C   UNL A   1      33.184  26.390  24.787  1.00  0.00     0.251 C 
ATOM      6  O   UNL A   1      33.948  26.881  23.951  1.00  0.00    -0.270 OA
ATOM      7  H   UNL A   1      33.052  28.159  25.583  1.00  0.00     0.163 HD
BRANCH   5   8
ATOM      8  C   UNL A   1      32.876  24.929  24.726  1.00  0.00     0.067 C 
ATOM      9  C   UNL A   1      33.275  19.891  24.928  1.00  0.00    -0.025 A 
ATOM     10  C   UNL A   1      32.213  20.805  24.891  1.00  0.00     0.052 A 
ATOM     11  C   UNL A   1      34.578  20.390  24.780  1.00  0.00     0.045 A 
ATOM     12  C   UNL A   1      32.446  22.174  24.813  1.00  0.00     0.128 A 
ATOM     13  C   UNL A   1      34.806  21.769  24.644  1.00  0.00     0.032 A 
ATOM     14  Cl  UNL A   1      35.959  19.351  24.787  1.00  0.00    -0.084 Cl
ATOM     15  C   UNL A   1      33.737  22.669  24.693  1.00  0.00     0.019 A 
ATOM     16  O   UNL A   1      31.343  22.956  24.951  1.00  0.00    -0.475 OA
ATOM     17  C   UNL A   1      33.945  24.111  24.701  1.00  0.00     0.025 C 
ATOM     18  C   UNL A   1      31.480  24.373  24.676  1.00  0.00     0.314 C 
BRANCH   9  19
ATOM     19  C   UNL A   1      32.942  18.442  25.205  1.00  0.00     0.040 C 
BRANCH  19  20
ATOM     20  C   UNL A   1      32.684  17.611  23.924  1.00  0.00    -0.013 C 
ATOM     21  C   UNL A   1      32.460  18.470  22.673  1.00  0.00     0.008 C 
ATOM     22  C   UNL A   1      33.868  16.676  23.671  1.00  0.00     0.008 C 
ENDBRANCH  19  20
ENDBRANCH   9  19
BRANCH  18  23
ATOM     23  C   UNL A   1      30.765  24.656  23.343  1.00  0.00     0.429 C 
ATOM     24  F   UNL A   1      30.033  23.576  22.968  1.00  0.00    -0.167 F 
ATOM     25  F   UNL A   1      29.907  25.697  23.413  1.00  0.00    -0.167 F 
ATOM     26  F   UNL A   1      31.635  24.921  22.341  1.00  0.00    -0.167 F 
ENDBRANCH  18  23
ENDBRANCH   5   8
ENDBRANCH   3   4
ENDBRANCH   2   3
ENDBRANCH   1   2
BRANCH   1  27
ATOM     27  C   UNL A   1      32.923  30.590  26.634  1.00  0.00     0.116 C 
BRANCH  27  28
ATOM     28  N   UNL A   1      32.754  31.929  27.186  1.00  0.00    -0.352 N 
ATOM     29  C   UNL A   1      33.687  32.668  27.884  1.00  0.00     0.251 C 
ATOM     30  H   UNL A   1      31.876  32.352  27.045  1.00  0.00     0.163 HD
ATOM     31  O   UNL A   1      33.390  33.756  28.368  1.00  0.00    -0.269 OA
BRANCH  29  32
ATOM     32  C   UNL A   1      35.029  32.083  28.091  1.00  0.00     0.039 A 
ATOM     33  C   UNL A   1      35.151  30.744  28.459  1.00  0.00     0.014 A 
ATOM     34  C   UNL A   1      36.152  32.914  28.050  1.00  0.00     0.014 A 
ATOM     35  C   UNL A   1      36.353  30.294  28.990  1.00  0.00     0.010 A 
ATOM     36  C   UNL A   1      37.384  32.427  28.496  1.00  0.00     0.010 A 
ATOM     37  C   UNL A   1      37.478  31.136  29.039  1.00  0.00    -0.014 A 
BRANCH  37  38
ATOM     38  C   UNL A   1      38.716  30.637  29.698  1.00  0.00     0.031 A 
ATOM     39  C   UNL A   1      39.052  31.023  31.115  1.00  0.00     0.074 A 
ATOM     40  C   UNL A   1      39.485  29.746  29.043  1.00  0.00     0.049 A 
ATOM     41  N   UNL A   1      40.015  30.576  31.881  1.00  0.00    -0.248 NA
ATOM     42  C   UNL A   1      38.206  32.042  31.758  1.00  0.00     0.031 C 
ATOM     43  C   UNL A   1      39.258  29.308  27.666  1.00  0.00     0.029 A 
ATOM     44  N   UNL A   1      40.573  29.016  29.451  1.00  0.00    -0.354 N 
ATOM     45  C   UNL A   1      39.904  31.266  33.084  1.00  0.00     0.074 A 
ATOM     46  C   UNL A   1      38.800  32.188  32.936  1.00  0.00     0.031 C 
ATOM     47  C   UNL A   1      40.122  28.328  27.370  1.00  0.00     0.029 A 
ATOM     48  C   UNL A   1      41.007  28.110  28.511  1.00  0.00     0.049 A 
ATOM     49  H   UNL A   1      41.001  29.131  30.330  1.00  0.00     0.167 HD
ATOM     50  C   UNL A   1      40.642  31.130  34.212  1.00  0.00     0.034 A 
ATOM     51  C   UNL A   1      41.998  27.194  28.561  1.00  0.00     0.034 A 
ATOM     52  C   UNL A   1      41.728  30.192  34.354  1.00  0.00     0.049 A 
ATOM     53  C   UNL A   1      42.788  27.046  29.833  1.00  0.00     0.074 A 
ATOM     54  C   UNL A   1      42.536  29.979  35.456  1.00  0.00     0.029 A 
ATOM     55  N   UNL A   1      42.147  29.302  33.374  1.00  0.00    -0.354 N 
ATOM     56  N   UNL A   1      42.644  27.683  30.971  1.00  0.00    -0.248 NA
ATOM     57  C   UNL A   1      43.870  26.052  29.838  1.00  0.00     0.031 C 
ATOM     58  C   UNL A   1      43.470  28.994  35.131  1.00  0.00     0.029 A 
ATOM     59  C   UNL A   1      43.208  28.546  33.847  1.00  0.00     0.049 A 
ATOM     60  H   UNL A   1      41.750  29.221  32.477  1.00  0.00     0.167 HD
ATOM     61  C   UNL A   1      43.603  27.156  31.831  1.00  0.00     0.074 A 
ATOM     62  C   UNL A   1      44.300  26.125  31.091  1.00  0.00     0.031 C 
ATOM     63  C   UNL A   1      43.884  27.503  33.112  1.00  0.00     0.034 A 
BRANCH  50  64
ATOM     64  C   UNL A   1      40.311  31.999  35.401  1.00  0.00     0.023 A 
ATOM     65  C   UNL A   1      39.266  31.638  36.272  1.00  0.00     0.031 A 
ATOM     66  C   UNL A   1      40.945  33.239  35.601  1.00  0.00     0.131 A 
ATOM     67  C   UNL A   1      38.866  32.520  37.284  1.00  0.00     0.055 A 
ATOM     68  C   UNL A   1      40.567  34.098  36.634  1.00  0.00     0.041 A 
ATOM     69  F   UNL A   1      41.950  33.628  34.800  1.00  0.00    -0.206 F 
ATOM     70  C   UNL A   1      39.514  33.745  37.474  1.00  0.00     0.022 A 
BRANCH  67  71
ATOM     71  S   UNL A   1      37.452  32.142  38.355  1.00  0.00     0.124 S 
ATOM     72  O   UNL A   1      37.253  30.718  38.095  1.00  0.00    -0.237 OA
ATOM     73  O   UNL A   1      37.973  32.468  39.679  1.00  0.00    -0.237 OA
ATOM     74  O   UNL A   1      36.394  33.017  37.862  1.00  0.00    -0.744 OA
ENDBRANCH  67  71
ENDBRANCH  50  64
BRANCH  51  75
ATOM     75  C   UNL A   1      42.221  26.309  27.381  1.00  0.00     0.023 A 
ATOM     76  C   UNL A   1      41.724  24.993  27.361  1.00  0.00     0.031 A 
ATOM     77  C   UNL A   1      43.041  26.721  26.318  1.00  0.00     0.131 A 
ATOM     78  C   UNL A   1      42.119  24.114  26.345  1.00  0.00     0.055 A 
ATOM     79  C   UNL A   1      43.369  25.864  25.265  1.00  0.00     0.041 A 
ATOM     80  F   UNL A   1      43.552  27.962  26.298  1.00  0.00    -0.206 F 
ATOM     81  C   UNL A   1      42.925  24.546  25.288  1.00  0.00     0.022 A 
BRANCH  78  82
ATOM     82  S   UNL A   1      41.732  22.344  26.451  1.00  0.00     0.124 S 
ATOM     83  O   UNL A   1      42.219  22.006  27.784  1.00  0.00    -0.237 OA
ATOM     84  O   UNL A   1      40.280  22.345  26.290  1.00  0.00    -0.237 OA
ATOM     85  O   UNL A   1      42.475  21.761  25.338  1.00  0.00    -0.744 OA
ENDBRANCH  78  82
ENDBRANCH  51  75
BRANCH  63  86
ATOM     86  C   UNL A   1      44.989  26.770  33.830  1.00  0.00     0.023 A 
ATOM     87  C   UNL A   1      44.679  25.699  34.692  1.00  0.00     0.031 A 
ATOM     88  C   UNL A   1      46.321  27.216  33.776  1.00  0.00     0.131 A 
ATOM     89  C   UNL A   1      45.683  25.129  35.485  1.00  0.00     0.055 A 
ATOM     90  C   UNL A   1      47.325  26.617  34.538  1.00  0.00     0.041 A 
ATOM     91  F   UNL A   1      46.664  28.242  32.980  1.00  0.00    -0.206 F 
ATOM     92  C   UNL A   1      47.006  25.578  35.407  1.00  0.00     0.022 A 
BRANCH  89  93
ATOM     93  S   UNL A   1      45.296  23.848  36.709  1.00  0.00     0.124 S 
ATOM     94  O   UNL A   1      44.379  24.552  37.601  1.00  0.00    -0.237 OA
ATOM     95  O   UNL A   1      44.686  22.806  35.885  1.00  0.00    -0.237 OA
ATOM     96  O   UNL A   1      46.592  23.508  37.287  1.00  0.00    -0.744 OA
ENDBRANCH  89  93
ENDBRANCH  63  86
ENDBRANCH  37  38
ENDBRANCH  29  32
ENDBRANCH  27  28
ENDBRANCH   1  27
TORSDOF 17
ENDMDL
MODEL 3
REMARK VINA RESULT:     -12.7      5.188     10.337
REMARK SMILES CC(C)Cc1cc2c(cc1Cl)C=C(C(=O)NCCCCNC(=O)c1ccc(-c3c4nc(c(-c5cc(S(=O)(=O)[O-])ccc5F)c5ccc([nH]5)c(-c5cc(S(=O)(=O)[O-])ccc5F)c5nc(c(-c6cc(S(=O)(=O)[O-])ccc6F)c6ccc3[nH]6)C=C5)C=C4)cc1)[C@@H](C(F)(F)F)O2
REMARK SMILES IDX 19 1 18 2 17 3 16 4 14 5 15 6 13 8 5 9 6 10 10 11 7 12 9 13
REMARK SMILES IDX 11 14 8 15 92 16 12 17 87 18 4 19 2 20 1 21 3 22 88 23 89 24
REMARK SMILES IDX 90 25 91 26 20 27 21 28 22 29 23 31 24 32 25 33 86 34 26 35
REMARK SMILES IDX 85 36 27 37 28 38 29 39 79 40 30 41 84 42 78 43 80 44 31 45
REMARK SMILES IDX 83 46 77 47 76 48 32 50 64 51 44 52 63 53 45 54 48 55 62 56
REMARK SMILES IDX 81 57 46 58 47 59 61 61 82 62 49 63 33 64 34 65 42 66 35 67
REMARK SMILES IDX 41 68 43 69 40 70 36 71 37 72 38 73 39 74 65 75 66 76 74 77
REMARK SMILES IDX 67 78 73 79 75 80 72 81 68 82 69 83 70 84 71 85 50 86 51 87
REMARK SMILES IDX 59 88 52 89 58 90 60 91 57 92 53 93 54 94 55 95 56 96
REMARK H PARENT 16 7 21 30 80 49 48 60
REMARK Flexibility Score: inf
ROOT
ATOM      1  C   UNL A   1      36.827  21.810  24.206  1.00  0.00     0.023 C 
ENDROOT
BRANCH   1   2
ATOM      2  C   UNL A   1      36.283  23.220  23.962  1.00  0.00     0.023 C 
BRANCH   2   3
ATOM      3  C   UNL A   1      36.149  24.071  25.223  1.00  0.00     0.116 C 
BRANCH   3   4
ATOM      4  N   UNL A   1      35.096  23.597  26.107  1.00  0.00    -0.352 N 
ATOM      5  C   UNL A   1      33.767  23.806  26.266  1.00  0.00     0.251 C 
ATOM      6  O   UNL A   1      33.228  23.157  27.168  1.00  0.00    -0.270 OA
ATOM      7  H   UNL A   1      35.441  22.951  26.765  1.00  0.00     0.163 HD
BRANCH   5   8
ATOM      8  C   UNL A   1      32.943  24.755  25.457  1.00  0.00     0.067 C 
ATOM      9  C   UNL A   1      30.809  28.961  23.631  1.00  0.00    -0.025 A 
ATOM     10  C   UNL A   1      30.954  27.642  23.181  1.00  0.00     0.052 A 
ATOM     11  C   UNL A   1      31.241  29.264  24.932  1.00  0.00     0.045 A 
ATOM     12  C   UNL A   1      31.598  26.684  23.957  1.00  0.00     0.128 A 
ATOM     13  C   UNL A   1      31.840  28.279  25.734  1.00  0.00     0.032 A 
ATOM     14  Cl  UNL A   1      31.089  30.851  25.597  1.00  0.00    -0.084 Cl
ATOM     15  C   UNL A   1      32.048  26.990  25.234  1.00  0.00     0.019 A 
ATOM     16  O   UNL A   1      31.817  25.493  23.341  1.00  0.00    -0.475 OA
ATOM     17  C   UNL A   1      32.794  25.986  25.980  1.00  0.00     0.025 C 
ATOM     18  C   UNL A   1      32.294  24.389  24.151  1.00  0.00     0.314 C 
BRANCH   9  19
ATOM     19  C   UNL A   1      30.270  29.980  22.652  1.00  0.00     0.040 C 
BRANCH  19  20
ATOM     20  C   UNL A   1      28.736  30.173  22.742  1.00  0.00    -0.013 C 
ATOM     21  C   UNL A   1      28.322  31.385  23.585  1.00  0.00     0.008 C 
ATOM     22  C   UNL A   1      28.155  30.332  21.336  1.00  0.00     0.008 C 
ENDBRANCH  19  20
ENDBRANCH   9  19
BRANCH  18  23
ATOM     23  C   UNL A   1      31.129  23.398  24.313  1.00  0.00     0.429 C 
ATOM     24  F   UNL A   1      30.454  23.654  25.462  1.00  0.00    -0.167 F 
ATOM     25  F   UNL A   1      30.226  23.474  23.311  1.00  0.00    -0.167 F 
ATOM     26  F   UNL A   1      31.552  22.114  24.372  1.00  0.00    -0.167 F 
ENDBRANCH  18  23
ENDBRANCH   5   8
ENDBRANCH   3   4
ENDBRANCH   2   3
ENDBRANCH   1   2
BRANCH   1  27
ATOM     27  C   UNL A   1      37.468  21.581  25.573  1.00  0.00     0.116 C 
BRANCH  27  28
ATOM     28  N   UNL A   1      38.599  20.660  25.570  1.00  0.00    -0.352 N 
ATOM     29  C   UNL A   1      39.846  20.867  26.124  1.00  0.00     0.251 C 
ATOM     30  H   UNL A   1      38.456  19.794  25.124  1.00  0.00     0.163 HD
ATOM     31  O   UNL A   1      40.740  20.039  25.981  1.00  0.00    -0.269 OA
BRANCH  29  32
ATOM     32  C   UNL A   1      40.093  22.141  26.832  1.00  0.00     0.039 A 
ATOM     33  C   UNL A   1      39.600  23.334  26.303  1.00  0.00     0.014 A 
ATOM     34  C   UNL A   1      40.935  22.153  27.947  1.00  0.00     0.014 A 
ATOM     35  C   UNL A   1      40.118  24.540  26.756  1.00  0.00     0.010 A 
ATOM     36  C   UNL A   1      41.379  23.375  28.461  1.00  0.00     0.010 A 
ATOM     37  C   UNL A   1      41.033  24.576  27.823  1.00  0.00    -0.014 A 
BRANCH  37  38
ATOM     38  C   UNL A   1      41.626  25.884  28.213  1.00  0.00     0.031 A 
ATOM     39  C   UNL A   1      43.000  26.285  27.744  1.00  0.00     0.074 A 
ATOM     40  C   UNL A   1      40.872  26.757  28.909  1.00  0.00     0.049 A 
ATOM     41  N   UNL A   1      43.611  27.435  27.879  1.00  0.00    -0.248 NA
ATOM     42  C   UNL A   1      43.797  25.270  27.035  1.00  0.00     0.031 C 
ATOM     43  C   UNL A   1      39.531  26.471  29.420  1.00  0.00     0.029 A 
ATOM     44  N   UNL A   1      41.094  28.063  29.265  1.00  0.00    -0.354 N 
ATOM     45  C   UNL A   1      44.863  27.279  27.292  1.00  0.00     0.074 A 
ATOM     46  C   UNL A   1      44.939  25.911  26.829  1.00  0.00     0.031 C 
ATOM     47  C   UNL A   1      39.017  27.589  29.948  1.00  0.00     0.029 A 
ATOM     48  C   UNL A   1      40.011  28.656  29.873  1.00  0.00     0.049 A 
ATOM     49  H   UNL A   1      41.945  28.530  29.101  1.00  0.00     0.167 HD
ATOM     50  C   UNL A   1      45.848  28.196  27.139  1.00  0.00     0.034 A 
ATOM     51  C   UNL A   1      39.829  29.919  30.312  1.00  0.00     0.034 A 
ATOM     52  C   UNL A   1      45.751  29.562  27.588  1.00  0.00     0.049 A 
ATOM     53  C   UNL A   1      40.930  30.925  30.109  1.00  0.00     0.074 A 
ATOM     54  C   UNL A   1      46.696  30.568  27.479  1.00  0.00     0.029 A 
ATOM     55  N   UNL A   1      44.646  30.121  28.214  1.00  0.00    -0.354 N 
ATOM     56  N   UNL A   1      42.092  30.768  29.520  1.00  0.00    -0.248 NA
ATOM     57  C   UNL A   1      40.699  32.284  30.619  1.00  0.00     0.031 C 
ATOM     58  C   UNL A   1      46.181  31.720  28.077  1.00  0.00     0.029 A 
ATOM     59  C   UNL A   1      44.890  31.454  28.504  1.00  0.00     0.049 A 
ATOM     60  H   UNL A   1      43.812  29.641  28.422  1.00  0.00     0.167 HD
ATOM     61  C   UNL A   1      42.722  32.007  29.573  1.00  0.00     0.074 A 
ATOM     62  C   UNL A   1      41.798  32.913  30.223  1.00  0.00     0.031 C 
ATOM     63  C   UNL A   1      43.956  32.358  29.131  1.00  0.00     0.034 A 
BRANCH  50  64
ATOM     64  C   UNL A   1      47.124  27.777  26.450  1.00  0.00     0.023 A 
ATOM     65  C   UNL A   1      47.274  27.968  25.063  1.00  0.00     0.031 A 
ATOM     66  C   UNL A   1      48.135  27.082  27.139  1.00  0.00     0.131 A 
ATOM     67  C   UNL A   1      48.394  27.444  24.405  1.00  0.00     0.055 A 
ATOM     68  C   UNL A   1      49.267  26.594  26.484  1.00  0.00     0.041 A 
ATOM     69  F   UNL A   1      48.041  26.878  28.463  1.00  0.00    -0.206 F 
ATOM     70  C   UNL A   1      49.394  26.763  25.108  1.00  0.00     0.022 A 
BRANCH  67  71
ATOM     71  S   UNL A   1      48.570  27.569  22.604  1.00  0.00     0.124 S 
ATOM     72  O   UNL A   1      48.633  26.162  22.212  1.00  0.00    -0.237 OA
ATOM     73  O   UNL A   1      47.346  28.267  22.224  1.00  0.00    -0.237 OA
ATOM     74  O   UNL A   1      49.806  28.320  22.423  1.00  0.00    -0.744 OA
ENDBRANCH  67  71
ENDBRANCH  50  64
BRANCH  51  75
ATOM     75  C   UNL A   1      38.515  30.292  30.911  1.00  0.00     0.023 A 
ATOM     76  C   UNL A   1      37.511  30.896  30.131  1.00  0.00     0.031 A 
ATOM     77  C   UNL A   1      38.293  30.170  32.292  1.00  0.00     0.131 A 
ATOM     78  C   UNL A   1      36.372  31.427  30.749  1.00  0.00     0.055 A 
ATOM     79  C   UNL A   1      37.120  30.630  32.894  1.00  0.00     0.041 A 
ATOM     80  F   UNL A   1      39.226  29.614  33.081  1.00  0.00    -0.206 F 
ATOM     81  C   UNL A   1      36.163  31.282  32.124  1.00  0.00     0.022 A 
BRANCH  78  82
ATOM     82  S   UNL A   1      35.209  32.460  29.815  1.00  0.00     0.124 S 
ATOM     83  O   UNL A   1      34.785  31.554  28.752  1.00  0.00    -0.237 OA
ATOM     84  O   UNL A   1      34.199  32.763  30.827  1.00  0.00    -0.237 OA
ATOM     85  O   UNL A   1      36.020  33.597  29.393  1.00  0.00    -0.744 OA
ENDBRANCH  78  82
ENDBRANCH  51  75
BRANCH  63  86
ATOM     86  C   UNL A   1      44.407  33.785  29.316  1.00  0.00     0.023 A 
ATOM     87  C   UNL A   1      43.973  34.782  28.420  1.00  0.00     0.031 A 
ATOM     88  C   UNL A   1      45.371  34.130  30.279  1.00  0.00     0.131 A 
ATOM     89  C   UNL A   1      44.521  36.069  28.490  1.00  0.00     0.055 A 
ATOM     90  C   UNL A   1      45.885  35.425  30.370  1.00  0.00     0.041 A 
ATOM     91  F   UNL A   1      45.827  33.212  31.146  1.00  0.00    -0.206 F 
ATOM     92  C   UNL A   1      45.470  36.397  29.465  1.00  0.00     0.022 A 
BRANCH  89  93
ATOM     93  S   UNL A   1      44.093  37.337  27.266  1.00  0.00     0.124 S 
ATOM     94  O   UNL A   1      45.363  37.522  26.569  1.00  0.00    -0.237 OA
ATOM     95  O   UNL A   1      43.046  36.677  26.489  1.00  0.00    -0.237 OA
ATOM     96  O   UNL A   1      43.653  38.471  28.071  1.00  0.00    -0.744 OA
ENDBRANCH  89  93
ENDBRANCH  63  86
ENDBRANCH  37  38
ENDBRANCH  29  32
ENDBRANCH  27  28
ENDBRANCH   1  27
TORSDOF 17
ENDMDL
