MODEL 1
REMARK VINA RESULT:     -13.3      0.000      0.000
REMARK SMILES O=C(CC1(C(=O)NCCCCNC(=O)c2ccc(-c3c4nc(c(-c5cc(S(=O)(=O)[O-])ccc5F)c5ccc([nH]5)c(-c5cc(S(=O)(=O)[O-])ccc5F)c5nc(c(-c6cc(S(=O)(=O)[O-])ccc6F)c6ccc3[nH]6)C=C5)C=C4)cc2)CCCCC1)Nc1ccc(N2CCOC2=O)cc1
REMARK SMILES IDX 9 1 8 2 7 3 5 4 6 5 4 7 78 8 82 9 79 10 81 11 80 12 3 13
REMARK SMILES IDX 2 14 1 15 83 16 84 18 85 19 95 20 86 21 94 22 87 23 88 24
REMARK SMILES IDX 89 25 92 26 90 27 91 28 93 29 10 30 11 31 12 32 13 33 14 35
REMARK SMILES IDX 15 36 16 37 77 38 17 39 76 40 18 41 19 42 20 43 70 44 21 45
REMARK SMILES IDX 75 46 69 47 71 48 22 49 74 50 68 51 67 52 23 54 55 55 35 56
REMARK SMILES IDX 54 57 36 58 39 59 53 60 72 61 37 62 38 63 52 65 73 66 40 67
REMARK SMILES IDX 24 68 25 69 33 70 26 71 32 72 34 73 31 74 27 75 28 76 29 77
REMARK SMILES IDX 30 78 56 79 57 80 65 81 58 82 64 83 66 84 63 85 59 86 60 87
REMARK SMILES IDX 61 88 62 89 41 90 42 91 50 92 43 93 49 94 51 95 48 96 44 97
REMARK SMILES IDX 45 98 46 99 47 100
REMARK H PARENT 7 6 83 17 12 34 71 53 39 64
REMARK Flexibility Score: inf
ROOT
ATOM      1  C   UNL A   1      31.726  28.202  27.598  1.00  0.00     0.023 C 
ENDROOT
BRANCH   1   2
ATOM      2  C   UNL A   1      32.157  26.967  26.807  1.00  0.00     0.116 C 
BRANCH   2   3
ATOM      3  N   UNL A   1      31.032  26.297  26.204  1.00  0.00    -0.356 N 
ATOM      4  C   UNL A   1      30.573  26.322  24.931  1.00  0.00     0.226 C 
ATOM      5  O   UNL A   1      29.340  26.330  24.856  1.00  0.00    -0.274 OA
ATOM      6  H   UNL A   1      30.513  25.728  26.818  1.00  0.00     0.163 HD
BRANCH   4   7
ATOM      7  C   UNL A   1      31.444  26.358  23.638  1.00  0.00     0.058 C 
ATOM      8  C   UNL A   1      32.985  26.432  23.822  1.00  0.00     0.017 C 
ATOM      9  C   UNL A   1      30.954  27.523  22.740  1.00  0.00     0.017 C 
ATOM     10  C   UNL A   1      33.670  27.792  23.953  1.00  0.00     0.001 C 
ATOM     11  C   UNL A   1      31.491  28.903  23.081  1.00  0.00     0.001 C 
ATOM     12  C   UNL A   1      33.008  28.953  23.211  1.00  0.00     0.000 C 
BRANCH   7  13
ATOM     13  C   UNL A   1      31.190  25.013  22.808  1.00  0.00     0.117 C 
BRANCH  13  14
ATOM     14  C   UNL A   1      31.376  23.600  23.364  1.00  0.00     0.225 C 
ATOM     15  O   UNL A   1      30.905  23.330  24.470  1.00  0.00    -0.275 OA
ATOM     16  N   UNL A   1      31.993  22.699  22.517  1.00  0.00    -0.326 N 
ATOM     17  H   UNL A   1      32.202  22.994  21.601  1.00  0.00     0.169 HD
BRANCH  16  18
ATOM     18  C   UNL A   1      32.341  21.384  22.887  1.00  0.00     0.041 A 
ATOM     19  C   UNL A   1      33.192  21.228  23.985  1.00  0.00     0.028 A 
ATOM     20  C   UNL A   1      31.835  20.250  22.252  1.00  0.00     0.028 A 
ATOM     21  C   UNL A   1      33.430  19.957  24.517  1.00  0.00     0.028 A 
ATOM     22  C   UNL A   1      32.153  18.972  22.726  1.00  0.00     0.028 A 
ATOM     23  C   UNL A   1      32.910  18.822  23.889  1.00  0.00     0.047 A 
BRANCH  23  24
ATOM     24  N   UNL A   1      33.079  17.550  24.455  1.00  0.00    -0.274 N 
ATOM     25  C   UNL A   1      32.591  17.203  25.751  1.00  0.00     0.171 C 
ATOM     26  C   UNL A   1      33.668  16.460  23.854  1.00  0.00     0.414 C 
ATOM     27  C   UNL A   1      32.595  15.694  25.689  1.00  0.00     0.257 C 
ATOM     28  O   UNL A   1      33.544  15.365  24.670  1.00  0.00    -0.447 OA
ATOM     29  O   UNL A   1      34.261  16.420  22.783  1.00  0.00    -0.224 OA
ENDBRANCH  23  24
ENDBRANCH  16  18
ENDBRANCH  13  14
ENDBRANCH   7  13
ENDBRANCH   4   7
ENDBRANCH   2   3
ENDBRANCH   1   2
BRANCH   1  30
ATOM     30  C   UNL A   1      31.549  29.455  26.756  1.00  0.00     0.023 C 
BRANCH  30  31
ATOM     31  C   UNL A   1      32.824  30.260  26.552  1.00  0.00     0.116 C 
BRANCH  31  32
ATOM     32  N   UNL A   1      32.704  31.662  26.941  1.00  0.00    -0.352 N 
ATOM     33  C   UNL A   1      33.616  32.419  27.642  1.00  0.00     0.251 C 
ATOM     34  H   UNL A   1      31.874  32.119  26.671  1.00  0.00     0.163 HD
ATOM     35  O   UNL A   1      33.348  33.558  28.001  1.00  0.00    -0.269 OA
BRANCH  33  36
ATOM     36  C   UNL A   1      34.906  31.789  27.981  1.00  0.00     0.039 A 
ATOM     37  C   UNL A   1      36.028  32.594  28.167  1.00  0.00     0.014 A 
ATOM     38  C   UNL A   1      34.939  30.424  28.280  1.00  0.00     0.014 A 
ATOM     39  C   UNL A   1      37.173  32.038  28.739  1.00  0.00     0.010 A 
ATOM     40  C   UNL A   1      36.039  29.905  28.947  1.00  0.00     0.010 A 
ATOM     41  C   UNL A   1      37.168  30.704  29.183  1.00  0.00    -0.014 A 
BRANCH  41  42
ATOM     42  C   UNL A   1      38.339  30.118  29.884  1.00  0.00     0.031 A 
ATOM     43  C   UNL A   1      38.660  30.564  31.285  1.00  0.00     0.074 A 
ATOM     44  C   UNL A   1      39.143  29.244  29.245  1.00  0.00     0.049 A 
ATOM     45  N   UNL A   1      39.675  30.243  32.043  1.00  0.00    -0.248 NA
ATOM     46  C   UNL A   1      37.734  31.529  31.898  1.00  0.00     0.031 C 
ATOM     47  C   UNL A   1      38.959  28.771  27.870  1.00  0.00     0.029 A 
ATOM     48  N   UNL A   1      40.278  28.596  29.665  1.00  0.00    -0.354 N 
ATOM     49  C   UNL A   1      39.516  30.975  33.215  1.00  0.00     0.074 A 
ATOM     50  C   UNL A   1      38.355  31.816  33.031  1.00  0.00     0.031 C 
ATOM     51  C   UNL A   1      39.923  27.883  27.576  1.00  0.00     0.029 A 
ATOM     52  C   UNL A   1      40.825  27.762  28.716  1.00  0.00     0.049 A 
ATOM     53  H   UNL A   1      40.666  28.718  30.561  1.00  0.00     0.167 HD
ATOM     54  C   UNL A   1      40.251  30.925  34.352  1.00  0.00     0.034 A 
ATOM     55  C   UNL A   1      41.937  26.998  28.756  1.00  0.00     0.034 A 
ATOM     56  C   UNL A   1      41.397  30.069  34.521  1.00  0.00     0.049 A 
ATOM     57  C   UNL A   1      42.763  26.989  30.019  1.00  0.00     0.074 A 
ATOM     58  C   UNL A   1      42.185  29.897  35.646  1.00  0.00     0.029 A 
ATOM     59  N   UNL A   1      41.927  29.245  33.535  1.00  0.00    -0.354 N 
ATOM     60  N   UNL A   1      42.567  27.647  31.139  1.00  0.00    -0.248 NA
ATOM     61  C   UNL A   1      43.954  26.130  30.027  1.00  0.00     0.031 C 
ATOM     62  C   UNL A   1      43.237  29.038  35.315  1.00  0.00     0.029 A 
ATOM     63  C   UNL A   1      43.054  28.596  34.014  1.00  0.00     0.049 A 
ATOM     64  H   UNL A   1      41.558  29.140  32.629  1.00  0.00     0.167 HD
ATOM     65  C   UNL A   1      43.592  27.252  31.996  1.00  0.00     0.074 A 
ATOM     66  C   UNL A   1      44.392  26.289  31.267  1.00  0.00     0.031 C 
ATOM     67  C   UNL A   1      43.846  27.644  33.271  1.00  0.00     0.034 A 
BRANCH  54  68
ATOM     68  C   UNL A   1      39.845  31.840  35.483  1.00  0.00     0.023 A 
ATOM     69  C   UNL A   1      39.037  31.390  36.543  1.00  0.00     0.031 A 
ATOM     70  C   UNL A   1      40.243  33.187  35.489  1.00  0.00     0.131 A 
ATOM     71  C   UNL A   1      38.587  32.296  37.514  1.00  0.00     0.055 A 
ATOM     72  C   UNL A   1      39.869  34.063  36.509  1.00  0.00     0.041 A 
ATOM     73  F   UNL A   1      40.992  33.683  34.490  1.00  0.00    -0.206 F 
ATOM     74  C   UNL A   1      39.021  33.623  37.522  1.00  0.00     0.022 A 
BRANCH  71  75
ATOM     75  S   UNL A   1      37.299  31.753  38.670  1.00  0.00     0.124 S 
ATOM     76  O   UNL A   1      37.980  31.890  39.955  1.00  0.00    -0.237 OA
ATOM     77  O   UNL A   1      36.224  32.704  38.413  1.00  0.00    -0.237 OA
ATOM     78  O   UNL A   1      37.028  30.377  38.260  1.00  0.00    -0.744 OA
ENDBRANCH  71  75
ENDBRANCH  54  68
BRANCH  55  79
ATOM     79  C   UNL A   1      42.346  26.186  27.572  1.00  0.00     0.023 A 
ATOM     80  C   UNL A   1      41.944  24.847  27.436  1.00  0.00     0.031 A 
ATOM     81  C   UNL A   1      43.191  26.721  26.582  1.00  0.00     0.131 A 
ATOM     82  C   UNL A   1      42.429  24.074  26.369  1.00  0.00     0.055 A 
ATOM     83  C   UNL A   1      43.619  25.967  25.488  1.00  0.00     0.041 A 
ATOM     84  F   UNL A   1      43.607  27.996  26.660  1.00  0.00    -0.206 F 
ATOM     85  C   UNL A   1      43.250  24.629  25.385  1.00  0.00     0.022 A 
BRANCH  82  86
ATOM     86  S   UNL A   1      42.055  22.299  26.342  1.00  0.00     0.124 S 
ATOM     87  O   UNL A   1      42.653  21.853  27.595  1.00  0.00    -0.237 OA
ATOM     88  O   UNL A   1      40.597  22.299  26.289  1.00  0.00    -0.237 OA
ATOM     89  O   UNL A   1      42.721  21.830  25.129  1.00  0.00    -0.744 OA
ENDBRANCH  82  86
ENDBRANCH  55  79
BRANCH  67  90
ATOM     90  C   UNL A   1      45.012  26.991  33.975  1.00  0.00     0.023 A 
ATOM     91  C   UNL A   1      44.868  25.794  34.698  1.00  0.00     0.031 A 
ATOM     92  C   UNL A   1      46.290  27.575  33.912  1.00  0.00     0.131 A 
ATOM     93  C   UNL A   1      45.969  25.253  35.377  1.00  0.00     0.055 A 
ATOM     94  C   UNL A   1      47.397  26.994  34.530  1.00  0.00     0.041 A 
ATOM     95  F   UNL A   1      46.485  28.721  33.238  1.00  0.00    -0.206 F 
ATOM     96  C   UNL A   1      47.237  25.832  35.279  1.00  0.00     0.022 A 
BRANCH  93  97
ATOM     97  S   UNL A   1      45.703  23.832  36.471  1.00  0.00     0.124 S 
ATOM     98  O   UNL A   1      44.610  23.135  35.802  1.00  0.00    -0.237 OA
ATOM     99  O   UNL A   1      46.999  23.163  36.436  1.00  0.00    -0.237 OA
ATOM    100  O   UNL A   1      45.357  24.445  37.752  1.00  0.00    -0.744 OA
ENDBRANCH  93  97
ENDBRANCH  67  90
ENDBRANCH  41  42
ENDBRANCH  33  36
ENDBRANCH  31  32
ENDBRANCH  30  31
ENDBRANCH   1  30
TORSDOF 18
ENDMDL
MODEL 2
REMARK VINA RESULT:     -13.3      1.850      7.568
REMARK SMILES O=C(CC1(C(=O)NCCCCNC(=O)c2ccc(-c3c4nc(c(-c5cc(S(=O)(=O)[O-])ccc5F)c5ccc([nH]5)c(-c5cc(S(=O)(=O)[O-])ccc5F)c5nc(c(-c6cc(S(=O)(=O)[O-])ccc6F)c6ccc3[nH]6)C=C5)C=C4)cc2)CCCCC1)Nc1ccc(N2CCOC2=O)cc1
REMARK SMILES IDX 9 1 8 2 7 3 5 4 6 5 4 7 78 8 82 9 79 10 81 11 80 12 3 13
REMARK SMILES IDX 2 14 1 15 83 16 84 18 85 19 95 20 86 21 94 22 87 23 88 24
REMARK SMILES IDX 89 25 92 26 90 27 91 28 93 29 10 30 11 31 12 32 13 33 14 35
REMARK SMILES IDX 15 36 16 37 77 38 17 39 76 40 18 41 19 42 20 43 70 44 21 45
REMARK SMILES IDX 75 46 69 47 71 48 22 49 74 50 68 51 67 52 23 54 55 55 35 56
REMARK SMILES IDX 54 57 36 58 39 59 53 60 72 61 37 62 38 63 52 65 73 66 40 67
REMARK SMILES IDX 24 68 25 69 33 70 26 71 32 72 34 73 31 74 27 75 28 76 29 77
REMARK SMILES IDX 30 78 56 79 57 80 65 81 58 82 64 83 66 84 63 85 59 86 60 87
REMARK SMILES IDX 61 88 62 89 41 90 42 91 50 92 43 93 49 94 51 95 48 96 44 97
REMARK SMILES IDX 45 98 46 99 47 100
REMARK H PARENT 7 6 83 17 12 34 71 53 39 64
REMARK Flexibility Score: inf
ROOT
ATOM      1  C   UNL A   1      31.816  29.143  27.070  1.00  0.00     0.023 C 
ENDROOT
BRANCH   1   2
ATOM      2  C   UNL A   1      33.135  28.761  26.399  1.00  0.00     0.116 C 
BRANCH   2   3
ATOM      3  N   UNL A   1      33.344  27.334  26.402  1.00  0.00    -0.356 N 
ATOM      4  C   UNL A   1      32.804  26.366  25.625  1.00  0.00     0.226 C 
ATOM      5  O   UNL A   1      32.547  25.329  26.245  1.00  0.00    -0.274 OA
ATOM      6  H   UNL A   1      33.983  27.012  27.077  1.00  0.00     0.163 HD
BRANCH   4   7
ATOM      7  C   UNL A   1      32.489  26.476  24.102  1.00  0.00     0.058 C 
ATOM      8  C   UNL A   1      32.466  27.900  23.481  1.00  0.00     0.017 C 
ATOM      9  C   UNL A   1      31.151  25.745  23.816  1.00  0.00     0.017 C 
ATOM     10  C   UNL A   1      31.174  28.714  23.494  1.00  0.00     0.001 C 
ATOM     11  C   UNL A   1      29.885  26.538  24.084  1.00  0.00     0.001 C 
ATOM     12  C   UNL A   1      29.874  27.913  23.427  1.00  0.00     0.000 C 
BRANCH   7  13
ATOM     13  C   UNL A   1      33.616  25.686  23.284  1.00  0.00     0.117 C 
BRANCH  13  14
ATOM     14  C   UNL A   1      33.610  24.178  23.029  1.00  0.00     0.225 C 
ATOM     15  O   UNL A   1      33.579  23.772  21.866  1.00  0.00    -0.275 OA
ATOM     16  N   UNL A   1      33.733  23.380  24.151  1.00  0.00    -0.326 N 
ATOM     17  H   UNL A   1      33.890  23.821  25.017  1.00  0.00     0.169 HD
BRANCH  16  18
ATOM     18  C   UNL A   1      33.646  21.973  24.127  1.00  0.00     0.041 A 
ATOM     19  C   UNL A   1      34.729  21.252  24.638  1.00  0.00     0.028 A 
ATOM     20  C   UNL A   1      32.522  21.282  23.675  1.00  0.00     0.028 A 
ATOM     21  C   UNL A   1      34.635  19.868  24.813  1.00  0.00     0.028 A 
ATOM     22  C   UNL A   1      32.467  19.887  23.760  1.00  0.00     0.028 A 
ATOM     23  C   UNL A   1      33.501  19.178  24.374  1.00  0.00     0.047 A 
BRANCH  23  24
ATOM     24  N   UNL A   1      33.363  17.803  24.612  1.00  0.00    -0.274 N 
ATOM     25  C   UNL A   1      32.872  17.270  25.843  1.00  0.00     0.171 C 
ATOM     26  C   UNL A   1      33.614  16.790  23.715  1.00  0.00     0.414 C 
ATOM     27  C   UNL A   1      32.480  15.869  25.439  1.00  0.00     0.257 C 
ATOM     28  O   UNL A   1      33.253  15.588  24.268  1.00  0.00    -0.447 OA
ATOM     29  O   UNL A   1      34.116  16.877  22.601  1.00  0.00    -0.224 OA
ENDBRANCH  23  24
ENDBRANCH  16  18
ENDBRANCH  13  14
ENDBRANCH   7  13
ENDBRANCH   4   7
ENDBRANCH   2   3
ENDBRANCH   1   2
BRANCH   1  30
ATOM     30  C   UNL A   1      31.314  30.535  26.719  1.00  0.00     0.023 C 
BRANCH  30  31
ATOM     31  C   UNL A   1      32.414  31.532  26.383  1.00  0.00     0.116 C 
BRANCH  31  32
ATOM     32  N   UNL A   1      32.188  32.865  26.935  1.00  0.00    -0.352 N 
ATOM     33  C   UNL A   1      32.985  33.550  27.825  1.00  0.00     0.251 C 
ATOM     34  H   UNL A   1      31.372  33.327  26.636  1.00  0.00     0.163 HD
ATOM     35  O   UNL A   1      32.627  34.621  28.297  1.00  0.00    -0.269 OA
BRANCH  33  36
ATOM     36  C   UNL A   1      34.259  32.921  28.222  1.00  0.00     0.039 A 
ATOM     37  C   UNL A   1      35.417  33.696  28.258  1.00  0.00     0.014 A 
ATOM     38  C   UNL A   1      34.248  31.615  28.717  1.00  0.00     0.014 A 
ATOM     39  C   UNL A   1      36.556  33.181  28.877  1.00  0.00     0.010 A 
ATOM     40  C   UNL A   1      35.348  31.152  29.426  1.00  0.00     0.010 A 
ATOM     41  C   UNL A   1      36.514  31.927  29.513  1.00  0.00    -0.014 A 
BRANCH  41  42
ATOM     42  C   UNL A   1      37.682  31.401  30.263  1.00  0.00     0.031 A 
ATOM     43  C   UNL A   1      38.565  30.364  29.621  1.00  0.00     0.074 A 
ATOM     44  C   UNL A   1      37.909  31.800  31.530  1.00  0.00     0.049 A 
ATOM     45  N   UNL A   1      39.581  29.715  30.127  1.00  0.00    -0.248 NA
ATOM     46  C   UNL A   1      38.235  29.979  28.240  1.00  0.00     0.031 C 
ATOM     47  C   UNL A   1      37.095  32.766  32.273  1.00  0.00     0.029 A 
ATOM     48  N   UNL A   1      38.890  31.445  32.422  1.00  0.00    -0.354 N 
ATOM     49  C   UNL A   1      40.002  28.840  29.132  1.00  0.00     0.074 A 
ATOM     50  C   UNL A   1      39.080  28.983  28.028  1.00  0.00     0.031 C 
ATOM     51  C   UNL A   1      37.633  32.953  33.490  1.00  0.00     0.029 A 
ATOM     52  C   UNL A   1      38.794  32.083  33.638  1.00  0.00     0.049 A 
ATOM     53  H   UNL A   1      39.597  30.792  32.212  1.00  0.00     0.167 HD
ATOM     54  C   UNL A   1      41.079  28.018  29.126  1.00  0.00     0.034 A 
ATOM     55  C   UNL A   1      39.549  31.968  34.751  1.00  0.00     0.034 A 
ATOM     56  C   UNL A   1      41.996  27.900  30.232  1.00  0.00     0.049 A 
ATOM     57  C   UNL A   1      40.720  31.016  34.735  1.00  0.00     0.074 A 
ATOM     58  C   UNL A   1      43.149  27.140  30.316  1.00  0.00     0.029 A 
ATOM     59  N   UNL A   1      41.861  28.555  31.450  1.00  0.00    -0.354 N 
ATOM     60  N   UNL A   1      41.137  30.234  33.765  1.00  0.00    -0.248 NA
ATOM     61  C   UNL A   1      41.526  30.935  35.960  1.00  0.00     0.031 C 
ATOM     62  C   UNL A   1      43.662  27.268  31.610  1.00  0.00     0.029 A 
ATOM     63  C   UNL A   1      42.886  28.183  32.305  1.00  0.00     0.049 A 
ATOM     64  H   UNL A   1      41.142  29.189  31.674  1.00  0.00     0.167 HD
ATOM     65  C   UNL A   1      42.275  29.597  34.253  1.00  0.00     0.074 A 
ATOM     66  C   UNL A   1      42.485  30.097  35.596  1.00  0.00     0.031 C 
ATOM     67  C   UNL A   1      43.078  28.686  33.645  1.00  0.00     0.034 A 
BRANCH  54  68
ATOM     68  C   UNL A   1      41.300  27.171  27.896  1.00  0.00     0.023 A 
ATOM     69  C   UNL A   1      40.926  25.815  27.855  1.00  0.00     0.031 A 
ATOM     70  C   UNL A   1      41.921  27.714  26.758  1.00  0.00     0.131 A 
ATOM     71  C   UNL A   1      41.250  25.032  26.738  1.00  0.00     0.055 A 
ATOM     72  C   UNL A   1      42.157  26.952  25.613  1.00  0.00     0.041 A 
ATOM     73  F   UNL A   1      42.326  28.994  26.746  1.00  0.00    -0.206 F 
ATOM     74  C   UNL A   1      41.837  25.597  25.605  1.00  0.00     0.022 A 
BRANCH  71  75
ATOM     75  S   UNL A   1      41.044  23.234  26.855  1.00  0.00     0.124 S 
ATOM     76  O   UNL A   1      41.953  22.765  25.813  1.00  0.00    -0.237 OA
ATOM     77  O   UNL A   1      41.449  22.958  28.228  1.00  0.00    -0.237 OA
ATOM     78  O   UNL A   1      39.624  23.033  26.569  1.00  0.00    -0.744 OA
ENDBRANCH  71  75
ENDBRANCH  54  68
BRANCH  55  79
ATOM     79  C   UNL A   1      39.227  32.760  35.975  1.00  0.00     0.023 A 
ATOM     80  C   UNL A   1      39.707  34.069  36.140  1.00  0.00     0.031 A 
ATOM     81  C   UNL A   1      38.477  32.200  37.024  1.00  0.00     0.131 A 
ATOM     82  C   UNL A   1      39.479  34.753  37.344  1.00  0.00     0.055 A 
ATOM     83  C   UNL A   1      38.199  32.907  38.196  1.00  0.00     0.041 A 
ATOM     84  F   UNL A   1      37.992  30.951  36.923  1.00  0.00    -0.206 F 
ATOM     85  C   UNL A   1      38.715  34.188  38.367  1.00  0.00     0.022 A 
BRANCH  82  86
ATOM     86  S   UNL A   1      40.289  36.357  37.599  1.00  0.00     0.124 S 
ATOM     87  O   UNL A   1      40.349  36.877  36.238  1.00  0.00    -0.237 OA
ATOM     88  O   UNL A   1      39.359  37.025  38.503  1.00  0.00    -0.237 OA
ATOM     89  O   UNL A   1      41.578  35.997  38.187  1.00  0.00    -0.744 OA
ENDBRANCH  82  86
ENDBRANCH  55  79
BRANCH  67  90
ATOM     90  C   UNL A   1      44.287  28.209  34.414  1.00  0.00     0.023 A 
ATOM     91  C   UNL A   1      44.238  27.082  35.252  1.00  0.00     0.031 A 
ATOM     92  C   UNL A   1      45.510  28.893  34.298  1.00  0.00     0.131 A 
ATOM     93  C   UNL A   1      45.373  26.708  35.986  1.00  0.00     0.055 A 
ATOM     94  C   UNL A   1      46.656  28.474  34.974  1.00  0.00     0.041 A 
ATOM     95  F   UNL A   1      45.615  29.979  33.513  1.00  0.00    -0.206 F 
ATOM     96  C   UNL A   1      46.587  27.382  35.835  1.00  0.00     0.022 A 
BRANCH  93  97
ATOM     97  S   UNL A   1      45.217  25.384  37.215  1.00  0.00     0.124 S 
ATOM     98  O   UNL A   1      45.425  26.107  38.466  1.00  0.00    -0.237 OA
ATOM     99  O   UNL A   1      43.862  24.896  36.979  1.00  0.00    -0.237 OA
ATOM    100  O   UNL A   1      46.282  24.452  36.852  1.00  0.00    -0.744 OA
ENDBRANCH  93  97
ENDBRANCH  67  90
ENDBRANCH  41  42
ENDBRANCH  33  36
ENDBRANCH  31  32
ENDBRANCH  30  31
ENDBRANCH   1  30
TORSDOF 18
ENDMDL
MODEL 3
REMARK VINA RESULT:     -13.2      2.520      5.338
REMARK SMILES O=C(CC1(C(=O)NCCCCNC(=O)c2ccc(-c3c4nc(c(-c5cc(S(=O)(=O)[O-])ccc5F)c5ccc([nH]5)c(-c5cc(S(=O)(=O)[O-])ccc5F)c5nc(c(-c6cc(S(=O)(=O)[O-])ccc6F)c6ccc3[nH]6)C=C5)C=C4)cc2)CCCCC1)Nc1ccc(N2CCOC2=O)cc1
REMARK SMILES IDX 9 1 8 2 7 3 5 4 6 5 4 7 78 8 82 9 79 10 81 11 80 12 3 13
REMARK SMILES IDX 2 14 1 15 83 16 84 18 85 19 95 20 86 21 94 22 87 23 88 24
REMARK SMILES IDX 89 25 92 26 90 27 91 28 93 29 10 30 11 31 12 32 13 33 14 35
REMARK SMILES IDX 15 36 16 37 77 38 17 39 76 40 18 41 19 42 20 43 70 44 21 45
REMARK SMILES IDX 75 46 69 47 71 48 22 49 74 50 68 51 67 52 23 54 55 55 35 56
REMARK SMILES IDX 54 57 36 58 39 59 53 60 72 61 37 62 38 63 52 65 73 66 40 67
REMARK SMILES IDX 24 68 25 69 33 70 26 71 32 72 34 73 31 74 27 75 28 76 29 77
REMARK SMILES IDX 30 78 56 79 57 80 65 81 58 82 64 83 66 84 63 85 59 86 60 87
REMARK SMILES IDX 61 88 62 89 41 90 42 91 50 92 43 93 49 94 51 95 48 96 44 97
REMARK SMILES IDX 45 98 46 99 47 100
REMARK H PARENT 7 6 83 17 12 34 71 53 39 64
REMARK Flexibility Score: inf
ROOT
ATOM      1  C   UNL A   1      31.828  27.801  27.157  1.00  0.00     0.023 C 
ENDROOT
BRANCH   1   2
ATOM      2  C   UNL A   1      32.044  26.545  26.315  1.00  0.00     0.116 C 
BRANCH   2   3
ATOM      3  N   UNL A   1      31.672  25.349  27.030  1.00  0.00    -0.356 N 
ATOM      4  C   UNL A   1      31.315  24.126  26.571  1.00  0.00     0.226 C 
ATOM      5  O   UNL A   1      30.404  23.607  27.224  1.00  0.00    -0.274 OA
ATOM      6  H   UNL A   1      31.679  25.436  28.010  1.00  0.00     0.163 HD
BRANCH   4   7
ATOM      7  C   UNL A   1      31.927  23.389  25.341  1.00  0.00     0.058 C 
ATOM      8  C   UNL A   1      32.086  21.847  25.443  1.00  0.00     0.017 C 
ATOM      9  C   UNL A   1      33.287  24.047  24.993  1.00  0.00     0.017 C 
ATOM     10  C   UNL A   1      33.358  21.253  26.045  1.00  0.00     0.001 C 
ATOM     11  C   UNL A   1      34.483  23.581  25.805  1.00  0.00     0.001 C 
ATOM     12  C   UNL A   1      34.638  22.066  25.850  1.00  0.00     0.000 C 
BRANCH   7  13
ATOM     13  C   UNL A   1      30.977  23.624  24.074  1.00  0.00     0.117 C 
BRANCH  13  14
ATOM     14  C   UNL A   1      30.774  24.970  23.377  1.00  0.00     0.225 C 
ATOM     15  O   UNL A   1      31.439  25.224  22.370  1.00  0.00    -0.275 OA
ATOM     16  N   UNL A   1      29.773  25.770  23.895  1.00  0.00    -0.326 N 
ATOM     17  H   UNL A   1      29.214  25.401  24.617  1.00  0.00     0.169 HD
BRANCH  16  18
ATOM     18  C   UNL A   1      29.507  27.082  23.453  1.00  0.00     0.041 A 
ATOM     19  C   UNL A   1      28.175  27.506  23.460  1.00  0.00     0.028 A 
ATOM     20  C   UNL A   1      30.505  27.977  23.067  1.00  0.00     0.028 A 
ATOM     21  C   UNL A   1      27.862  28.846  23.210  1.00  0.00     0.028 A 
ATOM     22  C   UNL A   1      30.179  29.293  22.722  1.00  0.00     0.028 A 
ATOM     23  C   UNL A   1      28.864  29.747  22.839  1.00  0.00     0.047 A 
BRANCH  23  24
ATOM     24  N   UNL A   1      28.573  31.106  22.659  1.00  0.00    -0.274 N 
ATOM     25  C   UNL A   1      28.814  32.094  23.662  1.00  0.00     0.171 C 
ATOM     26  C   UNL A   1      28.082  31.692  21.515  1.00  0.00     0.414 C 
ATOM     27  C   UNL A   1      28.793  33.369  22.852  1.00  0.00     0.257 C 
ATOM     28  O   UNL A   1      28.037  33.053  21.680  1.00  0.00    -0.447 OA
ATOM     29  O   UNL A   1      27.691  31.139  20.494  1.00  0.00    -0.224 OA
ENDBRANCH  23  24
ENDBRANCH  16  18
ENDBRANCH  13  14
ENDBRANCH   7  13
ENDBRANCH   4   7
ENDBRANCH   2   3
ENDBRANCH   1   2
BRANCH   1  30
ATOM     30  C   UNL A   1      31.504  29.049  26.351  1.00  0.00     0.023 C 
BRANCH  30  31
ATOM     31  C   UNL A   1      32.682  29.989  26.149  1.00  0.00     0.116 C 
BRANCH  31  32
ATOM     32  N   UNL A   1      32.419  31.362  26.571  1.00  0.00    -0.352 N 
ATOM     33  C   UNL A   1      33.230  32.176  27.329  1.00  0.00     0.251 C 
ATOM     34  H   UNL A   1      31.562  31.749  26.281  1.00  0.00     0.163 HD
ATOM     35  O   UNL A   1      32.845  33.275  27.708  1.00  0.00    -0.269 OA
BRANCH  33  36
ATOM     36  C   UNL A   1      34.559  31.656  27.703  1.00  0.00     0.039 A 
ATOM     37  C   UNL A   1      35.594  32.554  27.959  1.00  0.00     0.014 A 
ATOM     38  C   UNL A   1      34.707  30.291  27.961  1.00  0.00     0.014 A 
ATOM     39  C   UNL A   1      36.762  32.085  28.561  1.00  0.00     0.010 A 
ATOM     40  C   UNL A   1      35.824  29.852  28.657  1.00  0.00     0.010 A 
ATOM     41  C   UNL A   1      36.864  30.742  28.964  1.00  0.00    -0.014 A 
BRANCH  41  42
ATOM     42  C   UNL A   1      38.057  30.243  29.695  1.00  0.00     0.031 A 
ATOM     43  C   UNL A   1      38.314  30.718  31.100  1.00  0.00     0.074 A 
ATOM     44  C   UNL A   1      38.933  29.423  29.081  1.00  0.00     0.049 A 
ATOM     45  N   UNL A   1      39.331  30.472  31.883  1.00  0.00    -0.248 NA
ATOM     46  C   UNL A   1      37.310  31.620  31.685  1.00  0.00     0.031 C 
ATOM     47  C   UNL A   1      38.813  28.931  27.706  1.00  0.00     0.029 A 
ATOM     48  N   UNL A   1      40.100  28.857  29.530  1.00  0.00    -0.354 N 
ATOM     49  C   UNL A   1      39.095  31.198  33.046  1.00  0.00     0.074 A 
ATOM     50  C   UNL A   1      37.883  31.956  32.830  1.00  0.00     0.031 C 
ATOM     51  C   UNL A   1      39.842  28.109  27.440  1.00  0.00     0.029 A 
ATOM     52  C   UNL A   1      40.725  28.058  28.600  1.00  0.00     0.049 A 
ATOM     53  H   UNL A   1      40.459  29.011  30.434  1.00  0.00     0.167 HD
ATOM     54  C   UNL A   1      39.806  31.206  34.199  1.00  0.00     0.034 A 
ATOM     55  C   UNL A   1      41.885  27.372  28.671  1.00  0.00     0.034 A 
ATOM     56  C   UNL A   1      41.005  30.431  34.400  1.00  0.00     0.049 A 
ATOM     57  C   UNL A   1      42.681  27.428  29.952  1.00  0.00     0.074 A 
ATOM     58  C   UNL A   1      41.776  30.321  35.543  1.00  0.00     0.029 A 
ATOM     59  N   UNL A   1      41.612  29.641  33.432  1.00  0.00    -0.354 N 
ATOM     60  N   UNL A   1      42.415  28.077  31.062  1.00  0.00    -0.248 NA
ATOM     61  C   UNL A   1      43.928  26.653  29.993  1.00  0.00     0.031 C 
ATOM     62  C   UNL A   1      42.892  29.535  35.242  1.00  0.00     0.029 A 
ATOM     63  C   UNL A   1      42.770  29.074  33.940  1.00  0.00     0.049 A 
ATOM     64  H   UNL A   1      41.272  29.505  32.518  1.00  0.00     0.167 HD
ATOM     65  C   UNL A   1      43.445  27.758  31.945  1.00  0.00     0.074 A 
ATOM     66  C   UNL A   1      44.325  26.849  31.241  1.00  0.00     0.031 C 
ATOM     67  C   UNL A   1      43.642  28.174  33.222  1.00  0.00     0.034 A 
BRANCH  54  68
ATOM     68  C   UNL A   1      39.312  32.096  35.314  1.00  0.00     0.023 A 
ATOM     69  C   UNL A   1      39.765  33.421  35.457  1.00  0.00     0.031 A 
ATOM     70  C   UNL A   1      38.401  31.609  36.266  1.00  0.00     0.131 A 
ATOM     71  C   UNL A   1      39.372  34.179  36.569  1.00  0.00     0.055 A 
ATOM     72  C   UNL A   1      37.940  32.401  37.319  1.00  0.00     0.041 A 
ATOM     73  F   UNL A   1      37.953  30.345  36.198  1.00  0.00    -0.206 F 
ATOM     74  C   UNL A   1      38.440  33.689  37.485  1.00  0.00     0.022 A 
BRANCH  71  75
ATOM     75  S   UNL A   1      40.222  35.749  36.886  1.00  0.00     0.124 S 
ATOM     76  O   UNL A   1      39.780  36.053  38.246  1.00  0.00    -0.237 OA
ATOM     77  O   UNL A   1      41.626  35.385  36.737  1.00  0.00    -0.237 OA
ATOM     78  O   UNL A   1      39.694  36.640  35.855  1.00  0.00    -0.744 OA
ENDBRANCH  71  75
ENDBRANCH  54  68
BRANCH  55  79
ATOM     79  C   UNL A   1      42.376  26.584  27.502  1.00  0.00     0.023 A 
ATOM     80  C   UNL A   1      42.021  25.235  27.335  1.00  0.00     0.031 A 
ATOM     81  C   UNL A   1      43.252  27.152  26.560  1.00  0.00     0.131 A 
ATOM     82  C   UNL A   1      42.581  24.487  26.288  1.00  0.00     0.055 A 
ATOM     83  C   UNL A   1      43.757  26.421  25.482  1.00  0.00     0.041 A 
ATOM     84  F   UNL A   1      43.627  28.438  26.668  1.00  0.00    -0.206 F 
ATOM     85  C   UNL A   1      43.433  25.074  25.350  1.00  0.00     0.022 A 
BRANCH  82  86
ATOM     86  S   UNL A   1      42.261  22.702  26.228  1.00  0.00     0.124 S 
ATOM     87  O   UNL A   1      40.818  22.653  26.434  1.00  0.00    -0.237 OA
ATOM     88  O   UNL A   1      42.732  22.355  24.892  1.00  0.00    -0.237 OA
ATOM     89  O   UNL A   1      43.068  22.176  27.328  1.00  0.00    -0.744 OA
ENDBRANCH  82  86
ENDBRANCH  55  79
BRANCH  67  90
ATOM     90  C   UNL A   1      44.834  27.607  33.957  1.00  0.00     0.023 A 
ATOM     91  C   UNL A   1      44.716  26.514  34.833  1.00  0.00     0.031 A 
ATOM     92  C   UNL A   1      46.110  28.168  33.768  1.00  0.00     0.131 A 
ATOM     93  C   UNL A   1      45.843  26.055  35.531  1.00  0.00     0.055 A 
ATOM     94  C   UNL A   1      47.240  27.662  34.410  1.00  0.00     0.041 A 
ATOM     95  F   UNL A   1      46.281  29.216  32.945  1.00  0.00    -0.206 F 
ATOM     96  C   UNL A   1      47.107  26.607  35.308  1.00  0.00     0.022 A 
BRANCH  93  97
ATOM     97  S   UNL A   1      45.617  24.789  36.808  1.00  0.00     0.124 S 
ATOM     98  O   UNL A   1      46.019  25.502  38.016  1.00  0.00    -0.237 OA
ATOM     99  O   UNL A   1      44.196  24.480  36.695  1.00  0.00    -0.237 OA
ATOM    100  O   UNL A   1      46.519  23.717  36.391  1.00  0.00    -0.744 OA
ENDBRANCH  93  97
ENDBRANCH  67  90
ENDBRANCH  41  42
ENDBRANCH  33  36
ENDBRANCH  31  32
ENDBRANCH  30  31
ENDBRANCH   1  30
TORSDOF 18
ENDMDL
