MODEL 1
REMARK VINA RESULT:     -12.0      0.000      0.000
REMARK SMILES CC[NH2+][C@@]1(C(=O)NCCCCNC(=O)c2ccc(-c3c4nc(c(-c5cc(S(=O)(=O)[O-])ccc5F)c5ccc([nH]5)c(-c5cc(S(=O)(=O)[O-])ccc5F)c5nc(c(-c6cc(S(=O)(=O)[O-])ccc6F)c6ccc3[nH]6)C=C5)C=C4)cc2)CC[C@H](Oc2ccc3c(c2)OCO3)C1
REMARK SMILES IDX 10 1 9 2 8 3 7 4 5 5 6 6 4 8 78 9 91 10 79 11 80 12 3 13
REMARK SMILES IDX 2 16 1 17 81 18 82 19 83 20 87 21 84 22 86 23 85 24 88 25
REMARK SMILES IDX 90 26 89 27 11 28 12 29 13 30 14 32 15 33 16 34 77 35 17 36
REMARK SMILES IDX 76 37 18 38 19 39 20 40 70 41 21 42 75 43 69 44 71 45 22 46
REMARK SMILES IDX 74 47 68 48 67 49 23 51 55 52 35 53 54 54 36 55 39 56 53 57
REMARK SMILES IDX 72 58 37 59 38 60 52 62 73 63 40 64 24 65 25 66 33 67 26 68
REMARK SMILES IDX 32 69 34 70 31 71 27 72 28 73 29 74 30 75 56 76 57 77 65 78
REMARK SMILES IDX 58 79 64 80 66 81 63 82 59 83 60 84 61 85 62 86 41 87 42 88
REMARK SMILES IDX 50 89 43 90 49 91 51 92 48 93 44 94 45 95 46 96 47 97
REMARK H PARENT 7 7 3 14 3 15 12 31 71 50 39 61
REMARK Flexibility Score: inf
ROOT
ATOM      1  C   UNL A   1      31.197  31.631  26.094  1.00  0.00     0.023 C 
ENDROOT
BRANCH   1   2
ATOM      2  C   UNL A   1      31.330  30.228  25.543  1.00  0.00     0.023 C 
BRANCH   2   3
ATOM      3  C   UNL A   1      32.751  29.752  25.259  1.00  0.00     0.116 C 
BRANCH   3   4
ATOM      4  N   UNL A   1      32.909  29.409  23.865  1.00  0.00    -0.351 N 
ATOM      5  C   UNL A   1      33.660  28.354  23.433  1.00  0.00     0.281 C 
ATOM      6  O   UNL A   1      34.602  28.655  22.689  1.00  0.00    -0.268 OA
ATOM      7  H   UNL A   1      32.453  29.966  23.192  1.00  0.00     0.163 HD
BRANCH   5   8
ATOM      8  C   UNL A   1      33.279  26.845  23.749  1.00  0.00     0.179 C 
ATOM      9  C   UNL A   1      33.660  25.802  22.685  1.00  0.00     0.083 C 
ATOM     10  C   UNL A   1      31.761  26.620  23.922  1.00  0.00     0.124 C 
ATOM     11  C   UNL A   1      32.395  25.478  21.884  1.00  0.00     0.052 C 
ATOM     12  C   UNL A   1      31.220  26.208  22.538  1.00  0.00     0.180 C 
BRANCH   8  13
ATOM     13  N   UNL A   1      33.999  26.417  25.001  1.00  0.00    -0.334 N 
ATOM     14  H   UNL A   1      34.872  26.941  25.057  1.00  0.00     0.347 HD
ATOM     15  H   UNL A   1      33.360  26.605  25.774  1.00  0.00     0.347 HD
BRANCH  13  16
ATOM     16  C   UNL A   1      34.322  24.987  25.079  1.00  0.00     0.257 C 
ATOM     17  C   UNL A   1      33.455  24.297  26.119  1.00  0.00     0.071 C 
ENDBRANCH  13  16
ENDBRANCH   8  13
BRANCH  12  18
ATOM     18  O   UNL A   1      30.805  27.419  21.923  1.00  0.00    -0.490 OA
BRANCH  18  19
ATOM     19  C   UNL A   1      29.932  28.302  22.495  1.00  0.00     0.123 A 
ATOM     20  C   UNL A   1      28.709  27.973  23.099  1.00  0.00     0.050 A 
ATOM     21  C   UNL A   1      30.212  29.639  22.164  1.00  0.00     0.097 A 
ATOM     22  C   UNL A   1      27.717  28.956  23.264  1.00  0.00     0.054 A 
ATOM     23  C   UNL A   1      29.211  30.573  22.311  1.00  0.00     0.169 A 
ATOM     24  C   UNL A   1      27.987  30.237  22.830  1.00  0.00     0.166 A 
ATOM     25  O   UNL A   1      29.259  31.864  21.885  1.00  0.00    -0.453 OA
ATOM     26  O   UNL A   1      27.116  31.280  22.806  1.00  0.00    -0.454 OA
ATOM     27  C   UNL A   1      27.878  32.248  22.054  1.00  0.00     0.468 C 
ENDBRANCH  18  19
ENDBRANCH  12  18
ENDBRANCH   5   8
ENDBRANCH   3   4
ENDBRANCH   2   3
ENDBRANCH   1   2
BRANCH   1  28
ATOM     28  C   UNL A   1      32.451  32.126  26.797  1.00  0.00     0.116 C 
BRANCH  28  29
ATOM     29  N   UNL A   1      32.333  33.458  27.391  1.00  0.00    -0.352 N 
ATOM     30  C   UNL A   1      33.206  34.098  28.243  1.00  0.00     0.251 C 
ATOM     31  H   UNL A   1      31.523  33.963  27.153  1.00  0.00     0.163 HD
ATOM     32  O   UNL A   1      32.945  35.196  28.708  1.00  0.00    -0.269 OA
BRANCH  30  33
ATOM     33  C   UNL A   1      34.440  33.385  28.618  1.00  0.00     0.039 A 
ATOM     34  C   UNL A   1      35.672  34.000  28.392  1.00  0.00     0.014 A 
ATOM     35  C   UNL A   1      34.348  32.196  29.341  1.00  0.00     0.014 A 
ATOM     36  C   UNL A   1      36.814  33.464  28.985  1.00  0.00     0.010 A 
ATOM     37  C   UNL A   1      35.460  31.742  30.028  1.00  0.00     0.010 A 
ATOM     38  C   UNL A   1      36.706  32.368  29.855  1.00  0.00    -0.014 A 
BRANCH  38  39
ATOM     39  C   UNL A   1      37.877  31.814  30.577  1.00  0.00     0.031 A 
ATOM     40  C   UNL A   1      38.719  30.771  29.897  1.00  0.00     0.074 A 
ATOM     41  C   UNL A   1      38.108  32.157  31.861  1.00  0.00     0.049 A 
ATOM     42  N   UNL A   1      39.657  30.006  30.391  1.00  0.00    -0.248 NA
ATOM     43  C   UNL A   1      38.415  30.509  28.481  1.00  0.00     0.031 C 
ATOM     44  C   UNL A   1      37.320  33.114  32.643  1.00  0.00     0.029 A 
ATOM     45  N   UNL A   1      39.068  31.726  32.740  1.00  0.00    -0.354 N 
ATOM     46  C   UNL A   1      40.016  29.142  29.362  1.00  0.00     0.074 A 
ATOM     47  C   UNL A   1      39.141  29.429  28.246  1.00  0.00     0.031 C 
ATOM     48  C   UNL A   1      37.847  33.216  33.874  1.00  0.00     0.029 A 
ATOM     49  C   UNL A   1      38.976  32.299  33.987  1.00  0.00     0.049 A 
ATOM     50  H   UNL A   1      39.759  31.066  32.501  1.00  0.00     0.167 HD
ATOM     51  C   UNL A   1      41.006  28.218  29.340  1.00  0.00     0.034 A 
ATOM     52  C   UNL A   1      39.712  32.095  35.096  1.00  0.00     0.034 A 
ATOM     53  C   UNL A   1      41.901  27.994  30.446  1.00  0.00     0.049 A 
ATOM     54  C   UNL A   1      40.838  31.092  35.038  1.00  0.00     0.074 A 
ATOM     55  C   UNL A   1      42.990  27.145  30.519  1.00  0.00     0.029 A 
ATOM     56  N   UNL A   1      41.813  28.637  31.676  1.00  0.00    -0.354 N 
ATOM     57  N   UNL A   1      41.196  30.312  34.044  1.00  0.00    -0.248 NA
ATOM     58  C   UNL A   1      41.663  30.951  36.244  1.00  0.00     0.031 C 
ATOM     59  C   UNL A   1      43.529  27.236  31.807  1.00  0.00     0.029 A 
ATOM     60  C   UNL A   1      42.819  28.191  32.517  1.00  0.00     0.049 A 
ATOM     61  H   UNL A   1      41.135  29.310  31.913  1.00  0.00     0.167 HD
ATOM     62  C   UNL A   1      42.309  29.609  34.498  1.00  0.00     0.074 A 
ATOM     63  C   UNL A   1      42.567  30.070  35.847  1.00  0.00     0.031 C 
ATOM     64  C   UNL A   1      43.053  28.668  33.860  1.00  0.00     0.034 A 
BRANCH  51  65
ATOM     65  C   UNL A   1      41.150  27.388  28.086  1.00  0.00     0.023 A 
ATOM     66  C   UNL A   1      40.754  26.039  28.043  1.00  0.00     0.031 A 
ATOM     67  C   UNL A   1      41.746  27.933  26.934  1.00  0.00     0.131 A 
ATOM     68  C   UNL A   1      41.050  25.256  26.917  1.00  0.00     0.055 A 
ATOM     69  C   UNL A   1      41.950  27.173  25.781  1.00  0.00     0.041 A 
ATOM     70  F   UNL A   1      42.163  29.209  26.919  1.00  0.00    -0.206 F 
ATOM     71  C   UNL A   1      41.621  25.820  25.775  1.00  0.00     0.022 A 
BRANCH  68  72
ATOM     72  S   UNL A   1      40.835  23.459  27.036  1.00  0.00     0.124 S 
ATOM     73  O   UNL A   1      41.363  23.189  28.371  1.00  0.00    -0.237 OA
ATOM     74  O   UNL A   1      39.394  23.302  26.876  1.00  0.00    -0.237 OA
ATOM     75  O   UNL A   1      41.646  22.943  25.936  1.00  0.00    -0.744 OA
ENDBRANCH  68  72
ENDBRANCH  51  65
BRANCH  52  76
ATOM     76  C   UNL A   1      39.423  32.847  36.352  1.00  0.00     0.023 A 
ATOM     77  C   UNL A   1      38.551  32.324  37.319  1.00  0.00     0.031 A 
ATOM     78  C   UNL A   1      39.986  34.114  36.587  1.00  0.00     0.131 A 
ATOM     79  C   UNL A   1      38.228  33.082  38.455  1.00  0.00     0.055 A 
ATOM     80  C   UNL A   1      39.700  34.844  37.744  1.00  0.00     0.041 A 
ATOM     81  F   UNL A   1      40.835  34.656  35.700  1.00  0.00    -0.206 F 
ATOM     82  C   UNL A   1      38.805  34.334  38.680  1.00  0.00     0.022 A 
BRANCH  79  83
ATOM     83  S   UNL A   1      36.979  32.439  39.603  1.00  0.00     0.124 S 
ATOM     84  O   UNL A   1      35.752  32.606  38.832  1.00  0.00    -0.237 OA
ATOM     85  O   UNL A   1      37.430  31.064  39.801  1.00  0.00    -0.237 OA
ATOM     86  O   UNL A   1      37.107  33.308  40.769  1.00  0.00    -0.744 OA
ENDBRANCH  79  83
ENDBRANCH  52  76
BRANCH  64  87
ATOM     87  C   UNL A   1      44.242  28.121  34.605  1.00  0.00     0.023 A 
ATOM     88  C   UNL A   1      44.147  26.972  35.407  1.00  0.00     0.031 A 
ATOM     89  C   UNL A   1      45.488  28.766  34.510  1.00  0.00     0.131 A 
ATOM     90  C   UNL A   1      45.268  26.532  36.126  1.00  0.00     0.055 A 
ATOM     91  C   UNL A   1      46.613  28.290  35.183  1.00  0.00     0.041 A 
ATOM     92  F   UNL A   1      45.631  29.869  33.758  1.00  0.00    -0.206 F 
ATOM     93  C   UNL A   1      46.504  27.173  36.007  1.00  0.00     0.022 A 
BRANCH  90  94
ATOM     94  S   UNL A   1      45.068  25.155  37.290  1.00  0.00     0.124 S 
ATOM     95  O   UNL A   1      44.405  24.152  36.463  1.00  0.00    -0.237 OA
ATOM     96  O   UNL A   1      46.447  24.861  37.665  1.00  0.00    -0.237 OA
ATOM     97  O   UNL A   1      44.244  25.723  38.355  1.00  0.00    -0.744 OA
ENDBRANCH  90  94
ENDBRANCH  64  87
ENDBRANCH  38  39
ENDBRANCH  30  33
ENDBRANCH  28  29
ENDBRANCH   1  28
TORSDOF 18
ENDMDL
MODEL 2
REMARK VINA RESULT:     -11.7      5.727     11.150
REMARK SMILES CC[NH2+][C@@]1(C(=O)NCCCCNC(=O)c2ccc(-c3c4nc(c(-c5cc(S(=O)(=O)[O-])ccc5F)c5ccc([nH]5)c(-c5cc(S(=O)(=O)[O-])ccc5F)c5nc(c(-c6cc(S(=O)(=O)[O-])ccc6F)c6ccc3[nH]6)C=C5)C=C4)cc2)CC[C@H](Oc2ccc3c(c2)OCO3)C1
REMARK SMILES IDX 10 1 9 2 8 3 7 4 5 5 6 6 4 8 78 9 91 10 79 11 80 12 3 13
REMARK SMILES IDX 2 16 1 17 81 18 82 19 83 20 87 21 84 22 86 23 85 24 88 25
REMARK SMILES IDX 90 26 89 27 11 28 12 29 13 30 14 32 15 33 16 34 77 35 17 36
REMARK SMILES IDX 76 37 18 38 19 39 20 40 70 41 21 42 75 43 69 44 71 45 22 46
REMARK SMILES IDX 74 47 68 48 67 49 23 51 55 52 35 53 54 54 36 55 39 56 53 57
REMARK SMILES IDX 72 58 37 59 38 60 52 62 73 63 40 64 24 65 25 66 33 67 26 68
REMARK SMILES IDX 32 69 34 70 31 71 27 72 28 73 29 74 30 75 56 76 57 77 65 78
REMARK SMILES IDX 58 79 64 80 66 81 63 82 59 83 60 84 61 85 62 86 41 87 42 88
REMARK SMILES IDX 50 89 43 90 49 91 51 92 48 93 44 94 45 95 46 96 47 97
REMARK H PARENT 7 7 3 14 3 15 12 31 71 50 39 61
REMARK Flexibility Score: inf
ROOT
ATOM      1  C   UNL A   1      36.259  22.603  23.651  1.00  0.00     0.023 C 
ENDROOT
BRANCH   1   2
ATOM      2  C   UNL A   1      35.250  23.730  23.582  1.00  0.00     0.023 C 
BRANCH   2   3
ATOM      3  C   UNL A   1      33.843  23.343  23.139  1.00  0.00     0.116 C 
BRANCH   3   4
ATOM      4  N   UNL A   1      32.921  24.434  23.343  1.00  0.00    -0.351 N 
ATOM      5  C   UNL A   1      31.741  24.303  24.020  1.00  0.00     0.281 C 
ATOM      6  O   UNL A   1      30.730  24.563  23.357  1.00  0.00    -0.268 OA
ATOM      7  H   UNL A   1      33.153  25.318  22.975  1.00  0.00     0.163 HD
BRANCH   5   8
ATOM      8  C   UNL A   1      31.677  23.972  25.572  1.00  0.00     0.179 C 
ATOM      9  C   UNL A   1      33.020  23.719  26.276  1.00  0.00     0.083 C 
ATOM     10  C   UNL A   1      30.875  22.693  25.892  1.00  0.00     0.124 C 
ATOM     11  C   UNL A   1      33.185  22.202  26.423  1.00  0.00     0.052 C 
ATOM     12  C   UNL A   1      31.894  21.537  25.940  1.00  0.00     0.180 C 
BRANCH   8  13
ATOM     13  N   UNL A   1      31.066  25.146  26.291  1.00  0.00    -0.334 N 
ATOM     14  H   UNL A   1      30.059  25.129  26.124  1.00  0.00     0.347 HD
ATOM     15  H   UNL A   1      31.318  25.039  27.274  1.00  0.00     0.347 HD
BRANCH  13  16
ATOM     16  C   UNL A   1      31.572  26.462  25.883  1.00  0.00     0.257 C 
ATOM     17  C   UNL A   1      31.591  27.419  27.063  1.00  0.00     0.071 C 
ENDBRANCH  13  16
ENDBRANCH   8  13
BRANCH  12  18
ATOM     18  O   UNL A   1      31.911  21.000  24.625  1.00  0.00    -0.490 OA
BRANCH  18  19
ATOM     19  C   UNL A   1      32.514  19.819  24.295  1.00  0.00     0.123 A 
ATOM     20  C   UNL A   1      32.610  19.278  23.004  1.00  0.00     0.050 A 
ATOM     21  C   UNL A   1      32.780  19.010  25.413  1.00  0.00     0.097 A 
ATOM     22  C   UNL A   1      32.853  17.904  22.830  1.00  0.00     0.054 A 
ATOM     23  C   UNL A   1      32.987  17.664  25.214  1.00  0.00     0.169 A 
ATOM     24  C   UNL A   1      33.005  17.120  23.954  1.00  0.00     0.166 A 
ATOM     25  O   UNL A   1      33.091  16.721  26.189  1.00  0.00    -0.453 OA
ATOM     26  O   UNL A   1      33.134  15.767  23.981  1.00  0.00    -0.454 OA
ATOM     27  C   UNL A   1      33.018  15.516  25.398  1.00  0.00     0.468 C 
ENDBRANCH  18  19
ENDBRANCH  12  18
ENDBRANCH   5   8
ENDBRANCH   3   4
ENDBRANCH   2   3
ENDBRANCH   1   2
BRANCH   1  28
ATOM     28  C   UNL A   1      36.719  22.289  25.065  1.00  0.00     0.116 C 
BRANCH  28  29
ATOM     29  N   UNL A   1      37.600  21.125  25.177  1.00  0.00    -0.352 N 
ATOM     30  C   UNL A   1      38.824  21.032  25.801  1.00  0.00     0.251 C 
ATOM     31  H   UNL A   1      37.276  20.301  24.748  1.00  0.00     0.163 HD
ATOM     32  O   UNL A   1      39.476  20.002  25.763  1.00  0.00    -0.269 OA
BRANCH  30  33
ATOM     33  C   UNL A   1      39.343  22.239  26.468  1.00  0.00     0.039 A 
ATOM     34  C   UNL A   1      40.394  22.112  27.377  1.00  0.00     0.014 A 
ATOM     35  C   UNL A   1      38.894  23.493  26.055  1.00  0.00     0.014 A 
ATOM     36  C   UNL A   1      41.067  23.257  27.798  1.00  0.00     0.010 A 
ATOM     37  C   UNL A   1      39.642  24.612  26.376  1.00  0.00     0.010 A 
ATOM     38  C   UNL A   1      40.734  24.508  27.255  1.00  0.00    -0.014 A 
BRANCH  38  39
ATOM     39  C   UNL A   1      41.475  25.744  27.605  1.00  0.00     0.031 A 
ATOM     40  C   UNL A   1      40.783  26.792  28.433  1.00  0.00     0.074 A 
ATOM     41  C   UNL A   1      42.701  25.971  27.091  1.00  0.00     0.049 A 
ATOM     42  N   UNL A   1      41.146  28.020  28.694  1.00  0.00    -0.248 NA
ATOM     43  C   UNL A   1      39.471  26.423  28.988  1.00  0.00     0.031 C 
ATOM     44  C   UNL A   1      43.445  25.052  26.225  1.00  0.00     0.029 A 
ATOM     45  N   UNL A   1      43.532  27.055  27.212  1.00  0.00    -0.354 N 
ATOM     46  C   UNL A   1      40.086  28.581  29.397  1.00  0.00     0.074 A 
ATOM     47  C   UNL A   1      39.039  27.584  29.452  1.00  0.00     0.031 C 
ATOM     48  C   UNL A   1      44.632  25.600  25.918  1.00  0.00     0.029 A 
ATOM     49  C   UNL A   1      44.715  26.926  26.520  1.00  0.00     0.049 A 
ATOM     50  H   UNL A   1      43.304  27.852  27.743  1.00  0.00     0.167 HD
ATOM     51  C   UNL A   1      40.006  29.806  29.972  1.00  0.00     0.034 A 
ATOM     52  C   UNL A   1      45.740  27.789  26.381  1.00  0.00     0.034 A 
ATOM     53  C   UNL A   1      41.085  30.758  29.952  1.00  0.00     0.049 A 
ATOM     54  C   UNL A   1      45.649  29.130  27.064  1.00  0.00     0.074 A 
ATOM     55  C   UNL A   1      41.157  31.998  30.562  1.00  0.00     0.029 A 
ATOM     56  N   UNL A   1      42.293  30.570  29.290  1.00  0.00    -0.354 N 
ATOM     57  N   UNL A   1      44.659  29.634  27.765  1.00  0.00    -0.248 NA
ATOM     58  C   UNL A   1      46.817  30.013  26.949  1.00  0.00     0.031 C 
ATOM     59  C   UNL A   1      42.385  32.578  30.229  1.00  0.00     0.029 A 
ATOM     60  C   UNL A   1      43.109  31.676  29.464  1.00  0.00     0.049 A 
ATOM     61  H   UNL A   1      42.533  29.768  28.772  1.00  0.00     0.167 HD
ATOM     62  C   UNL A   1      45.098  30.882  28.198  1.00  0.00     0.074 A 
ATOM     63  C   UNL A   1      46.446  31.045  27.691  1.00  0.00     0.031 C 
ATOM     64  C   UNL A   1      44.450  31.812  28.947  1.00  0.00     0.034 A 
BRANCH  51  65
ATOM     65  C   UNL A   1      38.705  30.168  30.650  1.00  0.00     0.023 A 
ATOM     66  C   UNL A   1      37.683  30.855  29.971  1.00  0.00     0.031 A 
ATOM     67  C   UNL A   1      38.507  29.877  32.012  1.00  0.00     0.131 A 
ATOM     68  C   UNL A   1      36.560  31.316  30.674  1.00  0.00     0.055 A 
ATOM     69  C   UNL A   1      37.342  30.255  32.683  1.00  0.00     0.041 A 
ATOM     70  F   UNL A   1      39.453  29.241  32.721  1.00  0.00    -0.206 F 
ATOM     71  C   UNL A   1      36.369  30.997  32.020  1.00  0.00     0.022 A 
BRANCH  68  72
ATOM     72  S   UNL A   1      35.443  32.481  29.846  1.00  0.00     0.124 S 
ATOM     73  O   UNL A   1      35.119  31.755  28.621  1.00  0.00    -0.237 OA
ATOM     74  O   UNL A   1      34.358  32.619  30.812  1.00  0.00    -0.237 OA
ATOM     75  O   UNL A   1      36.268  33.672  29.658  1.00  0.00    -0.744 OA
ENDBRANCH  68  72
ENDBRANCH  51  65
BRANCH  52  76
ATOM     76  C   UNL A   1      46.938  27.423  25.572  1.00  0.00     0.023 A 
ATOM     77  C   UNL A   1      47.059  27.836  24.236  1.00  0.00     0.031 A 
ATOM     78  C   UNL A   1      47.964  26.626  26.110  1.00  0.00     0.131 A 
ATOM     79  C   UNL A   1      48.154  27.414  23.467  1.00  0.00     0.055 A 
ATOM     80  C   UNL A   1      49.077  26.248  25.355  1.00  0.00     0.041 A 
ATOM     81  F   UNL A   1      47.904  26.211  27.386  1.00  0.00    -0.206 F 
ATOM     82  C   UNL A   1      49.170  26.632  24.021  1.00  0.00     0.022 A 
BRANCH  79  83
ATOM     83  S   UNL A   1      48.195  27.840  21.704  1.00  0.00     0.124 S 
ATOM     84  O   UNL A   1      46.875  28.432  21.511  1.00  0.00    -0.237 OA
ATOM     85  O   UNL A   1      49.325  28.761  21.642  1.00  0.00    -0.237 OA
ATOM     86  O   UNL A   1      48.404  26.554  21.047  1.00  0.00    -0.744 OA
ENDBRANCH  79  83
ENDBRANCH  52  76
BRANCH  64  87
ATOM     87  C   UNL A   1      45.219  33.058  29.299  1.00  0.00     0.023 A 
ATOM     88  C   UNL A   1      45.175  34.206  28.492  1.00  0.00     0.031 A 
ATOM     89  C   UNL A   1      46.009  33.091  30.462  1.00  0.00     0.131 A 
ATOM     90  C   UNL A   1      45.952  35.324  28.830  1.00  0.00     0.055 A 
ATOM     91  C   UNL A   1      46.734  34.226  30.823  1.00  0.00     0.041 A 
ATOM     92  F   UNL A   1      46.085  32.019  31.267  1.00  0.00    -0.206 F 
ATOM     93  C   UNL A   1      46.717  35.347  29.999  1.00  0.00     0.022 A 
BRANCH  90  94
ATOM     94  S   UNL A   1      46.014  36.721  27.675  1.00  0.00     0.124 S 
ATOM     95  O   UNL A   1      46.095  36.044  26.384  1.00  0.00    -0.237 OA
ATOM     96  O   UNL A   1      44.760  37.413  27.954  1.00  0.00    -0.237 OA
ATOM     97  O   UNL A   1      47.221  37.442  28.074  1.00  0.00    -0.744 OA
ENDBRANCH  90  94
ENDBRANCH  64  87
ENDBRANCH  38  39
ENDBRANCH  30  33
ENDBRANCH  28  29
ENDBRANCH   1  28
TORSDOF 18
ENDMDL
MODEL 3
REMARK VINA RESULT:     -11.7      1.948      3.937
REMARK SMILES CC[NH2+][C@@]1(C(=O)NCCCCNC(=O)c2ccc(-c3c4nc(c(-c5cc(S(=O)(=O)[O-])ccc5F)c5ccc([nH]5)c(-c5cc(S(=O)(=O)[O-])ccc5F)c5nc(c(-c6cc(S(=O)(=O)[O-])ccc6F)c6ccc3[nH]6)C=C5)C=C4)cc2)CC[C@H](Oc2ccc3c(c2)OCO3)C1
REMARK SMILES IDX 10 1 9 2 8 3 7 4 5 5 6 6 4 8 78 9 91 10 79 11 80 12 3 13
REMARK SMILES IDX 2 16 1 17 81 18 82 19 83 20 87 21 84 22 86 23 85 24 88 25
REMARK SMILES IDX 90 26 89 27 11 28 12 29 13 30 14 32 15 33 16 34 77 35 17 36
REMARK SMILES IDX 76 37 18 38 19 39 20 40 70 41 21 42 75 43 69 44 71 45 22 46
REMARK SMILES IDX 74 47 68 48 67 49 23 51 55 52 35 53 54 54 36 55 39 56 53 57
REMARK SMILES IDX 72 58 37 59 38 60 52 62 73 63 40 64 24 65 25 66 33 67 26 68
REMARK SMILES IDX 32 69 34 70 31 71 27 72 28 73 29 74 30 75 56 76 57 77 65 78
REMARK SMILES IDX 58 79 64 80 66 81 63 82 59 83 60 84 61 85 62 86 41 87 42 88
REMARK SMILES IDX 50 89 43 90 49 91 51 92 48 93 44 94 45 95 46 96 47 97
REMARK H PARENT 7 7 3 14 3 15 12 31 71 50 39 61
REMARK Flexibility Score: inf
ROOT
ATOM      1  C   UNL A   1      32.680  30.509  26.841  1.00  0.00     0.023 C 
ENDROOT
BRANCH   1   2
ATOM      2  C   UNL A   1      33.149  29.082  27.029  1.00  0.00     0.023 C 
BRANCH   2   3
ATOM      3  C   UNL A   1      33.647  28.370  25.776  1.00  0.00     0.116 C 
BRANCH   3   4
ATOM      4  N   UNL A   1      33.613  29.253  24.635  1.00  0.00    -0.351 N 
ATOM      5  C   UNL A   1      33.191  28.862  23.396  1.00  0.00     0.281 C 
ATOM      6  O   UNL A   1      34.040  28.964  22.501  1.00  0.00    -0.268 OA
ATOM      7  H   UNL A   1      33.909  30.185  24.755  1.00  0.00     0.163 HD
BRANCH   5   8
ATOM      8  C   UNL A   1      31.691  28.434  23.097  1.00  0.00     0.179 C 
ATOM      9  C   UNL A   1      30.783  28.219  24.319  1.00  0.00     0.083 C 
ATOM     10  C   UNL A   1      31.576  27.092  22.343  1.00  0.00     0.124 C 
ATOM     11  C   UNL A   1      30.686  26.709  24.561  1.00  0.00     0.052 C 
ATOM     12  C   UNL A   1      31.413  25.998  23.417  1.00  0.00     0.180 C 
BRANCH   8  13
ATOM     13  N   UNL A   1      31.029  29.524  22.296  1.00  0.00    -0.334 N 
ATOM     14  H   UNL A   1      31.686  30.300  22.216  1.00  0.00     0.347 HD
ATOM     15  H   UNL A   1      30.781  29.105  21.399  1.00  0.00     0.347 HD
BRANCH  13  16
ATOM     16  C   UNL A   1      29.778  30.044  22.862  1.00  0.00     0.257 C 
ATOM     17  C   UNL A   1      28.669  30.020  21.823  1.00  0.00     0.071 C 
ENDBRANCH  13  16
ENDBRANCH   8  13
BRANCH  12  18
ATOM     18  O   UNL A   1      32.731  25.544  23.690  1.00  0.00    -0.490 OA
BRANCH  18  19
ATOM     19  C   UNL A   1      33.022  24.541  24.572  1.00  0.00     0.123 A 
ATOM     20  C   UNL A   1      33.778  24.673  25.746  1.00  0.00     0.050 A 
ATOM     21  C   UNL A   1      32.753  23.263  24.053  1.00  0.00     0.097 A 
ATOM     22  C   UNL A   1      34.368  23.542  26.337  1.00  0.00     0.054 A 
ATOM     23  C   UNL A   1      33.366  22.177  24.636  1.00  0.00     0.169 A 
ATOM     24  C   UNL A   1      34.169  22.314  25.740  1.00  0.00     0.166 A 
ATOM     25  O   UNL A   1      33.349  20.902  24.161  1.00  0.00    -0.453 OA
ATOM     26  O   UNL A   1      34.747  21.139  26.104  1.00  0.00    -0.454 OA
ATOM     27  C   UNL A   1      34.354  20.295  25.000  1.00  0.00     0.468 C 
ENDBRANCH  18  19
ENDBRANCH  12  18
ENDBRANCH   5   8
ENDBRANCH   3   4
ENDBRANCH   2   3
ENDBRANCH   1   2
BRANCH   1  28
ATOM     28  C   UNL A   1      33.587  31.535  27.500  1.00  0.00     0.116 C 
BRANCH  28  29
ATOM     29  N   UNL A   1      33.032  32.887  27.568  1.00  0.00    -0.352 N 
ATOM     30  C   UNL A   1      33.394  33.924  28.400  1.00  0.00     0.251 C 
ATOM     31  H   UNL A   1      32.302  33.083  26.936  1.00  0.00     0.163 HD
ATOM     32  O   UNL A   1      32.797  34.988  28.381  1.00  0.00    -0.269 OA
BRANCH  30  33
ATOM     33  C   UNL A   1      34.491  33.681  29.353  1.00  0.00     0.039 A 
ATOM     34  C   UNL A   1      34.254  32.872  30.465  1.00  0.00     0.014 A 
ATOM     35  C   UNL A   1      35.777  34.119  29.039  1.00  0.00     0.014 A 
ATOM     36  C   UNL A   1      35.339  32.416  31.213  1.00  0.00     0.010 A 
ATOM     37  C   UNL A   1      36.856  33.564  29.707  1.00  0.00     0.010 A 
ATOM     38  C   UNL A   1      36.649  32.711  30.803  1.00  0.00    -0.014 A 
BRANCH  38  39
ATOM     39  C   UNL A   1      37.837  32.180  31.514  1.00  0.00     0.031 A 
ATOM     40  C   UNL A   1      38.638  31.084  30.866  1.00  0.00     0.074 A 
ATOM     41  C   UNL A   1      38.122  32.593  32.766  1.00  0.00     0.049 A 
ATOM     42  N   UNL A   1      39.581  30.333  31.370  1.00  0.00    -0.248 NA
ATOM     43  C   UNL A   1      38.277  30.746  29.480  1.00  0.00     0.031 C 
ATOM     44  C   UNL A   1      37.377  33.606  33.519  1.00  0.00     0.029 A 
ATOM     45  N   UNL A   1      39.107  32.196  33.634  1.00  0.00    -0.354 N 
ATOM     46  C   UNL A   1      39.889  29.405  30.381  1.00  0.00     0.074 A 
ATOM     47  C   UNL A   1      38.977  29.641  29.282  1.00  0.00     0.031 C 
ATOM     48  C   UNL A   1      37.951  33.771  34.722  1.00  0.00     0.029 A 
ATOM     49  C   UNL A   1      39.070  32.843  34.848  1.00  0.00     0.049 A 
ATOM     50  H   UNL A   1      39.778  31.512  33.409  1.00  0.00     0.167 HD
ATOM     51  C   UNL A   1      40.864  28.464  30.377  1.00  0.00     0.034 A 
ATOM     52  C   UNL A   1      39.844  32.690  35.939  1.00  0.00     0.034 A 
ATOM     53  C   UNL A   1      41.795  28.289  31.461  1.00  0.00     0.049 A 
ATOM     54  C   UNL A   1      40.951  31.667  35.899  1.00  0.00     0.074 A 
ATOM     55  C   UNL A   1      42.873  27.427  31.544  1.00  0.00     0.029 A 
ATOM     56  N   UNL A   1      41.763  29.004  32.654  1.00  0.00    -0.354 N 
ATOM     57  N   UNL A   1      41.260  30.824  34.941  1.00  0.00    -0.248 NA
ATOM     58  C   UNL A   1      41.818  31.582  37.080  1.00  0.00     0.031 C 
ATOM     59  C   UNL A   1      43.461  27.584  32.804  1.00  0.00     0.029 A 
ATOM     60  C   UNL A   1      42.792  28.590  33.483  1.00  0.00     0.049 A 
ATOM     61  H   UNL A   1      41.104  29.701  32.875  1.00  0.00     0.167 HD
ATOM     62  C   UNL A   1      42.378  30.129  35.394  1.00  0.00     0.074 A 
ATOM     63  C   UNL A   1      42.694  30.663  36.704  1.00  0.00     0.031 C 
ATOM     64  C   UNL A   1      43.083  29.140  34.786  1.00  0.00     0.034 A 
BRANCH  51  65
ATOM     65  C   UNL A   1      40.947  27.560  29.169  1.00  0.00     0.023 A 
ATOM     66  C   UNL A   1      41.931  27.738  28.180  1.00  0.00     0.031 A 
ATOM     67  C   UNL A   1      39.995  26.545  28.971  1.00  0.00     0.131 A 
ATOM     68  C   UNL A   1      41.880  26.987  26.996  1.00  0.00     0.055 A 
ATOM     69  C   UNL A   1      40.008  25.735  27.833  1.00  0.00     0.041 A 
ATOM     70  F   UNL A   1      39.018  26.338  29.869  1.00  0.00    -0.206 F 
ATOM     71  C   UNL A   1      40.941  25.967  26.828  1.00  0.00     0.022 A 
BRANCH  68  72
ATOM     72  S   UNL A   1      42.948  27.480  25.616  1.00  0.00     0.124 S 
ATOM     73  O   UNL A   1      44.055  28.125  26.318  1.00  0.00    -0.237 OA
ATOM     74  O   UNL A   1      43.254  26.202  24.981  1.00  0.00    -0.237 OA
ATOM     75  O   UNL A   1      42.105  28.380  24.834  1.00  0.00    -0.744 OA
ENDBRANCH  68  72
ENDBRANCH  51  65
BRANCH  52  76
ATOM     76  C   UNL A   1      39.613  33.519  37.158  1.00  0.00     0.023 A 
ATOM     77  C   UNL A   1      38.866  33.020  38.237  1.00  0.00     0.031 A 
ATOM     78  C   UNL A   1      40.106  34.833  37.249  1.00  0.00     0.131 A 
ATOM     79  C   UNL A   1      38.591  33.843  39.340  1.00  0.00     0.055 A 
ATOM     80  C   UNL A   1      39.871  35.632  38.371  1.00  0.00     0.041 A 
ATOM     81  F   UNL A   1      40.836  35.356  36.251  1.00  0.00    -0.206 F 
ATOM     82  C   UNL A   1      39.098  35.142  39.419  1.00  0.00     0.022 A 
BRANCH  79  83
ATOM     83  S   UNL A   1      37.493  33.215  40.640  1.00  0.00     0.124 S 
ATOM     84  O   UNL A   1      36.375  32.697  39.861  1.00  0.00    -0.237 OA
ATOM     85  O   UNL A   1      38.337  32.218  41.292  1.00  0.00    -0.237 OA
ATOM     86  O   UNL A   1      37.200  34.401  41.441  1.00  0.00    -0.744 OA
ENDBRANCH  79  83
ENDBRANCH  52  76
BRANCH  64  87
ATOM     87  C   UNL A   1      44.291  28.617  35.518  1.00  0.00     0.023 A 
ATOM     88  C   UNL A   1      44.197  27.560  36.439  1.00  0.00     0.031 A 
ATOM     89  C   UNL A   1      45.554  29.190  35.289  1.00  0.00     0.131 A 
ATOM     90  C   UNL A   1      45.339  27.144  37.138  1.00  0.00     0.055 A 
ATOM     91  C   UNL A   1      46.697  28.733  35.946  1.00  0.00     0.041 A 
ATOM     92  F   UNL A   1      45.698  30.203  34.419  1.00  0.00    -0.206 F 
ATOM     93  C   UNL A   1      46.591  27.712  36.886  1.00  0.00     0.022 A 
BRANCH  90  94
ATOM     94  S   UNL A   1      45.151  25.903  38.448  1.00  0.00     0.124 S 
ATOM     95  O   UNL A   1      46.533  25.489  38.674  1.00  0.00    -0.237 OA
ATOM     96  O   UNL A   1      44.534  26.675  39.522  1.00  0.00    -0.237 OA
ATOM     97  O   UNL A   1      44.291  24.890  37.841  1.00  0.00    -0.744 OA
ENDBRANCH  90  94
ENDBRANCH  64  87
ENDBRANCH  38  39
ENDBRANCH  30  33
ENDBRANCH  28  29
ENDBRANCH   1  28
TORSDOF 18
ENDMDL
