MODEL 1
REMARK VINA RESULT:     -11.7      0.000      0.000
REMARK SMILES O=C(CSc1nnc(-c2ccncc2)s1)Nc1cccc(C(=O)NCCCCNC(=O)c2ccc(-c3c4nc(c(-c5cc(S(=O)(=O)[O-])ccc5F)c5ccc([nH]5)c(-c5cc(S(=O)(=O)[O-])ccc5F)c5nc(c(-c6cc(S(=O)(=O)[O-])ccc6F)c6ccc3[nH]6)C=C5)C=C4)cc2)c1
REMARK SMILES IDX 25 1 24 2 22 3 23 4 21 6 17 7 18 8 95 9 19 10 20 11 16 12
REMARK SMILES IDX 1 13 2 14 3 16 4 17 5 18 6 19 15 20 7 21 8 22 9 23 10 24
REMARK SMILES IDX 14 25 11 26 13 27 12 28 26 29 27 30 28 31 29 32 30 33 31 35
REMARK SMILES IDX 32 36 33 37 94 38 34 39 93 40 35 41 36 42 37 43 87 44 38 45
REMARK SMILES IDX 92 46 86 47 88 48 39 49 91 50 85 51 84 52 40 54 72 55 52 56
REMARK SMILES IDX 71 57 53 58 56 59 70 60 89 61 54 62 55 63 69 65 90 66 57 67
REMARK SMILES IDX 41 68 42 69 50 70 43 71 49 72 51 73 48 74 44 75 45 76 46 77
REMARK SMILES IDX 47 78 73 79 74 80 82 81 75 82 81 83 83 84 80 85 76 86 77 87
REMARK SMILES IDX 78 88 79 89 58 90 59 91 67 92 60 93 66 94 68 95 65 96 61 97
REMARK SMILES IDX 62 98 63 99 64 100
REMARK H PARENT 24 5 16 15 29 34 88 53 56 64
REMARK Flexibility Score: inf
ROOT
ATOM      1  C   UNL A   1      31.908  29.916  25.747  1.00  0.00     0.116 C 
ENDROOT
BRANCH   1   2
ATOM      2  N   UNL A   1      31.072  30.337  24.629  1.00  0.00    -0.352 N 
ATOM      3  C   UNL A   1      30.213  29.605  23.835  1.00  0.00     0.251 C 
ATOM      4  O   UNL A   1      29.618  30.155  22.912  1.00  0.00    -0.269 OA
ATOM      5  H   UNL A   1      31.129  31.294  24.407  1.00  0.00     0.163 HD
BRANCH   3   6
ATOM      6  C   UNL A   1      30.050  28.141  24.032  1.00  0.00     0.041 A 
ATOM      7  C   UNL A   1      31.019  25.993  24.582  1.00  0.00     0.041 A 
ATOM      8  C   UNL A   1      29.893  25.362  24.041  1.00  0.00     0.026 A 
ATOM      9  C   UNL A   1      31.028  27.381  24.677  1.00  0.00     0.040 A 
ATOM     10  C   UNL A   1      28.833  26.118  23.532  1.00  0.00     0.003 A 
ATOM     11  C   UNL A   1      28.924  27.509  23.499  1.00  0.00     0.014 A 
BRANCH   7  12
ATOM     12  N   UNL A   1      32.148  25.201  24.878  1.00  0.00    -0.325 N 
ATOM     13  O   UNL A   1      31.610  24.356  26.982  1.00  0.00    -0.274 OA
ATOM     14  C   UNL A   1      32.413  24.543  26.069  1.00  0.00     0.234 C 
ATOM     15  H   UNL A   1      32.820  25.105  24.165  1.00  0.00     0.169 HD
BRANCH  14  16
ATOM     16  C   UNL A   1      33.869  24.165  26.285  1.00  0.00     0.177 C 
BRANCH  16  17
ATOM     17  S   UNL A   1      34.800  23.862  24.768  1.00  0.00    -0.084 SA
BRANCH  17  18
ATOM     18  C   UNL A   1      34.797  22.119  24.734  1.00  0.00     0.175 A 
ATOM     19  N   UNL A   1      35.886  21.452  25.045  1.00  0.00    -0.131 NA
ATOM     20  S   UNL A   1      33.443  21.146  24.359  1.00  0.00    -0.086 S 
ATOM     21  N   UNL A   1      35.671  20.092  25.037  1.00  0.00    -0.137 NA
ATOM     22  C   UNL A   1      34.433  19.779  24.701  1.00  0.00     0.148 A 
BRANCH  22  23
ATOM     23  C   UNL A   1      33.886  18.423  24.729  1.00  0.00     0.015 A 
ATOM     24  C   UNL A   1      32.878  18.031  25.612  1.00  0.00     0.031 A 
ATOM     25  C   UNL A   1      34.391  17.480  23.827  1.00  0.00     0.031 A 
ATOM     26  C   UNL A   1      32.434  16.719  25.561  1.00  0.00     0.111 A 
ATOM     27  C   UNL A   1      33.889  16.192  23.860  1.00  0.00     0.111 A 
ATOM     28  N   UNL A   1      32.925  15.790  24.712  1.00  0.00    -0.265 NA
ENDBRANCH  22  23
ENDBRANCH  17  18
ENDBRANCH  16  17
ENDBRANCH  14  16
ENDBRANCH   7  12
ENDBRANCH   3   6
ENDBRANCH   1   2
BRANCH   1  29
ATOM     29  C   UNL A   1      31.757  30.761  27.005  1.00  0.00     0.023 C 
BRANCH  29  30
ATOM     30  C   UNL A   1      31.432  32.234  26.792  1.00  0.00     0.023 C 
BRANCH  30  31
ATOM     31  C   UNL A   1      32.624  33.183  26.744  1.00  0.00     0.116 C 
BRANCH  31  32
ATOM     32  N   UNL A   1      32.525  34.302  27.670  1.00  0.00    -0.352 N 
ATOM     33  C   UNL A   1      33.283  34.598  28.783  1.00  0.00     0.251 C 
ATOM     34  H   UNL A   1      31.806  34.945  27.472  1.00  0.00     0.163 HD
ATOM     35  O   UNL A   1      32.977  35.547  29.491  1.00  0.00    -0.269 OA
BRANCH  33  36
ATOM     36  C   UNL A   1      34.435  33.736  29.141  1.00  0.00     0.039 A 
ATOM     37  C   UNL A   1      35.729  34.225  28.947  1.00  0.00     0.014 A 
ATOM     38  C   UNL A   1      34.243  32.469  29.697  1.00  0.00     0.014 A 
ATOM     39  C   UNL A   1      36.826  33.487  29.404  1.00  0.00     0.010 A 
ATOM     40  C   UNL A   1      35.328  31.776  30.228  1.00  0.00     0.010 A 
ATOM     41  C   UNL A   1      36.631  32.282  30.097  1.00  0.00    -0.014 A 
BRANCH  41  42
ATOM     42  C   UNL A   1      37.767  31.539  30.704  1.00  0.00     0.031 A 
ATOM     43  C   UNL A   1      38.223  31.865  32.100  1.00  0.00     0.074 A 
ATOM     44  C   UNL A   1      38.441  30.630  29.971  1.00  0.00     0.049 A 
ATOM     45  N   UNL A   1      39.253  31.407  32.766  1.00  0.00    -0.248 NA
ATOM     46  C   UNL A   1      37.432  32.866  32.829  1.00  0.00     0.031 C 
ATOM     47  C   UNL A   1      38.127  30.256  28.590  1.00  0.00     0.029 A 
ATOM     48  N   UNL A   1      39.538  29.863  30.279  1.00  0.00    -0.354 N 
ATOM     49  C   UNL A   1      39.244  32.077  33.984  1.00  0.00     0.074 A 
ATOM     50  C   UNL A   1      38.146  33.020  33.933  1.00  0.00     0.031 C 
ATOM     51  C   UNL A   1      38.993  29.315  28.181  1.00  0.00     0.029 A 
ATOM     52  C   UNL A   1      39.951  29.050  29.249  1.00  0.00     0.049 A 
ATOM     53  H   UNL A   1      39.986  29.894  31.154  1.00  0.00     0.167 HD
ATOM     54  C   UNL A   1      40.056  31.904  35.058  1.00  0.00     0.034 A 
ATOM     55  C   UNL A   1      40.990  28.195  29.170  1.00  0.00     0.034 A 
ATOM     56  C   UNL A   1      41.142  30.954  35.096  1.00  0.00     0.049 A 
ATOM     57  C   UNL A   1      41.898  28.037  30.362  1.00  0.00     0.074 A 
ATOM     58  C   UNL A   1      41.997  30.660  36.146  1.00  0.00     0.029 A 
ATOM     59  N   UNL A   1      41.529  30.146  34.035  1.00  0.00    -0.354 N 
ATOM     60  N   UNL A   1      41.851  28.646  31.524  1.00  0.00    -0.248 NA
ATOM     61  C   UNL A   1      42.996  27.070  30.232  1.00  0.00     0.031 C 
ATOM     62  C   UNL A   1      42.935  29.722  35.700  1.00  0.00     0.029 A 
ATOM     63  C   UNL A   1      42.626  29.375  34.394  1.00  0.00     0.049 A 
ATOM     64  H   UNL A   1      41.089  30.123  33.154  1.00  0.00     0.167 HD
ATOM     65  C   UNL A   1      42.895  28.113  32.274  1.00  0.00     0.074 A 
ATOM     66  C   UNL A   1      43.546  27.127  31.435  1.00  0.00     0.031 C 
ATOM     67  C   UNL A   1      43.275  28.406  33.543  1.00  0.00     0.034 A 
BRANCH  54  68
ATOM     68  C   UNL A   1      39.805  32.786  36.260  1.00  0.00     0.023 A 
ATOM     69  C   UNL A   1      39.019  32.347  37.341  1.00  0.00     0.031 A 
ATOM     70  C   UNL A   1      40.303  34.100  36.302  1.00  0.00     0.131 A 
ATOM     71  C   UNL A   1      38.673  33.241  38.365  1.00  0.00     0.055 A 
ATOM     72  C   UNL A   1      40.031  34.957  37.372  1.00  0.00     0.041 A 
ATOM     73  F   UNL A   1      41.044  34.584  35.293  1.00  0.00    -0.206 F 
ATOM     74  C   UNL A   1      39.194  34.536  38.402  1.00  0.00     0.022 A 
BRANCH  71  75
ATOM     75  S   UNL A   1      37.393  32.741  39.549  1.00  0.00     0.124 S 
ATOM     76  O   UNL A   1      36.197  32.739  38.708  1.00  0.00    -0.237 OA
ATOM     77  O   UNL A   1      37.864  31.433  39.991  1.00  0.00    -0.237 OA
ATOM     78  O   UNL A   1      37.431  33.795  40.561  1.00  0.00    -0.744 OA
ENDBRANCH  71  75
ENDBRANCH  54  68
BRANCH  55  79
ATOM     79  C   UNL A   1      41.232  27.418  27.922  1.00  0.00     0.023 A 
ATOM     80  C   UNL A   1      41.020  26.031  27.886  1.00  0.00     0.031 A 
ATOM     81  C   UNL A   1      41.704  28.044  26.756  1.00  0.00     0.131 A 
ATOM     82  C   UNL A   1      41.318  25.307  26.721  1.00  0.00     0.055 A 
ATOM     83  C   UNL A   1      41.955  27.328  25.584  1.00  0.00     0.041 A 
ATOM     84  F   UNL A   1      41.915  29.370  26.736  1.00  0.00    -0.206 F 
ATOM     85  C   UNL A   1      41.772  25.948  25.566  1.00  0.00     0.022 A 
BRANCH  82  86
ATOM     86  S   UNL A   1      41.159  23.501  26.755  1.00  0.00     0.124 S 
ATOM     87  O   UNL A   1      41.233  23.223  28.185  1.00  0.00    -0.237 OA
ATOM     88  O   UNL A   1      39.858  23.299  26.128  1.00  0.00    -0.237 OA
ATOM     89  O   UNL A   1      42.303  23.044  25.969  1.00  0.00    -0.744 OA
ENDBRANCH  82  86
ENDBRANCH  55  79
BRANCH  67  90
ATOM     90  C   UNL A   1      44.425  27.611  34.112  1.00  0.00     0.023 A 
ATOM     91  C   UNL A   1      45.755  28.059  34.019  1.00  0.00     0.031 A 
ATOM     92  C   UNL A   1      44.184  26.378  34.745  1.00  0.00     0.131 A 
ATOM     93  C   UNL A   1      46.797  27.254  34.503  1.00  0.00     0.055 A 
ATOM     94  C   UNL A   1      45.220  25.609  35.275  1.00  0.00     0.041 A 
ATOM     95  F   UNL A   1      42.934  25.901  34.859  1.00  0.00    -0.206 F 
ATOM     96  C   UNL A   1      46.538  26.041  35.144  1.00  0.00     0.022 A 
BRANCH  93  97
ATOM     97  S   UNL A   1      48.510  27.777  34.208  1.00  0.00     0.124 S 
ATOM     98  O   UNL A   1      48.820  27.106  32.949  1.00  0.00    -0.237 OA
ATOM     99  O   UNL A   1      48.387  29.229  34.145  1.00  0.00    -0.237 OA
ATOM    100  O   UNL A   1      49.229  27.268  35.375  1.00  0.00    -0.744 OA
ENDBRANCH  93  97
ENDBRANCH  67  90
ENDBRANCH  41  42
ENDBRANCH  33  36
ENDBRANCH  31  32
ENDBRANCH  30  31
ENDBRANCH  29  30
ENDBRANCH   1  29
TORSDOF 19
ENDMDL
MODEL 2
REMARK VINA RESULT:     -11.4      2.544      3.226
REMARK SMILES O=C(CSc1nnc(-c2ccncc2)s1)Nc1cccc(C(=O)NCCCCNC(=O)c2ccc(-c3c4nc(c(-c5cc(S(=O)(=O)[O-])ccc5F)c5ccc([nH]5)c(-c5cc(S(=O)(=O)[O-])ccc5F)c5nc(c(-c6cc(S(=O)(=O)[O-])ccc6F)c6ccc3[nH]6)C=C5)C=C4)cc2)c1
REMARK SMILES IDX 25 1 24 2 22 3 23 4 21 6 17 7 18 8 95 9 19 10 20 11 16 12
REMARK SMILES IDX 1 13 2 14 3 16 4 17 5 18 6 19 15 20 7 21 8 22 9 23 10 24
REMARK SMILES IDX 14 25 11 26 13 27 12 28 26 29 27 30 28 31 29 32 30 33 31 35
REMARK SMILES IDX 32 36 33 37 94 38 34 39 93 40 35 41 36 42 37 43 87 44 38 45
REMARK SMILES IDX 92 46 86 47 88 48 39 49 91 50 85 51 84 52 40 54 72 55 52 56
REMARK SMILES IDX 71 57 53 58 56 59 70 60 89 61 54 62 55 63 69 65 90 66 57 67
REMARK SMILES IDX 41 68 42 69 50 70 43 71 49 72 51 73 48 74 44 75 45 76 46 77
REMARK SMILES IDX 47 78 73 79 74 80 82 81 75 82 81 83 83 84 80 85 76 86 77 87
REMARK SMILES IDX 78 88 79 89 58 90 59 91 67 92 60 93 66 94 68 95 65 96 61 97
REMARK SMILES IDX 62 98 63 99 64 100
REMARK H PARENT 24 5 16 15 29 34 88 53 56 64
REMARK Flexibility Score: inf
ROOT
ATOM      1  C   UNL A   1      31.856  30.074  25.568  1.00  0.00     0.116 C 
ENDROOT
BRANCH   1   2
ATOM      2  N   UNL A   1      31.109  30.274  24.332  1.00  0.00    -0.352 N 
ATOM      3  C   UNL A   1      30.372  29.379  23.584  1.00  0.00     0.251 C 
ATOM      4  O   UNL A   1      29.839  29.750  22.541  1.00  0.00    -0.269 OA
ATOM      5  H   UNL A   1      31.134  31.191  23.976  1.00  0.00     0.163 HD
BRANCH   3   6
ATOM      6  C   UNL A   1      30.273  27.950  23.979  1.00  0.00     0.041 A 
ATOM      7  C   UNL A   1      31.363  25.864  24.543  1.00  0.00     0.041 A 
ATOM      8  C   UNL A   1      30.151  25.193  24.345  1.00  0.00     0.026 A 
ATOM      9  C   UNL A   1      31.378  27.254  24.473  1.00  0.00     0.040 A 
ATOM     10  C   UNL A   1      28.996  25.902  24.003  1.00  0.00     0.003 A 
ATOM     11  C   UNL A   1      29.063  27.278  23.789  1.00  0.00     0.014 A 
BRANCH   7  12
ATOM     12  N   UNL A   1      32.539  25.094  24.669  1.00  0.00    -0.325 N 
ATOM     13  O   UNL A   1      32.221  24.059  26.732  1.00  0.00    -0.274 OA
ATOM     14  C   UNL A   1      32.931  24.351  25.770  1.00  0.00     0.234 C 
ATOM     15  H   UNL A   1      33.144  25.084  23.893  1.00  0.00     0.169 HD
BRANCH  14  16
ATOM     16  C   UNL A   1      34.412  24.012  25.823  1.00  0.00     0.177 C 
BRANCH  16  17
ATOM     17  S   UNL A   1      34.872  22.518  24.919  1.00  0.00    -0.084 SA
BRANCH  17  18
ATOM     18  C   UNL A   1      36.570  22.420  25.308  1.00  0.00     0.175 A 
ATOM     19  N   UNL A   1      37.147  23.385  25.986  1.00  0.00    -0.131 NA
ATOM     20  S   UNL A   1      37.593  21.111  24.909  1.00  0.00    -0.086 S 
ATOM     21  N   UNL A   1      38.465  23.096  26.264  1.00  0.00    -0.137 NA
ATOM     22  C   UNL A   1      38.842  21.932  25.766  1.00  0.00     0.148 A 
BRANCH  22  23
ATOM     23  C   UNL A   1      40.143  21.312  26.008  1.00  0.00     0.015 A 
ATOM     24  C   UNL A   1      41.332  22.043  26.069  1.00  0.00     0.031 A 
ATOM     25  C   UNL A   1      40.200  19.927  26.194  1.00  0.00     0.031 A 
ATOM     26  C   UNL A   1      42.514  21.357  26.297  1.00  0.00     0.111 A 
ATOM     27  C   UNL A   1      41.429  19.332  26.407  1.00  0.00     0.111 A 
ATOM     28  N   UNL A   1      42.589  20.018  26.457  1.00  0.00    -0.265 NA
ENDBRANCH  22  23
ENDBRANCH  17  18
ENDBRANCH  16  17
ENDBRANCH  14  16
ENDBRANCH   7  12
ENDBRANCH   3   6
ENDBRANCH   1   2
BRANCH   1  29
ATOM     29  C   UNL A   1      31.308  30.834  26.769  1.00  0.00     0.023 C 
BRANCH  29  30
ATOM     30  C   UNL A   1      31.436  32.352  26.722  1.00  0.00     0.023 C 
BRANCH  30  31
ATOM     31  C   UNL A   1      32.806  32.920  27.076  1.00  0.00     0.116 C 
BRANCH  31  32
ATOM     32  N   UNL A   1      32.751  34.138  27.871  1.00  0.00    -0.352 N 
ATOM     33  C   UNL A   1      33.531  34.535  28.937  1.00  0.00     0.251 C 
ATOM     34  H   UNL A   1      32.049  34.777  27.607  1.00  0.00     0.163 HD
ATOM     35  O   UNL A   1      33.261  35.566  29.535  1.00  0.00    -0.269 OA
BRANCH  33  36
ATOM     36  C   UNL A   1      34.660  33.684  29.381  1.00  0.00     0.039 A 
ATOM     37  C   UNL A   1      35.964  34.070  29.056  1.00  0.00     0.014 A 
ATOM     38  C   UNL A   1      34.441  32.534  30.143  1.00  0.00     0.014 A 
ATOM     39  C   UNL A   1      37.048  33.359  29.580  1.00  0.00     0.010 A 
ATOM     40  C   UNL A   1      35.520  31.880  30.732  1.00  0.00     0.010 A 
ATOM     41  C   UNL A   1      36.836  32.292  30.467  1.00  0.00    -0.014 A 
BRANCH  41  42
ATOM     42  C   UNL A   1      37.967  31.599  31.137  1.00  0.00     0.031 A 
ATOM     43  C   UNL A   1      38.405  32.022  32.513  1.00  0.00     0.074 A 
ATOM     44  C   UNL A   1      38.655  30.645  30.477  1.00  0.00     0.049 A 
ATOM     45  N   UNL A   1      39.428  31.617  33.221  1.00  0.00    -0.248 NA
ATOM     46  C   UNL A   1      37.600  33.067  33.161  1.00  0.00     0.031 C 
ATOM     47  C   UNL A   1      38.360  30.174  29.122  1.00  0.00     0.029 A 
ATOM     48  N   UNL A   1      39.751  29.906  30.851  1.00  0.00    -0.354 N 
ATOM     49  C   UNL A   1      39.401  32.370  34.390  1.00  0.00     0.074 A 
ATOM     50  C   UNL A   1      38.299  33.302  34.260  1.00  0.00     0.031 C 
ATOM     51  C   UNL A   1      39.234  29.211  28.790  1.00  0.00     0.029 A 
ATOM     52  C   UNL A   1      40.180  29.026  29.885  1.00  0.00     0.049 A 
ATOM     53  H   UNL A   1      40.188  30.000  31.728  1.00  0.00     0.167 HD
ATOM     54  C   UNL A   1      40.200  32.276  35.483  1.00  0.00     0.034 A 
ATOM     55  C   UNL A   1      41.223  28.172  29.878  1.00  0.00     0.034 A 
ATOM     56  C   UNL A   1      41.289  31.337  35.601  1.00  0.00     0.049 A 
ATOM     57  C   UNL A   1      42.118  28.102  31.089  1.00  0.00     0.074 A 
ATOM     58  C   UNL A   1      42.132  31.120  36.678  1.00  0.00     0.029 A 
ATOM     59  N   UNL A   1      41.693  30.459  34.603  1.00  0.00    -0.354 N 
ATOM     60  N   UNL A   1      42.053  28.790  32.206  1.00  0.00    -0.248 NA
ATOM     61  C   UNL A   1      43.221  27.134  31.040  1.00  0.00     0.031 C 
ATOM     62  C   UNL A   1      43.080  30.158  36.311  1.00  0.00     0.029 A 
ATOM     63  C   UNL A   1      42.789  29.721  35.028  1.00  0.00     0.049 A 
ATOM     64  H   UNL A   1      41.265  30.373  33.720  1.00  0.00     0.167 HD
ATOM     65  C   UNL A   1      43.090  28.316  33.004  1.00  0.00     0.074 A 
ATOM     66  C   UNL A   1      43.756  27.277  32.243  1.00  0.00     0.031 C 
ATOM     67  C   UNL A   1      43.453  28.698  34.254  1.00  0.00     0.034 A 
BRANCH  54  68
ATOM     68  C   UNL A   1      39.930  33.238  36.618  1.00  0.00     0.023 A 
ATOM     69  C   UNL A   1      39.307  32.815  37.806  1.00  0.00     0.031 A 
ATOM     70  C   UNL A   1      40.242  34.603  36.491  1.00  0.00     0.131 A 
ATOM     71  C   UNL A   1      38.926  33.758  38.772  1.00  0.00     0.055 A 
ATOM     72  C   UNL A   1      39.944  35.523  37.498  1.00  0.00     0.041 A 
ATOM     73  F   UNL A   1      40.821  35.072  35.374  1.00  0.00    -0.206 F 
ATOM     74  C   UNL A   1      39.263  35.107  38.640  1.00  0.00     0.022 A 
BRANCH  71  75
ATOM     75  S   UNL A   1      37.833  33.220  40.116  1.00  0.00     0.124 S 
ATOM     76  O   UNL A   1      37.809  34.406  40.970  1.00  0.00    -0.237 OA
ATOM     77  O   UNL A   1      36.593  32.915  39.412  1.00  0.00    -0.237 OA
ATOM     78  O   UNL A   1      38.530  32.068  40.685  1.00  0.00    -0.744 OA
ENDBRANCH  71  75
ENDBRANCH  54  68
BRANCH  55  79
ATOM     79  C   UNL A   1      41.484  27.312  28.691  1.00  0.00     0.023 A 
ATOM     80  C   UNL A   1      42.467  27.661  27.752  1.00  0.00     0.031 A 
ATOM     81  C   UNL A   1      40.737  26.144  28.461  1.00  0.00     0.131 A 
ATOM     82  C   UNL A   1      42.652  26.873  26.605  1.00  0.00     0.055 A 
ATOM     83  C   UNL A   1      40.955  25.336  27.343  1.00  0.00     0.041 A 
ATOM     84  F   UNL A   1      39.790  25.761  29.333  1.00  0.00    -0.206 F 
ATOM     85  C   UNL A   1      41.911  25.706  26.401  1.00  0.00     0.022 A 
BRANCH  82  86
ATOM     86  S   UNL A   1      43.837  27.428  25.350  1.00  0.00     0.124 S 
ATOM     87  O   UNL A   1      42.951  27.913  24.298  1.00  0.00    -0.237 OA
ATOM     88  O   UNL A   1      44.592  28.445  26.075  1.00  0.00    -0.237 OA
ATOM     89  O   UNL A   1      44.584  26.214  25.028  1.00  0.00    -0.744 OA
ENDBRANCH  82  86
ENDBRANCH  55  79
BRANCH  67  90
ATOM     90  C   UNL A   1      44.599  27.950  34.891  1.00  0.00     0.023 A 
ATOM     91  C   UNL A   1      44.391  26.802  35.676  1.00  0.00     0.031 A 
ATOM     92  C   UNL A   1      45.919  28.405  34.719  1.00  0.00     0.131 A 
ATOM     93  C   UNL A   1      45.480  26.179  36.303  1.00  0.00     0.055 A 
ATOM     94  C   UNL A   1      47.004  27.748  35.300  1.00  0.00     0.041 A 
ATOM     95  F   UNL A   1      46.174  29.499  33.983  1.00  0.00    -0.206 F 
ATOM     96  C   UNL A   1      46.786  26.635  36.107  1.00  0.00     0.022 A 
BRANCH  93  97
ATOM     97  S   UNL A   1      45.160  24.810  37.450  1.00  0.00     0.124 S 
ATOM     98  O   UNL A   1      44.366  23.903  36.626  1.00  0.00    -0.237 OA
ATOM     99  O   UNL A   1      46.507  24.357  37.780  1.00  0.00    -0.237 OA
ATOM    100  O   UNL A   1      44.434  25.445  38.548  1.00  0.00    -0.744 OA
ENDBRANCH  93  97
ENDBRANCH  67  90
ENDBRANCH  41  42
ENDBRANCH  33  36
ENDBRANCH  31  32
ENDBRANCH  30  31
ENDBRANCH  29  30
ENDBRANCH   1  29
TORSDOF 19
ENDMDL
MODEL 3
REMARK VINA RESULT:     -11.3      5.888     11.552
REMARK SMILES O=C(CSc1nnc(-c2ccncc2)s1)Nc1cccc(C(=O)NCCCCNC(=O)c2ccc(-c3c4nc(c(-c5cc(S(=O)(=O)[O-])ccc5F)c5ccc([nH]5)c(-c5cc(S(=O)(=O)[O-])ccc5F)c5nc(c(-c6cc(S(=O)(=O)[O-])ccc6F)c6ccc3[nH]6)C=C5)C=C4)cc2)c1
REMARK SMILES IDX 25 1 24 2 22 3 23 4 21 6 17 7 18 8 95 9 19 10 20 11 16 12
REMARK SMILES IDX 1 13 2 14 3 16 4 17 5 18 6 19 15 20 7 21 8 22 9 23 10 24
REMARK SMILES IDX 14 25 11 26 13 27 12 28 26 29 27 30 28 31 29 32 30 33 31 35
REMARK SMILES IDX 32 36 33 37 94 38 34 39 93 40 35 41 36 42 37 43 87 44 38 45
REMARK SMILES IDX 92 46 86 47 88 48 39 49 91 50 85 51 84 52 40 54 72 55 52 56
REMARK SMILES IDX 71 57 53 58 56 59 70 60 89 61 54 62 55 63 69 65 90 66 57 67
REMARK SMILES IDX 41 68 42 69 50 70 43 71 49 72 51 73 48 74 44 75 45 76 46 77
REMARK SMILES IDX 47 78 73 79 74 80 82 81 75 82 81 83 83 84 80 85 76 86 77 87
REMARK SMILES IDX 78 88 79 89 58 90 59 91 67 92 60 93 66 94 68 95 65 96 61 97
REMARK SMILES IDX 62 98 63 99 64 100
REMARK H PARENT 24 5 16 15 29 34 88 53 56 64
REMARK Flexibility Score: inf
ROOT
ATOM      1  C   UNL A   1      38.987  21.178  25.759  1.00  0.00     0.116 C 
ENDROOT
BRANCH   1   2
ATOM      2  N   UNL A   1      39.241  22.546  26.195  1.00  0.00    -0.352 N 
ATOM      3  C   UNL A   1      38.471  23.682  26.055  1.00  0.00     0.251 C 
ATOM      4  O   UNL A   1      38.891  24.758  26.474  1.00  0.00    -0.269 OA
ATOM      5  H   UNL A   1      40.097  22.678  26.663  1.00  0.00     0.163 HD
BRANCH   3   6
ATOM      6  C   UNL A   1      37.170  23.641  25.339  1.00  0.00     0.041 A 
ATOM      7  C   UNL A   1      34.753  23.743  25.403  1.00  0.00     0.041 A 
ATOM      8  C   UNL A   1      34.710  23.195  24.116  1.00  0.00     0.026 A 
ATOM      9  C   UNL A   1      35.990  24.069  25.950  1.00  0.00     0.040 A 
ATOM     10  C   UNL A   1      35.892  22.907  23.428  1.00  0.00     0.003 A 
ATOM     11  C   UNL A   1      37.124  23.101  24.051  1.00  0.00     0.014 A 
BRANCH   7  12
ATOM     12  N   UNL A   1      33.551  23.810  26.139  1.00  0.00    -0.325 N 
ATOM     13  O   UNL A   1      33.799  22.044  27.638  1.00  0.00    -0.274 OA
ATOM     14  C   UNL A   1      33.116  22.917  27.104  1.00  0.00     0.234 C 
ATOM     15  H   UNL A   1      32.959  24.572  25.946  1.00  0.00     0.169 HD
BRANCH  14  16
ATOM     16  C   UNL A   1      31.624  22.957  27.392  1.00  0.00     0.177 C 
BRANCH  16  17
ATOM     17  S   UNL A   1      30.574  22.579  25.972  1.00  0.00    -0.084 SA
BRANCH  17  18
ATOM     18  C   UNL A   1      30.610  24.107  25.133  1.00  0.00     0.175 A 
ATOM     19  N   UNL A   1      31.153  24.191  23.940  1.00  0.00    -0.131 NA
ATOM     20  S   UNL A   1      29.941  25.565  25.721  1.00  0.00    -0.086 S 
ATOM     21  N   UNL A   1      31.019  25.454  23.405  1.00  0.00    -0.137 NA
ATOM     22  C   UNL A   1      30.398  26.284  24.223  1.00  0.00     0.148 A 
BRANCH  22  23
ATOM     23  C   UNL A   1      30.007  27.649  23.876  1.00  0.00     0.015 A 
ATOM     24  C   UNL A   1      30.749  28.769  24.254  1.00  0.00     0.031 A 
ATOM     25  C   UNL A   1      28.842  27.840  23.125  1.00  0.00     0.031 A 
ATOM     26  C   UNL A   1      30.287  30.021  23.879  1.00  0.00     0.111 A 
ATOM     27  C   UNL A   1      28.458  29.129  22.806  1.00  0.00     0.111 A 
ATOM     28  N   UNL A   1      29.154  30.225  23.173  1.00  0.00    -0.265 NA
ENDBRANCH  22  23
ENDBRANCH  17  18
ENDBRANCH  16  17
ENDBRANCH  14  16
ENDBRANCH   7  12
ENDBRANCH   3   6
ENDBRANCH   1   2
BRANCH   1  29
ATOM     29  C   UNL A   1      40.087  20.185  26.111  1.00  0.00     0.023 C 
BRANCH  29  30
ATOM     30  C   UNL A   1      41.091  20.638  27.163  1.00  0.00     0.023 C 
BRANCH  30  31
ATOM     31  C   UNL A   1      42.264  19.698  27.418  1.00  0.00     0.116 C 
BRANCH  31  32
ATOM     32  N   UNL A   1      42.885  19.188  26.204  1.00  0.00    -0.352 N 
ATOM     33  C   UNL A   1      43.648  19.841  25.260  1.00  0.00     0.251 C 
ATOM     34  H   UNL A   1      42.738  18.229  26.032  1.00  0.00     0.163 HD
ATOM     35  O   UNL A   1      44.005  19.248  24.252  1.00  0.00    -0.269 OA
BRANCH  33  36
ATOM     36  C   UNL A   1      43.992  21.271  25.450  1.00  0.00     0.039 A 
ATOM     37  C   UNL A   1      43.176  22.243  24.865  1.00  0.00     0.014 A 
ATOM     38  C   UNL A   1      45.088  21.653  26.227  1.00  0.00     0.014 A 
ATOM     39  C   UNL A   1      43.401  23.595  25.144  1.00  0.00     0.010 A 
ATOM     40  C   UNL A   1      45.258  22.991  26.571  1.00  0.00     0.010 A 
ATOM     41  C   UNL A   1      44.409  23.977  26.043  1.00  0.00    -0.014 A 
BRANCH  41  42
ATOM     42  C   UNL A   1      44.591  25.394  26.455  1.00  0.00     0.031 A 
ATOM     43  C   UNL A   1      45.945  26.042  26.358  1.00  0.00     0.074 A 
ATOM     44  C   UNL A   1      43.558  26.073  26.994  1.00  0.00     0.049 A 
ATOM     45  N   UNL A   1      46.331  27.225  26.761  1.00  0.00    -0.248 NA
ATOM     46  C   UNL A   1      47.014  25.232  25.757  1.00  0.00     0.031 C 
ATOM     47  C   UNL A   1      42.205  25.543  27.185  1.00  0.00     0.029 A 
ATOM     48  N   UNL A   1      43.485  27.350  27.492  1.00  0.00    -0.354 N 
ATOM     49  C   UNL A   1      47.691  27.296  26.479  1.00  0.00     0.074 A 
ATOM     50  C   UNL A   1      48.071  26.009  25.935  1.00  0.00     0.031 C 
ATOM     51  C   UNL A   1      41.433  26.496  27.733  1.00  0.00     0.029 A 
ATOM     52  C   UNL A   1      42.241  27.685  27.975  1.00  0.00     0.049 A 
ATOM     53  H   UNL A   1      44.251  27.968  27.502  1.00  0.00     0.167 HD
ATOM     54  C   UNL A   1      48.539  28.345  26.633  1.00  0.00     0.034 A 
ATOM     55  C   UNL A   1      41.804  28.820  28.558  1.00  0.00     0.034 A 
ATOM     56  C   UNL A   1      48.143  29.625  27.169  1.00  0.00     0.049 A 
ATOM     57  C   UNL A   1      42.767  29.963  28.746  1.00  0.00     0.074 A 
ATOM     58  C   UNL A   1      48.905  30.771  27.324  1.00  0.00     0.029 A 
ATOM     59  N   UNL A   1      46.874  29.928  27.647  1.00  0.00    -0.354 N 
ATOM     60  N   UNL A   1      44.041  30.031  28.435  1.00  0.00    -0.248 NA
ATOM     61  C   UNL A   1      42.230  31.185  29.358  1.00  0.00     0.031 C 
ATOM     62  C   UNL A   1      48.116  31.744  27.948  1.00  0.00     0.029 A 
ATOM     63  C   UNL A   1      46.840  31.231  28.121  1.00  0.00     0.049 A 
ATOM     64  H   UNL A   1      46.109  29.307  27.649  1.00  0.00     0.167 HD
ATOM     65  C   UNL A   1      44.449  31.314  28.786  1.00  0.00     0.074 A 
ATOM     66  C   UNL A   1      43.283  31.987  29.323  1.00  0.00     0.031 C 
ATOM     67  C   UNL A   1      45.674  31.886  28.668  1.00  0.00     0.034 A 
BRANCH  54  68
ATOM     68  C   UNL A   1      49.981  28.126  26.235  1.00  0.00     0.023 A 
ATOM     69  C   UNL A   1      50.442  28.439  24.942  1.00  0.00     0.031 A 
ATOM     70  C   UNL A   1      50.894  27.545  27.133  1.00  0.00     0.131 A 
ATOM     71  C   UNL A   1      51.741  28.078  24.554  1.00  0.00     0.055 A 
ATOM     72  C   UNL A   1      52.214  27.274  26.769  1.00  0.00     0.041 A 
ATOM     73  F   UNL A   1      50.511  27.208  28.374  1.00  0.00    -0.206 F 
ATOM     74  C   UNL A   1      52.640  27.521  25.466  1.00  0.00     0.022 A 
BRANCH  71  75
ATOM     75  S   UNL A   1      52.176  28.188  22.796  1.00  0.00     0.124 S 
ATOM     76  O   UNL A   1      51.009  28.874  22.246  1.00  0.00    -0.237 OA
ATOM     77  O   UNL A   1      53.415  28.956  22.824  1.00  0.00    -0.237 OA
ATOM     78  O   UNL A   1      52.314  26.790  22.390  1.00  0.00    -0.744 OA
ENDBRANCH  71  75
ENDBRANCH  54  68
BRANCH  55  79
ATOM     79  C   UNL A   1      40.388  28.938  29.006  1.00  0.00     0.023 A 
ATOM     80  C   UNL A   1      40.048  28.800  30.360  1.00  0.00     0.031 A 
ATOM     81  C   UNL A   1      39.351  29.162  28.084  1.00  0.00     0.131 A 
ATOM     82  C   UNL A   1      38.701  28.848  30.753  1.00  0.00     0.055 A 
ATOM     83  C   UNL A   1      38.016  29.256  28.484  1.00  0.00     0.041 A 
ATOM     84  F   UNL A   1      39.623  29.310  26.778  1.00  0.00    -0.206 F 
ATOM     85  C   UNL A   1      37.684  29.088  29.825  1.00  0.00     0.022 A 
BRANCH  82  86
ATOM     86  S   UNL A   1      38.291  28.532  32.490  1.00  0.00     0.124 S 
ATOM     87  O   UNL A   1      39.440  29.111  33.178  1.00  0.00    -0.237 OA
ATOM     88  O   UNL A   1      37.027  29.246  32.638  1.00  0.00    -0.237 OA
ATOM     89  O   UNL A   1      38.191  27.076  32.557  1.00  0.00    -0.744 OA
ENDBRANCH  82  86
ENDBRANCH  55  79
BRANCH  67  90
ATOM     90  C   UNL A   1      45.796  33.330  29.088  1.00  0.00     0.023 A 
ATOM     91  C   UNL A   1      45.658  34.386  28.169  1.00  0.00     0.031 A 
ATOM     92  C   UNL A   1      46.069  33.653  30.430  1.00  0.00     0.131 A 
ATOM     93  C   UNL A   1      45.847  35.710  28.592  1.00  0.00     0.055 A 
ATOM     94  C   UNL A   1      46.199  34.974  30.856  1.00  0.00     0.041 A 
ATOM     95  F   UNL A   1      46.214  32.684  31.349  1.00  0.00    -0.206 F 
ATOM     96  C   UNL A   1      46.100  36.011  29.932  1.00  0.00     0.022 A 
BRANCH  93  97
ATOM     97  S   UNL A   1      45.838  37.032  27.350  1.00  0.00     0.124 S 
ATOM     98  O   UNL A   1      44.411  37.301  27.203  1.00  0.00    -0.237 OA
ATOM     99  O   UNL A   1      46.621  38.077  28.001  1.00  0.00    -0.237 OA
ATOM    100  O   UNL A   1      46.476  36.415  26.189  1.00  0.00    -0.744 OA
ENDBRANCH  93  97
ENDBRANCH  67  90
ENDBRANCH  41  42
ENDBRANCH  33  36
ENDBRANCH  31  32
ENDBRANCH  30  31
ENDBRANCH  29  30
ENDBRANCH   1  29
TORSDOF 19
ENDMDL
