MODEL 1
REMARK VINA RESULT:     -13.4      0.000      0.000
REMARK SMILES NS(=O)(=O)c1ccc(-n2nc(C(F)(F)F)cc2-c2ccc(C(=O)NCCCCNC(=O)c3ccc(-c4c5nc(c(-c6cc(S(=O)(=O)[O-])ccc6F)c6ccc([nH]6)c(-c6cc(S(=O)(=O)[O-])ccc6F)c6nc(c(-c7cc(S(=O)(=O)[O-])ccc7F)c7ccc4[nH]7)C=C6)C=C5)cc3)cc2)cc1
REMARK SMILES IDX 26 1 25 2 24 3 22 4 23 5 21 7 18 8 19 9 96 10 20 11 95 12
REMARK SMILES IDX 17 13 9 14 10 15 11 16 16 17 8 18 5 19 6 20 98 21 7 22 97 23
REMARK SMILES IDX 2 24 3 25 4 26 1 27 12 30 13 31 14 32 15 33 27 34 28 35
REMARK SMILES IDX 29 36 30 37 31 39 32 40 33 41 94 42 34 43 93 44 35 45 36 46
REMARK SMILES IDX 37 47 87 48 38 49 92 50 86 51 88 52 39 53 91 54 85 55 84 56
REMARK SMILES IDX 40 58 72 59 52 60 71 61 53 62 56 63 70 64 89 65 54 66 55 67
REMARK SMILES IDX 69 69 90 70 57 71 41 72 42 73 50 74 43 75 49 76 51 77 48 78
REMARK SMILES IDX 44 79 45 80 46 81 47 82 73 83 74 84 82 85 75 86 81 87 83 88
REMARK SMILES IDX 80 89 76 90 77 91 78 92 79 93 58 94 59 95 67 96 60 97 66 98
REMARK SMILES IDX 68 99 65 100 61 101 62 102 63 103 64 104
REMARK H PARENT 24 6 1 28 1 29 29 38 88 57 56 68
REMARK Flexibility Score: inf
ROOT
ATOM      1  C   UNL A   1      33.632  28.373  25.892  1.00  0.00     0.023 C 
ENDROOT
BRANCH   1   2
ATOM      2  C   UNL A   1      32.369  27.570  26.226  1.00  0.00     0.116 C 
BRANCH   2   3
ATOM      3  N   UNL A   1      31.824  26.935  25.040  1.00  0.00    -0.352 N 
ATOM      4  C   UNL A   1      32.211  25.833  24.322  1.00  0.00     0.251 C 
ATOM      5  O   UNL A   1      31.536  25.518  23.342  1.00  0.00    -0.269 OA
ATOM      6  H   UNL A   1      31.023  27.381  24.683  1.00  0.00     0.163 HD
BRANCH   4   7
ATOM      7  C   UNL A   1      33.377  24.984  24.694  1.00  0.00     0.039 A 
ATOM      8  C   UNL A   1      35.618  23.371  25.233  1.00  0.00     0.000 A 
ATOM      9  C   UNL A   1      35.417  23.887  23.948  1.00  0.00     0.011 A 
ATOM     10  C   UNL A   1      34.706  23.669  26.245  1.00  0.00     0.011 A 
ATOM     11  C   UNL A   1      34.300  24.683  23.682  1.00  0.00     0.014 A 
ATOM     12  C   UNL A   1      33.623  24.506  25.983  1.00  0.00     0.014 A 
BRANCH   8  13
ATOM     13  C   UNL A   1      36.819  22.620  25.562  1.00  0.00     0.075 A 
ATOM     14  N   UNL A   1      36.909  21.237  25.539  1.00  0.00    -0.233 N 
ATOM     15  N   UNL A   1      38.083  20.796  26.060  1.00  0.00    -0.163 NA
ATOM     16  C   UNL A   1      38.826  21.914  26.217  1.00  0.00     0.167 A 
ATOM     17  C   UNL A   1      38.055  23.073  25.963  1.00  0.00     0.064 A 
BRANCH  14  18
ATOM     18  C   UNL A   1      35.937  20.325  25.049  1.00  0.00     0.065 A 
ATOM     19  C   UNL A   1      33.995  18.464  24.338  1.00  0.00     0.082 A 
ATOM     20  C   UNL A   1      33.611  19.771  24.635  1.00  0.00     0.024 A 
ATOM     21  C   UNL A   1      35.346  18.090  24.358  1.00  0.00     0.024 A 
ATOM     22  C   UNL A   1      34.585  20.701  24.992  1.00  0.00     0.030 A 
ATOM     23  C   UNL A   1      36.326  19.030  24.693  1.00  0.00     0.030 A 
BRANCH  19  24
ATOM     24  S   UNL A   1      32.764  17.265  23.925  1.00  0.00     0.238 S 
ATOM     25  O   UNL A   1      31.707  17.337  24.897  1.00  0.00    -0.207 OA
ATOM     26  O   UNL A   1      33.412  16.018  23.566  1.00  0.00    -0.207 OA
BRANCH  24  27
ATOM     27  N   UNL A   1      32.131  17.859  22.488  1.00  0.00    -0.225 NA
ATOM     28  H   UNL A   1      32.826  18.447  22.027  1.00  0.00     0.137 HD
ATOM     29  H   UNL A   1      31.297  18.413  22.686  1.00  0.00     0.137 HD
ENDBRANCH  24  27
ENDBRANCH  19  24
ENDBRANCH  14  18
BRANCH  16  30
ATOM     30  C   UNL A   1      40.282  21.895  26.605  1.00  0.00     0.435 C 
ATOM     31  F   UNL A   1      41.108  22.277  25.596  1.00  0.00    -0.164 F 
ATOM     32  F   UNL A   1      40.536  22.714  27.661  1.00  0.00    -0.164 F 
ATOM     33  F   UNL A   1      40.686  20.651  26.986  1.00  0.00    -0.164 F 
ENDBRANCH  16  30
ENDBRANCH   8  13
ENDBRANCH   4   7
ENDBRANCH   2   3
ENDBRANCH   1   2
BRANCH   1  34
ATOM     34  C   UNL A   1      34.013  29.434  26.932  1.00  0.00     0.023 C 
BRANCH  34  35
ATOM     35  C   UNL A   1      35.442  29.329  27.455  1.00  0.00     0.116 C 
BRANCH  35  36
ATOM     36  N   UNL A   1      35.580  29.831  28.820  1.00  0.00    -0.352 N 
ATOM     37  C   UNL A   1      36.549  29.505  29.749  1.00  0.00     0.251 C 
ATOM     38  H   UNL A   1      34.900  30.481  29.113  1.00  0.00     0.163 HD
ATOM     39  O   UNL A   1      36.333  29.647  30.946  1.00  0.00    -0.269 OA
BRANCH  37  40
ATOM     40  C   UNL A   1      37.843  28.988  29.268  1.00  0.00     0.039 A 
ATOM     41  C   UNL A   1      38.522  29.597  28.214  1.00  0.00     0.014 A 
ATOM     42  C   UNL A   1      38.397  27.895  29.934  1.00  0.00     0.014 A 
ATOM     43  C   UNL A   1      39.811  29.163  27.906  1.00  0.00     0.010 A 
ATOM     44  C   UNL A   1      39.712  27.548  29.712  1.00  0.00     0.010 A 
ATOM     45  C   UNL A   1      40.421  28.159  28.682  1.00  0.00    -0.014 A 
BRANCH  45  46
ATOM     46  C   UNL A   1      41.843  27.851  28.510  1.00  0.00     0.031 A 
ATOM     47  C   UNL A   1      42.122  26.632  27.703  1.00  0.00     0.074 A 
ATOM     48  C   UNL A   1      42.859  28.661  28.881  1.00  0.00     0.049 A 
ATOM     49  N   UNL A   1      42.554  25.495  28.137  1.00  0.00    -0.248 NA
ATOM     50  C   UNL A   1      41.745  26.612  26.281  1.00  0.00     0.031 C 
ATOM     51  C   UNL A   1      42.791  30.011  29.448  1.00  0.00     0.029 A 
ATOM     52  N   UNL A   1      44.202  28.469  28.739  1.00  0.00    -0.354 N 
ATOM     53  C   UNL A   1      42.732  24.687  27.020  1.00  0.00     0.074 A 
ATOM     54  C   UNL A   1      42.046  25.354  25.944  1.00  0.00     0.031 C 
ATOM     55  C   UNL A   1      44.009  30.595  29.389  1.00  0.00     0.029 A 
ATOM     56  C   UNL A   1      44.978  29.606  28.949  1.00  0.00     0.049 A 
ATOM     57  H   UNL A   1      44.591  27.595  28.505  1.00  0.00     0.167 HD
ATOM     58  C   UNL A   1      43.615  23.648  27.041  1.00  0.00     0.034 A 
ATOM     59  C   UNL A   1      46.322  29.736  28.786  1.00  0.00     0.034 A 
ATOM     60  C   UNL A   1      44.028  23.352  28.394  1.00  0.00     0.049 A 
ATOM     61  C   UNL A   1      46.897  28.376  28.920  1.00  0.00     0.074 A 
ATOM     62  C   UNL A   1      43.369  22.984  29.552  1.00  0.00     0.029 A 
ATOM     63  N   UNL A   1      45.261  23.812  28.805  1.00  0.00    -0.354 N 
ATOM     64  N   UNL A   1      46.859  27.698  30.033  1.00  0.00    -0.248 NA
ATOM     65  C   UNL A   1      47.068  27.577  27.716  1.00  0.00     0.031 C 
ATOM     66  C   UNL A   1      44.014  23.723  30.588  1.00  0.00     0.029 A 
ATOM     67  C   UNL A   1      45.084  24.422  30.023  1.00  0.00     0.049 A 
ATOM     68  H   UNL A   1      46.111  23.721  28.316  1.00  0.00     0.167 HD
ATOM     69  C   UNL A   1      46.542  26.403  29.652  1.00  0.00     0.074 A 
ATOM     70  C   UNL A   1      46.789  26.367  28.210  1.00  0.00     0.031 C 
ATOM     71  C   UNL A   1      45.847  25.569  30.480  1.00  0.00     0.034 A 
BRANCH  58  72
ATOM     72  C   UNL A   1      44.388  23.118  25.853  1.00  0.00     0.023 A 
ATOM     73  C   UNL A   1      44.359  21.725  25.636  1.00  0.00     0.031 A 
ATOM     74  C   UNL A   1      45.364  23.832  25.126  1.00  0.00     0.131 A 
ATOM     75  C   UNL A   1      45.328  21.095  24.839  1.00  0.00     0.055 A 
ATOM     76  C   UNL A   1      46.283  23.207  24.276  1.00  0.00     0.041 A 
ATOM     77  F   UNL A   1      45.550  25.148  25.265  1.00  0.00    -0.206 F 
ATOM     78  C   UNL A   1      46.293  21.828  24.155  1.00  0.00     0.022 A 
BRANCH  75  79
ATOM     79  S   UNL A   1      45.421  19.286  24.867  1.00  0.00     0.124 S 
ATOM     80  O   UNL A   1      44.079  18.932  25.318  1.00  0.00    -0.237 OA
ATOM     81  O   UNL A   1      45.736  18.979  23.477  1.00  0.00    -0.237 OA
ATOM     82  O   UNL A   1      46.491  19.017  25.823  1.00  0.00    -0.744 OA
ENDBRANCH  75  79
ENDBRANCH  58  72
BRANCH  59  83
ATOM     83  C   UNL A   1      47.064  30.904  28.232  1.00  0.00     0.023 A 
ATOM     84  C   UNL A   1      46.494  31.821  27.321  1.00  0.00     0.031 A 
ATOM     85  C   UNL A   1      48.300  31.273  28.810  1.00  0.00     0.131 A 
ATOM     86  C   UNL A   1      47.151  33.042  27.033  1.00  0.00     0.055 A 
ATOM     87  C   UNL A   1      48.942  32.480  28.523  1.00  0.00     0.041 A 
ATOM     88  F   UNL A   1      48.884  30.508  29.746  1.00  0.00    -0.206 F 
ATOM     89  C   UNL A   1      48.363  33.376  27.641  1.00  0.00     0.022 A 
BRANCH  86  90
ATOM     90  S   UNL A   1      46.386  34.272  25.922  1.00  0.00     0.124 S 
ATOM     91  O   UNL A   1      47.505  34.661  25.073  1.00  0.00    -0.237 OA
ATOM     92  O   UNL A   1      45.323  33.503  25.285  1.00  0.00    -0.237 OA
ATOM     93  O   UNL A   1      45.920  35.316  26.837  1.00  0.00    -0.744 OA
ENDBRANCH  86  90
ENDBRANCH  59  83
BRANCH  71  94
ATOM     94  C   UNL A   1      45.684  25.960  31.937  1.00  0.00     0.023 A 
ATOM     95  C   UNL A   1      44.503  26.479  32.516  1.00  0.00     0.031 A 
ATOM     96  C   UNL A   1      46.756  25.668  32.799  1.00  0.00     0.131 A 
ATOM     97  C   UNL A   1      44.435  26.695  33.907  1.00  0.00     0.055 A 
ATOM     98  C   UNL A   1      46.677  25.860  34.178  1.00  0.00     0.041 A 
ATOM     99  F   UNL A   1      47.898  25.151  32.315  1.00  0.00    -0.206 F 
ATOM    100  C   UNL A   1      45.516  26.380  34.737  1.00  0.00     0.022 A 
BRANCH  97 101
ATOM    101  S   UNL A   1      42.940  27.408  34.671  1.00  0.00     0.124 S 
ATOM    102  O   UNL A   1      42.339  26.277  35.367  1.00  0.00    -0.237 OA
ATOM    103  O   UNL A   1      43.490  28.462  35.521  1.00  0.00    -0.237 OA
ATOM    104  O   UNL A   1      42.171  27.895  33.525  1.00  0.00    -0.744 OA
ENDBRANCH  97 101
ENDBRANCH  71  94
ENDBRANCH  45  46
ENDBRANCH  37  40
ENDBRANCH  35  36
ENDBRANCH  34  35
ENDBRANCH   1  34
TORSDOF 19
ENDMDL
MODEL 2
REMARK VINA RESULT:     -12.7      5.302     11.162
REMARK SMILES NS(=O)(=O)c1ccc(-n2nc(C(F)(F)F)cc2-c2ccc(C(=O)NCCCCNC(=O)c3ccc(-c4c5nc(c(-c6cc(S(=O)(=O)[O-])ccc6F)c6ccc([nH]6)c(-c6cc(S(=O)(=O)[O-])ccc6F)c6nc(c(-c7cc(S(=O)(=O)[O-])ccc7F)c7ccc4[nH]7)C=C6)C=C5)cc3)cc2)cc1
REMARK SMILES IDX 26 1 25 2 24 3 22 4 23 5 21 7 18 8 19 9 96 10 20 11 95 12
REMARK SMILES IDX 17 13 9 14 10 15 11 16 16 17 8 18 5 19 6 20 98 21 7 22 97 23
REMARK SMILES IDX 2 24 3 25 4 26 1 27 12 30 13 31 14 32 15 33 27 34 28 35
REMARK SMILES IDX 29 36 30 37 31 39 32 40 33 41 94 42 34 43 93 44 35 45 36 46
REMARK SMILES IDX 37 47 87 48 38 49 92 50 86 51 88 52 39 53 91 54 85 55 84 56
REMARK SMILES IDX 40 58 72 59 52 60 71 61 53 62 56 63 70 64 89 65 54 66 55 67
REMARK SMILES IDX 69 69 90 70 57 71 41 72 42 73 50 74 43 75 49 76 51 77 48 78
REMARK SMILES IDX 44 79 45 80 46 81 47 82 73 83 74 84 82 85 75 86 81 87 83 88
REMARK SMILES IDX 80 89 76 90 77 91 78 92 79 93 58 94 59 95 67 96 60 97 66 98
REMARK SMILES IDX 68 99 65 100 61 101 62 102 63 103 64 104
REMARK H PARENT 24 6 1 28 1 29 29 38 88 57 56 68
REMARK Flexibility Score: inf
ROOT
ATOM      1  C   UNL A   1      35.870  23.625  25.799  1.00  0.00     0.023 C 
ENDROOT
BRANCH   1   2
ATOM      2  C   UNL A   1      35.060  23.678  24.499  1.00  0.00     0.116 C 
BRANCH   2   3
ATOM      3  N   UNL A   1      33.899  22.811  24.570  1.00  0.00    -0.352 N 
ATOM      4  C   UNL A   1      32.553  23.063  24.510  1.00  0.00     0.251 C 
ATOM      5  O   UNL A   1      31.783  22.106  24.592  1.00  0.00    -0.269 OA
ATOM      6  H   UNL A   1      34.120  21.859  24.684  1.00  0.00     0.163 HD
BRANCH   4   7
ATOM      7  C   UNL A   1      31.985  24.426  24.310  1.00  0.00     0.039 A 
ATOM      8  C   UNL A   1      31.009  27.013  23.796  1.00  0.00     0.000 A 
ATOM      9  C   UNL A   1      31.816  26.368  22.853  1.00  0.00     0.011 A 
ATOM     10  C   UNL A   1      30.685  26.363  24.985  1.00  0.00     0.011 A 
ATOM     11  C   UNL A   1      32.305  25.085  23.113  1.00  0.00     0.014 A 
ATOM     12  C   UNL A   1      31.133  25.064  25.215  1.00  0.00     0.014 A 
BRANCH   8  13
ATOM     13  C   UNL A   1      30.410  28.308  23.511  1.00  0.00     0.075 A 
ATOM     14  N   UNL A   1      30.710  29.477  24.194  1.00  0.00    -0.233 N 
ATOM     15  N   UNL A   1      29.880  30.494  23.846  1.00  0.00    -0.163 NA
ATOM     16  C   UNL A   1      29.190  30.023  22.784  1.00  0.00     0.167 A 
ATOM     17  C   UNL A   1      29.458  28.648  22.577  1.00  0.00     0.064 A 
BRANCH  14  18
ATOM     18  C   UNL A   1      31.740  29.667  25.152  1.00  0.00     0.065 A 
ATOM     19  C   UNL A   1      33.817  30.262  26.906  1.00  0.00     0.082 A 
ATOM     20  C   UNL A   1      32.532  30.724  27.188  1.00  0.00     0.024 A 
ATOM     21  C   UNL A   1      34.063  29.473  25.773  1.00  0.00     0.024 A 
ATOM     22  C   UNL A   1      31.494  30.427  26.308  1.00  0.00     0.030 A 
ATOM     23  C   UNL A   1      33.016  29.154  24.903  1.00  0.00     0.030 A 
BRANCH  19  24
ATOM     24  S   UNL A   1      35.149  30.669  27.993  1.00  0.00     0.238 S 
ATOM     25  O   UNL A   1      35.992  31.638  27.345  1.00  0.00    -0.207 OA
ATOM     26  O   UNL A   1      35.672  29.453  28.586  1.00  0.00    -0.207 OA
BRANCH  24  27
ATOM     27  N   UNL A   1      34.376  31.472  29.248  1.00  0.00    -0.225 NA
ATOM     28  H   UNL A   1      34.412  32.478  29.082  1.00  0.00     0.137 HD
ATOM     29  H   UNL A   1      34.842  31.256  30.129  1.00  0.00     0.137 HD
ENDBRANCH  24  27
ENDBRANCH  19  24
ENDBRANCH  14  18
BRANCH  16  30
ATOM     30  C   UNL A   1      28.271  30.873  21.948  1.00  0.00     0.435 C 
ATOM     31  F   UNL A   1      27.713  30.196  20.910  1.00  0.00    -0.164 F 
ATOM     32  F   UNL A   1      27.249  31.390  22.682  1.00  0.00    -0.164 F 
ATOM     33  F   UNL A   1      28.923  31.939  21.406  1.00  0.00    -0.164 F 
ENDBRANCH  16  30
ENDBRANCH   8  13
ENDBRANCH   4   7
ENDBRANCH   2   3
ENDBRANCH   1   2
BRANCH   1  34
ATOM     34  C   UNL A   1      37.385  23.469  25.608  1.00  0.00     0.023 C 
BRANCH  34  35
ATOM     35  C   UNL A   1      38.235  24.371  26.497  1.00  0.00     0.116 C 
BRANCH  35  36
ATOM     36  N   UNL A   1      39.613  24.489  26.024  1.00  0.00    -0.352 N 
ATOM     37  C   UNL A   1      40.463  25.570  26.150  1.00  0.00     0.251 C 
ATOM     38  H   UNL A   1      39.980  23.701  25.560  1.00  0.00     0.163 HD
ATOM     39  O   UNL A   1      41.402  25.714  25.377  1.00  0.00    -0.269 OA
BRANCH  37  40
ATOM     40  C   UNL A   1      40.215  26.540  27.233  1.00  0.00     0.039 A 
ATOM     41  C   UNL A   1      39.972  26.122  28.540  1.00  0.00     0.014 A 
ATOM     42  C   UNL A   1      40.283  27.897  26.921  1.00  0.00     0.014 A 
ATOM     43  C   UNL A   1      39.903  27.083  29.549  1.00  0.00     0.010 A 
ATOM     44  C   UNL A   1      40.335  28.834  27.929  1.00  0.00     0.010 A 
ATOM     45  C   UNL A   1      40.122  28.440  29.247  1.00  0.00    -0.014 A 
BRANCH  45  46
ATOM     46  C   UNL A   1      40.269  29.425  30.322  1.00  0.00     0.031 A 
ATOM     47  C   UNL A   1      39.027  30.178  30.650  1.00  0.00     0.074 A 
ATOM     48  C   UNL A   1      41.365  29.558  31.101  1.00  0.00     0.049 A 
ATOM     49  N   UNL A   1      38.775  31.415  30.380  1.00  0.00    -0.248 NA
ATOM     50  C   UNL A   1      37.875  29.452  31.207  1.00  0.00     0.031 C 
ATOM     51  C   UNL A   1      42.583  28.743  31.113  1.00  0.00     0.029 A 
ATOM     52  N   UNL A   1      41.579  30.423  32.134  1.00  0.00    -0.354 N 
ATOM     53  C   UNL A   1      37.533  31.697  30.938  1.00  0.00     0.074 A 
ATOM     54  C   UNL A   1      36.953  30.419  31.260  1.00  0.00     0.031 C 
ATOM     55  C   UNL A   1      43.296  29.002  32.232  1.00  0.00     0.029 A 
ATOM     56  C   UNL A   1      42.684  30.121  32.926  1.00  0.00     0.049 A 
ATOM     57  H   UNL A   1      40.998  31.199  32.306  1.00  0.00     0.167 HD
ATOM     58  C   UNL A   1      37.192  32.972  31.278  1.00  0.00     0.034 A 
ATOM     59  C   UNL A   1      43.083  30.744  34.067  1.00  0.00     0.034 A 
ATOM     60  C   UNL A   1      38.113  33.924  30.697  1.00  0.00     0.049 A 
ATOM     61  C   UNL A   1      42.525  32.116  34.017  1.00  0.00     0.074 A 
ATOM     62  C   UNL A   1      38.501  34.234  29.408  1.00  0.00     0.029 A 
ATOM     63  N   UNL A   1      39.091  34.453  31.511  1.00  0.00    -0.354 N 
ATOM     64  N   UNL A   1      42.891  32.997  33.126  1.00  0.00    -0.248 NA
ATOM     65  C   UNL A   1      41.224  32.356  34.623  1.00  0.00     0.031 C 
ATOM     66  C   UNL A   1      39.909  34.449  29.493  1.00  0.00     0.029 A 
ATOM     67  C   UNL A   1      40.283  34.352  30.836  1.00  0.00     0.049 A 
ATOM     68  H   UNL A   1      38.960  34.831  32.411  1.00  0.00     0.167 HD
ATOM     69  C   UNL A   1      41.714  33.617  32.733  1.00  0.00     0.074 A 
ATOM     70  C   UNL A   1      40.739  33.257  33.763  1.00  0.00     0.031 C 
ATOM     71  C   UNL A   1      41.566  34.126  31.474  1.00  0.00     0.034 A 
BRANCH  58  72
ATOM     72  C   UNL A   1      36.265  33.369  32.406  1.00  0.00     0.023 A 
ATOM     73  C   UNL A   1      35.115  34.108  32.062  1.00  0.00     0.031 A 
ATOM     74  C   UNL A   1      36.583  33.333  33.780  1.00  0.00     0.131 A 
ATOM     75  C   UNL A   1      34.417  34.854  33.026  1.00  0.00     0.055 A 
ATOM     76  C   UNL A   1      35.842  34.021  34.748  1.00  0.00     0.041 A 
ATOM     77  F   UNL A   1      37.672  32.720  34.255  1.00  0.00    -0.206 F 
ATOM     78  C   UNL A   1      34.773  34.816  34.370  1.00  0.00     0.022 A 
BRANCH  75  79
ATOM     79  S   UNL A   1      33.155  36.025  32.459  1.00  0.00     0.124 S 
ATOM     80  O   UNL A   1      33.634  36.343  31.118  1.00  0.00    -0.237 OA
ATOM     81  O   UNL A   1      31.942  35.221  32.537  1.00  0.00    -0.237 OA
ATOM     82  O   UNL A   1      33.245  37.114  33.428  1.00  0.00    -0.744 OA
ENDBRANCH  75  79
ENDBRANCH  58  72
BRANCH  59  83
ATOM     83  C   UNL A   1      43.649  30.120  35.297  1.00  0.00     0.023 A 
ATOM     84  C   UNL A   1      43.191  28.890  35.819  1.00  0.00     0.031 A 
ATOM     85  C   UNL A   1      44.851  30.628  35.838  1.00  0.00     0.131 A 
ATOM     86  C   UNL A   1      43.931  28.225  36.828  1.00  0.00     0.055 A 
ATOM     87  C   UNL A   1      45.577  29.967  36.831  1.00  0.00     0.041 A 
ATOM     88  F   UNL A   1      45.411  31.749  35.353  1.00  0.00    -0.206 F 
ATOM     89  C   UNL A   1      45.125  28.754  37.323  1.00  0.00     0.022 A 
BRANCH  86  90
ATOM     90  S   UNL A   1      43.396  26.596  37.454  1.00  0.00     0.124 S 
ATOM     91  O   UNL A   1      41.946  26.675  37.328  1.00  0.00    -0.237 OA
ATOM     92  O   UNL A   1      44.077  25.673  36.553  1.00  0.00    -0.237 OA
ATOM     93  O   UNL A   1      43.891  26.579  38.832  1.00  0.00    -0.744 OA
ENDBRANCH  86  90
ENDBRANCH  59  83
BRANCH  71  94
ATOM     94  C   UNL A   1      42.799  34.282  30.603  1.00  0.00     0.023 A 
ATOM     95  C   UNL A   1      43.235  33.350  29.633  1.00  0.00     0.031 A 
ATOM     96  C   UNL A   1      43.488  35.505  30.686  1.00  0.00     0.131 A 
ATOM     97  C   UNL A   1      44.330  33.658  28.800  1.00  0.00     0.055 A 
ATOM     98  C   UNL A   1      44.555  35.817  29.845  1.00  0.00     0.041 A 
ATOM     99  F   UNL A   1      43.108  36.441  31.571  1.00  0.00    -0.206 F 
ATOM    100  C   UNL A   1      44.984  34.892  28.901  1.00  0.00     0.022 A 
BRANCH  97 101
ATOM    101  S   UNL A   1      44.942  32.455  27.575  1.00  0.00     0.124 S 
ATOM    102  O   UNL A   1      46.276  32.121  28.060  1.00  0.00    -0.237 OA
ATOM    103  O   UNL A   1      43.948  31.387  27.654  1.00  0.00    -0.237 OA
ATOM    104  O   UNL A   1      44.923  33.207  26.319  1.00  0.00    -0.744 OA
ENDBRANCH  97 101
ENDBRANCH  71  94
ENDBRANCH  45  46
ENDBRANCH  37  40
ENDBRANCH  35  36
ENDBRANCH  34  35
ENDBRANCH   1  34
TORSDOF 19
ENDMDL
MODEL 3
REMARK VINA RESULT:     -12.6      3.142      7.646
REMARK SMILES NS(=O)(=O)c1ccc(-n2nc(C(F)(F)F)cc2-c2ccc(C(=O)NCCCCNC(=O)c3ccc(-c4c5nc(c(-c6cc(S(=O)(=O)[O-])ccc6F)c6ccc([nH]6)c(-c6cc(S(=O)(=O)[O-])ccc6F)c6nc(c(-c7cc(S(=O)(=O)[O-])ccc7F)c7ccc4[nH]7)C=C6)C=C5)cc3)cc2)cc1
REMARK SMILES IDX 26 1 25 2 24 3 22 4 23 5 21 7 18 8 19 9 96 10 20 11 95 12
REMARK SMILES IDX 17 13 9 14 10 15 11 16 16 17 8 18 5 19 6 20 98 21 7 22 97 23
REMARK SMILES IDX 2 24 3 25 4 26 1 27 12 30 13 31 14 32 15 33 27 34 28 35
REMARK SMILES IDX 29 36 30 37 31 39 32 40 33 41 94 42 34 43 93 44 35 45 36 46
REMARK SMILES IDX 37 47 87 48 38 49 92 50 86 51 88 52 39 53 91 54 85 55 84 56
REMARK SMILES IDX 40 58 72 59 52 60 71 61 53 62 56 63 70 64 89 65 54 66 55 67
REMARK SMILES IDX 69 69 90 70 57 71 41 72 42 73 50 74 43 75 49 76 51 77 48 78
REMARK SMILES IDX 44 79 45 80 46 81 47 82 73 83 74 84 82 85 75 86 81 87 83 88
REMARK SMILES IDX 80 89 76 90 77 91 78 92 79 93 58 94 59 95 67 96 60 97 66 98
REMARK SMILES IDX 68 99 65 100 61 101 62 102 63 103 64 104
REMARK H PARENT 24 6 1 28 1 29 29 38 88 57 56 68
REMARK Flexibility Score: inf
ROOT
ATOM      1  C   UNL A   1      31.944  28.013  25.946  1.00  0.00     0.023 C 
ENDROOT
BRANCH   1   2
ATOM      2  C   UNL A   1      32.888  27.882  24.745  1.00  0.00     0.116 C 
BRANCH   2   3
ATOM      3  N   UNL A   1      32.143  27.766  23.505  1.00  0.00    -0.352 N 
ATOM      4  C   UNL A   1      31.776  26.685  22.746  1.00  0.00     0.251 C 
ATOM      5  O   UNL A   1      31.125  26.894  21.722  1.00  0.00    -0.269 OA
ATOM      6  H   UNL A   1      31.846  28.629  23.137  1.00  0.00     0.163 HD
BRANCH   4   7
ATOM      7  C   UNL A   1      32.089  25.278  23.123  1.00  0.00     0.039 A 
ATOM      8  C   UNL A   1      32.767  22.607  23.689  1.00  0.00     0.000 A 
ATOM      9  C   UNL A   1      33.349  23.263  22.599  1.00  0.00     0.011 A 
ATOM     10  C   UNL A   1      31.857  23.288  24.496  1.00  0.00     0.011 A 
ATOM     11  C   UNL A   1      33.006  24.587  22.316  1.00  0.00     0.014 A 
ATOM     12  C   UNL A   1      31.560  24.625  24.238  1.00  0.00     0.014 A 
BRANCH   8  13
ATOM     13  C   UNL A   1      33.175  21.262  24.062  1.00  0.00     0.075 A 
ATOM     14  N   UNL A   1      34.413  20.938  24.595  1.00  0.00    -0.233 N 
ATOM     15  N   UNL A   1      34.593  19.595  24.681  1.00  0.00    -0.163 NA
ATOM     16  C   UNL A   1      33.380  19.071  24.400  1.00  0.00     0.167 A 
ATOM     17  C   UNL A   1      32.485  20.075  23.961  1.00  0.00     0.064 A 
BRANCH  14  18
ATOM     18  C   UNL A   1      35.423  21.841  25.021  1.00  0.00     0.065 A 
ATOM     19  C   UNL A   1      37.479  23.425  26.025  1.00  0.00     0.082 A 
ATOM     20  C   UNL A   1      37.732  22.585  24.941  1.00  0.00     0.024 A 
ATOM     21  C   UNL A   1      36.197  23.506  26.586  1.00  0.00     0.024 A 
ATOM     22  C   UNL A   1      36.702  21.791  24.441  1.00  0.00     0.030 A 
ATOM     23  C   UNL A   1      35.157  22.728  26.068  1.00  0.00     0.030 A 
BRANCH  19  24
ATOM     24  S   UNL A   1      38.789  24.404  26.694  1.00  0.00     0.238 S 
ATOM     25  O   UNL A   1      38.221  25.410  27.550  1.00  0.00    -0.207 OA
ATOM     26  O   UNL A   1      39.736  24.720  25.641  1.00  0.00    -0.207 OA
BRANCH  24  27
ATOM     27  N   UNL A   1      39.591  23.321  27.696  1.00  0.00    -0.225 NA
ATOM     28  H   UNL A   1      39.701  22.429  27.213  1.00  0.00     0.137 HD
ATOM     29  H   UNL A   1      39.048  23.181  28.548  1.00  0.00     0.137 HD
ENDBRANCH  24  27
ENDBRANCH  19  24
ENDBRANCH  14  18
BRANCH  16  30
ATOM     30  C   UNL A   1      33.053  17.608  24.549  1.00  0.00     0.435 C 
ATOM     31  F   UNL A   1      33.849  16.972  25.447  1.00  0.00    -0.164 F 
ATOM     32  F   UNL A   1      31.767  17.414  24.947  1.00  0.00    -0.164 F 
ATOM     33  F   UNL A   1      33.189  16.938  23.371  1.00  0.00    -0.164 F 
ENDBRANCH  16  30
ENDBRANCH   8  13
ENDBRANCH   4   7
ENDBRANCH   2   3
ENDBRANCH   1   2
BRANCH   1  34
ATOM     34  C   UNL A   1      32.617  28.469  27.247  1.00  0.00     0.023 C 
BRANCH  34  35
ATOM     35  C   UNL A   1      33.910  29.256  27.053  1.00  0.00     0.116 C 
BRANCH  35  36
ATOM     36  N   UNL A   1      33.845  30.595  27.632  1.00  0.00    -0.352 N 
ATOM     37  C   UNL A   1      34.762  31.202  28.469  1.00  0.00     0.251 C 
ATOM     38  H   UNL A   1      33.053  31.131  27.398  1.00  0.00     0.163 HD
ATOM     39  O   UNL A   1      34.417  32.118  29.207  1.00  0.00    -0.269 OA
BRANCH  37  40
ATOM     40  C   UNL A   1      36.157  30.725  28.452  1.00  0.00     0.039 A 
ATOM     41  C   UNL A   1      37.213  31.560  28.814  1.00  0.00     0.014 A 
ATOM     42  C   UNL A   1      36.387  29.393  28.111  1.00  0.00     0.014 A 
ATOM     43  C   UNL A   1      38.491  31.011  28.931  1.00  0.00     0.010 A 
ATOM     44  C   UNL A   1      37.621  28.826  28.344  1.00  0.00     0.010 A 
ATOM     45  C   UNL A   1      38.687  29.632  28.731  1.00  0.00    -0.014 A 
BRANCH  45  46
ATOM     46  C   UNL A   1      39.971  29.010  29.063  1.00  0.00     0.031 A 
ATOM     47  C   UNL A   1      40.216  28.830  30.521  1.00  0.00     0.074 A 
ATOM     48  C   UNL A   1      40.822  28.468  28.164  1.00  0.00     0.049 A 
ATOM     49  N   UNL A   1      41.041  29.497  31.258  1.00  0.00    -0.248 NA
ATOM     50  C   UNL A   1      39.353  27.916  31.285  1.00  0.00     0.031 C 
ATOM     51  C   UNL A   1      40.645  28.309  26.718  1.00  0.00     0.029 A 
ATOM     52  N   UNL A   1      42.019  27.851  28.384  1.00  0.00    -0.354 N 
ATOM     53  C   UNL A   1      40.980  28.934  32.527  1.00  0.00     0.074 A 
ATOM     54  C   UNL A   1      39.803  28.106  32.530  1.00  0.00     0.031 C 
ATOM     55  C   UNL A   1      41.572  27.452  26.234  1.00  0.00     0.029 A 
ATOM     56  C   UNL A   1      42.516  27.141  27.294  1.00  0.00     0.049 A 
ATOM     57  H   UNL A   1      42.493  27.903  29.246  1.00  0.00     0.167 HD
ATOM     58  C   UNL A   1      42.031  29.039  33.390  1.00  0.00     0.034 A 
ATOM     59  C   UNL A   1      43.627  26.359  27.249  1.00  0.00     0.034 A 
ATOM     60  C   UNL A   1      42.978  30.030  32.930  1.00  0.00     0.049 A 
ATOM     61  C   UNL A   1      44.522  26.834  28.331  1.00  0.00     0.074 A 
ATOM     62  C   UNL A   1      42.908  31.381  32.648  1.00  0.00     0.029 A 
ATOM     63  N   UNL A   1      44.123  29.584  32.306  1.00  0.00    -0.354 N 
ATOM     64  N   UNL A   1      45.068  28.019  28.329  1.00  0.00    -0.248 NA
ATOM     65  C   UNL A   1      44.421  26.204  29.638  1.00  0.00     0.031 C 
ATOM     66  C   UNL A   1      43.692  31.547  31.468  1.00  0.00     0.029 A 
ATOM     67  C   UNL A   1      44.270  30.315  31.153  1.00  0.00     0.049 A 
ATOM     68  H   UNL A   1      44.724  28.873  32.627  1.00  0.00     0.167 HD
ATOM     69  C   UNL A   1      44.956  28.466  29.636  1.00  0.00     0.074 A 
ATOM     70  C   UNL A   1      44.649  27.267  30.416  1.00  0.00     0.031 C 
ATOM     71  C   UNL A   1      44.845  29.797  29.925  1.00  0.00     0.034 A 
BRANCH  58  72
ATOM     72  C   UNL A   1      42.409  28.028  34.451  1.00  0.00     0.023 A 
ATOM     73  C   UNL A   1      43.165  26.913  34.036  1.00  0.00     0.031 A 
ATOM     74  C   UNL A   1      41.838  27.938  35.738  1.00  0.00     0.131 A 
ATOM     75  C   UNL A   1      43.229  25.748  34.818  1.00  0.00     0.055 A 
ATOM     76  C   UNL A   1      41.964  26.801  36.545  1.00  0.00     0.041 A 
ATOM     77  F   UNL A   1      41.051  28.890  36.248  1.00  0.00    -0.206 F 
ATOM     78  C   UNL A   1      42.632  25.683  36.073  1.00  0.00     0.022 A 
BRANCH  75  79
ATOM     79  S   UNL A   1      43.943  24.255  34.081  1.00  0.00     0.124 S 
ATOM     80  O   UNL A   1      45.176  24.111  34.848  1.00  0.00    -0.237 OA
ATOM     81  O   UNL A   1      42.903  23.265  34.339  1.00  0.00    -0.237 OA
ATOM     82  O   UNL A   1      44.120  24.622  32.678  1.00  0.00    -0.744 OA
ENDBRANCH  75  79
ENDBRANCH  58  72
BRANCH  59  83
ATOM     83  C   UNL A   1      43.802  25.064  26.533  1.00  0.00     0.023 A 
ATOM     84  C   UNL A   1      43.083  23.894  26.864  1.00  0.00     0.031 A 
ATOM     85  C   UNL A   1      44.521  25.040  25.316  1.00  0.00     0.131 A 
ATOM     86  C   UNL A   1      43.098  22.777  25.993  1.00  0.00     0.055 A 
ATOM     87  C   UNL A   1      44.531  23.936  24.461  1.00  0.00     0.041 A 
ATOM     88  F   UNL A   1      45.171  26.128  24.873  1.00  0.00    -0.206 F 
ATOM     89  C   UNL A   1      43.808  22.802  24.790  1.00  0.00     0.022 A 
BRANCH  86  90
ATOM     90  S   UNL A   1      42.108  21.289  26.367  1.00  0.00     0.124 S 
ATOM     91  O   UNL A   1      42.845  20.242  25.670  1.00  0.00    -0.237 OA
ATOM     92  O   UNL A   1      42.142  21.248  27.825  1.00  0.00    -0.237 OA
ATOM     93  O   UNL A   1      40.796  21.599  25.796  1.00  0.00    -0.744 OA
ENDBRANCH  86  90
ENDBRANCH  59  83
BRANCH  71  94
ATOM     94  C   UNL A   1      45.148  30.805  28.833  1.00  0.00     0.023 A 
ATOM     95  C   UNL A   1      46.438  31.267  28.482  1.00  0.00     0.031 A 
ATOM     96  C   UNL A   1      44.069  31.218  28.030  1.00  0.00     0.131 A 
ATOM     97  C   UNL A   1      46.605  32.116  27.369  1.00  0.00     0.055 A 
ATOM     98  C   UNL A   1      44.241  32.038  26.916  1.00  0.00     0.041 A 
ATOM     99  F   UNL A   1      42.822  30.796  28.297  1.00  0.00    -0.206 F 
ATOM    100  C   UNL A   1      45.511  32.495  26.584  1.00  0.00     0.022 A 
BRANCH  97 101
ATOM    101  S   UNL A   1      48.251  32.763  26.925  1.00  0.00     0.124 S 
ATOM    102  O   UNL A   1      48.997  31.568  26.546  1.00  0.00    -0.237 OA
ATOM    103  O   UNL A   1      47.945  33.696  25.843  1.00  0.00    -0.237 OA
ATOM    104  O   UNL A   1      48.712  33.399  28.161  1.00  0.00    -0.744 OA
ENDBRANCH  97 101
ENDBRANCH  71  94
ENDBRANCH  45  46
ENDBRANCH  37  40
ENDBRANCH  35  36
ENDBRANCH  34  35
ENDBRANCH   1  34
TORSDOF 19
ENDMDL
