MODEL 1
REMARK VINA RESULT:     -11.0      0.000      0.000
REMARK SMILES Cc1noc(C)c1C[NH2+][C@H](C)[C@H](C)C(=O)NCCCCNC(=O)c1ccc(-c2c3nc(c(-c4cc(S(=O)(=O)[O-])ccc4F)c4ccc([nH]4)c(-c4cc(S(=O)(=O)[O-])ccc4F)c4nc(c(-c5cc(S(=O)(=O)[O-])ccc5F)c5ccc2[nH]5)C=C4)C=C3)cc1
REMARK SMILES IDX 18 1 17 2 16 3 14 4 15 5 12 7 13 8 10 9 11 10 9 11 8 14 7 15
REMARK SMILES IDX 1 16 2 17 3 18 4 19 5 20 6 21 19 22 20 23 21 24 22 25 23 27
REMARK SMILES IDX 24 28 25 29 86 30 26 31 85 32 27 33 28 34 29 35 79 36 30 37
REMARK SMILES IDX 84 38 78 39 80 40 31 41 83 42 77 43 76 44 32 46 64 47 44 48
REMARK SMILES IDX 63 49 45 50 48 51 62 52 81 53 46 54 47 55 61 57 82 58 49 59
REMARK SMILES IDX 33 60 34 61 42 62 35 63 41 64 43 65 40 66 36 67 37 68 38 69
REMARK SMILES IDX 39 70 65 71 66 72 74 73 67 74 73 75 75 76 72 77 68 78 69 79
REMARK SMILES IDX 70 80 71 81 50 82 51 83 59 84 52 85 58 86 60 87 57 88 53 89
REMARK SMILES IDX 54 90 55 91 56 92
REMARK H PARENT 16 6 9 12 9 13 21 26 80 45 48 56
REMARK Flexibility Score: inf
ROOT
ATOM      1  C   UNL A   1      34.863  29.863  27.601  1.00  0.00     0.023 C 
ENDROOT
BRANCH   1   2
ATOM      2  C   UNL A   1      34.147  28.817  26.753  1.00  0.00     0.116 C 
BRANCH   2   3
ATOM      3  N   UNL A   1      34.237  29.104  25.335  1.00  0.00    -0.356 N 
ATOM      4  C   UNL A   1      33.826  28.395  24.251  1.00  0.00     0.228 C 
ATOM      5  O   UNL A   1      34.015  28.890  23.137  1.00  0.00    -0.275 OA
ATOM      6  H   UNL A   1      34.671  29.961  25.120  1.00  0.00     0.163 HD
BRANCH   4   7
ATOM      7  C   UNL A   1      33.139  27.039  24.382  1.00  0.00     0.133 C 
ATOM      8  C   UNL A   1      33.813  26.186  25.463  1.00  0.00     0.024 C 
BRANCH   7   9
ATOM      9  C   UNL A   1      31.603  27.191  24.521  1.00  0.00     0.191 C 
ATOM     10  C   UNL A   1      31.161  27.021  25.982  1.00  0.00     0.076 C 
BRANCH   9  11
ATOM     11  N   UNL A   1      31.112  28.508  24.081  1.00  0.00    -0.339 N 
ATOM     12  H   UNL A   1      30.435  28.852  24.761  1.00  0.00     0.346 HD
ATOM     13  H   UNL A   1      31.913  29.137  24.009  1.00  0.00     0.346 HD
BRANCH  11  14
ATOM     14  C   UNL A   1      30.472  28.439  22.771  1.00  0.00     0.303 C 
BRANCH  14  15
ATOM     15  C   UNL A   1      29.048  28.822  22.923  1.00  0.00     0.071 A 
ATOM     16  C   UNL A   1      28.028  26.623  23.891  1.00  0.00     0.071 C 
ATOM     17  C   UNL A   1      27.973  28.021  23.405  1.00  0.00     0.090 A 
ATOM     18  N   UNL A   1      26.813  28.689  23.379  1.00  0.00    -0.085 NA
ATOM     19  O   UNL A   1      27.111  29.940  22.876  1.00  0.00    -0.361 OA
ATOM     20  C   UNL A   1      28.440  30.016  22.601  1.00  0.00     0.142 A 
ATOM     21  C   UNL A   1      28.919  31.290  22.036  1.00  0.00     0.091 C 
ENDBRANCH  14  15
ENDBRANCH  11  14
ENDBRANCH   9  11
ENDBRANCH   7   9
ENDBRANCH   4   7
ENDBRANCH   2   3
ENDBRANCH   1   2
BRANCH   1  22
ATOM     22  C   UNL A   1      34.445  31.308  27.326  1.00  0.00     0.023 C 
BRANCH  22  23
ATOM     23  C   UNL A   1      32.985  31.634  27.625  1.00  0.00     0.116 C 
BRANCH  23  24
ATOM     24  N   UNL A   1      32.717  33.064  27.651  1.00  0.00    -0.352 N 
ATOM     25  C   UNL A   1      33.315  34.044  28.409  1.00  0.00     0.251 C 
ATOM     26  H   UNL A   1      32.008  33.375  27.040  1.00  0.00     0.163 HD
ATOM     27  O   UNL A   1      32.869  35.187  28.394  1.00  0.00    -0.269 OA
BRANCH  25  28
ATOM     28  C   UNL A   1      34.467  33.693  29.267  1.00  0.00     0.039 A 
ATOM     29  C   UNL A   1      34.252  32.899  30.395  1.00  0.00     0.014 A 
ATOM     30  C   UNL A   1      35.757  34.103  28.923  1.00  0.00     0.014 A 
ATOM     31  C   UNL A   1      35.346  32.439  31.131  1.00  0.00     0.010 A 
ATOM     32  C   UNL A   1      36.849  33.586  29.615  1.00  0.00     0.010 A 
ATOM     33  C   UNL A   1      36.655  32.740  30.718  1.00  0.00    -0.014 A 
BRANCH  33  34
ATOM     34  C   UNL A   1      37.836  32.162  31.411  1.00  0.00     0.031 A 
ATOM     35  C   UNL A   1      38.625  31.060  30.762  1.00  0.00     0.074 A 
ATOM     36  C   UNL A   1      38.142  32.571  32.658  1.00  0.00     0.049 A 
ATOM     37  N   UNL A   1      39.620  30.359  31.243  1.00  0.00    -0.248 NA
ATOM     38  C   UNL A   1      38.216  30.672  29.403  1.00  0.00     0.031 C 
ATOM     39  C   UNL A   1      37.419  33.598  33.413  1.00  0.00     0.029 A 
ATOM     40  N   UNL A   1      39.131  32.165  33.518  1.00  0.00    -0.354 N 
ATOM     41  C   UNL A   1      39.946  29.437  30.254  1.00  0.00     0.074 A 
ATOM     42  C   UNL A   1      39.003  29.632  29.172  1.00  0.00     0.031 C 
ATOM     43  C   UNL A   1      38.000  33.753  34.614  1.00  0.00     0.029 A 
ATOM     44  C   UNL A   1      39.108  32.811  34.734  1.00  0.00     0.049 A 
ATOM     45  H   UNL A   1      39.796  31.477  33.287  1.00  0.00     0.167 HD
ATOM     46  C   UNL A   1      40.953  28.529  30.240  1.00  0.00     0.034 A 
ATOM     47  C   UNL A   1      39.882  32.650  35.825  1.00  0.00     0.034 A 
ATOM     48  C   UNL A   1      41.897  28.360  31.318  1.00  0.00     0.049 A 
ATOM     49  C   UNL A   1      40.985  31.626  35.793  1.00  0.00     0.074 A 
ATOM     50  C   UNL A   1      42.998  27.524  31.378  1.00  0.00     0.029 A 
ATOM     51  N   UNL A   1      41.847  29.037  32.530  1.00  0.00    -0.354 N 
ATOM     52  N   UNL A   1      41.317  30.801  34.826  1.00  0.00    -0.248 NA
ATOM     53  C   UNL A   1      41.823  31.515  36.995  1.00  0.00     0.031 C 
ATOM     54  C   UNL A   1      43.577  27.650  32.647  1.00  0.00     0.029 A 
ATOM     55  C   UNL A   1      42.878  28.614  33.355  1.00  0.00     0.049 A 
ATOM     56  H   UNL A   1      41.177  29.717  32.769  1.00  0.00     0.167 HD
ATOM     57  C   UNL A   1      42.418  30.091  35.297  1.00  0.00     0.074 A 
ATOM     58  C   UNL A   1      42.701  30.593  36.626  1.00  0.00     0.031 C 
ATOM     59  C   UNL A   1      43.134  29.114  34.685  1.00  0.00     0.034 A 
BRANCH  46  60
ATOM     60  C   UNL A   1      41.064  27.638  29.026  1.00  0.00     0.023 A 
ATOM     61  C   UNL A   1      42.050  27.849  28.047  1.00  0.00     0.031 A 
ATOM     62  C   UNL A   1      40.150  26.589  28.825  1.00  0.00     0.131 A 
ATOM     63  C   UNL A   1      42.049  27.079  26.875  1.00  0.00     0.055 A 
ATOM     64  C   UNL A   1      40.205  25.773  27.693  1.00  0.00     0.041 A 
ATOM     65  F   UNL A   1      39.174  26.353  29.716  1.00  0.00    -0.206 F 
ATOM     66  C   UNL A   1      41.149  26.026  26.702  1.00  0.00     0.022 A 
BRANCH  63  67
ATOM     67  S   UNL A   1      43.147  27.570  25.517  1.00  0.00     0.124 S 
ATOM     68  O   UNL A   1      43.631  26.274  25.048  1.00  0.00    -0.237 OA
ATOM     69  O   UNL A   1      42.241  28.275  24.618  1.00  0.00    -0.237 OA
ATOM     70  O   UNL A   1      44.151  28.404  26.173  1.00  0.00    -0.744 OA
ENDBRANCH  63  67
ENDBRANCH  46  60
BRANCH  47  71
ATOM     71  C   UNL A   1      39.637  33.464  37.049  1.00  0.00     0.023 A 
ATOM     72  C   UNL A   1      38.942  32.928  38.144  1.00  0.00     0.031 A 
ATOM     73  C   UNL A   1      40.060  34.803  37.125  1.00  0.00     0.131 A 
ATOM     74  C   UNL A   1      38.654  33.737  39.254  1.00  0.00     0.055 A 
ATOM     75  C   UNL A   1      39.810  35.591  38.250  1.00  0.00     0.041 A 
ATOM     76  F   UNL A   1      40.735  35.360  36.108  1.00  0.00    -0.206 F 
ATOM     77  C   UNL A   1      39.092  35.062  39.318  1.00  0.00     0.022 A 
BRANCH  74  78
ATOM     78  S   UNL A   1      37.632  33.052  40.586  1.00  0.00     0.124 S 
ATOM     79  O   UNL A   1      37.711  34.103  41.594  1.00  0.00    -0.237 OA
ATOM     80  O   UNL A   1      36.342  32.891  39.925  1.00  0.00    -0.237 OA
ATOM     81  O   UNL A   1      38.313  31.805  40.930  1.00  0.00    -0.744 OA
ENDBRANCH  74  78
ENDBRANCH  47  71
BRANCH  59  82
ATOM     82  C   UNL A   1      44.312  28.556  35.443  1.00  0.00     0.023 A 
ATOM     83  C   UNL A   1      44.162  27.510  36.369  1.00  0.00     0.031 A 
ATOM     84  C   UNL A   1      45.598  29.087  35.240  1.00  0.00     0.131 A 
ATOM     85  C   UNL A   1      45.274  27.058  37.095  1.00  0.00     0.055 A 
ATOM     86  C   UNL A   1      46.709  28.597  35.927  1.00  0.00     0.041 A 
ATOM     87  F   UNL A   1      45.793  30.088  34.368  1.00  0.00    -0.206 F 
ATOM     88  C   UNL A   1      46.549  27.584  36.869  1.00  0.00     0.022 A 
BRANCH  85  89
ATOM     89  S   UNL A   1      45.022  25.817  38.394  1.00  0.00     0.124 S 
ATOM     90  O   UNL A   1      44.093  24.891  37.753  1.00  0.00    -0.237 OA
ATOM     91  O   UNL A   1      46.374  25.314  38.613  1.00  0.00    -0.237 OA
ATOM     92  O   UNL A   1      44.462  26.588  39.502  1.00  0.00    -0.744 OA
ENDBRANCH  85  89
ENDBRANCH  59  82
ENDBRANCH  33  34
ENDBRANCH  25  28
ENDBRANCH  23  24
ENDBRANCH  22  23
ENDBRANCH   1  22
TORSDOF 18
ENDMDL
MODEL 2
REMARK VINA RESULT:     -10.8      3.843      8.944
REMARK SMILES Cc1noc(C)c1C[NH2+][C@H](C)[C@H](C)C(=O)NCCCCNC(=O)c1ccc(-c2c3nc(c(-c4cc(S(=O)(=O)[O-])ccc4F)c4ccc([nH]4)c(-c4cc(S(=O)(=O)[O-])ccc4F)c4nc(c(-c5cc(S(=O)(=O)[O-])ccc5F)c5ccc2[nH]5)C=C4)C=C3)cc1
REMARK SMILES IDX 18 1 17 2 16 3 14 4 15 5 12 7 13 8 10 9 11 10 9 11 8 14 7 15
REMARK SMILES IDX 1 16 2 17 3 18 4 19 5 20 6 21 19 22 20 23 21 24 22 25 23 27
REMARK SMILES IDX 24 28 25 29 86 30 26 31 85 32 27 33 28 34 29 35 79 36 30 37
REMARK SMILES IDX 84 38 78 39 80 40 31 41 83 42 77 43 76 44 32 46 64 47 44 48
REMARK SMILES IDX 63 49 45 50 48 51 62 52 81 53 46 54 47 55 61 57 82 58 49 59
REMARK SMILES IDX 33 60 34 61 42 62 35 63 41 64 43 65 40 66 36 67 37 68 38 69
REMARK SMILES IDX 39 70 65 71 66 72 74 73 67 74 73 75 75 76 72 77 68 78 69 79
REMARK SMILES IDX 70 80 71 81 50 82 51 83 59 84 52 85 58 86 60 87 57 88 53 89
REMARK SMILES IDX 54 90 55 91 56 92
REMARK H PARENT 16 6 9 12 9 13 21 26 80 45 48 56
REMARK Flexibility Score: inf
ROOT
ATOM      1  C   UNL A   1      31.444  29.922  25.374  1.00  0.00     0.023 C 
ENDROOT
BRANCH   1   2
ATOM      2  C   UNL A   1      30.938  29.073  24.213  1.00  0.00     0.116 C 
BRANCH   2   3
ATOM      3  N   UNL A   1      31.990  28.273  23.619  1.00  0.00    -0.356 N 
ATOM      4  C   UNL A   1      32.237  26.937  23.673  1.00  0.00     0.228 C 
ATOM      5  O   UNL A   1      33.210  26.508  23.048  1.00  0.00    -0.275 OA
ATOM      6  H   UNL A   1      32.639  28.785  23.084  1.00  0.00     0.163 HD
BRANCH   4   7
ATOM      7  C   UNL A   1      31.346  25.980  24.459  1.00  0.00     0.133 C 
ATOM      8  C   UNL A   1      30.682  24.959  23.528  1.00  0.00     0.024 C 
BRANCH   7   9
ATOM      9  C   UNL A   1      32.094  25.377  25.675  1.00  0.00     0.191 C 
ATOM     10  C   UNL A   1      31.631  23.940  25.952  1.00  0.00     0.076 C 
BRANCH   9  11
ATOM     11  N   UNL A   1      33.554  25.322  25.484  1.00  0.00    -0.339 N 
ATOM     12  H   UNL A   1      33.769  25.559  24.516  1.00  0.00     0.346 HD
ATOM     13  H   UNL A   1      33.984  25.985  26.129  1.00  0.00     0.346 HD
BRANCH  11  14
ATOM     14  C   UNL A   1      34.090  23.995  25.775  1.00  0.00     0.303 C 
BRANCH  14  15
ATOM     15  C   UNL A   1      35.131  23.678  24.767  1.00  0.00     0.071 A 
ATOM     16  C   UNL A   1      33.667  23.105  22.683  1.00  0.00     0.071 C 
ATOM     17  C   UNL A   1      34.945  23.277  23.414  1.00  0.00     0.090 A 
ATOM     18  N   UNL A   1      36.114  23.048  22.804  1.00  0.00    -0.085 NA
ATOM     19  O   UNL A   1      37.087  23.293  23.754  1.00  0.00    -0.361 OA
ATOM     20  C   UNL A   1      36.500  23.663  24.922  1.00  0.00     0.142 A 
ATOM     21  C   UNL A   1      37.407  23.945  26.050  1.00  0.00     0.091 C 
ENDBRANCH  14  15
ENDBRANCH  11  14
ENDBRANCH   9  11
ENDBRANCH   7   9
ENDBRANCH   4   7
ENDBRANCH   2   3
ENDBRANCH   1   2
BRANCH   1  22
ATOM     22  C   UNL A   1      31.985  29.128  26.563  1.00  0.00     0.023 C 
BRANCH  22  23
ATOM     23  C   UNL A   1      33.419  29.457  26.969  1.00  0.00     0.116 C 
BRANCH  23  24
ATOM     24  N   UNL A   1      33.600  30.854  27.335  1.00  0.00    -0.352 N 
ATOM     25  C   UNL A   1      34.631  31.439  28.033  1.00  0.00     0.251 C 
ATOM     26  H   UNL A   1      32.887  31.466  27.041  1.00  0.00     0.163 HD
ATOM     27  O   UNL A   1      34.554  32.618  28.364  1.00  0.00    -0.269 OA
BRANCH  25  28
ATOM     28  C   UNL A   1      35.803  30.623  28.413  1.00  0.00     0.039 A 
ATOM     29  C   UNL A   1      36.972  30.725  27.655  1.00  0.00     0.014 A 
ATOM     30  C   UNL A   1      35.761  29.806  29.546  1.00  0.00     0.014 A 
ATOM     31  C   UNL A   1      38.130  30.074  28.087  1.00  0.00     0.010 A 
ATOM     32  C   UNL A   1      36.933  29.216  30.011  1.00  0.00     0.010 A 
ATOM     33  C   UNL A   1      38.131  29.354  29.294  1.00  0.00    -0.014 A 
BRANCH  33  34
ATOM     34  C   UNL A   1      39.380  28.757  29.835  1.00  0.00     0.031 A 
ATOM     35  C   UNL A   1      40.042  29.362  31.042  1.00  0.00     0.074 A 
ATOM     36  C   UNL A   1      39.959  27.726  29.189  1.00  0.00     0.049 A 
ATOM     37  N   UNL A   1      41.182  29.052  31.604  1.00  0.00    -0.248 NA
ATOM     38  C   UNL A   1      39.343  30.488  31.679  1.00  0.00     0.031 C 
ATOM     39  C   UNL A   1      39.438  27.086  27.979  1.00  0.00     0.029 A 
ATOM     40  N   UNL A   1      41.120  27.043  29.450  1.00  0.00    -0.354 N 
ATOM     41  C   UNL A   1      41.346  29.954  32.650  1.00  0.00     0.074 A 
ATOM     42  C   UNL A   1      40.215  30.857  32.604  1.00  0.00     0.031 C 
ATOM     43  C   UNL A   1      40.267  26.094  27.613  1.00  0.00     0.029 A 
ATOM     44  C   UNL A   1      41.398  26.052  28.535  1.00  0.00     0.049 A 
ATOM     45  H   UNL A   1      41.700  27.242  30.220  1.00  0.00     0.167 HD
ATOM     46  C   UNL A   1      42.335  30.007  33.575  1.00  0.00     0.034 A 
ATOM     47  C   UNL A   1      42.451  25.216  28.441  1.00  0.00     0.034 A 
ATOM     48  C   UNL A   1      43.445  29.088  33.619  1.00  0.00     0.049 A 
ATOM     49  C   UNL A   1      43.545  25.303  29.472  1.00  0.00     0.074 A 
ATOM     50  C   UNL A   1      44.462  29.005  34.554  1.00  0.00     0.029 A 
ATOM     51  N   UNL A   1      43.688  28.092  32.681  1.00  0.00    -0.354 N 
ATOM     52  N   UNL A   1      43.655  26.126  30.491  1.00  0.00    -0.248 NA
ATOM     53  C   UNL A   1      44.652  24.346  29.346  1.00  0.00     0.031 C 
ATOM     54  C   UNL A   1      45.351  28.002  34.150  1.00  0.00     0.029 A 
ATOM     55  C   UNL A   1      44.855  27.413  32.998  1.00  0.00     0.049 A 
ATOM     56  H   UNL A   1      43.117  27.898  31.903  1.00  0.00     0.167 HD
ATOM     57  C   UNL A   1      44.833  25.767  31.140  1.00  0.00     0.074 A 
ATOM     58  C   UNL A   1      45.389  24.647  30.406  1.00  0.00     0.031 C 
ATOM     59  C   UNL A   1      45.404  26.310  32.245  1.00  0.00     0.034 A 
BRANCH  46  60
ATOM     60  C   UNL A   1      42.263  31.115  34.599  1.00  0.00     0.023 A 
ATOM     61  C   UNL A   1      42.858  32.367  34.370  1.00  0.00     0.031 A 
ATOM     62  C   UNL A   1      41.626  30.904  35.834  1.00  0.00     0.131 A 
ATOM     63  C   UNL A   1      42.876  33.330  35.390  1.00  0.00     0.055 A 
ATOM     64  C   UNL A   1      41.577  31.897  36.815  1.00  0.00     0.041 A 
ATOM     65  F   UNL A   1      41.057  29.721  36.117  1.00  0.00    -0.206 F 
ATOM     66  C   UNL A   1      42.219  33.114  36.602  1.00  0.00     0.022 A 
BRANCH  63  67
ATOM     67  S   UNL A   1      43.899  34.812  35.161  1.00  0.00     0.124 S 
ATOM     68  O   UNL A   1      44.659  34.839  36.408  1.00  0.00    -0.237 OA
ATOM     69  O   UNL A   1      44.657  34.488  33.958  1.00  0.00    -0.237 OA
ATOM     70  O   UNL A   1      42.919  35.885  35.012  1.00  0.00    -0.744 OA
ENDBRANCH  63  67
ENDBRANCH  46  60
BRANCH  47  71
ATOM     71  C   UNL A   1      42.535  24.233  27.326  1.00  0.00     0.023 A 
ATOM     72  C   UNL A   1      41.942  22.966  27.435  1.00  0.00     0.031 A 
ATOM     73  C   UNL A   1      43.243  24.532  26.148  1.00  0.00     0.131 A 
ATOM     74  C   UNL A   1      42.101  22.027  26.404  1.00  0.00     0.055 A 
ATOM     75  C   UNL A   1      43.362  23.611  25.106  1.00  0.00     0.041 A 
ATOM     76  F   UNL A   1      43.822  25.733  25.991  1.00  0.00    -0.206 F 
ATOM     77  C   UNL A   1      42.798  22.345  25.236  1.00  0.00     0.022 A 
BRANCH  74  78
ATOM     78  S   UNL A   1      41.442  20.355  26.643  1.00  0.00     0.124 S 
ATOM     79  O   UNL A   1      42.108  19.945  27.874  1.00  0.00    -0.237 OA
ATOM     80  O   UNL A   1      40.009  20.606  26.741  1.00  0.00    -0.237 OA
ATOM     81  O   UNL A   1      41.866  19.647  25.437  1.00  0.00    -0.744 OA
ENDBRANCH  74  78
ENDBRANCH  47  71
BRANCH  59  82
ATOM     82  C   UNL A   1      46.676  25.671  32.739  1.00  0.00     0.023 A 
ATOM     83  C   UNL A   1      46.658  24.625  33.678  1.00  0.00     0.031 A 
ATOM     84  C   UNL A   1      47.922  26.123  32.271  1.00  0.00     0.131 A 
ATOM     85  C   UNL A   1      47.867  24.096  34.155  1.00  0.00     0.055 A 
ATOM     86  C   UNL A   1      49.119  25.557  32.710  1.00  0.00     0.041 A 
ATOM     87  F   UNL A   1      47.993  27.121  31.376  1.00  0.00    -0.206 F 
ATOM     88  C   UNL A   1      49.096  24.545  33.666  1.00  0.00     0.022 A 
BRANCH  85  89
ATOM     89  S   UNL A   1      47.814  22.858  35.479  1.00  0.00     0.124 S 
ATOM     90  O   UNL A   1      49.228  22.706  35.808  1.00  0.00    -0.237 OA
ATOM     91  O   UNL A   1      46.992  23.515  36.490  1.00  0.00    -0.237 OA
ATOM     92  O   UNL A   1      47.198  21.697  34.840  1.00  0.00    -0.744 OA
ENDBRANCH  85  89
ENDBRANCH  59  82
ENDBRANCH  33  34
ENDBRANCH  25  28
ENDBRANCH  23  24
ENDBRANCH  22  23
ENDBRANCH   1  22
TORSDOF 18
ENDMDL
MODEL 3
REMARK VINA RESULT:     -10.8      1.754      2.834
REMARK SMILES Cc1noc(C)c1C[NH2+][C@H](C)[C@H](C)C(=O)NCCCCNC(=O)c1ccc(-c2c3nc(c(-c4cc(S(=O)(=O)[O-])ccc4F)c4ccc([nH]4)c(-c4cc(S(=O)(=O)[O-])ccc4F)c4nc(c(-c5cc(S(=O)(=O)[O-])ccc5F)c5ccc2[nH]5)C=C4)C=C3)cc1
REMARK SMILES IDX 18 1 17 2 16 3 14 4 15 5 12 7 13 8 10 9 11 10 9 11 8 14 7 15
REMARK SMILES IDX 1 16 2 17 3 18 4 19 5 20 6 21 19 22 20 23 21 24 22 25 23 27
REMARK SMILES IDX 24 28 25 29 86 30 26 31 85 32 27 33 28 34 29 35 79 36 30 37
REMARK SMILES IDX 84 38 78 39 80 40 31 41 83 42 77 43 76 44 32 46 64 47 44 48
REMARK SMILES IDX 63 49 45 50 48 51 62 52 81 53 46 54 47 55 61 57 82 58 49 59
REMARK SMILES IDX 33 60 34 61 42 62 35 63 41 64 43 65 40 66 36 67 37 68 38 69
REMARK SMILES IDX 39 70 65 71 66 72 74 73 67 74 73 75 75 76 72 77 68 78 69 79
REMARK SMILES IDX 70 80 71 81 50 82 51 83 59 84 52 85 58 86 60 87 57 88 53 89
REMARK SMILES IDX 54 90 55 91 56 92
REMARK H PARENT 16 6 9 12 9 13 21 26 80 45 48 56
REMARK Flexibility Score: inf
ROOT
ATOM      1  C   UNL A   1      35.040  30.094  27.674  1.00  0.00     0.023 C 
ENDROOT
BRANCH   1   2
ATOM      2  C   UNL A   1      34.274  28.989  26.955  1.00  0.00     0.116 C 
BRANCH   2   3
ATOM      3  N   UNL A   1      33.093  28.575  27.687  1.00  0.00    -0.356 N 
ATOM      4  C   UNL A   1      31.885  28.125  27.255  1.00  0.00     0.228 C 
ATOM      5  O   UNL A   1      31.049  27.819  28.108  1.00  0.00    -0.275 OA
ATOM      6  H   UNL A   1      33.181  28.628  28.666  1.00  0.00     0.163 HD
BRANCH   4   7
ATOM      7  C   UNL A   1      31.557  27.981  25.772  1.00  0.00     0.133 C 
ATOM      8  C   UNL A   1      31.980  29.232  24.993  1.00  0.00     0.024 C 
BRANCH   7   9
ATOM      9  C   UNL A   1      32.080  26.639  25.201  1.00  0.00     0.191 C 
ATOM     10  C   UNL A   1      33.308  26.859  24.307  1.00  0.00     0.076 C 
BRANCH   9  11
ATOM     11  N   UNL A   1      32.485  25.687  26.250  1.00  0.00    -0.339 N 
ATOM     12  H   UNL A   1      33.359  25.241  25.971  1.00  0.00     0.346 HD
ATOM     13  H   UNL A   1      32.598  26.204  27.122  1.00  0.00     0.346 HD
BRANCH  11  14
ATOM     14  C   UNL A   1      31.477  24.653  26.464  1.00  0.00     0.303 C 
BRANCH  14  15
ATOM     15  C   UNL A   1      31.924  23.412  25.787  1.00  0.00     0.071 A 
ATOM     16  C   UNL A   1      30.761  23.650  23.463  1.00  0.00     0.071 C 
ATOM     17  C   UNL A   1      31.602  22.967  24.474  1.00  0.00     0.090 A 
ATOM     18  N   UNL A   1      32.164  21.783  24.204  1.00  0.00    -0.085 NA
ATOM     19  O   UNL A   1      32.863  21.431  25.343  1.00  0.00    -0.361 OA
ATOM     20  C   UNL A   1      32.716  22.399  26.285  1.00  0.00     0.142 A 
ATOM     21  C   UNL A   1      33.391  22.165  27.575  1.00  0.00     0.091 C 
ENDBRANCH  14  15
ENDBRANCH  11  14
ENDBRANCH   9  11
ENDBRANCH   7   9
ENDBRANCH   4   7
ENDBRANCH   2   3
ENDBRANCH   1   2
BRANCH   1  22
ATOM     22  C   UNL A   1      34.567  31.513  27.361  1.00  0.00     0.023 C 
BRANCH  22  23
ATOM     23  C   UNL A   1      33.094  31.789  27.646  1.00  0.00     0.116 C 
BRANCH  23  24
ATOM     24  N   UNL A   1      32.795  33.208  27.771  1.00  0.00    -0.352 N 
ATOM     25  C   UNL A   1      33.371  34.143  28.599  1.00  0.00     0.251 C 
ATOM     26  H   UNL A   1      32.082  33.545  27.181  1.00  0.00     0.163 HD
ATOM     27  O   UNL A   1      32.900  35.275  28.663  1.00  0.00    -0.269 OA
BRANCH  25  28
ATOM     28  C   UNL A   1      34.526  33.757  29.435  1.00  0.00     0.039 A 
ATOM     29  C   UNL A   1      34.315  32.933  30.543  1.00  0.00     0.014 A 
ATOM     30  C   UNL A   1      35.818  34.164  29.090  1.00  0.00     0.014 A 
ATOM     31  C   UNL A   1      35.411  32.442  31.254  1.00  0.00     0.010 A 
ATOM     32  C   UNL A   1      36.911  33.618  29.757  1.00  0.00     0.010 A 
ATOM     33  C   UNL A   1      36.719  32.742  30.837  1.00  0.00    -0.014 A 
BRANCH  33  34
ATOM     34  C   UNL A   1      37.901  32.133  31.502  1.00  0.00     0.031 A 
ATOM     35  C   UNL A   1      38.641  31.006  30.837  1.00  0.00     0.074 A 
ATOM     36  C   UNL A   1      38.251  32.538  32.739  1.00  0.00     0.049 A 
ATOM     37  N   UNL A   1      39.628  30.279  31.295  1.00  0.00    -0.248 NA
ATOM     38  C   UNL A   1      38.187  30.626  29.491  1.00  0.00     0.031 C 
ATOM     39  C   UNL A   1      37.577  33.587  33.508  1.00  0.00     0.029 A 
ATOM     40  N   UNL A   1      39.250  32.106  33.575  1.00  0.00    -0.354 N 
ATOM     41  C   UNL A   1      39.902  29.345  30.302  1.00  0.00     0.074 A 
ATOM     42  C   UNL A   1      38.937  29.563  29.244  1.00  0.00     0.031 C 
ATOM     43  C   UNL A   1      38.193  33.729  34.693  1.00  0.00     0.029 A 
ATOM     44  C   UNL A   1      39.276  32.756  34.788  1.00  0.00     0.049 A 
ATOM     45  H   UNL A   1      39.889  31.399  33.329  1.00  0.00     0.167 HD
ATOM     46  C   UNL A   1      40.882  28.409  30.266  1.00  0.00     0.034 A 
ATOM     47  C   UNL A   1      40.073  32.577  35.860  1.00  0.00     0.034 A 
ATOM     48  C   UNL A   1      41.848  28.217  31.320  1.00  0.00     0.049 A 
ATOM     49  C   UNL A   1      41.146  31.522  35.803  1.00  0.00     0.074 A 
ATOM     50  C   UNL A   1      42.926  27.350  31.355  1.00  0.00     0.029 A 
ATOM     51  N   UNL A   1      41.849  28.899  32.530  1.00  0.00    -0.354 N 
ATOM     52  N   UNL A   1      41.429  30.685  34.832  1.00  0.00    -0.248 NA
ATOM     53  C   UNL A   1      42.011  31.392  36.984  1.00  0.00     0.031 C 
ATOM     54  C   UNL A   1      43.542  27.464  32.608  1.00  0.00     0.029 A 
ATOM     55  C   UNL A   1      42.889  28.450  33.330  1.00  0.00     0.049 A 
ATOM     56  H   UNL A   1      41.205  29.599  32.783  1.00  0.00     0.167 HD
ATOM     57  C   UNL A   1      42.521  29.945  35.277  1.00  0.00     0.074 A 
ATOM     58  C   UNL A   1      42.852  30.444  36.596  1.00  0.00     0.031 C 
ATOM     59  C   UNL A   1      43.194  28.946  34.651  1.00  0.00     0.034 A 
BRANCH  46  60
ATOM     60  C   UNL A   1      40.936  27.512  29.053  1.00  0.00     0.023 A 
ATOM     61  C   UNL A   1      41.891  27.702  28.039  1.00  0.00     0.031 A 
ATOM     62  C   UNL A   1      39.999  26.476  28.890  1.00  0.00     0.131 A 
ATOM     63  C   UNL A   1      41.836  26.927  26.871  1.00  0.00     0.055 A 
ATOM     64  C   UNL A   1      40.002  25.654  27.760  1.00  0.00     0.041 A 
ATOM     65  F   UNL A   1      39.052  26.259  29.816  1.00  0.00    -0.206 F 
ATOM     66  C   UNL A   1      40.914  25.888  26.735  1.00  0.00     0.022 A 
BRANCH  63  67
ATOM     67  S   UNL A   1      42.893  27.395  25.473  1.00  0.00     0.124 S 
ATOM     68  O   UNL A   1      44.105  27.840  26.158  1.00  0.00    -0.237 OA
ATOM     69  O   UNL A   1      43.003  26.146  24.729  1.00  0.00    -0.237 OA
ATOM     70  O   UNL A   1      42.135  28.454  24.810  1.00  0.00    -0.744 OA
ENDBRANCH  63  67
ENDBRANCH  46  60
BRANCH  47  71
ATOM     71  C   UNL A   1      39.883  33.402  37.086  1.00  0.00     0.023 A 
ATOM     72  C   UNL A   1      39.164  32.905  38.185  1.00  0.00     0.031 A 
ATOM     73  C   UNL A   1      40.384  34.714  37.162  1.00  0.00     0.131 A 
ATOM     74  C   UNL A   1      38.930  33.728  39.297  1.00  0.00     0.055 A 
ATOM     75  C   UNL A   1      40.187  35.514  38.289  1.00  0.00     0.041 A 
ATOM     76  F   UNL A   1      41.084  35.232  36.141  1.00  0.00    -0.206 F 
ATOM     77  C   UNL A   1      39.445  35.025  39.361  1.00  0.00     0.022 A 
BRANCH  74  78
ATOM     78  S   UNL A   1      37.878  33.101  40.635  1.00  0.00     0.124 S 
ATOM     79  O   UNL A   1      38.562  31.865  40.998  1.00  0.00    -0.237 OA
ATOM     80  O   UNL A   1      37.950  34.185  41.608  1.00  0.00    -0.237 OA
ATOM     81  O   UNL A   1      36.577  32.930  39.992  1.00  0.00    -0.744 OA
ENDBRANCH  74  78
ENDBRANCH  47  71
BRANCH  59  82
ATOM     82  C   UNL A   1      44.374  28.358  35.380  1.00  0.00     0.023 A 
ATOM     83  C   UNL A   1      44.209  27.401  36.395  1.00  0.00     0.031 A 
ATOM     84  C   UNL A   1      45.679  28.770  35.059  1.00  0.00     0.131 A 
ATOM     85  C   UNL A   1      45.330  26.919  37.088  1.00  0.00     0.055 A 
ATOM     86  C   UNL A   1      46.794  28.249  35.717  1.00  0.00     0.041 A 
ATOM     87  F   UNL A   1      45.890  29.683  34.100  1.00  0.00    -0.206 F 
ATOM     88  C   UNL A   1      46.622  27.326  36.746  1.00  0.00     0.022 A 
BRANCH  85  89
ATOM     89  S   UNL A   1      45.073  25.805  38.496  1.00  0.00     0.124 S 
ATOM     90  O   UNL A   1      44.148  26.571  39.325  1.00  0.00    -0.237 OA
ATOM     91  O   UNL A   1      44.519  24.615  37.856  1.00  0.00    -0.237 OA
ATOM     92  O   UNL A   1      46.414  25.639  39.052  1.00  0.00    -0.744 OA
ENDBRANCH  85  89
ENDBRANCH  59  82
ENDBRANCH  33  34
ENDBRANCH  25  28
ENDBRANCH  23  24
ENDBRANCH  22  23
ENDBRANCH   1  22
TORSDOF 18
ENDMDL
