MODEL 1
REMARK VINA RESULT:     -11.7      0.000      0.000
REMARK SMILES CCC(C)(C)c1cccc(C(=O)NCCCCNC(=O)c2ccc(-c3c4nc(c(-c5cc(S(=O)(=O)[O-])ccc5F)c5ccc([nH]5)c(-c5cc(S(=O)(=O)[O-])ccc5F)c5nc(c(-c6cc(S(=O)(=O)[O-])ccc6F)c6ccc3[nH]6)C=C5)C=C4)cc2)c1
REMARK SMILES IDX 16 1 15 2 14 3 13 4 11 5 12 6 10 8 6 9 7 10 84 11 8 12 9 13
REMARK SMILES IDX 3 14 4 15 5 16 2 17 1 18 17 19 18 20 19 21 20 23 21 24 22 25
REMARK SMILES IDX 83 26 23 27 82 28 24 29 25 30 26 31 76 32 27 33 81 34 75 35
REMARK SMILES IDX 77 36 28 37 80 38 74 39 73 40 29 42 61 43 41 44 60 45 42 46
REMARK SMILES IDX 45 47 59 48 78 49 43 50 44 51 58 53 79 54 46 55 30 56 31 57
REMARK SMILES IDX 39 58 32 59 38 60 40 61 37 62 33 63 34 64 35 65 36 66 62 67
REMARK SMILES IDX 63 68 71 69 64 70 70 71 72 72 69 73 65 74 66 75 67 76 68 77
REMARK SMILES IDX 47 78 48 79 56 80 49 81 55 82 57 83 54 84 50 85 51 86 52 87
REMARK SMILES IDX 53 88
REMARK H PARENT 13 7 18 22 77 41 45 52
REMARK Flexibility Score: inf
ROOT
ATOM      1  C   UNL A   1      35.969  21.916  25.411  1.00  0.00     0.023 C 
ENDROOT
BRANCH   1   2
ATOM      2  C   UNL A   1      35.481  22.876  26.485  1.00  0.00     0.023 C 
BRANCH   2   3
ATOM      3  C   UNL A   1      34.406  23.872  26.077  1.00  0.00     0.116 C 
BRANCH   3   4
ATOM      4  N   UNL A   1      33.127  23.729  26.751  1.00  0.00    -0.352 N 
ATOM      5  C   UNL A   1      32.052  22.908  26.475  1.00  0.00     0.251 C 
ATOM      6  O   UNL A   1      31.063  22.958  27.205  1.00  0.00    -0.269 OA
ATOM      7  H   UNL A   1      33.007  24.315  27.533  1.00  0.00     0.163 HD
BRANCH   5   8
ATOM      8  C   UNL A   1      32.021  22.017  25.280  1.00  0.00     0.040 A 
ATOM      9  C   UNL A   1      32.522  19.872  24.211  1.00  0.00    -0.042 A 
ATOM     10  C   UNL A   1      32.315  20.482  22.964  1.00  0.00     0.004 A 
ATOM     11  C   UNL A   1      32.248  20.641  25.358  1.00  0.00     0.018 A 
ATOM     12  C   UNL A   1      31.933  21.824  22.873  1.00  0.00     0.001 A 
ATOM     13  C   UNL A   1      31.819  22.600  24.026  1.00  0.00     0.014 A 
BRANCH   9  14
ATOM     14  C   UNL A   1      33.206  18.498  24.365  1.00  0.00    -0.011 C 
ATOM     15  C   UNL A   1      34.726  18.588  24.626  1.00  0.00     0.016 C 
ATOM     16  C   UNL A   1      33.035  17.646  23.082  1.00  0.00     0.016 C 
BRANCH  14  17
ATOM     17  C   UNL A   1      32.530  17.717  25.543  1.00  0.00     0.008 C 
ATOM     18  C   UNL A   1      32.592  16.192  25.456  1.00  0.00     0.005 C 
ENDBRANCH  14  17
ENDBRANCH   9  14
ENDBRANCH   5   8
ENDBRANCH   3   4
ENDBRANCH   2   3
ENDBRANCH   1   2
BRANCH   1  19
ATOM     19  C   UNL A   1      37.384  22.145  24.893  1.00  0.00     0.116 C 
BRANCH  19  20
ATOM     20  N   UNL A   1      38.358  21.178  25.374  1.00  0.00    -0.352 N 
ATOM     21  C   UNL A   1      39.464  21.360  26.182  1.00  0.00     0.251 C 
ATOM     22  H   UNL A   1      38.206  20.250  25.080  1.00  0.00     0.163 HD
ATOM     23  O   UNL A   1      40.199  20.420  26.423  1.00  0.00    -0.269 OA
BRANCH  21  24
ATOM     24  C   UNL A   1      39.775  22.713  26.703  1.00  0.00     0.039 A 
ATOM     25  C   UNL A   1      40.733  22.838  27.714  1.00  0.00     0.014 A 
ATOM     26  C   UNL A   1      39.166  23.852  26.174  1.00  0.00     0.014 A 
ATOM     27  C   UNL A   1      41.152  24.108  28.119  1.00  0.00     0.010 A 
ATOM     28  C   UNL A   1      39.642  25.114  26.519  1.00  0.00     0.010 A 
ATOM     29  C   UNL A   1      40.650  25.256  27.485  1.00  0.00    -0.014 A 
BRANCH  29  30
ATOM     30  C   UNL A   1      41.169  26.613  27.807  1.00  0.00     0.031 A 
ATOM     31  C   UNL A   1      42.595  26.968  27.485  1.00  0.00     0.074 A 
ATOM     32  C   UNL A   1      40.385  27.492  28.462  1.00  0.00     0.049 A 
ATOM     33  N   UNL A   1      43.270  28.047  27.790  1.00  0.00    -0.248 NA
ATOM     34  C   UNL A   1      43.373  25.958  26.753  1.00  0.00     0.031 C 
ATOM     35  C   UNL A   1      38.999  27.250  28.873  1.00  0.00     0.029 A 
ATOM     36  N   UNL A   1      40.643  28.763  28.915  1.00  0.00    -0.354 N 
ATOM     37  C   UNL A   1      44.557  27.838  27.305  1.00  0.00     0.074 A 
ATOM     38  C   UNL A   1      44.579  26.506  26.739  1.00  0.00     0.031 C 
ATOM     39  C   UNL A   1      38.527  28.340  29.499  1.00  0.00     0.029 A 
ATOM     40  C   UNL A   1      39.584  29.343  29.576  1.00  0.00     0.049 A 
ATOM     41  H   UNL A   1      41.506  29.217  28.779  1.00  0.00     0.167 HD
ATOM     42  C   UNL A   1      45.615  28.687  27.311  1.00  0.00     0.034 A 
ATOM     43  C   UNL A   1      39.481  30.540  30.188  1.00  0.00     0.034 A 
ATOM     44  C   UNL A   1      45.572  30.020  27.859  1.00  0.00     0.049 A 
ATOM     45  C   UNL A   1      40.671  31.467  30.181  1.00  0.00     0.074 A 
ATOM     46  C   UNL A   1      46.569  30.980  27.872  1.00  0.00     0.029 A 
ATOM     47  N   UNL A   1      44.473  30.582  28.496  1.00  0.00    -0.354 N 
ATOM     48  N   UNL A   1      41.868  31.269  29.680  1.00  0.00    -0.248 NA
ATOM     49  C   UNL A   1      40.492  32.780  30.814  1.00  0.00     0.031 C 
ATOM     50  C   UNL A   1      46.091  32.102  28.559  1.00  0.00     0.029 A 
ATOM     51  C   UNL A   1      44.774  31.867  28.920  1.00  0.00     0.049 A 
ATOM     52  H   UNL A   1      43.606  30.134  28.626  1.00  0.00     0.167 HD
ATOM     53  C   UNL A   1      42.573  32.447  29.911  1.00  0.00     0.074 A 
ATOM     54  C   UNL A   1      41.665  33.352  30.583  1.00  0.00     0.031 C 
ATOM     55  C   UNL A   1      43.857  32.755  29.594  1.00  0.00     0.034 A 
BRANCH  42  56
ATOM     56  C   UNL A   1      46.908  28.182  26.719  1.00  0.00     0.023 A 
ATOM     57  C   UNL A   1      47.138  28.193  25.333  1.00  0.00     0.031 A 
ATOM     58  C   UNL A   1      47.915  27.655  27.548  1.00  0.00     0.131 A 
ATOM     59  C   UNL A   1      48.306  27.618  24.810  1.00  0.00     0.055 A 
ATOM     60  C   UNL A   1      49.111  27.158  27.027  1.00  0.00     0.041 A 
ATOM     61  F   UNL A   1      47.746  27.601  28.879  1.00  0.00    -0.206 F 
ATOM     62  C   UNL A   1      49.306  27.123  25.650  1.00  0.00     0.022 A 
BRANCH  59  63
ATOM     63  S   UNL A   1      48.435  27.402  23.015  1.00  0.00     0.124 S 
ATOM     64  O   UNL A   1      48.282  25.955  22.880  1.00  0.00    -0.237 OA
ATOM     65  O   UNL A   1      47.327  28.210  22.519  1.00  0.00    -0.237 OA
ATOM     66  O   UNL A   1      49.769  27.913  22.703  1.00  0.00    -0.744 OA
ENDBRANCH  59  63
ENDBRANCH  42  56
BRANCH  43  67
ATOM     67  C   UNL A   1      38.216  30.938  30.870  1.00  0.00     0.023 A 
ATOM     68  C   UNL A   1      37.211  31.635  30.179  1.00  0.00     0.031 A 
ATOM     69  C   UNL A   1      38.014  30.672  32.236  1.00  0.00     0.131 A 
ATOM     70  C   UNL A   1      36.074  32.088  30.867  1.00  0.00     0.055 A 
ATOM     71  C   UNL A   1      36.858  31.080  32.903  1.00  0.00     0.041 A 
ATOM     72  F   UNL A   1      38.940  30.002  32.941  1.00  0.00    -0.206 F 
ATOM     73  C   UNL A   1      35.886  31.806  32.221  1.00  0.00     0.022 A 
BRANCH  70  74
ATOM     74  S   UNL A   1      34.884  33.131  29.981  1.00  0.00     0.124 S 
ATOM     75  O   UNL A   1      34.029  33.596  31.068  1.00  0.00    -0.237 OA
ATOM     76  O   UNL A   1      35.754  34.134  29.376  1.00  0.00    -0.237 OA
ATOM     77  O   UNL A   1      34.254  32.207  29.043  1.00  0.00    -0.744 OA
ENDBRANCH  70  74
ENDBRANCH  43  67
BRANCH  55  78
ATOM     78  C   UNL A   1      44.328  34.147  29.929  1.00  0.00     0.023 A 
ATOM     79  C   UNL A   1      44.141  35.224  29.045  1.00  0.00     0.031 A 
ATOM     80  C   UNL A   1      44.984  34.395  31.147  1.00  0.00     0.131 A 
ATOM     81  C   UNL A   1      44.654  36.489  29.369  1.00  0.00     0.055 A 
ATOM     82  C   UNL A   1      45.443  35.667  31.489  1.00  0.00     0.041 A 
ATOM     83  F   UNL A   1      45.189  33.400  32.027  1.00  0.00    -0.206 F 
ATOM     84  C   UNL A   1      45.290  36.721  30.592  1.00  0.00     0.022 A 
BRANCH  81  85
ATOM     85  S   UNL A   1      44.548  37.814  28.135  1.00  0.00     0.124 S 
ATOM     86  O   UNL A   1      43.390  38.572  28.601  1.00  0.00    -0.237 OA
ATOM     87  O   UNL A   1      45.841  38.476  28.275  1.00  0.00    -0.237 OA
ATOM     88  O   UNL A   1      44.352  37.096  26.876  1.00  0.00    -0.744 OA
ENDBRANCH  81  85
ENDBRANCH  55  78
ENDBRANCH  29  30
ENDBRANCH  21  24
ENDBRANCH  19  20
ENDBRANCH   1  19
TORSDOF 16
ENDMDL
MODEL 2
REMARK VINA RESULT:     -11.6      5.822      8.482
REMARK SMILES CCC(C)(C)c1cccc(C(=O)NCCCCNC(=O)c2ccc(-c3c4nc(c(-c5cc(S(=O)(=O)[O-])ccc5F)c5ccc([nH]5)c(-c5cc(S(=O)(=O)[O-])ccc5F)c5nc(c(-c6cc(S(=O)(=O)[O-])ccc6F)c6ccc3[nH]6)C=C5)C=C4)cc2)c1
REMARK SMILES IDX 16 1 15 2 14 3 13 4 11 5 12 6 10 8 6 9 7 10 84 11 8 12 9 13
REMARK SMILES IDX 3 14 4 15 5 16 2 17 1 18 17 19 18 20 19 21 20 23 21 24 22 25
REMARK SMILES IDX 83 26 23 27 82 28 24 29 25 30 26 31 76 32 27 33 81 34 75 35
REMARK SMILES IDX 77 36 28 37 80 38 74 39 73 40 29 42 61 43 41 44 60 45 42 46
REMARK SMILES IDX 45 47 59 48 78 49 43 50 44 51 58 53 79 54 46 55 30 56 31 57
REMARK SMILES IDX 39 58 32 59 38 60 40 61 37 62 33 63 34 64 35 65 36 66 62 67
REMARK SMILES IDX 63 68 71 69 64 70 70 71 72 72 69 73 65 74 66 75 67 76 68 77
REMARK SMILES IDX 47 78 48 79 56 80 49 81 55 82 57 83 54 84 50 85 51 86 52 87
REMARK SMILES IDX 53 88
REMARK H PARENT 13 7 18 22 77 41 45 52
REMARK Flexibility Score: inf
ROOT
ATOM      1  C   UNL A   1      31.957  29.689  25.447  1.00  0.00     0.023 C 
ENDROOT
BRANCH   1   2
ATOM      2  C   UNL A   1      33.295  29.354  24.808  1.00  0.00     0.023 C 
BRANCH   2   3
ATOM      3  C   UNL A   1      33.677  27.883  24.746  1.00  0.00     0.116 C 
BRANCH   3   4
ATOM      4  N   UNL A   1      33.835  27.328  23.413  1.00  0.00    -0.352 N 
ATOM      5  C   UNL A   1      32.893  26.994  22.460  1.00  0.00     0.251 C 
ATOM      6  O   UNL A   1      33.273  26.540  21.382  1.00  0.00    -0.269 OA
ATOM      7  H   UNL A   1      34.768  27.163  23.145  1.00  0.00     0.163 HD
BRANCH   5   8
ATOM      8  C   UNL A   1      31.429  27.096  22.724  1.00  0.00     0.040 A 
ATOM      9  C   UNL A   1      29.378  28.428  22.858  1.00  0.00    -0.042 A 
ATOM     10  C   UNL A   1      28.784  27.379  23.577  1.00  0.00     0.004 A 
ATOM     11  C   UNL A   1      30.668  28.203  22.341  1.00  0.00     0.018 A 
ATOM     12  C   UNL A   1      29.482  26.195  23.835  1.00  0.00     0.001 A 
ATOM     13  C   UNL A   1      30.813  26.066  23.439  1.00  0.00     0.014 A 
BRANCH   9  14
ATOM     14  C   UNL A   1      28.769  29.842  22.788  1.00  0.00    -0.011 C 
ATOM     15  C   UNL A   1      29.399  30.840  23.784  1.00  0.00     0.016 C 
ATOM     16  C   UNL A   1      27.252  29.809  23.106  1.00  0.00     0.016 C 
BRANCH  14  17
ATOM     17  C   UNL A   1      28.932  30.400  21.333  1.00  0.00     0.008 C 
ATOM     18  C   UNL A   1      28.151  31.674  21.013  1.00  0.00     0.005 C 
ENDBRANCH  14  17
ENDBRANCH   9  14
ENDBRANCH   5   8
ENDBRANCH   3   4
ENDBRANCH   2   3
ENDBRANCH   1   2
BRANCH   1  19
ATOM     19  C   UNL A   1      32.007  30.237  26.869  1.00  0.00     0.116 C 
BRANCH  19  20
ATOM     20  N   UNL A   1      31.918  31.687  26.951  1.00  0.00    -0.352 N 
ATOM     21  C   UNL A   1      32.844  32.607  27.402  1.00  0.00     0.251 C 
ATOM     22  H   UNL A   1      31.067  32.072  26.636  1.00  0.00     0.163 HD
ATOM     23  O   UNL A   1      32.551  33.788  27.449  1.00  0.00    -0.269 OA
BRANCH  21  24
ATOM     24  C   UNL A   1      34.169  32.140  27.877  1.00  0.00     0.039 A 
ATOM     25  C   UNL A   1      35.205  33.073  27.996  1.00  0.00     0.014 A 
ATOM     26  C   UNL A   1      34.381  30.811  28.244  1.00  0.00     0.014 A 
ATOM     27  C   UNL A   1      36.417  32.692  28.580  1.00  0.00     0.010 A 
ATOM     28  C   UNL A   1      35.557  30.453  28.899  1.00  0.00     0.010 A 
ATOM     29  C   UNL A   1      36.583  31.392  29.086  1.00  0.00    -0.014 A 
BRANCH  29  30
ATOM     30  C   UNL A   1      37.812  30.995  29.824  1.00  0.00     0.031 A 
ATOM     31  C   UNL A   1      38.776  30.019  29.208  1.00  0.00     0.074 A 
ATOM     32  C   UNL A   1      38.016  31.447  31.078  1.00  0.00     0.049 A 
ATOM     33  N   UNL A   1      39.835  29.457  29.731  1.00  0.00    -0.248 NA
ATOM     34  C   UNL A   1      38.487  29.592  27.831  1.00  0.00     0.031 C 
ATOM     35  C   UNL A   1      37.130  32.361  31.805  1.00  0.00     0.029 A 
ATOM     36  N   UNL A   1      39.024  31.188  31.973  1.00  0.00    -0.354 N 
ATOM     37  C   UNL A   1      40.329  28.596  28.756  1.00  0.00     0.074 A 
ATOM     38  C   UNL A   1      39.417  28.669  27.634  1.00  0.00     0.031 C 
ATOM     39  C   UNL A   1      37.644  32.597  33.023  1.00  0.00     0.029 A 
ATOM     40  C   UNL A   1      38.869  31.821  33.185  1.00  0.00     0.049 A 
ATOM     41  H   UNL A   1      39.789  30.602  31.767  1.00  0.00     0.167 HD
ATOM     42  C   UNL A   1      41.450  27.833  28.784  1.00  0.00     0.034 A 
ATOM     43  C   UNL A   1      39.618  31.772  34.304  1.00  0.00     0.034 A 
ATOM     44  C   UNL A   1      42.361  27.787  29.901  1.00  0.00     0.049 A 
ATOM     45  C   UNL A   1      40.860  30.917  34.313  1.00  0.00     0.074 A 
ATOM     46  C   UNL A   1      43.551  27.088  30.016  1.00  0.00     0.029 A 
ATOM     47  N   UNL A   1      42.183  28.464  31.101  1.00  0.00    -0.354 N 
ATOM     48  N   UNL A   1      41.335  30.141  33.365  1.00  0.00    -0.248 NA
ATOM     49  C   UNL A   1      41.671  30.938  35.537  1.00  0.00     0.031 C 
ATOM     50  C   UNL A   1      44.065  27.303  31.299  1.00  0.00     0.029 A 
ATOM     51  C   UNL A   1      43.231  28.186  31.966  1.00  0.00     0.049 A 
ATOM     52  H   UNL A   1      41.424  29.057  31.307  1.00  0.00     0.167 HD
ATOM     53  C   UNL A   1      42.516  29.607  33.871  1.00  0.00     0.074 A 
ATOM     54  C   UNL A   1      42.689  30.159  35.198  1.00  0.00     0.031 C 
ATOM     55  C   UNL A   1      43.384  28.741  33.289  1.00  0.00     0.034 A 
BRANCH  42  56
ATOM     56  C   UNL A   1      41.733  26.977  27.574  1.00  0.00     0.023 A 
ATOM     57  C   UNL A   1      41.355  25.625  27.525  1.00  0.00     0.031 A 
ATOM     58  C   UNL A   1      42.416  27.510  26.467  1.00  0.00     0.131 A 
ATOM     59  C   UNL A   1      41.729  24.831  26.430  1.00  0.00     0.055 A 
ATOM     60  C   UNL A   1      42.715  26.735  25.344  1.00  0.00     0.041 A 
ATOM     61  F   UNL A   1      42.820  28.790  26.464  1.00  0.00    -0.206 F 
ATOM     62  C   UNL A   1      42.385  25.384  25.328  1.00  0.00     0.022 A 
BRANCH  59  63
ATOM     63  S   UNL A   1      41.468  23.040  26.531  1.00  0.00     0.124 S 
ATOM     64  O   UNL A   1      42.122  22.718  27.797  1.00  0.00    -0.237 OA
ATOM     65  O   UNL A   1      40.014  22.931  26.517  1.00  0.00    -0.237 OA
ATOM     66  O   UNL A   1      42.144  22.527  25.340  1.00  0.00    -0.744 OA
ENDBRANCH  59  63
ENDBRANCH  42  56
BRANCH  43  67
ATOM     67  C   UNL A   1      39.221  32.541  35.519  1.00  0.00     0.023 A 
ATOM     68  C   UNL A   1      39.652  33.863  35.710  1.00  0.00     0.031 A 
ATOM     69  C   UNL A   1      38.445  31.947  36.531  1.00  0.00     0.131 A 
ATOM     70  C   UNL A   1      39.351  34.532  36.907  1.00  0.00     0.055 A 
ATOM     71  C   UNL A   1      38.105  32.634  37.697  1.00  0.00     0.041 A 
ATOM     72  F   UNL A   1      38.001  30.687  36.395  1.00  0.00    -0.206 F 
ATOM     73  C   UNL A   1      38.572  33.931  37.897  1.00  0.00     0.022 A 
BRANCH  70  74
ATOM     74  S   UNL A   1      40.071  36.173  37.189  1.00  0.00     0.124 S 
ATOM     75  O   UNL A   1      41.431  35.836  37.593  1.00  0.00    -0.237 OA
ATOM     76  O   UNL A   1      39.927  36.795  35.876  1.00  0.00    -0.237 OA
ATOM     77  O   UNL A   1      39.229  36.737  38.240  1.00  0.00    -0.744 OA
ENDBRANCH  70  74
ENDBRANCH  43  67
BRANCH  55  78
ATOM     78  C   UNL A   1      44.621  28.383  34.074  1.00  0.00     0.023 A 
ATOM     79  C   UNL A   1      44.651  27.280  34.945  1.00  0.00     0.031 A 
ATOM     80  C   UNL A   1      45.781  29.167  33.956  1.00  0.00     0.131 A 
ATOM     81  C   UNL A   1      45.802  27.023  35.704  1.00  0.00     0.055 A 
ATOM     82  C   UNL A   1      46.942  28.874  34.672  1.00  0.00     0.041 A 
ATOM     83  F   UNL A   1      45.806  30.232  33.138  1.00  0.00    -0.206 F 
ATOM     84  C   UNL A   1      46.952  27.803  35.562  1.00  0.00     0.022 A 
BRANCH  81  85
ATOM     85  S   UNL A   1      45.750  25.698  36.943  1.00  0.00     0.124 S 
ATOM     86  O   UNL A   1      47.166  25.503  37.238  1.00  0.00    -0.237 OA
ATOM     87  O   UNL A   1      44.953  26.297  38.008  1.00  0.00    -0.237 OA
ATOM     88  O   UNL A   1      45.106  24.592  36.235  1.00  0.00    -0.744 OA
ENDBRANCH  81  85
ENDBRANCH  55  78
ENDBRANCH  29  30
ENDBRANCH  21  24
ENDBRANCH  19  20
ENDBRANCH   1  19
TORSDOF 16
ENDMDL
MODEL 3
REMARK VINA RESULT:     -11.6      5.053      9.825
REMARK SMILES CCC(C)(C)c1cccc(C(=O)NCCCCNC(=O)c2ccc(-c3c4nc(c(-c5cc(S(=O)(=O)[O-])ccc5F)c5ccc([nH]5)c(-c5cc(S(=O)(=O)[O-])ccc5F)c5nc(c(-c6cc(S(=O)(=O)[O-])ccc6F)c6ccc3[nH]6)C=C5)C=C4)cc2)c1
REMARK SMILES IDX 16 1 15 2 14 3 13 4 11 5 12 6 10 8 6 9 7 10 84 11 8 12 9 13
REMARK SMILES IDX 3 14 4 15 5 16 2 17 1 18 17 19 18 20 19 21 20 23 21 24 22 25
REMARK SMILES IDX 83 26 23 27 82 28 24 29 25 30 26 31 76 32 27 33 81 34 75 35
REMARK SMILES IDX 77 36 28 37 80 38 74 39 73 40 29 42 61 43 41 44 60 45 42 46
REMARK SMILES IDX 45 47 59 48 78 49 43 50 44 51 58 53 79 54 46 55 30 56 31 57
REMARK SMILES IDX 39 58 32 59 38 60 40 61 37 62 33 63 34 64 35 65 36 66 62 67
REMARK SMILES IDX 63 68 71 69 64 70 70 71 72 72 69 73 65 74 66 75 67 76 68 77
REMARK SMILES IDX 47 78 48 79 56 80 49 81 55 82 57 83 54 84 50 85 51 86 52 87
REMARK SMILES IDX 53 88
REMARK H PARENT 13 7 18 22 77 41 45 52
REMARK Flexibility Score: inf
ROOT
ATOM      1  C   UNL A   1      33.302  27.996  25.189  1.00  0.00     0.023 C 
ENDROOT
BRANCH   1   2
ATOM      2  C   UNL A   1      33.249  28.490  23.752  1.00  0.00     0.023 C 
BRANCH   2   3
ATOM      3  C   UNL A   1      32.111  27.970  22.889  1.00  0.00     0.116 C 
BRANCH   3   4
ATOM      4  N   UNL A   1      32.507  27.246  21.693  1.00  0.00    -0.352 N 
ATOM      5  C   UNL A   1      32.828  25.915  21.512  1.00  0.00     0.251 C 
ATOM      6  O   UNL A   1      33.129  25.525  20.385  1.00  0.00    -0.269 OA
ATOM      7  H   UNL A   1      32.556  27.795  20.877  1.00  0.00     0.163 HD
BRANCH   5   8
ATOM      8  C   UNL A   1      32.892  24.954  22.649  1.00  0.00     0.040 A 
ATOM      9  C   UNL A   1      34.187  23.524  24.157  1.00  0.00    -0.042 A 
ATOM     10  C   UNL A   1      32.994  22.878  24.516  1.00  0.00     0.004 A 
ATOM     11  C   UNL A   1      34.084  24.642  23.308  1.00  0.00     0.018 A 
ATOM     12  C   UNL A   1      31.766  23.283  23.983  1.00  0.00     0.001 A 
ATOM     13  C   UNL A   1      31.718  24.296  23.026  1.00  0.00     0.014 A 
BRANCH   9  14
ATOM     14  C   UNL A   1      35.580  22.951  24.489  1.00  0.00    -0.011 C 
ATOM     15  C   UNL A   1      36.573  23.008  23.307  1.00  0.00     0.016 C 
ATOM     16  C   UNL A   1      35.482  21.459  24.901  1.00  0.00     0.016 C 
BRANCH  14  17
ATOM     17  C   UNL A   1      36.182  23.736  25.703  1.00  0.00     0.008 C 
ATOM     18  C   UNL A   1      37.708  23.748  25.801  1.00  0.00     0.005 C 
ENDBRANCH  14  17
ENDBRANCH   9  14
ENDBRANCH   5   8
ENDBRANCH   3   4
ENDBRANCH   2   3
ENDBRANCH   1   2
BRANCH   1  19
ATOM     19  C   UNL A   1      34.263  28.725  26.120  1.00  0.00     0.116 C 
BRANCH  19  20
ATOM     20  N   UNL A   1      33.788  30.027  26.564  1.00  0.00    -0.352 N 
ATOM     21  C   UNL A   1      34.329  30.898  27.489  1.00  0.00     0.251 C 
ATOM     22  H   UNL A   1      32.954  30.334  26.140  1.00  0.00     0.163 HD
ATOM     23  O   UNL A   1      33.738  31.926  27.771  1.00  0.00    -0.269 OA
BRANCH  21  24
ATOM     24  C   UNL A   1      35.598  30.548  28.172  1.00  0.00     0.039 A 
ATOM     25  C   UNL A   1      35.543  29.758  29.325  1.00  0.00     0.014 A 
ATOM     26  C   UNL A   1      36.831  30.954  27.661  1.00  0.00     0.014 A 
ATOM     27  C   UNL A   1      36.728  29.291  29.901  1.00  0.00     0.010 A 
ATOM     28  C   UNL A   1      38.006  30.422  28.187  1.00  0.00     0.010 A 
ATOM     29  C   UNL A   1      37.967  29.574  29.305  1.00  0.00    -0.014 A 
BRANCH  29  30
ATOM     30  C   UNL A   1      39.233  28.988  29.823  1.00  0.00     0.031 A 
ATOM     31  C   UNL A   1      39.934  29.626  30.991  1.00  0.00     0.074 A 
ATOM     32  C   UNL A   1      39.792  27.937  29.190  1.00  0.00     0.049 A 
ATOM     33  N   UNL A   1      41.099  29.343  31.514  1.00  0.00    -0.248 NA
ATOM     34  C   UNL A   1      39.245  30.755  31.632  1.00  0.00     0.031 C 
ATOM     35  C   UNL A   1      39.235  27.259  28.016  1.00  0.00     0.029 A 
ATOM     36  N   UNL A   1      40.963  27.262  29.433  1.00  0.00    -0.354 N 
ATOM     37  C   UNL A   1      41.293  30.270  32.532  1.00  0.00     0.074 A 
ATOM     38  C   UNL A   1      40.150  31.158  32.512  1.00  0.00     0.031 C 
ATOM     39  C   UNL A   1      40.053  26.258  27.655  1.00  0.00     0.029 A 
ATOM     40  C   UNL A   1      41.215  26.246  28.538  1.00  0.00     0.049 A 
ATOM     41  H   UNL A   1      41.568  27.484  30.178  1.00  0.00     0.167 HD
ATOM     42  C   UNL A   1      42.318  30.360  33.417  1.00  0.00     0.034 A 
ATOM     43  C   UNL A   1      42.267  25.410  28.433  1.00  0.00     0.034 A 
ATOM     44  C   UNL A   1      43.440  29.454  33.439  1.00  0.00     0.049 A 
ATOM     45  C   UNL A   1      43.394  25.528  29.427  1.00  0.00     0.074 A 
ATOM     46  C   UNL A   1      44.506  29.423  34.322  1.00  0.00     0.029 A 
ATOM     47  N   UNL A   1      43.645  28.421  32.534  1.00  0.00    -0.354 N 
ATOM     48  N   UNL A   1      43.541  26.385  30.411  1.00  0.00    -0.248 NA
ATOM     49  C   UNL A   1      44.492  24.561  29.302  1.00  0.00     0.031 C 
ATOM     50  C   UNL A   1      45.379  28.405  33.922  1.00  0.00     0.029 A 
ATOM     51  C   UNL A   1      44.828  27.759  32.826  1.00  0.00     0.049 A 
ATOM     52  H   UNL A   1      43.039  28.191  31.793  1.00  0.00     0.167 HD
ATOM     53  C   UNL A   1      44.733  26.038  31.040  1.00  0.00     0.074 A 
ATOM     54  C   UNL A   1      45.257  24.888  30.334  1.00  0.00     0.031 C 
ATOM     55  C   UNL A   1      45.339  26.616  32.108  1.00  0.00     0.034 A 
BRANCH  42  56
ATOM     56  C   UNL A   1      42.270  31.489  34.417  1.00  0.00     0.023 A 
ATOM     57  C   UNL A   1      41.347  31.494  35.476  1.00  0.00     0.031 A 
ATOM     58  C   UNL A   1      43.138  32.588  34.295  1.00  0.00     0.131 A 
ATOM     59  C   UNL A   1      41.259  32.610  36.324  1.00  0.00     0.055 A 
ATOM     60  C   UNL A   1      43.100  33.658  35.190  1.00  0.00     0.041 A 
ATOM     61  F   UNL A   1      44.030  32.647  33.292  1.00  0.00    -0.206 F 
ATOM     62  C   UNL A   1      42.147  33.681  36.203  1.00  0.00     0.022 A 
BRANCH  59  63
ATOM     63  S   UNL A   1      39.878  32.698  37.495  1.00  0.00     0.124 S 
ATOM     64  O   UNL A   1      40.571  32.589  38.776  1.00  0.00    -0.237 OA
ATOM     65  O   UNL A   1      39.292  33.999  37.195  1.00  0.00    -0.237 OA
ATOM     66  O   UNL A   1      39.053  31.544  37.140  1.00  0.00    -0.744 OA
ENDBRANCH  59  63
ENDBRANCH  42  56
BRANCH  43  67
ATOM     67  C   UNL A   1      42.322  24.393  27.343  1.00  0.00     0.023 A 
ATOM     68  C   UNL A   1      41.606  23.190  27.442  1.00  0.00     0.031 A 
ATOM     69  C   UNL A   1      43.133  24.587  26.210  1.00  0.00     0.131 A 
ATOM     70  C   UNL A   1      41.753  22.204  26.453  1.00  0.00     0.055 A 
ATOM     71  C   UNL A   1      43.236  23.625  25.205  1.00  0.00     0.041 A 
ATOM     72  F   UNL A   1      43.833  25.724  26.063  1.00  0.00    -0.206 F 
ATOM     73  C   UNL A   1      42.554  22.418  25.330  1.00  0.00     0.022 A 
BRANCH  70  74
ATOM     74  S   UNL A   1      40.948  20.598  26.702  1.00  0.00     0.124 S 
ATOM     75  O   UNL A   1      40.850  20.536  28.156  1.00  0.00    -0.237 OA
ATOM     76  O   UNL A   1      39.691  20.776  25.982  1.00  0.00    -0.237 OA
ATOM     77  O   UNL A   1      41.882  19.652  26.098  1.00  0.00    -0.744 OA
ENDBRANCH  70  74
ENDBRANCH  43  67
BRANCH  55  78
ATOM     78  C   UNL A   1      46.611  25.974  32.601  1.00  0.00     0.023 A 
ATOM     79  C   UNL A   1      46.598  24.945  33.559  1.00  0.00     0.031 A 
ATOM     80  C   UNL A   1      47.855  26.409  32.112  1.00  0.00     0.131 A 
ATOM     81  C   UNL A   1      47.809  24.422  34.036  1.00  0.00     0.055 A 
ATOM     82  C   UNL A   1      49.054  25.848  32.551  1.00  0.00     0.041 A 
ATOM     83  F   UNL A   1      47.923  27.390  31.197  1.00  0.00    -0.206 F 
ATOM     84  C   UNL A   1      49.036  24.856  33.528  1.00  0.00     0.022 A 
BRANCH  81  85
ATOM     85  S   UNL A   1      47.763  23.219  35.393  1.00  0.00     0.124 S 
ATOM     86  O   UNL A   1      47.076  22.089  34.775  1.00  0.00    -0.237 OA
ATOM     87  O   UNL A   1      49.178  23.022  35.685  1.00  0.00    -0.237 OA
ATOM     88  O   UNL A   1      47.005  23.908  36.438  1.00  0.00    -0.744 OA
ENDBRANCH  81  85
ENDBRANCH  55  78
ENDBRANCH  29  30
ENDBRANCH  21  24
ENDBRANCH  19  20
ENDBRANCH   1  19
TORSDOF 16
ENDMDL
