MODEL 1
REMARK VINA RESULT:      -9.1      0.000      0.000
REMARK SMILES COC[C@@H](C)CC(=O)Nc1cccc(/C=C/C(=O)NCCCCNC(=O)c2ccc(-c3c4nc(c(-c5cc(S(=O)(=O)[O-])ccc5F)c5ccc([nH]5)c(-c5cc(S(=O)(=O)[O-])ccc5F)c5nc(c(-c6cc(S(=O)(=O)[O-])ccc6F)c6ccc3[nH]6)C=C5)C=C4)cc2)c1
REMARK SMILES IDX 20 1 19 2 17 3 18 4 16 6 15 7 14 8 10 9 11 10 90 11 12 12
REMARK SMILES IDX 13 13 9 14 7 15 8 16 6 18 4 19 5 20 3 21 2 22 1 23 21 24
REMARK SMILES IDX 22 25 23 26 24 27 25 28 26 30 27 31 28 32 89 33 29 34 88 35
REMARK SMILES IDX 30 36 31 37 32 38 82 39 33 40 87 41 81 42 83 43 34 44 86 45
REMARK SMILES IDX 80 46 79 47 35 49 67 50 47 51 66 52 48 53 51 54 65 55 84 56
REMARK SMILES IDX 49 57 50 58 64 60 85 61 52 62 36 63 37 64 45 65 38 66 44 67
REMARK SMILES IDX 46 68 43 69 39 70 40 71 41 72 42 73 68 74 69 75 77 76 70 77
REMARK SMILES IDX 76 78 78 79 75 80 71 81 72 82 73 83 74 84 53 85 54 86 62 87
REMARK SMILES IDX 55 88 61 89 63 90 60 91 56 92 57 93 58 94 59 95
REMARK H PARENT 19 5 9 17 24 29 83 48 51 59
REMARK Flexibility Score: inf
ROOT
ATOM      1  C   UNL A   1      44.186  18.800  26.050  1.00  0.00     0.116 C 
ENDROOT
BRANCH   1   2
ATOM      2  N   UNL A   1      44.175  19.766  24.967  1.00  0.00    -0.353 N 
ATOM      3  C   UNL A   1      44.200  21.126  25.019  1.00  0.00     0.243 C 
ATOM      4  O   UNL A   1      44.419  21.782  24.003  1.00  0.00    -0.270 OA
ATOM      5  H   UNL A   1      44.145  19.382  24.061  1.00  0.00     0.163 HD
BRANCH   3   6
ATOM      6  C   UNL A   1      44.051  21.837  26.311  1.00  0.00     0.072 C 
ATOM      7  C   UNL A   1      45.020  22.576  26.875  1.00  0.00     0.014 C 
BRANCH   7   8
ATOM      8  C   UNL A   1      44.869  23.228  28.189  1.00  0.00    -0.023 A 
ATOM      9  C   UNL A   1      45.619  24.920  29.776  1.00  0.00     0.041 A 
ATOM     10  C   UNL A   1      44.633  24.529  30.677  1.00  0.00     0.026 A 
ATOM     11  C   UNL A   1      45.776  24.225  28.572  1.00  0.00     0.034 A 
ATOM     12  C   UNL A   1      43.755  23.501  30.334  1.00  0.00     0.003 A 
ATOM     13  C   UNL A   1      43.866  22.861  29.094  1.00  0.00     0.008 A 
BRANCH   9  14
ATOM     14  N   UNL A   1      46.513  25.931  30.140  1.00  0.00    -0.326 N 
ATOM     15  C   UNL A   1      46.266  27.267  30.319  1.00  0.00     0.224 C 
ATOM     16  O   UNL A   1      47.206  28.005  30.623  1.00  0.00    -0.275 OA
ATOM     17  H   UNL A   1      47.443  25.645  30.286  1.00  0.00     0.169 HD
BRANCH  15  18
ATOM     18  C   UNL A   1      44.848  27.813  30.239  1.00  0.00     0.106 C 
BRANCH  18  19
ATOM     19  C   UNL A   1      44.280  28.278  31.592  1.00  0.00     0.021 C 
ATOM     20  C   UNL A   1      42.836  27.793  31.734  1.00  0.00     0.010 C 
BRANCH  19  21
ATOM     21  C   UNL A   1      44.403  29.802  31.709  1.00  0.00     0.163 C 
BRANCH  21  22
ATOM     22  O   UNL A   1      44.789  30.287  32.986  1.00  0.00    -0.384 OA
ATOM     23  C   UNL A   1      44.397  31.630  33.231  1.00  0.00     0.194 C 
ENDBRANCH  21  22
ENDBRANCH  19  21
ENDBRANCH  18  19
ENDBRANCH  15  18
ENDBRANCH   9  14
ENDBRANCH   7   8
ENDBRANCH   3   6
ENDBRANCH   1   2
BRANCH   1  24
ATOM     24  C   UNL A   1      42.777  18.410  26.501  1.00  0.00     0.023 C 
BRANCH  24  25
ATOM     25  C   UNL A   1      41.642  19.092  25.729  1.00  0.00     0.023 C 
BRANCH  25  26
ATOM     26  C   UNL A   1      40.829  20.129  26.506  1.00  0.00     0.116 C 
BRANCH  26  27
ATOM     27  N   UNL A   1      39.477  20.331  26.003  1.00  0.00    -0.352 N 
ATOM     28  C   UNL A   1      38.724  21.482  25.936  1.00  0.00     0.251 C 
ATOM     29  H   UNL A   1      39.034  19.521  25.660  1.00  0.00     0.163 HD
ATOM     30  O   UNL A   1      37.589  21.440  25.466  1.00  0.00    -0.269 OA
BRANCH  28  31
ATOM     31  C   UNL A   1      39.242  22.749  26.498  1.00  0.00     0.039 A 
ATOM     32  C   UNL A   1      40.338  22.686  27.364  1.00  0.00     0.014 A 
ATOM     33  C   UNL A   1      38.707  23.987  26.139  1.00  0.00     0.014 A 
ATOM     34  C   UNL A   1      40.964  23.862  27.779  1.00  0.00     0.010 A 
ATOM     35  C   UNL A   1      39.381  25.157  26.490  1.00  0.00     0.010 A 
ATOM     36  C   UNL A   1      40.531  25.106  27.294  1.00  0.00    -0.014 A 
BRANCH  36  37
ATOM     37  C   UNL A   1      41.293  26.351  27.583  1.00  0.00     0.031 A 
ATOM     38  C   UNL A   1      40.665  27.462  28.379  1.00  0.00     0.074 A 
ATOM     39  C   UNL A   1      42.527  26.513  27.061  1.00  0.00     0.049 A 
ATOM     40  N   UNL A   1      41.135  28.651  28.656  1.00  0.00    -0.248 NA
ATOM     41  C   UNL A   1      39.316  27.209  28.906  1.00  0.00     0.031 C 
ATOM     42  C   UNL A   1      43.230  25.530  26.234  1.00  0.00     0.029 A 
ATOM     43  N   UNL A   1      43.408  27.564  27.142  1.00  0.00    -0.354 N 
ATOM     44  C   UNL A   1      40.136  29.296  29.377  1.00  0.00     0.074 A 
ATOM     45  C   UNL A   1      39.012  28.384  29.436  1.00  0.00     0.031 C 
ATOM     46  C   UNL A   1      44.439  26.012  25.906  1.00  0.00     0.029 A 
ATOM     47  C   UNL A   1      44.583  27.356  26.454  1.00  0.00     0.049 A 
ATOM     48  H   UNL A   1      43.217  28.389  27.644  1.00  0.00     0.167 HD
ATOM     49  C   UNL A   1      40.162  30.523  29.955  1.00  0.00     0.034 A 
ATOM     50  C   UNL A   1      45.649  28.161  26.273  1.00  0.00     0.034 A 
ATOM     51  C   UNL A   1      41.295  31.415  29.899  1.00  0.00     0.049 A 
ATOM     52  C   UNL A   1      45.645  29.531  26.903  1.00  0.00     0.074 A 
ATOM     53  C   UNL A   1      41.449  32.653  30.500  1.00  0.00     0.029 A 
ATOM     54  N   UNL A   1      42.466  31.173  29.191  1.00  0.00    -0.354 N 
ATOM     55  N   UNL A   1      44.712  30.105  27.626  1.00  0.00    -0.248 NA
ATOM     56  C   UNL A   1      46.842  30.357  26.697  1.00  0.00     0.031 C 
ATOM     57  C   UNL A   1      42.681  33.186  30.102  1.00  0.00     0.029 A 
ATOM     58  C   UNL A   1      43.331  32.251  29.314  1.00  0.00     0.049 A 
ATOM     59  H   UNL A   1      42.655  30.354  28.677  1.00  0.00     0.167 HD
ATOM     60  C   UNL A   1      45.223  31.350  27.984  1.00  0.00     0.074 A 
ATOM     61  C   UNL A   1      46.549  31.435  27.411  1.00  0.00     0.031 C 
ATOM     62  C   UNL A   1      44.647  32.332  28.724  1.00  0.00     0.034 A 
BRANCH  49  63
ATOM     63  C   UNL A   1      38.913  30.975  30.677  1.00  0.00     0.023 A 
ATOM     64  C   UNL A   1      37.787  31.446  29.978  1.00  0.00     0.031 A 
ATOM     65  C   UNL A   1      38.859  30.971  32.082  1.00  0.00     0.131 A 
ATOM     66  C   UNL A   1      36.694  31.971  30.683  1.00  0.00     0.055 A 
ATOM     67  C   UNL A   1      37.731  31.413  32.777  1.00  0.00     0.041 A 
ATOM     68  F   UNL A   1      39.909  30.551  32.806  1.00  0.00    -0.206 F 
ATOM     69  C   UNL A   1      36.647  31.934  32.078  1.00  0.00     0.022 A 
BRANCH  66  70
ATOM     70  S   UNL A   1      35.407  32.847  29.752  1.00  0.00     0.124 S 
ATOM     71  O   UNL A   1      35.107  31.887  28.691  1.00  0.00    -0.237 OA
ATOM     72  O   UNL A   1      34.365  33.038  30.755  1.00  0.00    -0.237 OA
ATOM     73  O   UNL A   1      36.077  34.067  29.306  1.00  0.00    -0.744 OA
ENDBRANCH  66  70
ENDBRANCH  49  63
BRANCH  50  74
ATOM     74  C   UNL A   1      46.808  27.708  25.450  1.00  0.00     0.023 A 
ATOM     75  C   UNL A   1      46.931  28.087  24.104  1.00  0.00     0.031 A 
ATOM     76  C   UNL A   1      47.788  26.853  25.987  1.00  0.00     0.131 A 
ATOM     77  C   UNL A   1      47.984  27.578  23.328  1.00  0.00     0.055 A 
ATOM     78  C   UNL A   1      48.861  26.390  25.224  1.00  0.00     0.041 A 
ATOM     79  F   UNL A   1      47.720  26.463  27.271  1.00  0.00    -0.206 F 
ATOM     80  C   UNL A   1      48.956  26.743  23.881  1.00  0.00     0.022 A 
BRANCH  77  81
ATOM     81  S   UNL A   1      48.018  27.959  21.555  1.00  0.00     0.124 S 
ATOM     82  O   UNL A   1      49.112  28.920  21.477  1.00  0.00    -0.237 OA
ATOM     83  O   UNL A   1      48.273  26.648  20.969  1.00  0.00    -0.237 OA
ATOM     84  O   UNL A   1      46.687  28.505  21.297  1.00  0.00    -0.744 OA
ENDBRANCH  77  81
ENDBRANCH  50  74
BRANCH  62  85
ATOM     85  C   UNL A   1      45.474  33.567  28.983  1.00  0.00     0.023 A 
ATOM     86  C   UNL A   1      45.360  34.717  28.182  1.00  0.00     0.031 A 
ATOM     87  C   UNL A   1      46.401  33.589  30.042  1.00  0.00     0.131 A 
ATOM     88  C   UNL A   1      46.197  35.819  28.417  1.00  0.00     0.055 A 
ATOM     89  C   UNL A   1      47.187  34.710  30.307  1.00  0.00     0.041 A 
ATOM     90  F   UNL A   1      46.554  32.518  30.837  1.00  0.00    -0.206 F 
ATOM     91  C   UNL A   1      47.097  35.829  29.485  1.00  0.00     0.022 A 
BRANCH  88  92
ATOM     92  S   UNL A   1      46.154  37.210  27.252  1.00  0.00     0.124 S 
ATOM     93  O   UNL A   1      44.731  37.302  26.943  1.00  0.00    -0.237 OA
ATOM     94  O   UNL A   1      46.706  38.301  28.047  1.00  0.00    -0.237 OA
ATOM     95  O   UNL A   1      47.000  36.758  26.148  1.00  0.00    -0.744 OA
ENDBRANCH  88  92
ENDBRANCH  62  85
ENDBRANCH  36  37
ENDBRANCH  28  31
ENDBRANCH  26  27
ENDBRANCH  25  26
ENDBRANCH  24  25
ENDBRANCH   1  24
TORSDOF 20
ENDMDL
MODEL 2
REMARK VINA RESULT:      -8.9      2.600      7.796
REMARK SMILES COC[C@@H](C)CC(=O)Nc1cccc(/C=C/C(=O)NCCCCNC(=O)c2ccc(-c3c4nc(c(-c5cc(S(=O)(=O)[O-])ccc5F)c5ccc([nH]5)c(-c5cc(S(=O)(=O)[O-])ccc5F)c5nc(c(-c6cc(S(=O)(=O)[O-])ccc6F)c6ccc3[nH]6)C=C5)C=C4)cc2)c1
REMARK SMILES IDX 20 1 19 2 17 3 18 4 16 6 15 7 14 8 10 9 11 10 90 11 12 12
REMARK SMILES IDX 13 13 9 14 7 15 8 16 6 18 4 19 5 20 3 21 2 22 1 23 21 24
REMARK SMILES IDX 22 25 23 26 24 27 25 28 26 30 27 31 28 32 89 33 29 34 88 35
REMARK SMILES IDX 30 36 31 37 32 38 82 39 33 40 87 41 81 42 83 43 34 44 86 45
REMARK SMILES IDX 80 46 79 47 35 49 67 50 47 51 66 52 48 53 51 54 65 55 84 56
REMARK SMILES IDX 49 57 50 58 64 60 85 61 52 62 36 63 37 64 45 65 38 66 44 67
REMARK SMILES IDX 46 68 43 69 39 70 40 71 41 72 42 73 68 74 69 75 77 76 70 77
REMARK SMILES IDX 76 78 78 79 75 80 71 81 72 82 73 83 74 84 53 85 54 86 62 87
REMARK SMILES IDX 55 88 61 89 63 90 60 91 56 92 57 93 58 94 59 95
REMARK H PARENT 19 5 9 17 24 29 83 48 51 59
REMARK Flexibility Score: inf
ROOT
ATOM      1  C   UNL A   1      43.586  20.430  25.753  1.00  0.00     0.116 C 
ENDROOT
BRANCH   1   2
ATOM      2  N   UNL A   1      43.195  21.717  25.206  1.00  0.00    -0.353 N 
ATOM      3  C   UNL A   1      43.365  22.965  25.722  1.00  0.00     0.243 C 
ATOM      4  O   UNL A   1      43.182  23.957  25.019  1.00  0.00    -0.270 OA
ATOM      5  H   UNL A   1      42.742  21.682  24.333  1.00  0.00     0.163 HD
BRANCH   3   6
ATOM      6  C   UNL A   1      43.855  23.151  27.108  1.00  0.00     0.072 C 
ATOM      7  C   UNL A   1      43.118  23.685  28.096  1.00  0.00     0.014 C 
BRANCH   7   8
ATOM      8  C   UNL A   1      43.644  23.914  29.455  1.00  0.00    -0.023 A 
ATOM      9  C   UNL A   1      44.744  25.402  31.041  1.00  0.00     0.041 A 
ATOM     10  C   UNL A   1      44.659  24.428  32.032  1.00  0.00     0.026 A 
ATOM     11  C   UNL A   1      44.301  25.117  29.745  1.00  0.00     0.034 A 
ATOM     12  C   UNL A   1      44.056  23.204  31.744  1.00  0.00     0.003 A 
ATOM     13  C   UNL A   1      43.543  22.953  30.467  1.00  0.00     0.008 A 
BRANCH   9  14
ATOM     14  N   UNL A   1      45.377  26.614  31.329  1.00  0.00    -0.326 N 
ATOM     15  C   UNL A   1      44.811  27.815  31.671  1.00  0.00     0.224 C 
ATOM     16  O   UNL A   1      45.551  28.782  31.868  1.00  0.00    -0.275 OA
ATOM     17  H   UNL A   1      46.361  26.605  31.280  1.00  0.00     0.169 HD
BRANCH  15  18
ATOM     18  C   UNL A   1      43.311  27.930  31.897  1.00  0.00     0.106 C 
BRANCH  18  19
ATOM     19  C   UNL A   1      42.916  28.156  33.368  1.00  0.00     0.021 C 
ATOM     20  C   UNL A   1      42.898  26.815  34.104  1.00  0.00     0.010 C 
BRANCH  19  21
ATOM     21  C   UNL A   1      41.567  28.881  33.435  1.00  0.00     0.163 C 
BRANCH  21  22
ATOM     22  O   UNL A   1      40.802  28.639  34.607  1.00  0.00    -0.384 OA
ATOM     23  C   UNL A   1      40.904  29.669  35.580  1.00  0.00     0.194 C 
ENDBRANCH  21  22
ENDBRANCH  19  21
ENDBRANCH  18  19
ENDBRANCH  15  18
ENDBRANCH   9  14
ENDBRANCH   7   8
ENDBRANCH   3   6
ENDBRANCH   1   2
BRANCH   1  24
ATOM     24  C   UNL A   1      42.461  19.770  26.553  1.00  0.00     0.023 C 
BRANCH  24  25
ATOM     25  C   UNL A   1      41.045  20.153  26.111  1.00  0.00     0.023 C 
BRANCH  25  26
ATOM     26  C   UNL A   1      40.367  21.265  26.913  1.00  0.00     0.116 C 
BRANCH  26  27
ATOM     27  N   UNL A   1      39.080  21.691  26.379  1.00  0.00    -0.352 N 
ATOM     28  C   UNL A   1      38.553  22.957  26.258  1.00  0.00     0.251 C 
ATOM     29  H   UNL A   1      38.500  20.963  26.057  1.00  0.00     0.163 HD
ATOM     30  O   UNL A   1      37.434  23.106  25.769  1.00  0.00    -0.269 OA
BRANCH  28  31
ATOM     31  C   UNL A   1      39.288  24.128  26.783  1.00  0.00     0.039 A 
ATOM     32  C   UNL A   1      39.961  24.947  25.871  1.00  0.00     0.014 A 
ATOM     33  C   UNL A   1      39.273  24.459  28.140  1.00  0.00     0.014 A 
ATOM     34  C   UNL A   1      40.520  26.152  26.301  1.00  0.00     0.010 A 
ATOM     35  C   UNL A   1      39.763  25.698  28.552  1.00  0.00     0.010 A 
ATOM     36  C   UNL A   1      40.370  26.570  27.633  1.00  0.00    -0.014 A 
BRANCH  36  37
ATOM     37  C   UNL A   1      40.802  27.926  28.066  1.00  0.00     0.031 A 
ATOM     38  C   UNL A   1      42.260  28.296  28.070  1.00  0.00     0.074 A 
ATOM     39  C   UNL A   1      39.886  28.801  28.530  1.00  0.00     0.049 A 
ATOM     40  N   UNL A   1      42.836  29.392  28.495  1.00  0.00    -0.248 NA
ATOM     41  C   UNL A   1      43.195  27.285  27.556  1.00  0.00     0.031 C 
ATOM     42  C   UNL A   1      38.446  28.547  28.621  1.00  0.00     0.029 A 
ATOM     43  N   UNL A   1      40.025  30.076  29.019  1.00  0.00    -0.354 N 
ATOM     44  C   UNL A   1      44.201  29.199  28.314  1.00  0.00     0.074 A 
ATOM     45  C   UNL A   1      44.365  27.855  27.800  1.00  0.00     0.031 C 
ATOM     46  C   UNL A   1      37.835  29.638  29.109  1.00  0.00     0.029 A 
ATOM     47  C   UNL A   1      38.838  30.652  29.413  1.00  0.00     0.049 A 
ATOM     48  H   UNL A   1      40.893  30.536  29.083  1.00  0.00     0.167 HD
ATOM     49  C   UNL A   1      45.219  30.068  28.533  1.00  0.00     0.034 A 
ATOM     50  C   UNL A   1      38.586  31.854  29.969  1.00  0.00     0.034 A 
ATOM     51  C   UNL A   1      45.038  31.409  29.033  1.00  0.00     0.049 A 
ATOM     52  C   UNL A   1      39.736  32.794  30.229  1.00  0.00     0.074 A 
ATOM     53  C   UNL A   1      45.992  32.392  29.234  1.00  0.00     0.029 A 
ATOM     54  N   UNL A   1      43.822  31.957  29.424  1.00  0.00    -0.354 N 
ATOM     55  N   UNL A   1      41.017  32.615  30.002  1.00  0.00    -0.248 NA
ATOM     56  C   UNL A   1      39.404  34.101  30.812  1.00  0.00     0.031 C 
ATOM     57  C   UNL A   1      45.366  33.505  29.807  1.00  0.00     0.029 A 
ATOM     58  C   UNL A   1      44.008  33.249  29.895  1.00  0.00     0.049 A 
ATOM     59  H   UNL A   1      42.953  31.495  29.374  1.00  0.00     0.167 HD
ATOM     60  C   UNL A   1      41.639  33.798  30.391  1.00  0.00     0.074 A 
ATOM     61  C   UNL A   1      40.592  34.687  30.849  1.00  0.00     0.031 C 
ATOM     62  C   UNL A   1      42.957  34.121  30.365  1.00  0.00     0.034 A 
BRANCH  49  63
ATOM     63  C   UNL A   1      46.620  29.577  28.253  1.00  0.00     0.023 A 
ATOM     64  C   UNL A   1      47.343  28.829  29.200  1.00  0.00     0.031 A 
ATOM     65  C   UNL A   1      47.259  29.892  27.041  1.00  0.00     0.131 A 
ATOM     66  C   UNL A   1      48.684  28.496  28.956  1.00  0.00     0.055 A 
ATOM     67  C   UNL A   1      48.565  29.481  26.767  1.00  0.00     0.041 A 
ATOM     68  F   UNL A   1      46.629  30.620  26.104  1.00  0.00    -0.206 F 
ATOM     69  C   UNL A   1      49.292  28.794  27.735  1.00  0.00     0.022 A 
BRANCH  66  70
ATOM     70  S   UNL A   1      49.665  27.810  30.318  1.00  0.00     0.124 S 
ATOM     71  O   UNL A   1      50.612  26.961  29.599  1.00  0.00    -0.237 OA
ATOM     72  O   UNL A   1      50.221  29.005  30.941  1.00  0.00    -0.237 OA
ATOM     73  O   UNL A   1      48.678  27.088  31.121  1.00  0.00    -0.744 OA
ENDBRANCH  66  70
ENDBRANCH  49  63
BRANCH  50  74
ATOM     74  C   UNL A   1      37.192  32.241  30.336  1.00  0.00     0.023 A 
ATOM     75  C   UNL A   1      36.377  32.942  29.434  1.00  0.00     0.031 A 
ATOM     76  C   UNL A   1      36.671  31.952  31.609  1.00  0.00     0.131 A 
ATOM     77  C   UNL A   1      35.101  33.371  29.832  1.00  0.00     0.055 A 
ATOM     78  C   UNL A   1      35.382  32.336  31.983  1.00  0.00     0.041 A 
ATOM     79  F   UNL A   1      37.408  31.280  32.509  1.00  0.00    -0.206 F 
ATOM     80  C   UNL A   1      34.593  33.062  31.096  1.00  0.00     0.022 A 
BRANCH  77  81
ATOM     81  S   UNL A   1      34.142  34.414  28.699  1.00  0.00     0.124 S 
ATOM     82  O   UNL A   1      32.815  33.818  28.797  1.00  0.00    -0.237 OA
ATOM     83  O   UNL A   1      34.299  35.734  29.299  1.00  0.00    -0.237 OA
ATOM     84  O   UNL A   1      34.816  34.232  27.415  1.00  0.00    -0.744 OA
ENDBRANCH  77  81
ENDBRANCH  50  74
BRANCH  62  85
ATOM     85  C   UNL A   1      43.329  35.514  30.815  1.00  0.00     0.023 A 
ATOM     86  C   UNL A   1      43.443  36.580  29.906  1.00  0.00     0.031 A 
ATOM     87  C   UNL A   1      43.585  35.774  32.174  1.00  0.00     0.131 A 
ATOM     88  C   UNL A   1      43.857  37.843  30.357  1.00  0.00     0.055 A 
ATOM     89  C   UNL A   1      43.938  37.045  32.625  1.00  0.00     0.041 A 
ATOM     90  F   UNL A   1      43.494  34.792  33.086  1.00  0.00    -0.206 F 
ATOM     91  C   UNL A   1      44.087  38.086  31.714  1.00  0.00     0.022 A 
BRANCH  88  92
ATOM     92  S   UNL A   1      44.174  39.145  29.135  1.00  0.00     0.124 S 
ATOM     93  O   UNL A   1      43.045  40.045  29.351  1.00  0.00    -0.237 OA
ATOM     94  O   UNL A   1      45.479  39.650  29.546  1.00  0.00    -0.237 OA
ATOM     95  O   UNL A   1      44.160  38.429  27.860  1.00  0.00    -0.744 OA
ENDBRANCH  88  92
ENDBRANCH  62  85
ENDBRANCH  36  37
ENDBRANCH  28  31
ENDBRANCH  26  27
ENDBRANCH  25  26
ENDBRANCH  24  25
ENDBRANCH   1  24
TORSDOF 20
ENDMDL
MODEL 3
REMARK VINA RESULT:      -8.7      2.261      7.869
REMARK SMILES COC[C@@H](C)CC(=O)Nc1cccc(/C=C/C(=O)NCCCCNC(=O)c2ccc(-c3c4nc(c(-c5cc(S(=O)(=O)[O-])ccc5F)c5ccc([nH]5)c(-c5cc(S(=O)(=O)[O-])ccc5F)c5nc(c(-c6cc(S(=O)(=O)[O-])ccc6F)c6ccc3[nH]6)C=C5)C=C4)cc2)c1
REMARK SMILES IDX 20 1 19 2 17 3 18 4 16 6 15 7 14 8 10 9 11 10 90 11 12 12
REMARK SMILES IDX 13 13 9 14 7 15 8 16 6 18 4 19 5 20 3 21 2 22 1 23 21 24
REMARK SMILES IDX 22 25 23 26 24 27 25 28 26 30 27 31 28 32 89 33 29 34 88 35
REMARK SMILES IDX 30 36 31 37 32 38 82 39 33 40 87 41 81 42 83 43 34 44 86 45
REMARK SMILES IDX 80 46 79 47 35 49 67 50 47 51 66 52 48 53 51 54 65 55 84 56
REMARK SMILES IDX 49 57 50 58 64 60 85 61 52 62 36 63 37 64 45 65 38 66 44 67
REMARK SMILES IDX 46 68 43 69 39 70 40 71 41 72 42 73 68 74 69 75 77 76 70 77
REMARK SMILES IDX 76 78 78 79 75 80 71 81 72 82 73 83 74 84 53 85 54 86 62 87
REMARK SMILES IDX 55 88 61 89 63 90 60 91 56 92 57 93 58 94 59 95
REMARK H PARENT 19 5 9 17 24 29 83 48 51 59
REMARK Flexibility Score: inf
ROOT
ATOM      1  C   UNL A   1      42.859  20.282  26.329  1.00  0.00     0.116 C 
ENDROOT
BRANCH   1   2
ATOM      2  N   UNL A   1      42.707  21.445  25.473  1.00  0.00    -0.353 N 
ATOM      3  C   UNL A   1      43.114  22.727  25.675  1.00  0.00     0.243 C 
ATOM      4  O   UNL A   1      43.108  23.533  24.747  1.00  0.00    -0.270 OA
ATOM      5  H   UNL A   1      42.243  21.281  24.621  1.00  0.00     0.163 HD
BRANCH   3   6
ATOM      6  C   UNL A   1      43.649  23.154  26.989  1.00  0.00     0.072 C 
ATOM      7  C   UNL A   1      42.885  23.393  28.067  1.00  0.00     0.014 C 
BRANCH   7   8
ATOM      8  C   UNL A   1      43.433  23.872  29.350  1.00  0.00    -0.023 A 
ATOM      9  C   UNL A   1      44.230  25.729  30.713  1.00  0.00     0.041 A 
ATOM     10  C   UNL A   1      44.469  24.862  31.775  1.00  0.00     0.026 A 
ATOM     11  C   UNL A   1      43.780  25.222  29.489  1.00  0.00     0.034 A 
ATOM     12  C   UNL A   1      44.180  23.505  31.635  1.00  0.00     0.003 A 
ATOM     13  C   UNL A   1      43.656  23.015  30.434  1.00  0.00     0.008 A 
BRANCH   9  14
ATOM     14  N   UNL A   1      44.551  27.082  30.852  1.00  0.00    -0.326 N 
ATOM     15  C   UNL A   1      43.736  28.122  31.217  1.00  0.00     0.224 C 
ATOM     16  O   UNL A   1      44.212  29.259  31.261  1.00  0.00    -0.275 OA
ATOM     17  H   UNL A   1      45.487  27.321  30.661  1.00  0.00     0.169 HD
BRANCH  15  18
ATOM     18  C   UNL A   1      42.300  27.867  31.653  1.00  0.00     0.106 C 
BRANCH  18  19
ATOM     19  C   UNL A   1      42.010  28.261  33.112  1.00  0.00     0.021 C 
ATOM     20  C   UNL A   1      42.862  27.404  34.051  1.00  0.00     0.010 C 
BRANCH  19  21
ATOM     21  C   UNL A   1      40.509  28.128  33.396  1.00  0.00     0.163 C 
BRANCH  21  22
ATOM     22  O   UNL A   1      39.669  28.139  32.250  1.00  0.00    -0.384 OA
ATOM     23  C   UNL A   1      38.289  28.281  32.554  1.00  0.00     0.194 C 
ENDBRANCH  21  22
ENDBRANCH  19  21
ENDBRANCH  18  19
ENDBRANCH  15  18
ENDBRANCH   9  14
ENDBRANCH   7   8
ENDBRANCH   3   6
ENDBRANCH   1   2
BRANCH   1  24
ATOM     24  C   UNL A   1      41.703  19.291  26.180  1.00  0.00     0.023 C 
BRANCH  24  25
ATOM     25  C   UNL A   1      40.370  19.916  25.758  1.00  0.00     0.023 C 
BRANCH  25  26
ATOM     26  C   UNL A   1      39.925  21.149  26.546  1.00  0.00     0.116 C 
BRANCH  26  27
ATOM     27  N   UNL A   1      38.605  21.649  26.184  1.00  0.00    -0.352 N 
ATOM     28  C   UNL A   1      38.118  22.937  26.195  1.00  0.00     0.251 C 
ATOM     29  H   UNL A   1      37.965  20.962  25.888  1.00  0.00     0.163 HD
ATOM     30  O   UNL A   1      36.960  23.152  25.843  1.00  0.00    -0.269 OA
BRANCH  28  31
ATOM     31  C   UNL A   1      38.952  24.049  26.702  1.00  0.00     0.039 A 
ATOM     32  C   UNL A   1      39.738  24.754  25.785  1.00  0.00     0.014 A 
ATOM     33  C   UNL A   1      38.924  24.440  28.042  1.00  0.00     0.014 A 
ATOM     34  C   UNL A   1      40.404  25.913  26.187  1.00  0.00     0.010 A 
ATOM     35  C   UNL A   1      39.525  25.639  28.422  1.00  0.00     0.010 A 
ATOM     36  C   UNL A   1      40.251  26.402  27.494  1.00  0.00    -0.014 A 
BRANCH  36  37
ATOM     37  C   UNL A   1      40.806  27.725  27.889  1.00  0.00     0.031 A 
ATOM     38  C   UNL A   1      42.265  28.031  27.686  1.00  0.00     0.074 A 
ATOM     39  C   UNL A   1      40.010  28.626  28.502  1.00  0.00     0.049 A 
ATOM     40  N   UNL A   1      42.948  29.088  28.045  1.00  0.00    -0.248 NA
ATOM     41  C   UNL A   1      43.065  26.995  27.017  1.00  0.00     0.031 C 
ATOM     42  C   UNL A   1      38.589  28.433  28.799  1.00  0.00     0.029 A 
ATOM     43  N   UNL A   1      40.280  29.879  28.994  1.00  0.00    -0.354 N 
ATOM     44  C   UNL A   1      44.261  28.840  27.661  1.00  0.00     0.074 A 
ATOM     45  C   UNL A   1      44.284  27.506  27.098  1.00  0.00     0.031 C 
ATOM     46  C   UNL A   1      38.108  29.535  29.396  1.00  0.00     0.029 A 
ATOM     47  C   UNL A   1      39.192  30.495  29.571  1.00  0.00     0.049 A 
ATOM     48  H   UNL A   1      41.169  30.298  28.939  1.00  0.00     0.167 HD
ATOM     49  C   UNL A   1      45.340  29.657  27.747  1.00  0.00     0.034 A 
ATOM     50  C   UNL A   1      39.082  31.690  30.185  1.00  0.00     0.034 A 
ATOM     51  C   UNL A   1      45.298  30.990  28.298  1.00  0.00     0.049 A 
ATOM     52  C   UNL A   1      40.301  32.571  30.293  1.00  0.00     0.074 A 
ATOM     53  C   UNL A   1      46.318  31.924  28.377  1.00  0.00     0.029 A 
ATOM     54  N   UNL A   1      44.180  31.579  28.875  1.00  0.00    -0.354 N 
ATOM     55  N   UNL A   1      41.525  32.342  29.876  1.00  0.00    -0.248 NA
ATOM     56  C   UNL A   1      40.121  33.873  30.947  1.00  0.00     0.031 C 
ATOM     57  C   UNL A   1      45.836  33.046  29.061  1.00  0.00     0.029 A 
ATOM     58  C   UNL A   1      44.494  32.848  29.342  1.00  0.00     0.049 A 
ATOM     59  H   UNL A   1      43.293  31.157  28.944  1.00  0.00     0.167 HD
ATOM     60  C   UNL A   1      42.253  33.485  30.195  1.00  0.00     0.074 A 
ATOM     61  C   UNL A   1      41.328  34.405  30.822  1.00  0.00     0.031 C 
ATOM     62  C   UNL A   1      43.567  33.751  29.982  1.00  0.00     0.034 A 
BRANCH  49  63
ATOM     63  C   UNL A   1      46.661  29.114  27.252  1.00  0.00     0.023 A 
ATOM     64  C   UNL A   1      46.874  28.816  25.895  1.00  0.00     0.031 A 
ATOM     65  C   UNL A   1      47.709  28.854  28.154  1.00  0.00     0.131 A 
ATOM     66  C   UNL A   1      48.068  28.200  25.491  1.00  0.00     0.055 A 
ATOM     67  C   UNL A   1      48.929  28.322  27.731  1.00  0.00     0.041 A 
ATOM     68  F   UNL A   1      47.560  29.099  29.465  1.00  0.00    -0.206 F 
ATOM     69  C   UNL A   1      49.108  27.974  26.395  1.00  0.00     0.022 A 
BRANCH  66  70
ATOM     70  S   UNL A   1      48.177  27.554  23.800  1.00  0.00     0.124 S 
ATOM     71  O   UNL A   1      47.793  26.158  23.993  1.00  0.00    -0.237 OA
ATOM     72  O   UNL A   1      47.220  28.387  23.081  1.00  0.00    -0.237 OA
ATOM     73  O   UNL A   1      49.580  27.762  23.443  1.00  0.00    -0.744 OA
ENDBRANCH  66  70
ENDBRANCH  49  63
BRANCH  50  74
ATOM     74  C   UNL A   1      37.777  32.127  30.762  1.00  0.00     0.023 A 
ATOM     75  C   UNL A   1      36.768  32.659  29.943  1.00  0.00     0.031 A 
ATOM     76  C   UNL A   1      37.537  32.058  32.145  1.00  0.00     0.131 A 
ATOM     77  C   UNL A   1      35.583  33.143  30.519  1.00  0.00     0.055 A 
ATOM     78  C   UNL A   1      36.336  32.494  32.708  1.00  0.00     0.041 A 
ATOM     79  F   UNL A   1      38.467  31.554  32.972  1.00  0.00    -0.206 F 
ATOM     80  C   UNL A   1      35.355  33.053  31.894  1.00  0.00     0.022 A 
BRANCH  77  81
ATOM     81  S   UNL A   1      34.373  33.971  29.451  1.00  0.00     0.124 S 
ATOM     82  O   UNL A   1      33.417  34.483  30.426  1.00  0.00    -0.237 OA
ATOM     83  O   UNL A   1      35.198  34.967  28.776  1.00  0.00    -0.237 OA
ATOM     84  O   UNL A   1      33.878  32.893  28.597  1.00  0.00    -0.744 OA
ENDBRANCH  77  81
ENDBRANCH  50  74
BRANCH  62  85
ATOM     85  C   UNL A   1      44.066  35.112  30.403  1.00  0.00     0.023 A 
ATOM     86  C   UNL A   1      44.535  35.359  31.706  1.00  0.00     0.031 A 
ATOM     87  C   UNL A   1      44.061  36.181  29.489  1.00  0.00     0.131 A 
ATOM     88  C   UNL A   1      44.927  36.656  32.074  1.00  0.00     0.055 A 
ATOM     89  C   UNL A   1      44.507  37.454  29.844  1.00  0.00     0.041 A 
ATOM     90  F   UNL A   1      43.621  36.003  28.232  1.00  0.00    -0.206 F 
ATOM     91  C   UNL A   1      44.933  37.700  31.145  1.00  0.00     0.022 A 
BRANCH  88  92
ATOM     92  S   UNL A   1      45.348  36.980  33.808  1.00  0.00     0.124 S 
ATOM     93  O   UNL A   1      44.458  38.089  34.134  1.00  0.00    -0.237 OA
ATOM     94  O   UNL A   1      45.040  35.706  34.448  1.00  0.00    -0.237 OA
ATOM     95  O   UNL A   1      46.770  37.320  33.758  1.00  0.00    -0.744 OA
ENDBRANCH  88  92
ENDBRANCH  62  85
ENDBRANCH  36  37
ENDBRANCH  28  31
ENDBRANCH  26  27
ENDBRANCH  25  26
ENDBRANCH  24  25
ENDBRANCH   1  24
TORSDOF 20
ENDMDL
