MODEL 1
REMARK VINA RESULT:     -12.9      0.000      0.000
REMARK SMILES O=C1NC(=O)/C(=C/c2ccc(OCc3cn(-c4ccc(C(=O)NCCCCNC(=O)c5ccc(-c6c7nc(c(-c8cc(S(=O)(=O)[O-])ccc8F)c8ccc([nH]8)c(-c8cc(S(=O)(=O)[O-])ccc8F)c8nc(c(-c9cc(S(=O)(=O)[O-])ccc9F)c9ccc6[nH]9)C=C8)C=C7)cc5)cc4)nn3)cc2)S1
REMARK SMILES IDX 24 1 23 2 21 3 22 4 20 6 17 7 18 8 95 9 19 10 94 11 16 12
REMARK SMILES IDX 14 13 15 14 97 15 96 16 13 17 12 18 11 19 8 20 9 21 99 22
REMARK SMILES IDX 10 23 98 24 7 25 1 26 2 27 3 28 100 29 4 30 6 32 5 33 25 34
REMARK SMILES IDX 26 35 27 36 28 37 29 38 30 40 31 41 32 42 93 43 33 44 92 45
REMARK SMILES IDX 34 46 35 47 36 48 86 49 37 50 91 51 85 52 87 53 38 54 90 55
REMARK SMILES IDX 84 56 83 57 39 59 71 60 51 61 70 62 52 63 55 64 69 65 88 66
REMARK SMILES IDX 53 67 54 68 68 70 89 71 56 72 40 73 41 74 49 75 42 76 48 77
REMARK SMILES IDX 50 78 47 79 43 80 44 81 45 82 46 83 72 84 73 85 81 86 74 87
REMARK SMILES IDX 80 88 82 89 79 90 75 91 76 92 77 93 78 94 57 95 58 96 66 97
REMARK SMILES IDX 59 98 65 99 67 100 64 101 60 102 61 103 62 104 63 105
REMARK H PARENT 23 5 3 31 28 39 87 58 55 69
REMARK Flexibility Score: inf
ROOT
ATOM      1  C   UNL A   1      43.483  21.815  25.667  1.00  0.00     0.116 C 
ENDROOT
BRANCH   1   2
ATOM      2  N   UNL A   1      43.293  20.505  26.257  1.00  0.00    -0.352 N 
ATOM      3  C   UNL A   1      42.181  19.773  26.581  1.00  0.00     0.251 C 
ATOM      4  O   UNL A   1      42.368  18.679  27.118  1.00  0.00    -0.269 OA
ATOM      5  H   UNL A   1      44.138  20.046  26.468  1.00  0.00     0.163 HD
BRANCH   3   6
ATOM      6  C   UNL A   1      40.781  20.197  26.282  1.00  0.00     0.039 A 
ATOM      7  C   UNL A   1      38.155  20.849  25.509  1.00  0.00     0.066 A 
ATOM      8  C   UNL A   1      38.626  19.543  25.339  1.00  0.00     0.029 A 
ATOM      9  C   UNL A   1      38.962  21.808  26.119  1.00  0.00     0.029 A 
ATOM     10  C   UNL A   1      39.942  19.234  25.695  1.00  0.00     0.016 A 
ATOM     11  C   UNL A   1      40.247  21.460  26.549  1.00  0.00     0.016 A 
BRANCH   7  12
ATOM     12  N   UNL A   1      36.857  21.185  25.077  1.00  0.00    -0.220 N 
ATOM     13  C   UNL A   1      35.047  22.192  24.390  1.00  0.00     0.120 A 
ATOM     14  C   UNL A   1      36.380  22.410  24.668  1.00  0.00     0.144 A 
ATOM     15  N   UNL A   1      34.771  20.868  24.606  1.00  0.00    -0.131 NA
ATOM     16  N   UNL A   1      35.878  20.259  24.993  1.00  0.00    -0.062 NA
BRANCH  13  17
ATOM     17  C   UNL A   1      34.006  23.103  23.828  1.00  0.00     0.289 C 
BRANCH  17  18
ATOM     18  O   UNL A   1      33.715  24.273  24.614  1.00  0.00    -0.487 OA
BRANCH  18  19
ATOM     19  C   UNL A   1      32.447  24.786  24.584  1.00  0.00     0.119 A 
ATOM     20  C   UNL A   1      29.958  26.021  24.165  1.00  0.00    -0.024 A 
ATOM     21  C   UNL A   1      30.520  25.219  23.168  1.00  0.00     0.012 A 
ATOM     22  C   UNL A   1      30.599  26.119  25.400  1.00  0.00     0.012 A 
ATOM     23  C   UNL A   1      31.763  24.612  23.380  1.00  0.00     0.047 A 
ATOM     24  C   UNL A   1      31.821  25.479  25.618  1.00  0.00     0.047 A 
BRANCH  20  25
ATOM     25  C   UNL A   1      28.707  26.746  23.929  1.00  0.00     0.029 C 
ATOM     26  O   UNL A   1      29.026  31.040  21.305  1.00  0.00    -0.261 OA
ATOM     27  C   UNL A   1      28.719  30.050  21.961  1.00  0.00     0.290 C 
ATOM     28  N   UNL A   1      27.479  29.770  22.424  1.00  0.00    -0.282 N 
ATOM     29  S   UNL A   1      29.831  28.784  22.429  1.00  0.00    -0.022 SA
ATOM     30  C   UNL A   1      27.301  28.614  23.127  1.00  0.00     0.265 C 
ATOM     31  H   UNL A   1      26.727  30.382  22.257  1.00  0.00     0.174 HD
ATOM     32  C   UNL A   1      28.597  27.898  23.251  1.00  0.00     0.083 C 
ATOM     33  O   UNL A   1      26.237  28.241  23.590  1.00  0.00    -0.268 OA
ENDBRANCH  20  25
ENDBRANCH  18  19
ENDBRANCH  17  18
ENDBRANCH  13  17
ENDBRANCH   7  12
ENDBRANCH   3   6
ENDBRANCH   1   2
BRANCH   1  34
ATOM     34  C   UNL A   1      43.789  22.862  26.745  1.00  0.00     0.023 C 
BRANCH  34  35
ATOM     35  C   UNL A   1      43.910  24.302  26.221  1.00  0.00     0.023 C 
BRANCH  35  36
ATOM     36  C   UNL A   1      42.793  25.237  26.673  1.00  0.00     0.116 C 
BRANCH  36  37
ATOM     37  N   UNL A   1      41.540  25.003  25.958  1.00  0.00    -0.352 N 
ATOM     38  C   UNL A   1      40.257  25.322  26.360  1.00  0.00     0.251 C 
ATOM     39  H   UNL A   1      41.621  24.563  25.080  1.00  0.00     0.163 HD
ATOM     40  O   UNL A   1      39.293  24.726  25.893  1.00  0.00    -0.269 OA
BRANCH  38  41
ATOM     41  C   UNL A   1      40.076  26.394  27.353  1.00  0.00     0.039 A 
ATOM     42  C   UNL A   1      39.699  26.115  28.668  1.00  0.00     0.014 A 
ATOM     43  C   UNL A   1      40.335  27.701  26.947  1.00  0.00     0.014 A 
ATOM     44  C   UNL A   1      39.679  27.157  29.595  1.00  0.00     0.010 A 
ATOM     45  C   UNL A   1      40.445  28.698  27.885  1.00  0.00     0.010 A 
ATOM     46  C   UNL A   1      40.079  28.446  29.204  1.00  0.00    -0.014 A 
BRANCH  46  47
ATOM     47  C   UNL A   1      40.249  29.507  30.195  1.00  0.00     0.031 A 
ATOM     48  C   UNL A   1      39.027  30.313  30.469  1.00  0.00     0.074 A 
ATOM     49  C   UNL A   1      41.345  29.629  30.979  1.00  0.00     0.049 A 
ATOM     50  N   UNL A   1      38.832  31.561  30.203  1.00  0.00    -0.248 NA
ATOM     51  C   UNL A   1      37.829  29.627  30.979  1.00  0.00     0.031 C 
ATOM     52  C   UNL A   1      42.515  28.748  31.052  1.00  0.00     0.029 A 
ATOM     53  N   UNL A   1      41.583  30.519  31.980  1.00  0.00    -0.354 N 
ATOM     54  C   UNL A   1      37.580  31.882  30.719  1.00  0.00     0.074 A 
ATOM     55  C   UNL A   1      36.940  30.624  31.002  1.00  0.00     0.031 C 
ATOM     56  C   UNL A   1      43.200  28.998  32.190  1.00  0.00     0.029 A 
ATOM     57  C   UNL A   1      42.621  30.161  32.837  1.00  0.00     0.049 A 
ATOM     58  H   UNL A   1      41.065  31.349  32.089  1.00  0.00     0.167 HD
ATOM     59  C   UNL A   1      37.267  33.159  31.077  1.00  0.00     0.034 A 
ATOM     60  C   UNL A   1      42.966  30.757  34.011  1.00  0.00     0.034 A 
ATOM     61  C   UNL A   1      38.204  34.103  30.510  1.00  0.00     0.049 A 
ATOM     62  C   UNL A   1      42.441  32.147  33.944  1.00  0.00     0.074 A 
ATOM     63  C   UNL A   1      38.625  34.376  29.221  1.00  0.00     0.029 A 
ATOM     64  N   UNL A   1      39.181  34.630  31.327  1.00  0.00    -0.354 N 
ATOM     65  N   UNL A   1      42.866  33.026  33.076  1.00  0.00    -0.248 NA
ATOM     66  C   UNL A   1      41.110  32.400  34.475  1.00  0.00     0.031 C 
ATOM     67  C   UNL A   1      40.040  34.525  29.329  1.00  0.00     0.029 A 
ATOM     68  C   UNL A   1      40.382  34.447  30.681  1.00  0.00     0.049 A 
ATOM     69  H   UNL A   1      39.045  35.055  32.204  1.00  0.00     0.167 HD
ATOM     70  C   UNL A   1      41.723  33.661  32.618  1.00  0.00     0.074 A 
ATOM     71  C   UNL A   1      40.684  33.304  33.586  1.00  0.00     0.031 C 
ATOM     72  C   UNL A   1      41.641  34.178  31.355  1.00  0.00     0.034 A 
BRANCH  59  73
ATOM     73  C   UNL A   1      36.321  33.538  32.194  1.00  0.00     0.023 A 
ATOM     74  C   UNL A   1      35.191  34.315  31.868  1.00  0.00     0.031 A 
ATOM     75  C   UNL A   1      36.604  33.418  33.574  1.00  0.00     0.131 A 
ATOM     76  C   UNL A   1      34.457  34.981  32.867  1.00  0.00     0.055 A 
ATOM     77  C   UNL A   1      35.828  34.021  34.567  1.00  0.00     0.041 A 
ATOM     78  F   UNL A   1      37.695  32.797  34.035  1.00  0.00    -0.206 F 
ATOM     79  C   UNL A   1      34.763  34.832  34.216  1.00  0.00     0.022 A 
BRANCH  76  80
ATOM     80  S   UNL A   1      33.202  36.186  32.361  1.00  0.00     0.124 S 
ATOM     81  O   UNL A   1      33.537  36.388  30.954  1.00  0.00    -0.237 OA
ATOM     82  O   UNL A   1      31.965  35.464  32.632  1.00  0.00    -0.237 OA
ATOM     83  O   UNL A   1      33.460  37.330  33.232  1.00  0.00    -0.744 OA
ENDBRANCH  76  80
ENDBRANCH  59  73
BRANCH  60  84
ATOM     84  C   UNL A   1      43.427  30.087  35.261  1.00  0.00     0.023 A 
ATOM     85  C   UNL A   1      42.946  28.829  35.690  1.00  0.00     0.031 A 
ATOM     86  C   UNL A   1      44.553  30.595  35.951  1.00  0.00     0.131 A 
ATOM     87  C   UNL A   1      43.580  28.146  36.757  1.00  0.00     0.055 A 
ATOM     88  C   UNL A   1      45.171  29.918  37.006  1.00  0.00     0.041 A 
ATOM     89  F   UNL A   1      45.148  31.736  35.568  1.00  0.00    -0.206 F 
ATOM     90  C   UNL A   1      44.692  28.684  37.408  1.00  0.00     0.022 A 
BRANCH  87  91
ATOM     91  S   UNL A   1      43.020  26.485  37.266  1.00  0.00     0.124 S 
ATOM     92  O   UNL A   1      41.573  26.585  37.117  1.00  0.00    -0.237 OA
ATOM     93  O   UNL A   1      43.712  25.616  36.321  1.00  0.00    -0.237 OA
ATOM     94  O   UNL A   1      43.488  26.375  38.649  1.00  0.00    -0.744 OA
ENDBRANCH  87  91
ENDBRANCH  60  84
BRANCH  72  95
ATOM     95  C   UNL A   1      42.903  34.274  30.512  1.00  0.00     0.023 A 
ATOM     96  C   UNL A   1      43.352  33.290  29.598  1.00  0.00     0.031 A 
ATOM     97  C   UNL A   1      43.607  35.492  30.541  1.00  0.00     0.131 A 
ATOM     98  C   UNL A   1      44.466  33.544  28.770  1.00  0.00     0.055 A 
ATOM     99  C   UNL A   1      44.692  35.751  29.703  1.00  0.00     0.041 A 
ATOM    100  F   UNL A   1      43.223  36.481  31.367  1.00  0.00    -0.206 F 
ATOM    101  C   UNL A   1      45.130  34.774  28.817  1.00  0.00     0.022 A 
BRANCH  98 102
ATOM    102  S   UNL A   1      45.092  32.271  27.623  1.00  0.00     0.124 S 
ATOM    103  O   UNL A   1      46.060  32.992  26.806  1.00  0.00    -0.237 OA
ATOM    104  O   UNL A   1      45.644  31.268  28.532  1.00  0.00    -0.237 OA
ATOM    105  O   UNL A   1      43.891  31.840  26.904  1.00  0.00    -0.744 OA
ENDBRANCH  98 102
ENDBRANCH  72  95
ENDBRANCH  46  47
ENDBRANCH  38  41
ENDBRANCH  36  37
ENDBRANCH  35  36
ENDBRANCH  34  35
ENDBRANCH   1  34
TORSDOF 19
ENDMDL
MODEL 2
REMARK VINA RESULT:     -12.3      5.373     12.971
REMARK SMILES O=C1NC(=O)/C(=C/c2ccc(OCc3cn(-c4ccc(C(=O)NCCCCNC(=O)c5ccc(-c6c7nc(c(-c8cc(S(=O)(=O)[O-])ccc8F)c8ccc([nH]8)c(-c8cc(S(=O)(=O)[O-])ccc8F)c8nc(c(-c9cc(S(=O)(=O)[O-])ccc9F)c9ccc6[nH]9)C=C8)C=C7)cc5)cc4)nn3)cc2)S1
REMARK SMILES IDX 24 1 23 2 21 3 22 4 20 6 17 7 18 8 95 9 19 10 94 11 16 12
REMARK SMILES IDX 14 13 15 14 97 15 96 16 13 17 12 18 11 19 8 20 9 21 99 22
REMARK SMILES IDX 10 23 98 24 7 25 1 26 2 27 3 28 100 29 4 30 6 32 5 33 25 34
REMARK SMILES IDX 26 35 27 36 28 37 29 38 30 40 31 41 32 42 93 43 33 44 92 45
REMARK SMILES IDX 34 46 35 47 36 48 86 49 37 50 91 51 85 52 87 53 38 54 90 55
REMARK SMILES IDX 84 56 83 57 39 59 71 60 51 61 70 62 52 63 55 64 69 65 88 66
REMARK SMILES IDX 53 67 54 68 68 70 89 71 56 72 40 73 41 74 49 75 42 76 48 77
REMARK SMILES IDX 50 78 47 79 43 80 44 81 45 82 46 83 72 84 73 85 81 86 74 87
REMARK SMILES IDX 80 88 82 89 79 90 75 91 76 92 77 93 78 94 57 95 58 96 66 97
REMARK SMILES IDX 59 98 65 99 67 100 64 101 60 102 61 103 62 104 63 105
REMARK H PARENT 23 5 3 31 28 39 87 58 55 69
REMARK Flexibility Score: inf
ROOT
ATOM      1  C   UNL A   1      37.001  31.409  33.133  1.00  0.00     0.116 C 
ENDROOT
BRANCH   1   2
ATOM      2  N   UNL A   1      37.592  31.082  34.416  1.00  0.00    -0.352 N 
ATOM      3  C   UNL A   1      38.782  31.407  35.012  1.00  0.00     0.251 C 
ATOM      4  O   UNL A   1      39.002  30.923  36.124  1.00  0.00    -0.269 OA
ATOM      5  H   UNL A   1      37.019  30.508  34.974  1.00  0.00     0.163 HD
BRANCH   3   6
ATOM      6  C   UNL A   1      39.791  32.336  34.420  1.00  0.00     0.039 A 
ATOM      7  C   UNL A   1      41.717  33.919  33.116  1.00  0.00     0.066 A 
ATOM      8  C   UNL A   1      40.760  33.228  32.365  1.00  0.00     0.029 A 
ATOM      9  C   UNL A   1      41.676  33.874  34.509  1.00  0.00     0.029 A 
ATOM     10  C   UNL A   1      39.827  32.418  33.017  1.00  0.00     0.016 A 
ATOM     11  C   UNL A   1      40.681  33.129  35.149  1.00  0.00     0.016 A 
BRANCH   7  12
ATOM     12  N   UNL A   1      42.711  34.671  32.460  1.00  0.00    -0.220 N 
ATOM     13  C   UNL A   1      43.929  35.780  31.028  1.00  0.00     0.120 A 
ATOM     14  C   UNL A   1      42.713  35.145  31.167  1.00  0.00     0.144 A 
ATOM     15  N   UNL A   1      44.597  35.700  32.221  1.00  0.00    -0.131 NA
ATOM     16  N   UNL A   1      43.841  35.054  33.091  1.00  0.00    -0.062 NA
BRANCH  13  17
ATOM     17  C   UNL A   1      44.496  36.565  29.891  1.00  0.00     0.289 C 
BRANCH  17  18
ATOM     18  O   UNL A   1      43.555  37.380  29.169  1.00  0.00    -0.487 OA
BRANCH  18  19
ATOM     19  C   UNL A   1      43.500  38.719  29.443  1.00  0.00     0.119 A 
ATOM     20  C   UNL A   1      43.503  41.364  30.394  1.00  0.00    -0.024 A 
ATOM     21  C   UNL A   1      44.638  40.563  30.544  1.00  0.00     0.012 A 
ATOM     22  C   UNL A   1      42.411  40.867  29.682  1.00  0.00     0.012 A 
ATOM     23  C   UNL A   1      44.629  39.244  30.074  1.00  0.00     0.047 A 
ATOM     24  C   UNL A   1      42.423  39.563  29.183  1.00  0.00     0.047 A 
BRANCH  20  25
ATOM     25  C   UNL A   1      43.455  42.712  30.964  1.00  0.00     0.029 C 
ATOM     26  O   UNL A   1      41.935  43.101  35.757  1.00  0.00    -0.261 OA
ATOM     27  C   UNL A   1      42.314  43.242  34.598  1.00  0.00     0.290 C 
ATOM     28  N   UNL A   1      42.545  44.428  33.988  1.00  0.00    -0.282 N 
ATOM     29  S   UNL A   1      42.643  41.928  33.493  1.00  0.00    -0.022 SA
ATOM     30  C   UNL A   1      42.979  44.411  32.695  1.00  0.00     0.265 C 
ATOM     31  H   UNL A   1      42.404  45.277  34.464  1.00  0.00     0.174 HD
ATOM     32  C   UNL A   1      43.082  43.007  32.218  1.00  0.00     0.083 C 
ATOM     33  O   UNL A   1      43.232  45.405  32.035  1.00  0.00    -0.268 OA
ENDBRANCH  20  25
ENDBRANCH  18  19
ENDBRANCH  17  18
ENDBRANCH  13  17
ENDBRANCH   7  12
ENDBRANCH   3   6
ENDBRANCH   1   2
BRANCH   1  34
ATOM     34  C   UNL A   1      36.232  32.734  33.205  1.00  0.00     0.023 C 
BRANCH  34  35
ATOM     35  C   UNL A   1      35.292  32.992  32.018  1.00  0.00     0.023 C 
BRANCH  35  36
ATOM     36  C   UNL A   1      35.046  31.778  31.127  1.00  0.00     0.116 C 
BRANCH  36  37
ATOM     37  N   UNL A   1      34.729  32.148  29.749  1.00  0.00    -0.352 N 
ATOM     38  C   UNL A   1      35.603  32.346  28.698  1.00  0.00     0.251 C 
ATOM     39  H   UNL A   1      33.773  32.269  29.545  1.00  0.00     0.163 HD
ATOM     40  O   UNL A   1      35.274  33.033  27.737  1.00  0.00    -0.269 OA
BRANCH  38  41
ATOM     41  C   UNL A   1      36.930  31.711  28.754  1.00  0.00     0.039 A 
ATOM     42  C   UNL A   1      38.025  32.356  29.334  1.00  0.00     0.014 A 
ATOM     43  C   UNL A   1      37.050  30.420  28.247  1.00  0.00     0.014 A 
ATOM     44  C   UNL A   1      39.218  31.649  29.483  1.00  0.00     0.010 A 
ATOM     45  C   UNL A   1      38.179  29.683  28.514  1.00  0.00     0.010 A 
ATOM     46  C   UNL A   1      39.283  30.301  29.094  1.00  0.00    -0.014 A 
BRANCH  46  47
ATOM     47  C   UNL A   1      40.455  29.488  29.413  1.00  0.00     0.031 A 
ATOM     48  C   UNL A   1      40.707  29.291  30.868  1.00  0.00     0.074 A 
ATOM     49  C   UNL A   1      41.142  28.774  28.493  1.00  0.00     0.049 A 
ATOM     50  N   UNL A   1      41.702  29.735  31.561  1.00  0.00    -0.248 NA
ATOM     51  C   UNL A   1      39.669  28.638  31.682  1.00  0.00     0.031 C 
ATOM     52  C   UNL A   1      40.855  28.614  27.063  1.00  0.00     0.029 A 
ATOM     53  N   UNL A   1      42.192  27.929  28.679  1.00  0.00    -0.354 N 
ATOM     54  C   UNL A   1      41.543  29.225  32.846  1.00  0.00     0.074 A 
ATOM     55  C   UNL A   1      40.192  28.732  32.907  1.00  0.00     0.031 C 
ATOM     56  C   UNL A   1      41.540  27.554  26.579  1.00  0.00     0.029 A 
ATOM     57  C   UNL A   1      42.438  27.068  27.611  1.00  0.00     0.049 A 
ATOM     58  H   UNL A   1      42.735  27.925  29.500  1.00  0.00     0.167 HD
ATOM     59  C   UNL A   1      42.610  29.051  33.676  1.00  0.00     0.034 A 
ATOM     60  C   UNL A   1      43.295  26.011  27.582  1.00  0.00     0.034 A 
ATOM     61  C   UNL A   1      43.761  29.790  33.206  1.00  0.00     0.049 A 
ATOM     62  C   UNL A   1      44.309  26.266  28.639  1.00  0.00     0.074 A 
ATOM     63  C   UNL A   1      43.985  31.121  32.901  1.00  0.00     0.029 A 
ATOM     64  N   UNL A   1      44.767  29.100  32.564  1.00  0.00    -0.354 N 
ATOM     65  N   UNL A   1      45.141  27.272  28.597  1.00  0.00    -0.248 NA
ATOM     66  C   UNL A   1      44.059  25.729  29.969  1.00  0.00     0.031 C 
ATOM     67  C   UNL A   1      44.727  31.091  31.683  1.00  0.00     0.029 A 
ATOM     68  C   UNL A   1      45.007  29.757  31.379  1.00  0.00     0.049 A 
ATOM     69  H   UNL A   1      45.224  28.292  32.890  1.00  0.00     0.167 HD
ATOM     70  C   UNL A   1      45.161  27.776  29.889  1.00  0.00     0.074 A 
ATOM     71  C   UNL A   1      44.554  26.726  30.709  1.00  0.00     0.031 C 
ATOM     72  C   UNL A   1      45.396  29.099  30.143  1.00  0.00     0.034 A 
BRANCH  59  73
ATOM     73  C   UNL A   1      42.724  27.969  34.726  1.00  0.00     0.023 A 
ATOM     74  C   UNL A   1      43.381  26.773  34.373  1.00  0.00     0.031 A 
ATOM     75  C   UNL A   1      42.000  27.936  35.939  1.00  0.00     0.131 A 
ATOM     76  C   UNL A   1      43.243  25.613  35.157  1.00  0.00     0.055 A 
ATOM     77  C   UNL A   1      41.926  26.801  36.752  1.00  0.00     0.041 A 
ATOM     78  F   UNL A   1      41.245  28.958  36.358  1.00  0.00    -0.206 F 
ATOM     79  C   UNL A   1      42.525  25.621  36.349  1.00  0.00     0.022 A 
BRANCH  76  80
ATOM     80  S   UNL A   1      43.870  24.045  34.500  1.00  0.00     0.124 S 
ATOM     81  O   UNL A   1      45.082  23.857  35.292  1.00  0.00    -0.237 OA
ATOM     82  O   UNL A   1      42.766  23.136  34.785  1.00  0.00    -0.237 OA
ATOM     83  O   UNL A   1      44.090  24.333  33.085  1.00  0.00    -0.744 OA
ENDBRANCH  76  80
ENDBRANCH  59  73
BRANCH  60  84
ATOM     84  C   UNL A   1      43.079  24.692  26.918  1.00  0.00     0.023 A 
ATOM     85  C   UNL A   1      44.008  24.112  26.026  1.00  0.00     0.031 A 
ATOM     86  C   UNL A   1      42.019  23.860  27.349  1.00  0.00     0.131 A 
ATOM     87  C   UNL A   1      43.852  22.767  25.605  1.00  0.00     0.055 A 
ATOM     88  C   UNL A   1      41.869  22.536  26.928  1.00  0.00     0.041 A 
ATOM     89  F   UNL A   1      41.133  24.279  28.266  1.00  0.00    -0.206 F 
ATOM     90  C   UNL A   1      42.792  21.980  26.060  1.00  0.00     0.022 A 
BRANCH  87  91
ATOM     91  S   UNL A   1      45.090  21.979  24.520  1.00  0.00     0.124 S 
ATOM     92  O   UNL A   1      45.304  23.000  23.501  1.00  0.00    -0.237 OA
ATOM     93  O   UNL A   1      46.198  21.731  25.434  1.00  0.00    -0.237 OA
ATOM     94  O   UNL A   1      44.410  20.772  24.046  1.00  0.00    -0.744 OA
ENDBRANCH  87  91
ENDBRANCH  60  84
BRANCH  72  95
ATOM     95  C   UNL A   1      45.882  29.995  29.014  1.00  0.00     0.023 A 
ATOM     96  C   UNL A   1      45.071  30.890  28.276  1.00  0.00     0.031 A 
ATOM     97  C   UNL A   1      47.269  30.037  28.775  1.00  0.00     0.131 A 
ATOM     98  C   UNL A   1      45.655  31.771  27.340  1.00  0.00     0.055 A 
ATOM     99  C   UNL A   1      47.845  30.926  27.868  1.00  0.00     0.041 A 
ATOM    100  F   UNL A   1      48.101  29.231  29.456  1.00  0.00    -0.206 F 
ATOM    101  C   UNL A   1      47.040  31.794  27.142  1.00  0.00     0.022 A 
BRANCH  98 102
ATOM    102  S   UNL A   1      44.624  32.897  26.341  1.00  0.00     0.124 S 
ATOM    103  O   UNL A   1      43.882  33.657  27.339  1.00  0.00    -0.237 OA
ATOM    104  O   UNL A   1      45.619  33.645  25.577  1.00  0.00    -0.237 OA
ATOM    105  O   UNL A   1      43.805  31.986  25.539  1.00  0.00    -0.744 OA
ENDBRANCH  98 102
ENDBRANCH  72  95
ENDBRANCH  46  47
ENDBRANCH  38  41
ENDBRANCH  36  37
ENDBRANCH  35  36
ENDBRANCH  34  35
ENDBRANCH   1  34
TORSDOF 19
ENDMDL
MODEL 3
REMARK VINA RESULT:     -12.2      2.587      4.235
REMARK SMILES O=C1NC(=O)/C(=C/c2ccc(OCc3cn(-c4ccc(C(=O)NCCCCNC(=O)c5ccc(-c6c7nc(c(-c8cc(S(=O)(=O)[O-])ccc8F)c8ccc([nH]8)c(-c8cc(S(=O)(=O)[O-])ccc8F)c8nc(c(-c9cc(S(=O)(=O)[O-])ccc9F)c9ccc6[nH]9)C=C8)C=C7)cc5)cc4)nn3)cc2)S1
REMARK SMILES IDX 24 1 23 2 21 3 22 4 20 6 17 7 18 8 95 9 19 10 94 11 16 12
REMARK SMILES IDX 14 13 15 14 97 15 96 16 13 17 12 18 11 19 8 20 9 21 99 22
REMARK SMILES IDX 10 23 98 24 7 25 1 26 2 27 3 28 100 29 4 30 6 32 5 33 25 34
REMARK SMILES IDX 26 35 27 36 28 37 29 38 30 40 31 41 32 42 93 43 33 44 92 45
REMARK SMILES IDX 34 46 35 47 36 48 86 49 37 50 91 51 85 52 87 53 38 54 90 55
REMARK SMILES IDX 84 56 83 57 39 59 71 60 51 61 70 62 52 63 55 64 69 65 88 66
REMARK SMILES IDX 53 67 54 68 68 70 89 71 56 72 40 73 41 74 49 75 42 76 48 77
REMARK SMILES IDX 50 78 47 79 43 80 44 81 45 82 46 83 72 84 73 85 81 86 74 87
REMARK SMILES IDX 80 88 82 89 79 90 75 91 76 92 77 93 78 94 57 95 58 96 66 97
REMARK SMILES IDX 59 98 65 99 67 100 64 101 60 102 61 103 62 104 63 105
REMARK H PARENT 23 5 3 31 28 39 87 58 55 69
REMARK Flexibility Score: inf
ROOT
ATOM      1  C   UNL A   1      42.885  22.432  25.660  1.00  0.00     0.116 C 
ENDROOT
BRANCH   1   2
ATOM      2  N   UNL A   1      42.411  21.100  25.978  1.00  0.00    -0.352 N 
ATOM      3  C   UNL A   1      41.167  20.579  26.222  1.00  0.00     0.251 C 
ATOM      4  O   UNL A   1      41.107  19.382  26.507  1.00  0.00    -0.269 OA
ATOM      5  H   UNL A   1      43.131  20.431  26.030  1.00  0.00     0.163 HD
BRANCH   3   6
ATOM      6  C   UNL A   1      39.896  21.357  26.116  1.00  0.00     0.039 A 
ATOM      7  C   UNL A   1      37.478  22.728  25.681  1.00  0.00     0.066 A 
ATOM      8  C   UNL A   1      37.636  21.424  25.197  1.00  0.00     0.029 A 
ATOM      9  C   UNL A   1      38.492  23.321  26.432  1.00  0.00     0.029 A 
ATOM     10  C   UNL A   1      38.851  20.762  25.389  1.00  0.00     0.016 A 
ATOM     11  C   UNL A   1      39.669  22.611  26.689  1.00  0.00     0.016 A 
BRANCH   7  12
ATOM     12  N   UNL A   1      36.285  23.430  25.420  1.00  0.00    -0.220 N 
ATOM     13  C   UNL A   1      34.315  24.366  25.506  1.00  0.00     0.120 A 
ATOM     14  C   UNL A   1      35.230  23.673  26.270  1.00  0.00     0.144 A 
ATOM     15  N   UNL A   1      34.844  24.543  24.254  1.00  0.00    -0.131 NA
ATOM     16  N   UNL A   1      36.048  23.999  24.220  1.00  0.00    -0.062 NA
BRANCH  13  17
ATOM     17  C   UNL A   1      33.007  24.986  25.871  1.00  0.00     0.289 C 
BRANCH  17  18
ATOM     18  O   UNL A   1      31.851  24.146  25.693  1.00  0.00    -0.487 OA
BRANCH  18  19
ATOM     19  C   UNL A   1      32.012  22.926  25.096  1.00  0.00     0.119 A 
ATOM     20  C   UNL A   1      32.703  20.398  24.078  1.00  0.00    -0.024 A 
ATOM     21  C   UNL A   1      32.683  20.618  25.458  1.00  0.00     0.012 A 
ATOM     22  C   UNL A   1      32.281  21.417  23.223  1.00  0.00     0.012 A 
ATOM     23  C   UNL A   1      32.344  21.880  25.960  1.00  0.00     0.047 A 
ATOM     24  C   UNL A   1      31.908  22.662  23.732  1.00  0.00     0.047 A 
BRANCH  20  25
ATOM     25  C   UNL A   1      33.148  19.116  23.528  1.00  0.00     0.029 C 
ATOM     26  O   UNL A   1      32.388  15.029  26.383  1.00  0.00    -0.261 OA
ATOM     27  C   UNL A   1      32.678  15.873  25.540  1.00  0.00     0.290 C 
ATOM     28  N   UNL A   1      33.349  15.633  24.390  1.00  0.00    -0.282 N 
ATOM     29  S   UNL A   1      32.271  17.569  25.651  1.00  0.00    -0.022 SA
ATOM     30  C   UNL A   1      33.580  16.682  23.549  1.00  0.00     0.265 C 
ATOM     31  H   UNL A   1      33.663  14.727  24.167  1.00  0.00     0.174 HD
ATOM     32  C   UNL A   1      33.025  17.928  24.140  1.00  0.00     0.083 C 
ATOM     33  O   UNL A   1      34.163  16.601  22.482  1.00  0.00    -0.268 OA
ENDBRANCH  20  25
ENDBRANCH  18  19
ENDBRANCH  17  18
ENDBRANCH  13  17
ENDBRANCH   7  12
ENDBRANCH   3   6
ENDBRANCH   1   2
BRANCH   1  34
ATOM     34  C   UNL A   1      43.375  23.155  26.920  1.00  0.00     0.023 C 
BRANCH  34  35
ATOM     35  C   UNL A   1      44.362  24.303  26.655  1.00  0.00     0.023 C 
BRANCH  35  36
ATOM     36  C   UNL A   1      43.707  25.657  26.400  1.00  0.00     0.116 C 
BRANCH  36  37
ATOM     37  N   UNL A   1      42.652  25.589  25.390  1.00  0.00    -0.352 N 
ATOM     38  C   UNL A   1      41.316  25.913  25.530  1.00  0.00     0.251 C 
ATOM     39  H   UNL A   1      42.929  25.274  24.499  1.00  0.00     0.163 HD
ATOM     40  O   UNL A   1      40.479  25.439  24.771  1.00  0.00    -0.269 OA
BRANCH  38  41
ATOM     41  C   UNL A   1      40.924  26.843  26.603  1.00  0.00     0.039 A 
ATOM     42  C   UNL A   1      40.417  26.381  27.820  1.00  0.00     0.014 A 
ATOM     43  C   UNL A   1      41.118  28.203  26.381  1.00  0.00     0.014 A 
ATOM     44  C   UNL A   1      40.196  27.300  28.845  1.00  0.00     0.010 A 
ATOM     45  C   UNL A   1      41.028  29.086  27.430  1.00  0.00     0.010 A 
ATOM     46  C   UNL A   1      40.528  28.652  28.654  1.00  0.00    -0.014 A 
BRANCH  46  47
ATOM     47  C   UNL A   1      40.486  29.595  29.770  1.00  0.00     0.031 A 
ATOM     48  C   UNL A   1      39.187  30.305  29.945  1.00  0.00     0.074 A 
ATOM     49  C   UNL A   1      41.447  29.675  30.718  1.00  0.00     0.049 A 
ATOM     50  N   UNL A   1      38.953  31.565  29.790  1.00  0.00    -0.248 NA
ATOM     51  C   UNL A   1      37.975  29.507  30.190  1.00  0.00     0.031 C 
ATOM     52  C   UNL A   1      42.649  28.848  30.869  1.00  0.00     0.029 A 
ATOM     53  N   UNL A   1      41.481  30.451  31.835  1.00  0.00    -0.354 N 
ATOM     54  C   UNL A   1      37.622  31.763  30.145  1.00  0.00     0.074 A 
ATOM     55  C   UNL A   1      37.030  30.451  30.188  1.00  0.00     0.031 C 
ATOM     56  C   UNL A   1      43.145  28.994  32.118  1.00  0.00     0.029 A 
ATOM     57  C   UNL A   1      42.406  30.044  32.794  1.00  0.00     0.049 A 
ATOM     58  H   UNL A   1      40.901  31.237  31.956  1.00  0.00     0.167 HD
ATOM     59  C   UNL A   1      37.180  32.972  30.590  1.00  0.00     0.034 A 
ATOM     60  C   UNL A   1      42.540  30.513  34.065  1.00  0.00     0.034 A 
ATOM     61  C   UNL A   1      38.126  34.020  30.277  1.00  0.00     0.049 A 
ATOM     62  C   UNL A   1      41.942  31.874  34.073  1.00  0.00     0.074 A 
ATOM     63  C   UNL A   1      38.710  34.463  29.103  1.00  0.00     0.029 A 
ATOM     64  N   UNL A   1      38.940  34.493  31.284  1.00  0.00    -0.354 N 
ATOM     65  N   UNL A   1      42.430  32.869  33.380  1.00  0.00    -0.248 NA
ATOM     66  C   UNL A   1      40.534  32.000  34.422  1.00  0.00     0.031 C 
ATOM     67  C   UNL A   1      40.082  34.664  29.438  1.00  0.00     0.029 A 
ATOM     68  C   UNL A   1      40.230  34.444  30.810  1.00  0.00     0.049 A 
ATOM     69  H   UNL A   1      38.652  34.804  32.172  1.00  0.00     0.167 HD
ATOM     70  C   UNL A   1      41.326  33.499  32.828  1.00  0.00     0.074 A 
ATOM     71  C   UNL A   1      40.184  32.981  33.584  1.00  0.00     0.031 C 
ATOM     72  C   UNL A   1      41.394  34.157  31.631  1.00  0.00     0.034 A 
BRANCH  59  73
ATOM     73  C   UNL A   1      36.060  33.172  31.587  1.00  0.00     0.023 A 
ATOM     74  C   UNL A   1      34.955  33.952  31.191  1.00  0.00     0.031 A 
ATOM     75  C   UNL A   1      36.140  32.878  32.966  1.00  0.00     0.131 A 
ATOM     76  C   UNL A   1      34.048  34.458  32.141  1.00  0.00     0.055 A 
ATOM     77  C   UNL A   1      35.196  33.321  33.897  1.00  0.00     0.041 A 
ATOM     78  F   UNL A   1      37.180  32.234  33.508  1.00  0.00    -0.206 F 
ATOM     79  C   UNL A   1      34.157  34.140  33.492  1.00  0.00     0.022 A 
BRANCH  76  80
ATOM     80  S   UNL A   1      32.826  35.683  31.605  1.00  0.00     0.124 S 
ATOM     81  O   UNL A   1      31.730  35.433  32.536  1.00  0.00    -0.237 OA
ATOM     82  O   UNL A   1      33.553  36.933  31.786  1.00  0.00    -0.237 OA
ATOM     83  O   UNL A   1      32.560  35.312  30.217  1.00  0.00    -0.744 OA
ENDBRANCH  76  80
ENDBRANCH  59  73
BRANCH  60  84
ATOM     84  C   UNL A   1      42.858  29.722  35.289  1.00  0.00     0.023 A 
ATOM     85  C   UNL A   1      42.265  28.473  35.581  1.00  0.00     0.031 A 
ATOM     86  C   UNL A   1      43.956  30.098  36.097  1.00  0.00     0.131 A 
ATOM     87  C   UNL A   1      42.769  27.671  36.636  1.00  0.00     0.055 A 
ATOM     88  C   UNL A   1      44.446  29.304  37.137  1.00  0.00     0.041 A 
ATOM     89  F   UNL A   1      44.652  31.220  35.849  1.00  0.00    -0.206 F 
ATOM     90  C   UNL A   1      43.860  28.081  37.406  1.00  0.00     0.022 A 
BRANCH  87  91
ATOM     91  S   UNL A   1      42.066  26.020  36.970  1.00  0.00     0.124 S 
ATOM     92  O   UNL A   1      41.867  25.489  35.627  1.00  0.00    -0.237 OA
ATOM     93  O   UNL A   1      43.110  25.390  37.770  1.00  0.00    -0.237 OA
ATOM     94  O   UNL A   1      40.833  26.315  37.702  1.00  0.00    -0.744 OA
ENDBRANCH  87  91
ENDBRANCH  60  84
BRANCH  72  95
ATOM     95  C   UNL A   1      42.755  34.411  31.003  1.00  0.00     0.023 A 
ATOM     96  C   UNL A   1      43.330  33.644  29.961  1.00  0.00     0.031 A 
ATOM     97  C   UNL A   1      43.438  35.578  31.394  1.00  0.00     0.131 A 
ATOM     98  C   UNL A   1      44.541  34.053  29.362  1.00  0.00     0.055 A 
ATOM     99  C   UNL A   1      44.622  35.993  30.783  1.00  0.00     0.041 A 
ATOM    100  F   UNL A   1      42.939  36.367  32.361  1.00  0.00    -0.206 F 
ATOM    101  C   UNL A   1      45.182  35.228  29.768  1.00  0.00     0.022 A 
BRANCH  98 102
ATOM    102  S   UNL A   1      45.325  33.052  28.054  1.00  0.00     0.124 S 
ATOM    103  O   UNL A   1      44.350  33.080  26.971  1.00  0.00    -0.237 OA
ATOM    104  O   UNL A   1      46.573  33.771  27.809  1.00  0.00    -0.237 OA
ATOM    105  O   UNL A   1      45.496  31.742  28.684  1.00  0.00    -0.744 OA
ENDBRANCH  98 102
ENDBRANCH  72  95
ENDBRANCH  46  47
ENDBRANCH  38  41
ENDBRANCH  36  37
ENDBRANCH  35  36
ENDBRANCH  34  35
ENDBRANCH   1  34
TORSDOF 19
ENDMDL
