MODEL 1
REMARK VINA RESULT:     -11.5      0.000      0.000
REMARK SMILES C[C@@H](CCO)Sc1cc(C(=O)NCCCCNC(=O)c2ccc(-c3c4nc(c(-c5cc(S(=O)(=O)[O-])ccc5F)c5ccc([nH]5)c(-c5cc(S(=O)(=O)[O-])ccc5F)c5nc(c(-c6cc(S(=O)(=O)[O-])ccc6F)c6ccc3[nH]6)C=C5)C=C4)cc2)c2ccccc2n1
REMARK SMILES IDX 13 1 12 2 10 3 11 4 9 6 7 7 8 8 89 9 88 10 83 11 87 12 84 13
REMARK SMILES IDX 86 14 85 15 6 16 2 17 1 18 3 19 4 20 5 21 14 23 15 24 16 25
REMARK SMILES IDX 17 26 18 27 19 29 20 30 21 31 82 32 22 33 81 34 23 35 24 36
REMARK SMILES IDX 25 37 75 38 26 39 80 40 74 41 76 42 27 43 79 44 73 45 72 46
REMARK SMILES IDX 28 48 60 49 40 50 59 51 41 52 44 53 58 54 77 55 42 56 43 57
REMARK SMILES IDX 57 59 78 60 45 61 29 62 30 63 38 64 31 65 37 66 39 67 36 68
REMARK SMILES IDX 32 69 33 70 34 71 35 72 61 73 62 74 70 75 63 76 69 77 71 78
REMARK SMILES IDX 68 79 64 80 65 81 66 82 67 83 46 84 47 85 55 86 48 87 54 88
REMARK SMILES IDX 56 89 53 90 49 91 50 92 51 93 52 94
REMARK H PARENT 12 5 5 22 17 28 76 47 44 58
REMARK Flexibility Score: inf
ROOT
ATOM      1  C   UNL A   1      33.769  24.902  24.345  1.00  0.00     0.116 C 
ENDROOT
BRANCH   1   2
ATOM      2  N   UNL A   1      32.446  24.711  23.785  1.00  0.00    -0.352 N 
ATOM      3  C   UNL A   1      31.308  25.468  23.726  1.00  0.00     0.252 C 
ATOM      4  O   UNL A   1      30.290  24.871  23.360  1.00  0.00    -0.269 OA
ATOM      5  H   UNL A   1      32.342  23.835  23.346  1.00  0.00     0.163 HD
BRANCH   3   6
ATOM      6  C   UNL A   1      31.198  26.946  23.942  1.00  0.00     0.051 A 
ATOM      7  C   UNL A   1      30.444  28.960  22.876  1.00  0.00     0.098 A 
ATOM      8  C   UNL A   1      30.689  27.608  22.815  1.00  0.00     0.050 A 
ATOM      9  N   UNL A   1      30.855  29.724  23.903  1.00  0.00    -0.241 NA
ATOM     10  C   UNL A   1      31.384  29.119  24.974  1.00  0.00     0.072 A 
ATOM     11  C   UNL A   1      31.454  27.717  25.107  1.00  0.00     0.013 A 
ATOM     12  C   UNL A   1      31.784  29.937  26.024  1.00  0.00     0.029 A 
ATOM     13  C   UNL A   1      31.688  27.232  26.410  1.00  0.00     0.011 A 
ATOM     14  C   UNL A   1      32.165  29.419  27.258  1.00  0.00     0.002 A 
ATOM     15  C   UNL A   1      32.075  28.057  27.466  1.00  0.00     0.001 A 
BRANCH   7  16
ATOM     16  S   UNL A   1      29.490  29.774  21.625  1.00  0.00    -0.103 SA
BRANCH  16  17
ATOM     17  C   UNL A   1      27.840  29.978  22.444  1.00  0.00     0.052 C 
ATOM     18  C   UNL A   1      27.329  28.719  23.142  1.00  0.00     0.020 C 
BRANCH  17  19
ATOM     19  C   UNL A   1      27.679  31.262  23.282  1.00  0.00     0.043 C 
BRANCH  19  20
ATOM     20  C   UNL A   1      28.561  32.453  22.919  1.00  0.00     0.157 C 
BRANCH  20  21
ATOM     21  O   UNL A   1      27.987  33.159  21.827  1.00  0.00    -0.396 OA
ATOM     22  H   UNL A   1      27.111  33.489  22.080  1.00  0.00     0.210 HD
ENDBRANCH  20  21
ENDBRANCH  19  20
ENDBRANCH  17  19
ENDBRANCH  16  17
ENDBRANCH   7  16
ENDBRANCH   3   6
ENDBRANCH   1   2
BRANCH   1  23
ATOM     23  C   UNL A   1      34.487  23.544  24.384  1.00  0.00     0.023 C 
BRANCH  23  24
ATOM     24  C   UNL A   1      35.980  23.593  24.683  1.00  0.00     0.023 C 
BRANCH  24  25
ATOM     25  C   UNL A   1      36.346  23.151  26.092  1.00  0.00     0.116 C 
BRANCH  25  26
ATOM     26  N   UNL A   1      37.547  22.331  26.154  1.00  0.00    -0.352 N 
ATOM     27  C   UNL A   1      38.825  22.706  26.500  1.00  0.00     0.251 C 
ATOM     28  H   UNL A   1      37.430  21.383  25.917  1.00  0.00     0.163 HD
ATOM     29  O   UNL A   1      39.742  21.893  26.425  1.00  0.00    -0.269 OA
BRANCH  27  30
ATOM     30  C   UNL A   1      39.081  24.105  26.895  1.00  0.00     0.039 A 
ATOM     31  C   UNL A   1      38.921  24.462  28.234  1.00  0.00     0.014 A 
ATOM     32  C   UNL A   1      39.553  25.035  25.965  1.00  0.00     0.014 A 
ATOM     33  C   UNL A   1      39.312  25.732  28.655  1.00  0.00     0.010 A 
ATOM     34  C   UNL A   1      40.033  26.262  26.403  1.00  0.00     0.010 A 
ATOM     35  C   UNL A   1      39.915  26.625  27.752  1.00  0.00    -0.014 A 
BRANCH  35  36
ATOM     36  C   UNL A   1      40.433  27.936  28.215  1.00  0.00     0.031 A 
ATOM     37  C   UNL A   1      41.904  28.238  28.144  1.00  0.00     0.074 A 
ATOM     38  C   UNL A   1      39.575  28.830  28.744  1.00  0.00     0.049 A 
ATOM     39  N   UNL A   1      42.540  29.328  28.484  1.00  0.00    -0.248 NA
ATOM     40  C   UNL A   1      42.778  27.158  27.662  1.00  0.00     0.031 C 
ATOM     41  C   UNL A   1      38.139  28.610  28.946  1.00  0.00     0.029 A 
ATOM     42  N   UNL A   1      39.779  30.105  29.205  1.00  0.00    -0.354 N 
ATOM     43  C   UNL A   1      43.888  29.064  28.265  1.00  0.00     0.074 A 
ATOM     44  C   UNL A   1      43.979  27.683  27.840  1.00  0.00     0.031 C 
ATOM     45  C   UNL A   1      37.587  29.728  29.445  1.00  0.00     0.029 A 
ATOM     46  C   UNL A   1      38.629  30.732  29.625  1.00  0.00     0.049 A 
ATOM     47  H   UNL A   1      40.666  30.532  29.233  1.00  0.00     0.167 HD
ATOM     48  C   UNL A   1      44.947  29.903  28.376  1.00  0.00     0.034 A 
ATOM     49  C   UNL A   1      38.437  31.982  30.088  1.00  0.00     0.034 A 
ATOM     50  C   UNL A   1      44.831  31.281  28.788  1.00  0.00     0.049 A 
ATOM     51  C   UNL A   1      39.620  32.911  30.161  1.00  0.00     0.074 A 
ATOM     52  C   UNL A   1      45.821  32.241  28.888  1.00  0.00     0.029 A 
ATOM     53  N   UNL A   1      43.644  31.895  29.173  1.00  0.00    -0.354 N 
ATOM     54  N   UNL A   1      40.880  32.670  29.877  1.00  0.00    -0.248 NA
ATOM     55  C   UNL A   1      39.349  34.288  30.590  1.00  0.00     0.031 C 
ATOM     56  C   UNL A   1      45.245  33.418  29.383  1.00  0.00     0.029 A 
ATOM     57  C   UNL A   1      43.882  33.215  29.528  1.00  0.00     0.049 A 
ATOM     58  H   UNL A   1      42.762  31.458  29.191  1.00  0.00     0.167 HD
ATOM     59  C   UNL A   1      41.548  33.876  30.072  1.00  0.00     0.074 A 
ATOM     60  C   UNL A   1      40.544  34.844  30.465  1.00  0.00     0.031 C 
ATOM     61  C   UNL A   1      42.870  34.160  29.940  1.00  0.00     0.034 A 
BRANCH  48  62
ATOM     62  C   UNL A   1      46.312  29.338  28.060  1.00  0.00     0.023 A 
ATOM     63  C   UNL A   1      46.688  29.013  26.744  1.00  0.00     0.031 A 
ATOM     64  C   UNL A   1      47.234  29.075  29.089  1.00  0.00     0.131 A 
ATOM     65  C   UNL A   1      47.911  28.368  26.501  1.00  0.00     0.055 A 
ATOM     66  C   UNL A   1      48.486  28.511  28.829  1.00  0.00     0.041 A 
ATOM     67  F   UNL A   1      46.925  29.342  30.368  1.00  0.00    -0.206 F 
ATOM     68  C   UNL A   1      48.823  28.139  27.532  1.00  0.00     0.022 A 
BRANCH  65  69
ATOM     69  S   UNL A   1      48.220  27.697  24.845  1.00  0.00     0.124 S 
ATOM     70  O   UNL A   1      49.572  28.185  24.579  1.00  0.00    -0.237 OA
ATOM     71  O   UNL A   1      48.089  26.261  25.055  1.00  0.00    -0.237 OA
ATOM     72  O   UNL A   1      47.174  28.308  24.027  1.00  0.00    -0.744 OA
ENDBRANCH  65  69
ENDBRANCH  48  62
BRANCH  49  73
ATOM     73  C   UNL A   1      37.077  32.441  30.489  1.00  0.00     0.023 A 
ATOM     74  C   UNL A   1      36.193  32.993  29.548  1.00  0.00     0.031 A 
ATOM     75  C   UNL A   1      36.652  32.366  31.827  1.00  0.00     0.131 A 
ATOM     76  C   UNL A   1      34.950  33.495  29.964  1.00  0.00     0.055 A 
ATOM     77  C   UNL A   1      35.396  32.823  32.229  1.00  0.00     0.041 A 
ATOM     78  F   UNL A   1      37.453  31.834  32.765  1.00  0.00    -0.206 F 
ATOM     79  C   UNL A   1      34.542  33.405  31.296  1.00  0.00     0.022 A 
BRANCH  76  80
ATOM     80  S   UNL A   1      33.904  34.342  28.747  1.00  0.00     0.124 S 
ATOM     81  O   UNL A   1      32.688  34.583  29.516  1.00  0.00    -0.237 OA
ATOM     82  O   UNL A   1      34.707  35.519  28.429  1.00  0.00    -0.237 OA
ATOM     83  O   UNL A   1      33.779  33.365  27.668  1.00  0.00    -0.744 OA
ENDBRANCH  76  80
ENDBRANCH  49  73
BRANCH  61  84
ATOM     84  C   UNL A   1      43.281  35.587  30.201  1.00  0.00     0.023 A 
ATOM     85  C   UNL A   1      43.314  36.543  29.171  1.00  0.00     0.031 A 
ATOM     86  C   UNL A   1      43.695  35.984  31.485  1.00  0.00     0.131 A 
ATOM     87  C   UNL A   1      43.828  37.823  29.421  1.00  0.00     0.055 A 
ATOM     88  C   UNL A   1      44.141  37.281  31.744  1.00  0.00     0.041 A 
ATOM     89  F   UNL A   1      43.685  35.113  32.506  1.00  0.00    -0.206 F 
ATOM     90  C   UNL A   1      44.229  38.203  30.705  1.00  0.00     0.022 A 
BRANCH  87  91
ATOM     91  S   UNL A   1      44.092  38.942  28.018  1.00  0.00     0.124 S 
ATOM     92  O   UNL A   1      45.182  38.282  27.305  1.00  0.00    -0.237 OA
ATOM     93  O   UNL A   1      42.792  38.920  27.355  1.00  0.00    -0.237 OA
ATOM     94  O   UNL A   1      44.445  40.210  28.652  1.00  0.00    -0.744 OA
ENDBRANCH  87  91
ENDBRANCH  61  84
ENDBRANCH  35  36
ENDBRANCH  27  30
ENDBRANCH  25  26
ENDBRANCH  24  25
ENDBRANCH  23  24
ENDBRANCH   1  23
TORSDOF 19
ENDMDL
MODEL 2
REMARK VINA RESULT:     -11.4      5.253     10.335
REMARK SMILES C[C@@H](CCO)Sc1cc(C(=O)NCCCCNC(=O)c2ccc(-c3c4nc(c(-c5cc(S(=O)(=O)[O-])ccc5F)c5ccc([nH]5)c(-c5cc(S(=O)(=O)[O-])ccc5F)c5nc(c(-c6cc(S(=O)(=O)[O-])ccc6F)c6ccc3[nH]6)C=C5)C=C4)cc2)c2ccccc2n1
REMARK SMILES IDX 13 1 12 2 10 3 11 4 9 6 7 7 8 8 89 9 88 10 83 11 87 12 84 13
REMARK SMILES IDX 86 14 85 15 6 16 2 17 1 18 3 19 4 20 5 21 14 23 15 24 16 25
REMARK SMILES IDX 17 26 18 27 19 29 20 30 21 31 82 32 22 33 81 34 23 35 24 36
REMARK SMILES IDX 25 37 75 38 26 39 80 40 74 41 76 42 27 43 79 44 73 45 72 46
REMARK SMILES IDX 28 48 60 49 40 50 59 51 41 52 44 53 58 54 77 55 42 56 43 57
REMARK SMILES IDX 57 59 78 60 45 61 29 62 30 63 38 64 31 65 37 66 39 67 36 68
REMARK SMILES IDX 32 69 33 70 34 71 35 72 61 73 62 74 70 75 63 76 69 77 71 78
REMARK SMILES IDX 68 79 64 80 65 81 66 82 67 83 46 84 47 85 55 86 48 87 54 88
REMARK SMILES IDX 56 89 53 90 49 91 50 92 51 93 52 94
REMARK H PARENT 12 5 5 22 17 28 76 47 44 58
REMARK Flexibility Score: inf
ROOT
ATOM      1  C   UNL A   1      32.541  25.162  25.917  1.00  0.00     0.116 C 
ENDROOT
BRANCH   1   2
ATOM      2  N   UNL A   1      31.903  24.467  24.817  1.00  0.00    -0.352 N 
ATOM      3  C   UNL A   1      32.211  23.361  24.071  1.00  0.00     0.252 C 
ATOM      4  O   UNL A   1      31.530  23.201  23.052  1.00  0.00    -0.269 OA
ATOM      5  H   UNL A   1      31.055  24.886  24.542  1.00  0.00     0.163 HD
BRANCH   3   6
ATOM      6  C   UNL A   1      33.189  22.282  24.421  1.00  0.00     0.051 A 
ATOM      7  C   UNL A   1      33.302  19.991  25.125  1.00  0.00     0.098 A 
ATOM      8  C   UNL A   1      32.550  21.109  24.847  1.00  0.00     0.050 A 
ATOM      9  N   UNL A   1      34.643  20.022  25.202  1.00  0.00    -0.241 NA
ATOM     10  C   UNL A   1      35.275  21.146  24.842  1.00  0.00     0.072 A 
ATOM     11  C   UNL A   1      34.604  22.266  24.310  1.00  0.00     0.013 A 
ATOM     12  C   UNL A   1      36.663  21.139  24.918  1.00  0.00     0.029 A 
ATOM     13  C   UNL A   1      35.413  23.212  23.646  1.00  0.00     0.011 A 
ATOM     14  C   UNL A   1      37.435  22.170  24.392  1.00  0.00     0.002 A 
ATOM     15  C   UNL A   1      36.806  23.194  23.712  1.00  0.00     0.001 A 
BRANCH   7  16
ATOM     16  S   UNL A   1      32.540  18.404  25.326  1.00  0.00    -0.103 SA
BRANCH  16  17
ATOM     17  C   UNL A   1      33.794  17.258  24.583  1.00  0.00     0.052 C 
ATOM     18  C   UNL A   1      34.058  16.000  25.410  1.00  0.00     0.020 C 
BRANCH  17  19
ATOM     19  C   UNL A   1      33.622  16.986  23.076  1.00  0.00     0.043 C 
BRANCH  19  20
ATOM     20  C   UNL A   1      32.864  18.027  22.256  1.00  0.00     0.157 C 
BRANCH  20  21
ATOM     21  O   UNL A   1      31.579  17.526  21.917  1.00  0.00    -0.396 OA
ATOM     22  H   UNL A   1      31.444  17.604  20.959  1.00  0.00     0.210 HD
ENDBRANCH  20  21
ENDBRANCH  19  20
ENDBRANCH  17  19
ENDBRANCH  16  17
ENDBRANCH   7  16
ENDBRANCH   3   6
ENDBRANCH   1   2
BRANCH   1  23
ATOM     23  C   UNL A   1      33.137  26.476  25.387  1.00  0.00     0.023 C 
BRANCH  23  24
ATOM     24  C   UNL A   1      33.186  27.629  26.381  1.00  0.00     0.023 C 
BRANCH  24  25
ATOM     25  C   UNL A   1      34.025  28.811  25.922  1.00  0.00     0.116 C 
BRANCH  25  26
ATOM     26  N   UNL A   1      33.418  30.104  26.204  1.00  0.00    -0.352 N 
ATOM     27  C   UNL A   1      33.807  31.052  27.122  1.00  0.00     0.251 C 
ATOM     28  H   UNL A   1      32.625  30.330  25.668  1.00  0.00     0.163 HD
ATOM     29  O   UNL A   1      33.129  32.063  27.281  1.00  0.00    -0.269 OA
BRANCH  27  30
ATOM     30  C   UNL A   1      35.004  30.803  27.949  1.00  0.00     0.039 A 
ATOM     31  C   UNL A   1      35.036  29.663  28.753  1.00  0.00     0.014 A 
ATOM     32  C   UNL A   1      36.116  31.646  27.869  1.00  0.00     0.014 A 
ATOM     33  C   UNL A   1      36.216  29.326  29.415  1.00  0.00     0.010 A 
ATOM     34  C   UNL A   1      37.316  31.257  28.448  1.00  0.00     0.010 A 
ATOM     35  C   UNL A   1      37.379  30.094  29.229  1.00  0.00    -0.014 A 
BRANCH  35  36
ATOM     36  C   UNL A   1      38.665  29.681  29.842  1.00  0.00     0.031 A 
ATOM     37  C   UNL A   1      39.083  30.240  31.174  1.00  0.00     0.074 A 
ATOM     38  C   UNL A   1      39.474  28.840  29.169  1.00  0.00     0.049 A 
ATOM     39  N   UNL A   1      40.158  29.988  31.875  1.00  0.00    -0.248 NA
ATOM     40  C   UNL A   1      38.192  31.242  31.780  1.00  0.00     0.031 C 
ATOM     41  C   UNL A   1      39.212  28.305  27.829  1.00  0.00     0.029 A 
ATOM     42  N   UNL A   1      40.677  28.281  29.516  1.00  0.00    -0.354 N 
ATOM     43  C   UNL A   1      40.077  30.804  32.999  1.00  0.00     0.074 A 
ATOM     44  C   UNL A   1      38.888  31.614  32.842  1.00  0.00     0.031 C 
ATOM     45  C   UNL A   1      40.200  27.461  27.490  1.00  0.00     0.029 A 
ATOM     46  C   UNL A   1      41.177  27.415  28.572  1.00  0.00     0.049 A 
ATOM     47  H   UNL A   1      41.138  28.481  30.362  1.00  0.00     0.167 HD
ATOM     48  C   UNL A   1      40.900  30.850  34.075  1.00  0.00     0.034 A 
ATOM     49  C   UNL A   1      42.291  26.658  28.587  1.00  0.00     0.034 A 
ATOM     50  C   UNL A   1      42.072  30.022  34.217  1.00  0.00     0.049 A 
ATOM     51  C   UNL A   1      43.166  26.692  29.812  1.00  0.00     0.074 A 
ATOM     52  C   UNL A   1      42.952  29.941  35.281  1.00  0.00     0.029 A 
ATOM     53  N   UNL A   1      42.532  29.129  33.256  1.00  0.00    -0.354 N 
ATOM     54  N   UNL A   1      43.036  27.413  30.902  1.00  0.00    -0.248 NA
ATOM     55  C   UNL A   1      44.322  25.788  29.818  1.00  0.00     0.031 C 
ATOM     56  C   UNL A   1      43.970  29.041  34.943  1.00  0.00     0.029 A 
ATOM     57  C   UNL A   1      43.692  28.507  33.695  1.00  0.00     0.049 A 
ATOM     58  H   UNL A   1      42.098  28.961  32.388  1.00  0.00     0.167 HD
ATOM     59  C   UNL A   1      44.084  27.030  31.735  1.00  0.00     0.074 A 
ATOM     60  C   UNL A   1      44.813  25.994  31.031  1.00  0.00     0.031 C 
ATOM     61  C   UNL A   1      44.417  27.492  32.968  1.00  0.00     0.034 A 
BRANCH  48  62
ATOM     62  C   UNL A   1      40.556  31.839  35.165  1.00  0.00     0.023 A 
ATOM     63  C   UNL A   1      39.564  31.564  36.123  1.00  0.00     0.031 A 
ATOM     64  C   UNL A   1      41.193  33.091  35.221  1.00  0.00     0.131 A 
ATOM     65  C   UNL A   1      39.176  32.555  37.039  1.00  0.00     0.055 A 
ATOM     66  C   UNL A   1      40.863  34.042  36.191  1.00  0.00     0.041 A 
ATOM     67  F   UNL A   1      42.133  33.422  34.322  1.00  0.00    -0.206 F 
ATOM     68  C   UNL A   1      39.838  33.782  37.096  1.00  0.00     0.022 A 
BRANCH  65  69
ATOM     69  S   UNL A   1      37.697  32.269  38.048  1.00  0.00     0.124 S 
ATOM     70  O   UNL A   1      36.735  33.174  37.421  1.00  0.00    -0.237 OA
ATOM     71  O   UNL A   1      37.453  30.845  37.857  1.00  0.00    -0.237 OA
ATOM     72  O   UNL A   1      38.120  32.656  39.393  1.00  0.00    -0.744 OA
ENDBRANCH  65  69
ENDBRANCH  48  62
BRANCH  49  73
ATOM     73  C   UNL A   1      42.629  25.786  27.426  1.00  0.00     0.023 A 
ATOM     74  C   UNL A   1      42.169  24.461  27.360  1.00  0.00     0.031 A 
ATOM     75  C   UNL A   1      43.447  26.253  26.383  1.00  0.00     0.131 A 
ATOM     76  C   UNL A   1      42.570  23.633  26.300  1.00  0.00     0.055 A 
ATOM     77  C   UNL A   1      43.805  25.441  25.306  1.00  0.00     0.041 A 
ATOM     78  F   UNL A   1      43.902  27.517  26.391  1.00  0.00    -0.206 F 
ATOM     79  C   UNL A   1      43.377  24.117  25.268  1.00  0.00     0.022 A 
BRANCH  76  80
ATOM     80  S   UNL A   1      42.085  21.885  26.332  1.00  0.00     0.124 S 
ATOM     81  O   UNL A   1      42.883  21.334  25.243  1.00  0.00    -0.237 OA
ATOM     82  O   UNL A   1      42.478  21.489  27.681  1.00  0.00    -0.237 OA
ATOM     83  O   UNL A   1      40.644  21.928  26.092  1.00  0.00    -0.744 OA
ENDBRANCH  76  80
ENDBRANCH  49  73
BRANCH  61  84
ATOM     84  C   UNL A   1      45.609  26.846  33.629  1.00  0.00     0.023 A 
ATOM     85  C   UNL A   1      46.920  27.284  33.370  1.00  0.00     0.031 A 
ATOM     86  C   UNL A   1      45.437  25.746  34.487  1.00  0.00     0.131 A 
ATOM     87  C   UNL A   1      48.010  26.577  33.897  1.00  0.00     0.055 A 
ATOM     88  C   UNL A   1      46.524  25.087  35.063  1.00  0.00     0.041 A 
ATOM     89  F   UNL A   1      44.209  25.284  34.769  1.00  0.00    -0.206 F 
ATOM     90  C   UNL A   1      47.820  25.489  34.753  1.00  0.00     0.022 A 
BRANCH  87  91
ATOM     91  S   UNL A   1      49.680  27.013  33.337  1.00  0.00     0.124 S 
ATOM     92  O   UNL A   1      50.450  25.838  33.731  1.00  0.00    -0.237 OA
ATOM     93  O   UNL A   1      49.487  27.196  31.902  1.00  0.00    -0.237 OA
ATOM     94  O   UNL A   1      49.984  28.232  34.083  1.00  0.00    -0.744 OA
ENDBRANCH  87  91
ENDBRANCH  61  84
ENDBRANCH  35  36
ENDBRANCH  27  30
ENDBRANCH  25  26
ENDBRANCH  24  25
ENDBRANCH  23  24
ENDBRANCH   1  23
TORSDOF 19
ENDMDL
MODEL 3
REMARK VINA RESULT:     -11.3      5.354     10.525
REMARK SMILES C[C@@H](CCO)Sc1cc(C(=O)NCCCCNC(=O)c2ccc(-c3c4nc(c(-c5cc(S(=O)(=O)[O-])ccc5F)c5ccc([nH]5)c(-c5cc(S(=O)(=O)[O-])ccc5F)c5nc(c(-c6cc(S(=O)(=O)[O-])ccc6F)c6ccc3[nH]6)C=C5)C=C4)cc2)c2ccccc2n1
REMARK SMILES IDX 13 1 12 2 10 3 11 4 9 6 7 7 8 8 89 9 88 10 83 11 87 12 84 13
REMARK SMILES IDX 86 14 85 15 6 16 2 17 1 18 3 19 4 20 5 21 14 23 15 24 16 25
REMARK SMILES IDX 17 26 18 27 19 29 20 30 21 31 82 32 22 33 81 34 23 35 24 36
REMARK SMILES IDX 25 37 75 38 26 39 80 40 74 41 76 42 27 43 79 44 73 45 72 46
REMARK SMILES IDX 28 48 60 49 40 50 59 51 41 52 44 53 58 54 77 55 42 56 43 57
REMARK SMILES IDX 57 59 78 60 45 61 29 62 30 63 38 64 31 65 37 66 39 67 36 68
REMARK SMILES IDX 32 69 33 70 34 71 35 72 61 73 62 74 70 75 63 76 69 77 71 78
REMARK SMILES IDX 68 79 64 80 65 81 66 82 67 83 46 84 47 85 55 86 48 87 54 88
REMARK SMILES IDX 56 89 53 90 49 91 50 92 51 93 52 94
REMARK H PARENT 12 5 5 22 17 28 76 47 44 58
REMARK Flexibility Score: inf
ROOT
ATOM      1  C   UNL A   1      32.197  25.324  25.953  1.00  0.00     0.116 C 
ENDROOT
BRANCH   1   2
ATOM      2  N   UNL A   1      31.494  24.483  25.003  1.00  0.00    -0.352 N 
ATOM      3  C   UNL A   1      31.806  23.343  24.314  1.00  0.00     0.252 C 
ATOM      4  O   UNL A   1      31.022  23.039  23.408  1.00  0.00    -0.269 OA
ATOM      5  H   UNL A   1      30.584  24.808  24.809  1.00  0.00     0.163 HD
BRANCH   3   6
ATOM      6  C   UNL A   1      32.912  22.381  24.618  1.00  0.00     0.051 A 
ATOM      7  C   UNL A   1      33.311  20.130  25.350  1.00  0.00     0.098 A 
ATOM      8  C   UNL A   1      32.429  21.157  25.102  1.00  0.00     0.050 A 
ATOM      9  N   UNL A   1      34.643  20.303  25.340  1.00  0.00    -0.241 NA
ATOM     10  C   UNL A   1      35.129  21.479  24.922  1.00  0.00     0.072 A 
ATOM     11  C   UNL A   1      34.312  22.511  24.416  1.00  0.00     0.013 A 
ATOM     12  C   UNL A   1      36.512  21.619  24.909  1.00  0.00     0.029 A 
ATOM     13  C   UNL A   1      34.974  23.520  23.687  1.00  0.00     0.011 A 
ATOM     14  C   UNL A   1      37.137  22.713  24.319  1.00  0.00     0.002 A 
ATOM     15  C   UNL A   1      36.362  23.650  23.665  1.00  0.00     0.001 A 
BRANCH   7  16
ATOM     16  S   UNL A   1      32.736  18.477  25.623  1.00  0.00    -0.103 SA
BRANCH  16  17
ATOM     17  C   UNL A   1      33.855  17.475  24.537  1.00  0.00     0.052 C 
ATOM     18  C   UNL A   1      34.502  16.282  25.238  1.00  0.00     0.020 C 
BRANCH  17  19
ATOM     19  C   UNL A   1      33.290  17.145  23.142  1.00  0.00     0.043 C 
BRANCH  19  20
ATOM     20  C   UNL A   1      32.408  18.195  22.473  1.00  0.00     0.157 C 
BRANCH  20  21
ATOM     21  O   UNL A   1      31.589  17.578  21.489  1.00  0.00    -0.396 OA
ATOM     22  H   UNL A   1      30.796  17.212  21.912  1.00  0.00     0.210 HD
ENDBRANCH  20  21
ENDBRANCH  19  20
ENDBRANCH  17  19
ENDBRANCH  16  17
ENDBRANCH   7  16
ENDBRANCH   3   6
ENDBRANCH   1   2
BRANCH   1  23
ATOM     23  C   UNL A   1      32.441  26.697  25.307  1.00  0.00     0.023 C 
BRANCH  23  24
ATOM     24  C   UNL A   1      32.478  27.881  26.264  1.00  0.00     0.023 C 
BRANCH  24  25
ATOM     25  C   UNL A   1      33.339  29.039  25.786  1.00  0.00     0.116 C 
BRANCH  25  26
ATOM     26  N   UNL A   1      32.898  30.338  26.275  1.00  0.00    -0.352 N 
ATOM     27  C   UNL A   1      33.527  31.181  27.161  1.00  0.00     0.251 C 
ATOM     28  H   UNL A   1      32.034  30.654  25.925  1.00  0.00     0.163 HD
ATOM     29  O   UNL A   1      32.970  32.213  27.523  1.00  0.00    -0.269 OA
BRANCH  27  30
ATOM     30  C   UNL A   1      34.841  30.793  27.712  1.00  0.00     0.039 A 
ATOM     31  C   UNL A   1      35.816  31.778  27.872  1.00  0.00     0.014 A 
ATOM     32  C   UNL A   1      35.077  29.485  28.141  1.00  0.00     0.014 A 
ATOM     33  C   UNL A   1      37.000  31.466  28.537  1.00  0.00     0.010 A 
ATOM     34  C   UNL A   1      36.213  29.201  28.888  1.00  0.00     0.010 A 
ATOM     35  C   UNL A   1      37.188  30.188  29.093  1.00  0.00    -0.014 A 
BRANCH  35  36
ATOM     36  C   UNL A   1      38.397  29.880  29.895  1.00  0.00     0.031 A 
ATOM     37  C   UNL A   1      38.562  30.465  31.270  1.00  0.00     0.074 A 
ATOM     38  C   UNL A   1      39.364  29.112  29.356  1.00  0.00     0.049 A 
ATOM     39  N   UNL A   1      39.538  30.300  32.126  1.00  0.00    -0.248 NA
ATOM     40  C   UNL A   1      37.511  31.386  31.728  1.00  0.00     0.031 C 
ATOM     41  C   UNL A   1      39.351  28.564  27.996  1.00  0.00     0.029 A 
ATOM     42  N   UNL A   1      40.544  28.653  29.884  1.00  0.00    -0.354 N 
ATOM     43  C   UNL A   1      39.222  31.101  33.218  1.00  0.00     0.074 A 
ATOM     44  C   UNL A   1      38.007  31.810  32.879  1.00  0.00     0.031 C 
ATOM     45  C   UNL A   1      40.445  27.807  27.815  1.00  0.00     0.029 A 
ATOM     46  C   UNL A   1      41.249  27.836  29.031  1.00  0.00     0.049 A 
ATOM     47  H   UNL A   1      40.855  28.887  30.788  1.00  0.00     0.167 HD
ATOM     48  C   UNL A   1      39.868  31.209  34.405  1.00  0.00     0.034 A 
ATOM     49  C   UNL A   1      42.407  27.174  29.218  1.00  0.00     0.034 A 
ATOM     50  C   UNL A   1      41.070  30.480  34.727  1.00  0.00     0.049 A 
ATOM     51  C   UNL A   1      43.084  27.274  30.561  1.00  0.00     0.074 A 
ATOM     52  C   UNL A   1      41.784  30.467  35.912  1.00  0.00     0.029 A 
ATOM     53  N   UNL A   1      41.742  29.633  33.852  1.00  0.00    -0.354 N 
ATOM     54  N   UNL A   1      42.733  27.977  31.614  1.00  0.00    -0.248 NA
ATOM     55  C   UNL A   1      44.297  26.470  30.746  1.00  0.00     0.031 C 
ATOM     56  C   UNL A   1      42.913  29.657  35.737  1.00  0.00     0.029 A 
ATOM     57  C   UNL A   1      42.869  29.108  34.465  1.00  0.00     0.049 A 
ATOM     58  H   UNL A   1      41.457  29.434  32.931  1.00  0.00     0.167 HD
ATOM     59  C   UNL A   1      43.672  27.678  32.597  1.00  0.00     0.074 A 
ATOM     60  C   UNL A   1      44.581  26.710  32.017  1.00  0.00     0.031 C 
ATOM     61  C   UNL A   1      43.777  28.160  33.863  1.00  0.00     0.034 A 
BRANCH  48  62
ATOM     62  C   UNL A   1      39.284  32.161  35.424  1.00  0.00     0.023 A 
ATOM     63  C   UNL A   1      39.706  33.500  35.506  1.00  0.00     0.031 A 
ATOM     64  C   UNL A   1      38.329  31.715  36.355  1.00  0.00     0.131 A 
ATOM     65  C   UNL A   1      39.242  34.321  36.547  1.00  0.00     0.055 A 
ATOM     66  C   UNL A   1      37.806  32.563  37.335  1.00  0.00     0.041 A 
ATOM     67  F   UNL A   1      37.903  30.443  36.341  1.00  0.00    -0.206 F 
ATOM     68  C   UNL A   1      38.275  33.868  37.445  1.00  0.00     0.022 A 
BRANCH  65  69
ATOM     69  S   UNL A   1      40.035  35.932  36.796  1.00  0.00     0.124 S 
ATOM     70  O   UNL A   1      39.346  36.417  37.990  1.00  0.00    -0.237 OA
ATOM     71  O   UNL A   1      41.437  35.572  36.970  1.00  0.00    -0.237 OA
ATOM     72  O   UNL A   1      39.725  36.661  35.567  1.00  0.00    -0.744 OA
ENDBRANCH  65  69
ENDBRANCH  48  62
BRANCH  49  73
ATOM     73  C   UNL A   1      42.987  26.340  28.128  1.00  0.00     0.023 A 
ATOM     74  C   UNL A   1      42.608  24.997  27.967  1.00  0.00     0.031 A 
ATOM     75  C   UNL A   1      43.955  26.861  27.253  1.00  0.00     0.131 A 
ATOM     76  C   UNL A   1      43.229  24.207  26.988  1.00  0.00     0.055 A 
ATOM     77  C   UNL A   1      44.536  26.085  26.249  1.00  0.00     0.041 A 
ATOM     78  F   UNL A   1      44.342  28.143  27.355  1.00  0.00    -0.206 F 
ATOM     79  C   UNL A   1      44.183  24.744  26.121  1.00  0.00     0.022 A 
BRANCH  76  80
ATOM     80  S   UNL A   1      42.827  22.439  26.915  1.00  0.00     0.124 S 
ATOM     81  O   UNL A   1      43.990  21.897  26.221  1.00  0.00    -0.237 OA
ATOM     82  O   UNL A   1      42.707  22.100  28.329  1.00  0.00    -0.237 OA
ATOM     83  O   UNL A   1      41.577  22.406  26.160  1.00  0.00    -0.744 OA
ENDBRANCH  76  80
ENDBRANCH  49  73
BRANCH  61  84
ATOM     84  C   UNL A   1      44.906  27.612  34.699  1.00  0.00     0.023 A 
ATOM     85  C   UNL A   1      44.735  26.479  35.514  1.00  0.00     0.031 A 
ATOM     86  C   UNL A   1      46.153  28.260  34.722  1.00  0.00     0.131 A 
ATOM     87  C   UNL A   1      45.763  26.077  36.378  1.00  0.00     0.055 A 
ATOM     88  C   UNL A   1      47.197  27.815  35.534  1.00  0.00     0.041 A 
ATOM     89  F   UNL A   1      46.373  29.347  33.965  1.00  0.00    -0.206 F 
ATOM     90  C   UNL A   1      46.999  26.730  36.383  1.00  0.00     0.022 A 
BRANCH  87  91
ATOM     91  S   UNL A   1      45.416  24.776  37.594  1.00  0.00     0.124 S 
ATOM     92  O   UNL A   1      44.167  25.241  38.188  1.00  0.00    -0.237 OA
ATOM     93  O   UNL A   1      45.319  23.586  36.754  1.00  0.00    -0.237 OA
ATOM     94  O   UNL A   1      46.577  24.817  38.480  1.00  0.00    -0.744 OA
ENDBRANCH  87  91
ENDBRANCH  61  84
ENDBRANCH  35  36
ENDBRANCH  27  30
ENDBRANCH  25  26
ENDBRANCH  24  25
ENDBRANCH  23  24
ENDBRANCH   1  23
TORSDOF 19
ENDMDL
