MODEL 1
REMARK VINA RESULT:     -10.9      0.000      0.000
REMARK SMILES O=C(CCNC(=O)c1cc(S(=O)(=O)N2CCCCC2)cs1)NCCCCNC(=O)c1ccc(-c2c3nc(c(-c4cc(S(=O)(=O)[O-])ccc4F)c4ccc([nH]4)c(-c4cc(S(=O)(=O)[O-])ccc4F)c4nc(c(-c5cc(S(=O)(=O)[O-])ccc5F)c5ccc2[nH]5)C=C4)C=C3)cc1
REMARK SMILES IDX 23 1 22 2 1 3 2 4 3 6 4 7 5 8 6 9 7 11 8 12 9 13 21 14 10 15
REMARK SMILES IDX 20 16 11 17 12 18 13 19 14 20 15 21 19 22 16 23 18 24 17 25
REMARK SMILES IDX 24 26 25 27 26 28 27 29 28 30 29 32 30 33 31 34 92 35 32 36
REMARK SMILES IDX 91 37 33 38 34 39 35 40 85 41 36 42 90 43 84 44 86 45 37 46
REMARK SMILES IDX 89 47 83 48 82 49 38 51 70 52 50 53 69 54 51 55 54 56 68 57
REMARK SMILES IDX 87 58 52 59 53 60 67 62 88 63 55 64 39 65 40 66 48 67 41 68
REMARK SMILES IDX 47 69 49 70 46 71 42 72 43 73 44 74 45 75 71 76 72 77 80 78
REMARK SMILES IDX 73 79 79 80 81 81 78 82 74 83 75 84 76 85 77 86 56 87 57 88
REMARK SMILES IDX 65 89 58 90 64 91 66 92 63 93 59 94 60 95 61 96 62 97
REMARK H PARENT 22 5 5 10 27 31 86 50 54 61
REMARK Flexibility Score: inf
ROOT
ATOM      1  C   UNL A   1      34.765  29.596  27.447  1.00  0.00     0.116 C 
ENDROOT
BRANCH   1   2
ATOM      2  N   UNL A   1      33.510  28.902  27.648  1.00  0.00    -0.356 N 
ATOM      3  O   UNL A   1      32.663  29.280  25.540  1.00  0.00    -0.275 OA
ATOM      4  C   UNL A   1      32.557  28.796  26.662  1.00  0.00     0.221 C 
ATOM      5  H   UNL A   1      33.331  28.493  28.524  1.00  0.00     0.163 HD
BRANCH   4   6
ATOM      6  C   UNL A   1      31.370  27.958  27.059  1.00  0.00     0.121 C 
BRANCH   6   7
ATOM      7  C   UNL A   1      31.282  26.734  26.157  1.00  0.00     0.126 C 
BRANCH   7   8
ATOM      8  N   UNL A   1      30.659  27.041  24.874  1.00  0.00    -0.351 N 
ATOM      9  C   UNL A   1      31.041  26.661  23.604  1.00  0.00     0.261 C 
ATOM     10  H   UNL A   1      29.850  27.601  24.921  1.00  0.00     0.163 HD
ATOM     11  O   UNL A   1      30.607  27.327  22.668  1.00  0.00    -0.268 OA
BRANCH   9  12
ATOM     12  C   UNL A   1      31.895  25.498  23.466  1.00  0.00     0.093 A 
ATOM     13  C   UNL A   1      32.149  24.519  24.406  1.00  0.00     0.047 A 
ATOM     14  S   UNL A   1      32.698  25.165  21.996  1.00  0.00    -0.137 S 
ATOM     15  C   UNL A   1      33.146  23.595  23.985  1.00  0.00     0.094 A 
ATOM     16  C   UNL A   1      33.509  23.810  22.672  1.00  0.00     0.087 A 
BRANCH  15  17
ATOM     17  S   UNL A   1      33.863  22.365  24.988  1.00  0.00     0.243 S 
ATOM     18  O   UNL A   1      33.378  22.675  26.314  1.00  0.00    -0.207 OA
ATOM     19  O   UNL A   1      33.508  21.142  24.302  1.00  0.00    -0.207 OA
BRANCH  17  20
ATOM     20  N   UNL A   1      35.575  22.499  24.978  1.00  0.00    -0.198 NA
ATOM     21  C   UNL A   1      36.115  23.605  25.807  1.00  0.00     0.102 C 
ATOM     22  C   UNL A   1      36.301  21.202  24.993  1.00  0.00     0.102 C 
ATOM     23  C   UNL A   1      37.630  23.716  25.728  1.00  0.00     0.017 C 
ATOM     24  C   UNL A   1      37.811  21.382  24.931  1.00  0.00     0.017 C 
ATOM     25  C   UNL A   1      38.296  22.372  25.978  1.00  0.00     0.003 C 
ENDBRANCH  17  20
ENDBRANCH  15  17
ENDBRANCH   9  12
ENDBRANCH   7   8
ENDBRANCH   6   7
ENDBRANCH   4   6
ENDBRANCH   1   2
BRANCH   1  26
ATOM     26  C   UNL A   1      34.763  30.981  28.087  1.00  0.00     0.023 C 
BRANCH  26  27
ATOM     27  C   UNL A   1      34.130  32.091  27.241  1.00  0.00     0.023 C 
BRANCH  27  28
ATOM     28  C   UNL A   1      32.710  32.492  27.632  1.00  0.00     0.116 C 
BRANCH  28  29
ATOM     29  N   UNL A   1      32.575  33.922  27.844  1.00  0.00    -0.352 N 
ATOM     30  C   UNL A   1      33.270  34.749  28.695  1.00  0.00     0.251 C 
ATOM     31  H   UNL A   1      31.884  34.365  27.298  1.00  0.00     0.163 HD
ATOM     32  O   UNL A   1      32.889  35.906  28.852  1.00  0.00    -0.269 OA
BRANCH  30  33
ATOM     33  C   UNL A   1      34.448  34.245  29.439  1.00  0.00     0.039 A 
ATOM     34  C   UNL A   1      34.240  33.507  30.608  1.00  0.00     0.014 A 
ATOM     35  C   UNL A   1      35.750  34.506  29.003  1.00  0.00     0.014 A 
ATOM     36  C   UNL A   1      35.330  32.975  31.302  1.00  0.00     0.010 A 
ATOM     37  C   UNL A   1      36.834  33.924  29.662  1.00  0.00     0.010 A 
ATOM     38  C   UNL A   1      36.636  33.150  30.815  1.00  0.00    -0.014 A 
BRANCH  38  39
ATOM     39  C   UNL A   1      37.804  32.527  31.495  1.00  0.00     0.031 A 
ATOM     40  C   UNL A   1      38.530  31.376  30.852  1.00  0.00     0.074 A 
ATOM     41  C   UNL A   1      38.167  32.953  32.721  1.00  0.00     0.049 A 
ATOM     42  N   UNL A   1      39.507  30.645  31.324  1.00  0.00    -0.248 NA
ATOM     43  C   UNL A   1      38.074  30.979  29.512  1.00  0.00     0.031 C 
ATOM     44  C   UNL A   1      37.523  34.037  33.465  1.00  0.00     0.029 A 
ATOM     45  N   UNL A   1      39.159  32.517  33.564  1.00  0.00    -0.354 N 
ATOM     46  C   UNL A   1      39.772  29.689  30.349  1.00  0.00     0.074 A 
ATOM     47  C   UNL A   1      38.819  29.908  29.280  1.00  0.00     0.031 C 
ATOM     48  C   UNL A   1      38.143  34.190  34.646  1.00  0.00     0.029 A 
ATOM     49  C   UNL A   1      39.201  33.191  34.764  1.00  0.00     0.049 A 
ATOM     50  H   UNL A   1      39.781  31.790  33.334  1.00  0.00     0.167 HD
ATOM     51  C   UNL A   1      40.731  28.730  30.338  1.00  0.00     0.034 A 
ATOM     52  C   UNL A   1      39.991  33.015  35.842  1.00  0.00     0.034 A 
ATOM     53  C   UNL A   1      41.686  28.533  31.402  1.00  0.00     0.049 A 
ATOM     54  C   UNL A   1      41.038  31.931  35.813  1.00  0.00     0.074 A 
ATOM     55  C   UNL A   1      42.740  27.636  31.462  1.00  0.00     0.029 A 
ATOM     56  N   UNL A   1      41.701  29.238  32.599  1.00  0.00    -0.354 N 
ATOM     57  N   UNL A   1      41.309  31.068  34.862  1.00  0.00    -0.248 NA
ATOM     58  C   UNL A   1      41.892  31.806  37.002  1.00  0.00     0.031 C 
ATOM     59  C   UNL A   1      43.352  27.756  32.715  1.00  0.00     0.029 A 
ATOM     60  C   UNL A   1      42.725  28.776  33.413  1.00  0.00     0.049 A 
ATOM     61  H   UNL A   1      41.076  29.961  32.836  1.00  0.00     0.167 HD
ATOM     62  C   UNL A   1      42.385  30.318  35.327  1.00  0.00     0.074 A 
ATOM     63  C   UNL A   1      42.719  30.838  36.637  1.00  0.00     0.031 C 
ATOM     64  C   UNL A   1      43.041  29.295  34.723  1.00  0.00     0.034 A 
BRANCH  51  65
ATOM     65  C   UNL A   1      40.771  27.801  29.148  1.00  0.00     0.023 A 
ATOM     66  C   UNL A   1      41.701  27.972  28.107  1.00  0.00     0.031 A 
ATOM     67  C   UNL A   1      39.849  26.745  29.039  1.00  0.00     0.131 A 
ATOM     68  C   UNL A   1      41.640  27.151  26.971  1.00  0.00     0.055 A 
ATOM     69  C   UNL A   1      39.845  25.881  27.941  1.00  0.00     0.041 A 
ATOM     70  F   UNL A   1      38.925  26.543  29.991  1.00  0.00    -0.206 F 
ATOM     71  C   UNL A   1      40.733  26.092  26.891  1.00  0.00     0.022 A 
BRANCH  68  72
ATOM     72  S   UNL A   1      42.669  27.576  25.538  1.00  0.00     0.124 S 
ATOM     73  O   UNL A   1      43.923  27.965  26.181  1.00  0.00    -0.237 OA
ATOM     74  O   UNL A   1      42.695  26.328  24.787  1.00  0.00    -0.237 OA
ATOM     75  O   UNL A   1      41.938  28.672  24.906  1.00  0.00    -0.744 OA
ENDBRANCH  68  72
ENDBRANCH  51  65
BRANCH  52  76
ATOM     76  C   UNL A   1      39.821  33.871  37.049  1.00  0.00     0.023 A 
ATOM     77  C   UNL A   1      39.150  33.392  38.184  1.00  0.00     0.031 A 
ATOM     78  C   UNL A   1      40.290  35.196  37.068  1.00  0.00     0.131 A 
ATOM     79  C   UNL A   1      38.925  34.245  39.276  1.00  0.00     0.055 A 
ATOM     80  C   UNL A   1      40.106  36.026  38.175  1.00  0.00     0.041 A 
ATOM     81  F   UNL A   1      40.945  35.701  36.010  1.00  0.00    -0.206 F 
ATOM     82  C   UNL A   1      39.409  35.555  39.283  1.00  0.00     0.022 A 
BRANCH  79  83
ATOM     83  S   UNL A   1      37.923  33.637  40.660  1.00  0.00     0.124 S 
ATOM     84  O   UNL A   1      38.832  32.685  41.290  1.00  0.00    -0.237 OA
ATOM     85  O   UNL A   1      37.661  34.863  41.405  1.00  0.00    -0.237 OA
ATOM     86  O   UNL A   1      36.757  33.048  40.002  1.00  0.00    -0.744 OA
ENDBRANCH  79  83
ENDBRANCH  52  76
BRANCH  64  87
ATOM     87  C   UNL A   1      44.220  28.710  35.460  1.00  0.00     0.023 A 
ATOM     88  C   UNL A   1      44.071  27.647  36.368  1.00  0.00     0.031 A 
ATOM     89  C   UNL A   1      45.507  29.240  35.264  1.00  0.00     0.131 A 
ATOM     90  C   UNL A   1      45.184  27.181  37.084  1.00  0.00     0.055 A 
ATOM     91  C   UNL A   1      46.620  28.737  35.940  1.00  0.00     0.041 A 
ATOM     92  F   UNL A   1      45.704  30.257  34.411  1.00  0.00    -0.206 F 
ATOM     93  C   UNL A   1      46.459  27.709  36.865  1.00  0.00     0.022 A 
BRANCH  90  94
ATOM     94  S   UNL A   1      44.932  25.927  38.371  1.00  0.00     0.124 S 
ATOM     95  O   UNL A   1      44.242  24.872  37.635  1.00  0.00    -0.237 OA
ATOM     96  O   UNL A   1      46.298  25.626  38.787  1.00  0.00    -0.237 OA
ATOM     97  O   UNL A   1      44.120  26.618  39.370  1.00  0.00    -0.744 OA
ENDBRANCH  90  94
ENDBRANCH  64  87
ENDBRANCH  38  39
ENDBRANCH  30  33
ENDBRANCH  28  29
ENDBRANCH  27  28
ENDBRANCH  26  27
ENDBRANCH   1  26
TORSDOF 19
ENDMDL
MODEL 2
REMARK VINA RESULT:     -10.7      1.585      7.797
REMARK SMILES O=C(CCNC(=O)c1cc(S(=O)(=O)N2CCCCC2)cs1)NCCCCNC(=O)c1ccc(-c2c3nc(c(-c4cc(S(=O)(=O)[O-])ccc4F)c4ccc([nH]4)c(-c4cc(S(=O)(=O)[O-])ccc4F)c4nc(c(-c5cc(S(=O)(=O)[O-])ccc5F)c5ccc2[nH]5)C=C4)C=C3)cc1
REMARK SMILES IDX 23 1 22 2 1 3 2 4 3 6 4 7 5 8 6 9 7 11 8 12 9 13 21 14 10 15
REMARK SMILES IDX 20 16 11 17 12 18 13 19 14 20 15 21 19 22 16 23 18 24 17 25
REMARK SMILES IDX 24 26 25 27 26 28 27 29 28 30 29 32 30 33 31 34 92 35 32 36
REMARK SMILES IDX 91 37 33 38 34 39 35 40 85 41 36 42 90 43 84 44 86 45 37 46
REMARK SMILES IDX 89 47 83 48 82 49 38 51 70 52 50 53 69 54 51 55 54 56 68 57
REMARK SMILES IDX 87 58 52 59 53 60 67 62 88 63 55 64 39 65 40 66 48 67 41 68
REMARK SMILES IDX 47 69 49 70 46 71 42 72 43 73 44 74 45 75 71 76 72 77 80 78
REMARK SMILES IDX 73 79 79 80 81 81 78 82 74 83 75 84 76 85 77 86 56 87 57 88
REMARK SMILES IDX 65 89 58 90 64 91 66 92 63 93 59 94 60 95 61 96 62 97
REMARK H PARENT 22 5 5 10 27 31 86 50 54 61
REMARK Flexibility Score: inf
ROOT
ATOM      1  C   UNL A   1      35.471  31.046  28.187  1.00  0.00     0.116 C 
ENDROOT
BRANCH   1   2
ATOM      2  N   UNL A   1      34.179  30.391  28.199  1.00  0.00    -0.356 N 
ATOM      3  O   UNL A   1      34.363  29.414  26.123  1.00  0.00    -0.275 OA
ATOM      4  C   UNL A   1      33.733  29.615  27.156  1.00  0.00     0.221 C 
ATOM      5  H   UNL A   1      33.598  30.508  28.985  1.00  0.00     0.163 HD
BRANCH   4   6
ATOM      6  C   UNL A   1      32.402  28.961  27.417  1.00  0.00     0.121 C 
BRANCH   6   7
ATOM      7  C   UNL A   1      32.107  27.944  26.323  1.00  0.00     0.126 C 
BRANCH   7   8
ATOM      8  N   UNL A   1      31.701  28.582  25.075  1.00  0.00    -0.351 N 
ATOM      9  C   UNL A   1      31.622  28.049  23.805  1.00  0.00     0.261 C 
ATOM     10  H   UNL A   1      31.447  29.531  25.150  1.00  0.00     0.163 HD
ATOM     11  O   UNL A   1      31.625  28.841  22.866  1.00  0.00    -0.268 OA
BRANCH   9  12
ATOM     12  C   UNL A   1      31.515  26.610  23.674  1.00  0.00     0.093 A 
ATOM     13  C   UNL A   1      32.532  25.703  23.446  1.00  0.00     0.047 A 
ATOM     14  S   UNL A   1      30.012  25.819  23.852  1.00  0.00    -0.137 S 
ATOM     15  C   UNL A   1      32.054  24.380  23.234  1.00  0.00     0.094 A 
ATOM     16  C   UNL A   1      30.696  24.293  23.461  1.00  0.00     0.087 A 
BRANCH  15  17
ATOM     17  S   UNL A   1      33.027  23.032  22.716  1.00  0.00     0.243 S 
ATOM     18  O   UNL A   1      32.130  21.903  22.810  1.00  0.00    -0.207 OA
ATOM     19  O   UNL A   1      33.564  23.489  21.453  1.00  0.00    -0.207 OA
BRANCH  17  20
ATOM     20  N   UNL A   1      34.342  22.787  23.792  1.00  0.00    -0.198 NA
ATOM     21  C   UNL A   1      34.189  21.627  24.706  1.00  0.00     0.102 C 
ATOM     22  C   UNL A   1      35.684  23.031  23.202  1.00  0.00     0.102 C 
ATOM     23  C   UNL A   1      35.353  21.480  25.673  1.00  0.00     0.017 C 
ATOM     24  C   UNL A   1      36.806  22.849  24.214  1.00  0.00     0.017 C 
ATOM     25  C   UNL A   1      36.686  21.520  24.942  1.00  0.00     0.003 C 
ENDBRANCH  17  20
ENDBRANCH  15  17
ENDBRANCH   9  12
ENDBRANCH   7   8
ENDBRANCH   6   7
ENDBRANCH   4   6
ENDBRANCH   1   2
BRANCH   1  26
ATOM     26  C   UNL A   1      35.362  32.522  27.818  1.00  0.00     0.023 C 
BRANCH  26  27
ATOM     27  C   UNL A   1      34.070  33.213  28.269  1.00  0.00     0.023 C 
BRANCH  27  28
ATOM     28  C   UNL A   1      34.190  34.705  28.571  1.00  0.00     0.116 C 
BRANCH  28  29
ATOM     29  N   UNL A   1      33.386  35.108  29.712  1.00  0.00    -0.352 N 
ATOM     30  C   UNL A   1      33.538  34.795  31.042  1.00  0.00     0.251 C 
ATOM     31  H   UNL A   1      32.620  35.691  29.501  1.00  0.00     0.163 HD
ATOM     32  O   UNL A   1      32.650  35.097  31.835  1.00  0.00    -0.269 OA
BRANCH  30  33
ATOM     33  C   UNL A   1      34.744  34.074  31.513  1.00  0.00     0.039 A 
ATOM     34  C   UNL A   1      34.588  32.819  32.109  1.00  0.00     0.014 A 
ATOM     35  C   UNL A   1      36.020  34.630  31.385  1.00  0.00     0.014 A 
ATOM     36  C   UNL A   1      35.712  32.095  32.516  1.00  0.00     0.010 A 
ATOM     37  C   UNL A   1      37.144  33.881  31.735  1.00  0.00     0.010 A 
ATOM     38  C   UNL A   1      37.003  32.605  32.300  1.00  0.00    -0.014 A 
BRANCH  38  39
ATOM     39  C   UNL A   1      38.214  31.816  32.653  1.00  0.00     0.031 A 
ATOM     40  C   UNL A   1      38.974  32.118  33.917  1.00  0.00     0.074 A 
ATOM     41  C   UNL A   1      38.669  30.876  31.802  1.00  0.00     0.049 A 
ATOM     42  N   UNL A   1      40.097  31.606  34.351  1.00  0.00    -0.248 NA
ATOM     43  C   UNL A   1      38.405  33.153  34.793  1.00  0.00     0.031 C 
ATOM     44  C   UNL A   1      38.042  30.514  30.529  1.00  0.00     0.029 A 
ATOM     45  N   UNL A   1      39.772  30.061  31.870  1.00  0.00    -0.354 N 
ATOM     46  C   UNL A   1      40.382  32.268  35.540  1.00  0.00     0.074 A 
ATOM     47  C   UNL A   1      39.335  33.251  35.732  1.00  0.00     0.031 C 
ATOM     48  C   UNL A   1      38.761  29.542  29.945  1.00  0.00     0.029 A 
ATOM     49  C   UNL A   1      39.922  29.239  30.777  1.00  0.00     0.049 A 
ATOM     50  H   UNL A   1      40.398  30.065  32.630  1.00  0.00     0.167 HD
ATOM     51  C   UNL A   1      41.412  32.065  36.401  1.00  0.00     0.034 A 
ATOM     52  C   UNL A   1      40.891  28.355  30.470  1.00  0.00     0.034 A 
ATOM     53  C   UNL A   1      42.440  31.070  36.207  1.00  0.00     0.049 A 
ATOM     54  C   UNL A   1      42.034  28.157  31.433  1.00  0.00     0.074 A 
ATOM     55  C   UNL A   1      43.487  30.735  37.048  1.00  0.00     0.029 A 
ATOM     56  N   UNL A   1      42.555  30.253  35.089  1.00  0.00    -0.354 N 
ATOM     57  N   UNL A   1      42.262  28.757  32.579  1.00  0.00    -0.248 NA
ATOM     58  C   UNL A   1      43.044  27.157  31.065  1.00  0.00     0.031 C 
ATOM     59  C   UNL A   1      44.269  29.763  36.415  1.00  0.00     0.029 A 
ATOM     60  C   UNL A   1      43.672  29.438  35.207  1.00  0.00     0.049 A 
ATOM     61  H   UNL A   1      41.936  30.251  34.324  1.00  0.00     0.167 HD
ATOM     62  C   UNL A   1      43.426  28.183  33.081  1.00  0.00     0.074 A 
ATOM     63  C   UNL A   1      43.845  27.183  32.119  1.00  0.00     0.031 C 
ATOM     64  C   UNL A   1      44.086  28.453  34.236  1.00  0.00     0.034 A 
BRANCH  51  65
ATOM     65  C   UNL A   1      41.489  32.960  37.614  1.00  0.00     0.023 A 
ATOM     66  C   UNL A   1      40.816  32.646  38.809  1.00  0.00     0.031 A 
ATOM     67  C   UNL A   1      42.225  34.157  37.569  1.00  0.00     0.131 A 
ATOM     68  C   UNL A   1      40.830  33.553  39.880  1.00  0.00     0.055 A 
ATOM     69  C   UNL A   1      42.300  35.018  38.667  1.00  0.00     0.041 A 
ATOM     70  F   UNL A   1      42.873  34.520  36.451  1.00  0.00    -0.206 F 
ATOM     71  C   UNL A   1      41.587  34.725  39.825  1.00  0.00     0.022 A 
BRANCH  68  72
ATOM     72  S   UNL A   1      39.732  33.244  41.290  1.00  0.00     0.124 S 
ATOM     73  O   UNL A   1      39.702  31.784  41.326  1.00  0.00    -0.237 OA
ATOM     74  O   UNL A   1      40.436  33.897  42.386  1.00  0.00    -0.237 OA
ATOM     75  O   UNL A   1      38.476  33.875  40.890  1.00  0.00    -0.744 OA
ENDBRANCH  68  72
ENDBRANCH  51  65
BRANCH  52  76
ATOM     76  C   UNL A   1      40.840  27.592  29.192  1.00  0.00     0.023 A 
ATOM     77  C   UNL A   1      41.718  27.890  28.139  1.00  0.00     0.031 A 
ATOM     78  C   UNL A   1      39.883  26.583  28.989  1.00  0.00     0.131 A 
ATOM     79  C   UNL A   1      41.594  27.218  26.913  1.00  0.00     0.055 A 
ATOM     80  C   UNL A   1      39.794  25.883  27.784  1.00  0.00     0.041 A 
ATOM     81  F   UNL A   1      39.024  26.254  29.968  1.00  0.00    -0.206 F 
ATOM     82  C   UNL A   1      40.645  26.209  26.733  1.00  0.00     0.022 A 
BRANCH  79  83
ATOM     83  S   UNL A   1      42.645  27.737  25.529  1.00  0.00     0.124 S 
ATOM     84  O   UNL A   1      43.913  28.002  26.201  1.00  0.00    -0.237 OA
ATOM     85  O   UNL A   1      42.609  26.562  24.665  1.00  0.00    -0.237 OA
ATOM     86  O   UNL A   1      41.957  28.915  25.003  1.00  0.00    -0.744 OA
ENDBRANCH  79  83
ENDBRANCH  52  76
BRANCH  64  87
ATOM     87  C   UNL A   1      45.303  27.615  34.539  1.00  0.00     0.023 A 
ATOM     88  C   UNL A   1      45.227  26.466  35.346  1.00  0.00     0.031 A 
ATOM     89  C   UNL A   1      46.559  27.984  34.027  1.00  0.00     0.131 A 
ATOM     90  C   UNL A   1      46.396  25.757  35.661  1.00  0.00     0.055 A 
ATOM     91  C   UNL A   1      47.710  27.243  34.300  1.00  0.00     0.041 A 
ATOM     92  F   UNL A   1      46.688  29.073  33.253  1.00  0.00    -0.206 F 
ATOM     93  C   UNL A   1      47.634  26.129  35.130  1.00  0.00     0.022 A 
BRANCH  90  94
ATOM     94  S   UNL A   1      46.292  24.382  36.841  1.00  0.00     0.124 S 
ATOM     95  O   UNL A   1      46.427  23.221  35.967  1.00  0.00    -0.237 OA
ATOM     96  O   UNL A   1      47.421  24.647  37.729  1.00  0.00    -0.237 OA
ATOM     97  O   UNL A   1      44.975  24.551  37.450  1.00  0.00    -0.744 OA
ENDBRANCH  90  94
ENDBRANCH  64  87
ENDBRANCH  38  39
ENDBRANCH  30  33
ENDBRANCH  28  29
ENDBRANCH  27  28
ENDBRANCH  26  27
ENDBRANCH   1  26
TORSDOF 19
ENDMDL
MODEL 3
REMARK VINA RESULT:     -10.7      2.005      2.538
REMARK SMILES O=C(CCNC(=O)c1cc(S(=O)(=O)N2CCCCC2)cs1)NCCCCNC(=O)c1ccc(-c2c3nc(c(-c4cc(S(=O)(=O)[O-])ccc4F)c4ccc([nH]4)c(-c4cc(S(=O)(=O)[O-])ccc4F)c4nc(c(-c5cc(S(=O)(=O)[O-])ccc5F)c5ccc2[nH]5)C=C4)C=C3)cc1
REMARK SMILES IDX 23 1 22 2 1 3 2 4 3 6 4 7 5 8 6 9 7 11 8 12 9 13 21 14 10 15
REMARK SMILES IDX 20 16 11 17 12 18 13 19 14 20 15 21 19 22 16 23 18 24 17 25
REMARK SMILES IDX 24 26 25 27 26 28 27 29 28 30 29 32 30 33 31 34 92 35 32 36
REMARK SMILES IDX 91 37 33 38 34 39 35 40 85 41 36 42 90 43 84 44 86 45 37 46
REMARK SMILES IDX 89 47 83 48 82 49 38 51 70 52 50 53 69 54 51 55 54 56 68 57
REMARK SMILES IDX 87 58 52 59 53 60 67 62 88 63 55 64 39 65 40 66 48 67 41 68
REMARK SMILES IDX 47 69 49 70 46 71 42 72 43 73 44 74 45 75 71 76 72 77 80 78
REMARK SMILES IDX 73 79 79 80 81 81 78 82 74 83 75 84 76 85 77 86 56 87 57 88
REMARK SMILES IDX 65 89 58 90 64 91 66 92 63 93 59 94 60 95 61 96 62 97
REMARK H PARENT 22 5 5 10 27 31 86 50 54 61
REMARK Flexibility Score: inf
ROOT
ATOM      1  C   UNL A   1      34.426  28.406  26.455  1.00  0.00     0.116 C 
ENDROOT
BRANCH   1   2
ATOM      2  N   UNL A   1      33.851  28.727  25.165  1.00  0.00    -0.356 N 
ATOM      3  O   UNL A   1      32.094  27.243  25.288  1.00  0.00    -0.275 OA
ATOM      4  C   UNL A   1      32.716  28.115  24.689  1.00  0.00     0.221 C 
ATOM      5  H   UNL A   1      34.291  29.408  24.607  1.00  0.00     0.163 HD
BRANCH   4   6
ATOM      6  C   UNL A   1      32.245  28.664  23.367  1.00  0.00     0.121 C 
BRANCH   6   7
ATOM      7  C   UNL A   1      31.207  27.726  22.764  1.00  0.00     0.126 C 
BRANCH   7   8
ATOM      8  N   UNL A   1      31.723  27.008  21.604  1.00  0.00    -0.351 N 
ATOM      9  C   UNL A   1      32.388  25.801  21.548  1.00  0.00     0.261 C 
ATOM     10  H   UNL A   1      31.577  27.450  20.735  1.00  0.00     0.163 HD
ATOM     11  O   UNL A   1      33.050  25.574  20.538  1.00  0.00    -0.268 OA
BRANCH   9  12
ATOM     12  C   UNL A   1      32.236  24.885  22.660  1.00  0.00     0.093 A 
ATOM     13  C   UNL A   1      33.233  24.292  23.410  1.00  0.00     0.047 A 
ATOM     14  S   UNL A   1      30.688  24.451  23.239  1.00  0.00    -0.137 S 
ATOM     15  C   UNL A   1      32.731  23.338  24.339  1.00  0.00     0.094 A 
ATOM     16  C   UNL A   1      31.352  23.348  24.375  1.00  0.00     0.087 A 
BRANCH  15  17
ATOM     17  S   UNL A   1      33.706  22.256  25.292  1.00  0.00     0.243 S 
ATOM     18  O   UNL A   1      35.062  22.653  24.986  1.00  0.00    -0.207 OA
ATOM     19  O   UNL A   1      33.142  22.395  26.617  1.00  0.00    -0.207 OA
BRANCH  17  20
ATOM     20  N   UNL A   1      33.477  20.631  24.788  1.00  0.00    -0.198 NA
ATOM     21  C   UNL A   1      33.203  19.673  25.888  1.00  0.00     0.102 C 
ATOM     22  C   UNL A   1      32.710  20.474  23.524  1.00  0.00     0.102 C 
ATOM     23  C   UNL A   1      33.056  18.240  25.399  1.00  0.00     0.017 C 
ATOM     24  C   UNL A   1      32.582  19.017  23.101  1.00  0.00     0.017 C 
ATOM     25  C   UNL A   1      32.075  18.149  24.241  1.00  0.00     0.003 C 
ENDBRANCH  17  20
ENDBRANCH  15  17
ENDBRANCH   9  12
ENDBRANCH   7   8
ENDBRANCH   6   7
ENDBRANCH   4   6
ENDBRANCH   1   2
BRANCH   1  26
ATOM     26  C   UNL A   1      34.192  29.514  27.477  1.00  0.00     0.023 C 
BRANCH  26  27
ATOM     27  C   UNL A   1      33.801  30.874  26.888  1.00  0.00     0.023 C 
BRANCH  27  28
ATOM     28  C   UNL A   1      32.418  31.390  27.278  1.00  0.00     0.116 C 
BRANCH  28  29
ATOM     29  N   UNL A   1      32.355  32.841  27.310  1.00  0.00    -0.352 N 
ATOM     30  C   UNL A   1      33.144  33.735  27.996  1.00  0.00     0.251 C 
ATOM     31  H   UNL A   1      31.643  33.243  26.761  1.00  0.00     0.163 HD
ATOM     32  O   UNL A   1      32.821  34.919  28.027  1.00  0.00    -0.269 OA
BRANCH  30  33
ATOM     33  C   UNL A   1      34.354  33.273  28.716  1.00  0.00     0.039 A 
ATOM     34  C   UNL A   1      34.200  32.658  29.963  1.00  0.00     0.014 A 
ATOM     35  C   UNL A   1      35.632  33.455  28.182  1.00  0.00     0.014 A 
ATOM     36  C   UNL A   1      35.320  32.167  30.641  1.00  0.00     0.010 A 
ATOM     37  C   UNL A   1      36.741  32.911  28.831  1.00  0.00     0.010 A 
ATOM     38  C   UNL A   1      36.597  32.258  30.064  1.00  0.00    -0.014 A 
BRANCH  38  39
ATOM     39  C   UNL A   1      37.791  31.672  30.732  1.00  0.00     0.031 A 
ATOM     40  C   UNL A   1      38.616  30.628  30.031  1.00  0.00     0.074 A 
ATOM     41  C   UNL A   1      38.089  32.030  31.996  1.00  0.00     0.049 A 
ATOM     42  N   UNL A   1      39.633  29.937  30.478  1.00  0.00    -0.248 NA
ATOM     43  C   UNL A   1      38.226  30.301  28.651  1.00  0.00     0.031 C 
ATOM     44  C   UNL A   1      37.346  33.006  32.797  1.00  0.00     0.029 A 
ATOM     45  N   UNL A   1      39.088  31.605  32.837  1.00  0.00    -0.354 N 
ATOM     46  C   UNL A   1      39.993  29.079  29.445  1.00  0.00     0.074 A 
ATOM     47  C   UNL A   1      39.055  29.307  28.366  1.00  0.00     0.031 C 
ATOM     48  C   UNL A   1      37.923  33.115  34.005  1.00  0.00     0.029 A 
ATOM     49  C   UNL A   1      39.049  32.189  34.083  1.00  0.00     0.049 A 
ATOM     50  H   UNL A   1      39.769  30.945  32.574  1.00  0.00     0.167 HD
ATOM     51  C   UNL A   1      41.022  28.194  29.394  1.00  0.00     0.034 A 
ATOM     52  C   UNL A   1      39.822  31.990  35.169  1.00  0.00     0.034 A 
ATOM     53  C   UNL A   1      41.961  27.988  30.470  1.00  0.00     0.049 A 
ATOM     54  C   UNL A   1      40.947  30.991  35.095  1.00  0.00     0.074 A 
ATOM     55  C   UNL A   1      43.077  27.168  30.497  1.00  0.00     0.029 A 
ATOM     56  N   UNL A   1      41.892  28.601  31.715  1.00  0.00    -0.354 N 
ATOM     57  N   UNL A   1      41.306  30.223  34.092  1.00  0.00    -0.248 NA
ATOM     58  C   UNL A   1      41.778  30.839  36.297  1.00  0.00     0.031 C 
ATOM     59  C   UNL A   1      43.645  27.239  31.774  1.00  0.00     0.029 A 
ATOM     60  C   UNL A   1      42.927  28.155  32.525  1.00  0.00     0.049 A 
ATOM     61  H   UNL A   1      41.209  29.257  31.984  1.00  0.00     0.167 HD
ATOM     62  C   UNL A   1      42.423  29.520  34.534  1.00  0.00     0.074 A 
ATOM     63  C   UNL A   1      42.684  29.963  35.889  1.00  0.00     0.031 C 
ATOM     64  C   UNL A   1      43.170  28.596  33.878  1.00  0.00     0.034 A 
BRANCH  51  65
ATOM     65  C   UNL A   1      41.161  27.363  28.141  1.00  0.00     0.023 A 
ATOM     66  C   UNL A   1      40.811  26.001  28.116  1.00  0.00     0.031 A 
ATOM     67  C   UNL A   1      41.675  27.932  26.963  1.00  0.00     0.131 A 
ATOM     68  C   UNL A   1      41.049  25.238  26.962  1.00  0.00     0.055 A 
ATOM     69  C   UNL A   1      41.836  27.185  25.794  1.00  0.00     0.041 A 
ATOM     70  F   UNL A   1      42.045  29.222  26.931  1.00  0.00    -0.206 F 
ATOM     71  C   UNL A   1      41.538  25.826  25.794  1.00  0.00     0.022 A 
BRANCH  68  72
ATOM     72  S   UNL A   1      40.845  23.438  27.057  1.00  0.00     0.124 S 
ATOM     73  O   UNL A   1      41.525  23.130  28.313  1.00  0.00    -0.237 OA
ATOM     74  O   UNL A   1      39.396  23.285  27.061  1.00  0.00    -0.237 OA
ATOM     75  O   UNL A   1      41.522  22.952  25.857  1.00  0.00    -0.744 OA
ENDBRANCH  68  72
ENDBRANCH  51  65
BRANCH  52  76
ATOM     76  C   UNL A   1      39.558  32.739  36.430  1.00  0.00     0.023 A 
ATOM     77  C   UNL A   1      38.631  32.263  37.370  1.00  0.00     0.031 A 
ATOM     78  C   UNL A   1      40.196  33.964  36.691  1.00  0.00     0.131 A 
ATOM     79  C   UNL A   1      38.334  33.029  38.508  1.00  0.00     0.055 A 
ATOM     80  C   UNL A   1      39.932  34.699  37.848  1.00  0.00     0.041 A 
ATOM     81  F   UNL A   1      41.095  34.460  35.826  1.00  0.00    -0.206 F 
ATOM     82  C   UNL A   1      38.987  34.238  38.758  1.00  0.00     0.022 A 
BRANCH  79  83
ATOM     83  S   UNL A   1      37.023  32.455  39.622  1.00  0.00     0.124 S 
ATOM     84  O   UNL A   1      35.829  32.664  38.810  1.00  0.00    -0.237 OA
ATOM     85  O   UNL A   1      37.408  31.067  39.852  1.00  0.00    -0.237 OA
ATOM     86  O   UNL A   1      37.153  33.335  40.782  1.00  0.00    -0.744 OA
ENDBRANCH  79  83
ENDBRANCH  52  76
BRANCH  64  87
ATOM     87  C   UNL A   1      44.369  28.045  34.607  1.00  0.00     0.023 A 
ATOM     88  C   UNL A   1      44.295  26.863  35.365  1.00  0.00     0.031 A 
ATOM     89  C   UNL A   1      45.598  28.725  34.557  1.00  0.00     0.131 A 
ATOM     90  C   UNL A   1      45.418  26.425  36.085  1.00  0.00     0.055 A 
ATOM     91  C   UNL A   1      46.726  28.255  35.232  1.00  0.00     0.041 A 
ATOM     92  F   UNL A   1      45.723  29.859  33.850  1.00  0.00    -0.206 F 
ATOM     93  C   UNL A   1      46.636  27.105  36.010  1.00  0.00     0.022 A 
BRANCH  90  94
ATOM     94  S   UNL A   1      45.244  24.995  37.188  1.00  0.00     0.124 S 
ATOM     95  O   UNL A   1      44.500  24.056  36.354  1.00  0.00    -0.237 OA
ATOM     96  O   UNL A   1      46.634  24.642  37.463  1.00  0.00    -0.237 OA
ATOM     97  O   UNL A   1      44.505  25.529  38.330  1.00  0.00    -0.744 OA
ENDBRANCH  90  94
ENDBRANCH  64  87
ENDBRANCH  38  39
ENDBRANCH  30  33
ENDBRANCH  28  29
ENDBRANCH  27  28
ENDBRANCH  26  27
ENDBRANCH   1  26
TORSDOF 19
ENDMDL
