MODEL 1
REMARK VINA RESULT:     -10.9      0.000      0.000
REMARK SMILES CCc1ccc(C(=O)N2CSC[C@H]2C(=O)NCCCCNC(=O)c2ccc(-c3c4nc(c(-c5cc(S(=O)(=O)[O-])ccc5F)c5ccc([nH]5)c(-c5cc(S(=O)(=O)[O-])ccc5F)c5nc(c(-c6cc(S(=O)(=O)[O-])ccc6F)c6ccc3[nH]6)C=C5)C=C4)cc2)o1
REMARK SMILES IDX 18 1 17 2 16 3 14 4 15 5 13 7 9 8 10 9 11 10 12 11 7 12 8 13
REMARK SMILES IDX 6 14 3 15 4 16 87 17 5 18 2 19 1 20 19 21 20 22 21 23 22 24
REMARK SMILES IDX 23 26 24 27 25 28 86 29 26 30 85 31 27 32 28 33 29 34 79 35
REMARK SMILES IDX 30 36 84 37 78 38 80 39 31 40 83 41 77 42 76 43 32 45 64 46
REMARK SMILES IDX 44 47 63 48 45 49 48 50 62 51 81 52 46 53 47 54 61 56 82 57
REMARK SMILES IDX 49 58 33 59 34 60 42 61 35 62 41 63 43 64 40 65 36 66 37 67
REMARK SMILES IDX 38 68 39 69 65 70 66 71 74 72 67 73 73 74 75 75 72 76 68 77
REMARK SMILES IDX 69 78 70 79 71 80 50 81 51 82 59 83 52 84 58 85 60 86 57 87
REMARK SMILES IDX 53 88 54 89 55 90 56 91
REMARK H PARENT 16 6 21 25 80 44 48 55
REMARK Flexibility Score: inf
ROOT
ATOM      1  C   UNL A   1      37.511  21.330  24.632  1.00  0.00     0.023 C 
ENDROOT
BRANCH   1   2
ATOM      2  C   UNL A   1      35.987  21.345  24.667  1.00  0.00     0.116 C 
BRANCH   2   3
ATOM      3  N   UNL A   1      35.471  21.215  26.010  1.00  0.00    -0.354 N 
ATOM      4  C   UNL A   1      34.320  21.684  26.565  1.00  0.00     0.243 C 
ATOM      5  O   UNL A   1      34.015  21.226  27.672  1.00  0.00    -0.273 OA
ATOM      6  H   UNL A   1      36.047  20.705  26.625  1.00  0.00     0.163 HD
BRANCH   4   7
ATOM      7  C   UNL A   1      33.323  22.581  25.802  1.00  0.00     0.185 C 
ATOM      8  N   UNL A   1      32.164  21.957  25.152  1.00  0.00    -0.314 N 
ATOM      9  C   UNL A   1      30.878  22.290  25.710  1.00  0.00     0.191 C 
ATOM     10  S   UNL A   1      31.065  23.925  26.436  1.00  0.00    -0.138 SA
ATOM     11  C   UNL A   1      32.861  23.753  26.674  1.00  0.00     0.106 C 
BRANCH   8  12
ATOM     12  C   UNL A   1      32.374  21.356  23.914  1.00  0.00     0.290 C 
ATOM     13  O   UNL A   1      32.428  22.059  22.901  1.00  0.00    -0.265 OA
BRANCH  12  14
ATOM     14  C   UNL A   1      32.369  19.900  23.850  1.00  0.00     0.191 A 
ATOM     15  C   UNL A   1      32.555  17.867  24.697  1.00  0.00     0.104 A 
ATOM     16  C   UNL A   1      32.524  17.711  23.330  1.00  0.00     0.046 A 
ATOM     17  O   UNL A   1      32.452  19.188  25.019  1.00  0.00    -0.456 OA
ATOM     18  C   UNL A   1      32.434  19.011  22.787  1.00  0.00     0.056 A 
BRANCH  15  19
ATOM     19  C   UNL A   1      32.738  16.922  25.830  1.00  0.00     0.072 C 
ATOM     20  C   UNL A   1      32.678  15.466  25.393  1.00  0.00     0.012 C 
ENDBRANCH  15  19
ENDBRANCH  12  14
ENDBRANCH   8  12
ENDBRANCH   4   7
ENDBRANCH   2   3
ENDBRANCH   1   2
BRANCH   1  21
ATOM     21  C   UNL A   1      38.125  19.944  24.829  1.00  0.00     0.023 C 
BRANCH  21  22
ATOM     22  C   UNL A   1      38.907  19.759  26.127  1.00  0.00     0.116 C 
BRANCH  22  23
ATOM     23  N   UNL A   1      40.112  18.957  25.970  1.00  0.00    -0.352 N 
ATOM     24  C   UNL A   1      41.421  19.370  26.051  1.00  0.00     0.251 C 
ATOM     25  H   UNL A   1      39.971  18.000  25.781  1.00  0.00     0.163 HD
ATOM     26  O   UNL A   1      42.332  18.595  25.778  1.00  0.00    -0.269 OA
BRANCH  24  27
ATOM     27  C   UNL A   1      41.703  20.770  26.429  1.00  0.00     0.039 A 
ATOM     28  C   UNL A   1      42.211  21.039  27.701  1.00  0.00     0.014 A 
ATOM     29  C   UNL A   1      41.529  21.800  25.502  1.00  0.00     0.014 A 
ATOM     30  C   UNL A   1      42.613  22.338  28.019  1.00  0.00     0.010 A 
ATOM     31  C   UNL A   1      42.000  23.074  25.794  1.00  0.00     0.010 A 
ATOM     32  C   UNL A   1      42.548  23.357  27.055  1.00  0.00    -0.014 A 
BRANCH  32  33
ATOM     33  C   UNL A   1      43.037  24.731  27.344  1.00  0.00     0.031 A 
ATOM     34  C   UNL A   1      42.126  25.718  28.021  1.00  0.00     0.074 A 
ATOM     35  C   UNL A   1      44.265  25.107  26.938  1.00  0.00     0.049 A 
ATOM     36  N   UNL A   1      42.321  26.986  28.275  1.00  0.00    -0.248 NA
ATOM     37  C   UNL A   1      40.808  25.218  28.436  1.00  0.00     0.031 C 
ATOM     38  C   UNL A   1      45.225  24.248  26.238  1.00  0.00     0.029 A 
ATOM     39  N   UNL A   1      44.916  26.310  27.043  1.00  0.00    -0.354 N 
ATOM     40  C   UNL A   1      41.146  27.439  28.865  1.00  0.00     0.074 A 
ATOM     41  C   UNL A   1      40.223  26.325  28.867  1.00  0.00     0.031 C 
ATOM     42  C   UNL A   1      46.347  24.946  26.001  1.00  0.00     0.029 A 
ATOM     43  C   UNL A   1      46.174  26.311  26.485  1.00  0.00     0.049 A 
ATOM     44  H   UNL A   1      44.520  27.099  27.479  1.00  0.00     0.167 HD
ATOM     45  C   UNL A   1      40.871  28.663  29.382  1.00  0.00     0.034 A 
ATOM     46  C   UNL A   1      47.078  27.304  26.363  1.00  0.00     0.034 A 
ATOM     47  C   UNL A   1      41.809  29.759  29.381  1.00  0.00     0.049 A 
ATOM     48  C   UNL A   1      46.740  28.666  26.918  1.00  0.00     0.074 A 
ATOM     49  C   UNL A   1      41.657  31.025  29.917  1.00  0.00     0.029 A 
ATOM     50  N   UNL A   1      43.076  29.722  28.809  1.00  0.00    -0.354 N 
ATOM     51  N   UNL A   1      45.641  29.067  27.516  1.00  0.00    -0.248 NA
ATOM     52  C   UNL A   1      47.769  29.707  26.793  1.00  0.00     0.031 C 
ATOM     53  C   UNL A   1      42.799  31.773  29.611  1.00  0.00     0.029 A 
ATOM     54  C   UNL A   1      43.701  30.951  28.956  1.00  0.00     0.049 A 
ATOM     55  H   UNL A   1      43.471  28.938  28.364  1.00  0.00     0.167 HD
ATOM     56  C   UNL A   1      45.864  30.395  27.869  1.00  0.00     0.074 A 
ATOM     57  C   UNL A   1      47.204  30.722  27.428  1.00  0.00     0.031 C 
ATOM     58  C   UNL A   1      45.038  31.264  28.507  1.00  0.00     0.034 A 
BRANCH  45  59
ATOM     59  C   UNL A   1      39.495  28.876  29.964  1.00  0.00     0.023 A 
ATOM     60  C   UNL A   1      38.456  29.454  29.211  1.00  0.00     0.031 A 
ATOM     61  C   UNL A   1      39.222  28.533  31.300  1.00  0.00     0.131 A 
ATOM     62  C   UNL A   1      37.228  29.750  29.820  1.00  0.00     0.055 A 
ATOM     63  C   UNL A   1      37.967  28.747  31.874  1.00  0.00     0.041 A 
ATOM     64  F   UNL A   1      40.177  27.998  32.077  1.00  0.00    -0.206 F 
ATOM     65  C   UNL A   1      36.966  29.374  31.139  1.00  0.00     0.022 A 
BRANCH  62  66
ATOM     66  S   UNL A   1      36.036  30.770  28.911  1.00  0.00     0.124 S 
ATOM     67  O   UNL A   1      35.246  29.754  28.220  1.00  0.00    -0.237 OA
ATOM     68  O   UNL A   1      35.354  31.490  29.981  1.00  0.00    -0.237 OA
ATOM     69  O   UNL A   1      36.877  31.591  28.044  1.00  0.00    -0.744 OA
ENDBRANCH  62  66
ENDBRANCH  45  59
BRANCH  46  70
ATOM     70  C   UNL A   1      48.385  27.062  25.687  1.00  0.00     0.023 A 
ATOM     71  C   UNL A   1      49.487  26.563  26.401  1.00  0.00     0.031 A 
ATOM     72  C   UNL A   1      48.567  27.368  24.326  1.00  0.00     0.131 A 
ATOM     73  C   UNL A   1      50.732  26.433  25.766  1.00  0.00     0.055 A 
ATOM     74  C   UNL A   1      49.793  27.185  23.685  1.00  0.00     0.041 A 
ATOM     75  F   UNL A   1      47.546  27.844  23.595  1.00  0.00    -0.206 F 
ATOM     76  C   UNL A   1      50.890  26.728  24.410  1.00  0.00     0.022 A 
BRANCH  73  77
ATOM     77  S   UNL A   1      52.170  25.957  26.765  1.00  0.00     0.124 S 
ATOM     78  O   UNL A   1      53.100  27.045  26.482  1.00  0.00    -0.237 OA
ATOM     79  O   UNL A   1      51.607  25.928  28.111  1.00  0.00    -0.237 OA
ATOM     80  O   UNL A   1      52.547  24.655  26.220  1.00  0.00    -0.744 OA
ENDBRANCH  73  77
ENDBRANCH  46  70
BRANCH  58  81
ATOM     81  C   UNL A   1      45.588  32.635  28.816  1.00  0.00     0.023 A 
ATOM     82  C   UNL A   1      45.390  33.729  27.956  1.00  0.00     0.031 A 
ATOM     83  C   UNL A   1      46.327  32.846  29.994  1.00  0.00     0.131 A 
ATOM     84  C   UNL A   1      45.969  34.970  28.259  1.00  0.00     0.055 A 
ATOM     85  C   UNL A   1      46.849  34.098  30.321  1.00  0.00     0.041 A 
ATOM     86  F   UNL A   1      46.551  31.836  30.851  1.00  0.00    -0.206 F 
ATOM     87  C   UNL A   1      46.682  35.166  29.446  1.00  0.00     0.022 A 
BRANCH  84  88
ATOM     88  S   UNL A   1      45.854  36.308  27.040  1.00  0.00     0.124 S 
ATOM     89  O   UNL A   1      44.411  36.451  26.881  1.00  0.00    -0.237 OA
ATOM     90  O   UNL A   1      46.534  37.407  27.716  1.00  0.00    -0.237 OA
ATOM     91  O   UNL A   1      46.555  35.771  25.874  1.00  0.00    -0.744 OA
ENDBRANCH  84  88
ENDBRANCH  58  81
ENDBRANCH  32  33
ENDBRANCH  24  27
ENDBRANCH  22  23
ENDBRANCH  21  22
ENDBRANCH   1  21
TORSDOF 17
ENDMDL
MODEL 2
REMARK VINA RESULT:     -10.9      6.403     11.684
REMARK SMILES CCc1ccc(C(=O)N2CSC[C@H]2C(=O)NCCCCNC(=O)c2ccc(-c3c4nc(c(-c5cc(S(=O)(=O)[O-])ccc5F)c5ccc([nH]5)c(-c5cc(S(=O)(=O)[O-])ccc5F)c5nc(c(-c6cc(S(=O)(=O)[O-])ccc6F)c6ccc3[nH]6)C=C5)C=C4)cc2)o1
REMARK SMILES IDX 18 1 17 2 16 3 14 4 15 5 13 7 9 8 10 9 11 10 12 11 7 12 8 13
REMARK SMILES IDX 6 14 3 15 4 16 87 17 5 18 2 19 1 20 19 21 20 22 21 23 22 24
REMARK SMILES IDX 23 26 24 27 25 28 86 29 26 30 85 31 27 32 28 33 29 34 79 35
REMARK SMILES IDX 30 36 84 37 78 38 80 39 31 40 83 41 77 42 76 43 32 45 64 46
REMARK SMILES IDX 44 47 63 48 45 49 48 50 62 51 81 52 46 53 47 54 61 56 82 57
REMARK SMILES IDX 49 58 33 59 34 60 42 61 35 62 41 63 43 64 40 65 36 66 37 67
REMARK SMILES IDX 38 68 39 69 65 70 66 71 74 72 67 73 73 74 75 75 72 76 68 77
REMARK SMILES IDX 69 78 70 79 71 80 50 81 51 82 59 83 52 84 58 85 60 86 57 87
REMARK SMILES IDX 53 88 54 89 55 90 56 91
REMARK H PARENT 16 6 21 25 80 44 48 55
REMARK Flexibility Score: inf
ROOT
ATOM      1  C   UNL A   1      31.701  30.055  26.502  1.00  0.00     0.023 C 
ENDROOT
BRANCH   1   2
ATOM      2  C   UNL A   1      33.187  29.724  26.578  1.00  0.00     0.116 C 
BRANCH   2   3
ATOM      3  N   UNL A   1      33.741  29.401  25.285  1.00  0.00    -0.354 N 
ATOM      4  C   UNL A   1      33.669  28.257  24.551  1.00  0.00     0.243 C 
ATOM      5  O   UNL A   1      34.035  28.332  23.372  1.00  0.00    -0.273 OA
ATOM      6  H   UNL A   1      34.256  30.127  24.864  1.00  0.00     0.163 HD
BRANCH   4   7
ATOM      7  C   UNL A   1      32.989  26.970  25.064  1.00  0.00     0.185 C 
ATOM      8  N   UNL A   1      31.926  26.361  24.254  1.00  0.00    -0.314 N 
ATOM      9  C   UNL A   1      32.233  25.073  23.684  1.00  0.00     0.191 C 
ATOM     10  S   UNL A   1      33.430  24.317  24.794  1.00  0.00    -0.138 SA
ATOM     11  C   UNL A   1      34.029  25.910  25.439  1.00  0.00     0.106 C 
BRANCH   8  12
ATOM     12  C   UNL A   1      30.654  26.918  24.346  1.00  0.00     0.290 C 
ATOM     13  O   UNL A   1      29.775  26.321  24.973  1.00  0.00    -0.265 OA
BRANCH  12  14
ATOM     14  C   UNL A   1      30.373  28.116  23.566  1.00  0.00     0.191 A 
ATOM     15  C   UNL A   1      29.319  30.011  23.132  1.00  0.00     0.104 A 
ATOM     16  C   UNL A   1      30.047  29.709  22.003  1.00  0.00     0.046 A 
ATOM     17  O   UNL A   1      29.520  29.056  24.084  1.00  0.00    -0.456 OA
ATOM     18  C   UNL A   1      30.698  28.485  22.269  1.00  0.00     0.056 A 
BRANCH  15  19
ATOM     19  C   UNL A   1      28.353  31.089  23.468  1.00  0.00     0.072 C 
ATOM     20  C   UNL A   1      28.438  32.269  22.511  1.00  0.00     0.012 C 
ENDBRANCH  15  19
ENDBRANCH  12  14
ENDBRANCH   8  12
ENDBRANCH   4   7
ENDBRANCH   2   3
ENDBRANCH   1   2
BRANCH   1  21
ATOM     21  C   UNL A   1      31.396  31.553  26.509  1.00  0.00     0.023 C 
BRANCH  21  22
ATOM     22  C   UNL A   1      32.618  32.465  26.574  1.00  0.00     0.116 C 
BRANCH  22  23
ATOM     23  N   UNL A   1      32.366  33.727  27.254  1.00  0.00    -0.352 N 
ATOM     24  C   UNL A   1      33.052  34.268  28.317  1.00  0.00     0.251 C 
ATOM     25  H   UNL A   1      31.610  34.258  26.912  1.00  0.00     0.163 HD
ATOM     26  O   UNL A   1      32.644  35.290  28.859  1.00  0.00    -0.269 OA
BRANCH  24  27
ATOM     27  C   UNL A   1      34.256  33.573  28.815  1.00  0.00     0.039 A 
ATOM     28  C   UNL A   1      35.494  34.212  28.724  1.00  0.00     0.014 A 
ATOM     29  C   UNL A   1      34.145  32.324  29.430  1.00  0.00     0.014 A 
ATOM     30  C   UNL A   1      36.614  33.626  29.319  1.00  0.00     0.010 A 
ATOM     31  C   UNL A   1      35.244  31.780  30.084  1.00  0.00     0.010 A 
ATOM     32  C   UNL A   1      36.490  32.426  30.037  1.00  0.00    -0.014 A 
BRANCH  32  33
ATOM     33  C   UNL A   1      37.651  31.819  30.739  1.00  0.00     0.031 A 
ATOM     34  C   UNL A   1      38.492  30.788  30.036  1.00  0.00     0.074 A 
ATOM     35  C   UNL A   1      37.904  32.142  32.023  1.00  0.00     0.049 A 
ATOM     36  N   UNL A   1      39.481  30.070  30.499  1.00  0.00    -0.248 NA
ATOM     37  C   UNL A   1      38.147  30.506  28.635  1.00  0.00     0.031 C 
ATOM     38  C   UNL A   1      37.135  33.100  32.822  1.00  0.00     0.029 A 
ATOM     39  N   UNL A   1      38.870  31.693  32.888  1.00  0.00    -0.354 N 
ATOM     40  C   UNL A   1      39.868  29.241  29.452  1.00  0.00     0.074 A 
ATOM     41  C   UNL A   1      38.961  29.499  28.356  1.00  0.00     0.031 C 
ATOM     42  C   UNL A   1      37.676  33.184  34.048  1.00  0.00     0.029 A 
ATOM     43  C   UNL A   1      38.796  32.254  34.142  1.00  0.00     0.049 A 
ATOM     44  H   UNL A   1      39.554  31.031  32.633  1.00  0.00     0.167 HD
ATOM     45  C   UNL A   1      40.903  28.364  29.401  1.00  0.00     0.034 A 
ATOM     46  C   UNL A   1      39.537  32.031  35.246  1.00  0.00     0.034 A 
ATOM     47  C   UNL A   1      41.805  28.129  30.501  1.00  0.00     0.049 A 
ATOM     48  C   UNL A   1      40.663  31.029  35.176  1.00  0.00     0.074 A 
ATOM     49  C   UNL A   1      42.913  27.300  30.546  1.00  0.00     0.029 A 
ATOM     50  N   UNL A   1      41.701  28.717  31.756  1.00  0.00    -0.354 N 
ATOM     51  N   UNL A   1      41.047  30.285  34.164  1.00  0.00    -0.248 NA
ATOM     52  C   UNL A   1      41.465  30.846  36.394  1.00  0.00     0.031 C 
ATOM     53  C   UNL A   1      43.437  27.336  31.844  1.00  0.00     0.029 A 
ATOM     54  C   UNL A   1      42.707  28.249  32.588  1.00  0.00     0.049 A 
ATOM     55  H   UNL A   1      41.013  29.372  32.017  1.00  0.00     0.167 HD
ATOM     56  C   UNL A   1      42.156  29.575  34.614  1.00  0.00     0.074 A 
ATOM     57  C   UNL A   1      42.385  29.987  35.983  1.00  0.00     0.031 C 
ATOM     58  C   UNL A   1      42.921  28.667  33.953  1.00  0.00     0.034 A 
BRANCH  45  59
ATOM     59  C   UNL A   1      41.088  27.585  28.121  1.00  0.00     0.023 A 
ATOM     60  C   UNL A   1      40.733  26.226  28.026  1.00  0.00     0.031 A 
ATOM     61  C   UNL A   1      41.659  28.193  26.989  1.00  0.00     0.131 A 
ATOM     62  C   UNL A   1      41.031  25.503  26.862  1.00  0.00     0.055 A 
ATOM     63  C   UNL A   1      41.870  27.489  25.802  1.00  0.00     0.041 A 
ATOM     64  F   UNL A   1      42.039  29.480  27.024  1.00  0.00    -0.206 F 
ATOM     65  C   UNL A   1      41.572  26.132  25.739  1.00  0.00     0.022 A 
BRANCH  62  66
ATOM     66  S   UNL A   1      40.846  23.699  26.894  1.00  0.00     0.124 S 
ATOM     67  O   UNL A   1      39.423  23.544  26.605  1.00  0.00    -0.237 OA
ATOM     68  O   UNL A   1      41.762  23.268  25.844  1.00  0.00    -0.237 OA
ATOM     69  O   UNL A   1      41.241  23.338  28.254  1.00  0.00    -0.744 OA
ENDBRANCH  62  66
ENDBRANCH  45  59
BRANCH  46  70
ATOM     70  C   UNL A   1      39.244  32.758  36.515  1.00  0.00     0.023 A 
ATOM     71  C   UNL A   1      38.357  32.225  37.465  1.00  0.00     0.031 A 
ATOM     72  C   UNL A   1      39.811  34.018  36.779  1.00  0.00     0.131 A 
ATOM     73  C   UNL A   1      38.023  32.970  38.607  1.00  0.00     0.055 A 
ATOM     74  C   UNL A   1      39.518  34.730  37.943  1.00  0.00     0.041 A 
ATOM     75  F   UNL A   1      40.668  34.572  35.907  1.00  0.00    -0.206 F 
ATOM     76  C   UNL A   1      38.608  34.213  38.859  1.00  0.00     0.022 A 
BRANCH  73  77
ATOM     77  S   UNL A   1      36.740  32.327  39.718  1.00  0.00     0.124 S 
ATOM     78  O   UNL A   1      35.522  32.663  38.987  1.00  0.00    -0.237 OA
ATOM     79  O   UNL A   1      37.079  30.910  39.784  1.00  0.00    -0.237 OA
ATOM     80  O   UNL A   1      36.954  33.077  40.954  1.00  0.00    -0.744 OA
ENDBRANCH  73  77
ENDBRANCH  46  70
BRANCH  58  81
ATOM     81  C   UNL A   1      44.113  28.106  34.690  1.00  0.00     0.023 A 
ATOM     82  C   UNL A   1      44.037  26.913  35.431  1.00  0.00     0.031 A 
ATOM     83  C   UNL A   1      45.346  28.782  34.650  1.00  0.00     0.131 A 
ATOM     84  C   UNL A   1      45.157  26.461  36.144  1.00  0.00     0.055 A 
ATOM     85  C   UNL A   1      46.473  28.295  35.312  1.00  0.00     0.041 A 
ATOM     86  F   UNL A   1      45.475  29.928  33.961  1.00  0.00    -0.206 F 
ATOM     87  C   UNL A   1      46.381  27.136  36.074  1.00  0.00     0.022 A 
BRANCH  84  88
ATOM     88  S   UNL A   1      44.975  25.027  37.238  1.00  0.00     0.124 S 
ATOM     89  O   UNL A   1      44.338  24.053  36.357  1.00  0.00    -0.237 OA
ATOM     90  O   UNL A   1      46.355  24.742  37.613  1.00  0.00    -0.237 OA
ATOM     91  O   UNL A   1      44.130  25.526  38.322  1.00  0.00    -0.744 OA
ENDBRANCH  84  88
ENDBRANCH  58  81
ENDBRANCH  32  33
ENDBRANCH  24  27
ENDBRANCH  22  23
ENDBRANCH  21  22
ENDBRANCH   1  21
TORSDOF 17
ENDMDL
MODEL 3
REMARK VINA RESULT:     -10.8      5.562     10.719
REMARK SMILES CCc1ccc(C(=O)N2CSC[C@H]2C(=O)NCCCCNC(=O)c2ccc(-c3c4nc(c(-c5cc(S(=O)(=O)[O-])ccc5F)c5ccc([nH]5)c(-c5cc(S(=O)(=O)[O-])ccc5F)c5nc(c(-c6cc(S(=O)(=O)[O-])ccc6F)c6ccc3[nH]6)C=C5)C=C4)cc2)o1
REMARK SMILES IDX 18 1 17 2 16 3 14 4 15 5 13 7 9 8 10 9 11 10 12 11 7 12 8 13
REMARK SMILES IDX 6 14 3 15 4 16 87 17 5 18 2 19 1 20 19 21 20 22 21 23 22 24
REMARK SMILES IDX 23 26 24 27 25 28 86 29 26 30 85 31 27 32 28 33 29 34 79 35
REMARK SMILES IDX 30 36 84 37 78 38 80 39 31 40 83 41 77 42 76 43 32 45 64 46
REMARK SMILES IDX 44 47 63 48 45 49 48 50 62 51 81 52 46 53 47 54 61 56 82 57
REMARK SMILES IDX 49 58 33 59 34 60 42 61 35 62 41 63 43 64 40 65 36 66 37 67
REMARK SMILES IDX 38 68 39 69 65 70 66 71 74 72 67 73 73 74 75 75 72 76 68 77
REMARK SMILES IDX 69 78 70 79 71 80 50 81 51 82 59 83 52 84 58 85 60 86 57 87
REMARK SMILES IDX 53 88 54 89 55 90 56 91
REMARK H PARENT 16 6 21 25 80 44 48 55
REMARK Flexibility Score: inf
ROOT
ATOM      1  C   UNL A   1      31.797  28.122  27.197  1.00  0.00     0.023 C 
ENDROOT
BRANCH   1   2
ATOM      2  C   UNL A   1      32.265  26.829  26.538  1.00  0.00     0.116 C 
BRANCH   2   3
ATOM      3  N   UNL A   1      31.479  25.691  26.954  1.00  0.00    -0.354 N 
ATOM      4  C   UNL A   1      31.596  24.372  26.638  1.00  0.00     0.243 C 
ATOM      5  O   UNL A   1      30.936  23.580  27.320  1.00  0.00    -0.273 OA
ATOM      6  H   UNL A   1      30.737  25.903  27.565  1.00  0.00     0.163 HD
BRANCH   4   7
ATOM      7  C   UNL A   1      32.632  23.838  25.627  1.00  0.00     0.185 C 
ATOM      8  N   UNL A   1      32.979  24.666  24.465  1.00  0.00    -0.314 N 
ATOM      9  C   UNL A   1      34.328  25.172  24.437  1.00  0.00     0.191 C 
ATOM     10  S   UNL A   1      35.318  23.986  25.359  1.00  0.00    -0.138 SA
ATOM     11  C   UNL A   1      33.909  23.381  26.339  1.00  0.00     0.106 C 
BRANCH   8  12
ATOM     12  C   UNL A   1      32.103  24.648  23.383  1.00  0.00     0.290 C 
ATOM     13  O   UNL A   1      32.292  23.846  22.465  1.00  0.00    -0.265 OA
BRANCH  12  14
ATOM     14  C   UNL A   1      31.082  25.685  23.311  1.00  0.00     0.191 A 
ATOM     15  C   UNL A   1      30.344  27.733  22.923  1.00  0.00     0.104 A 
ATOM     16  C   UNL A   1      29.315  27.066  23.547  1.00  0.00     0.046 A 
ATOM     17  O   UNL A   1      31.413  26.900  22.769  1.00  0.00    -0.456 OA
ATOM     18  C   UNL A   1      29.794  25.766  23.820  1.00  0.00     0.056 A 
BRANCH  15  19
ATOM     19  C   UNL A   1      30.528  29.136  22.470  1.00  0.00     0.072 C 
ATOM     20  C   UNL A   1      29.559  30.098  23.141  1.00  0.00     0.012 C 
ENDBRANCH  15  19
ENDBRANCH  12  14
ENDBRANCH   8  12
ENDBRANCH   4   7
ENDBRANCH   2   3
ENDBRANCH   1   2
BRANCH   1  21
ATOM     21  C   UNL A   1      31.475  29.243  26.209  1.00  0.00     0.023 C 
BRANCH  21  22
ATOM     22  C   UNL A   1      32.591  30.262  25.997  1.00  0.00     0.116 C 
BRANCH  22  23
ATOM     23  N   UNL A   1      32.230  31.613  26.402  1.00  0.00    -0.352 N 
ATOM     24  C   UNL A   1      32.907  32.450  27.258  1.00  0.00     0.251 C 
ATOM     25  H   UNL A   1      31.396  31.970  26.016  1.00  0.00     0.163 HD
ATOM     26  O   UNL A   1      32.412  33.521  27.594  1.00  0.00    -0.269 OA
BRANCH  24  27
ATOM     27  C   UNL A   1      34.214  32.016  27.793  1.00  0.00     0.039 A 
ATOM     28  C   UNL A   1      35.236  32.956  27.929  1.00  0.00     0.014 A 
ATOM     29  C   UNL A   1      34.398  30.698  28.219  1.00  0.00     0.014 A 
ATOM     30  C   UNL A   1      36.425  32.588  28.564  1.00  0.00     0.010 A 
ATOM     31  C   UNL A   1      35.550  30.357  28.916  1.00  0.00     0.010 A 
ATOM     32  C   UNL A   1      36.576  31.298  29.097  1.00  0.00    -0.014 A 
BRANCH  32  33
ATOM     33  C   UNL A   1      37.802  30.905  29.840  1.00  0.00     0.031 A 
ATOM     34  C   UNL A   1      38.776  29.943  29.215  1.00  0.00     0.074 A 
ATOM     35  C   UNL A   1      38.001  31.354  31.095  1.00  0.00     0.049 A 
ATOM     36  N   UNL A   1      39.848  29.399  29.728  1.00  0.00    -0.248 NA
ATOM     37  C   UNL A   1      38.481  29.512  27.841  1.00  0.00     0.031 C 
ATOM     38  C   UNL A   1      37.108  32.261  31.820  1.00  0.00     0.029 A 
ATOM     39  N   UNL A   1      39.012  31.103  31.988  1.00  0.00    -0.354 N 
ATOM     40  C   UNL A   1      40.348  28.551  28.746  1.00  0.00     0.074 A 
ATOM     41  C   UNL A   1      39.422  28.603  27.636  1.00  0.00     0.031 C 
ATOM     42  C   UNL A   1      37.625  32.508  33.035  1.00  0.00     0.029 A 
ATOM     43  C   UNL A   1      38.856  31.743  33.197  1.00  0.00     0.049 A 
ATOM     44  H   UNL A   1      39.779  30.521  31.782  1.00  0.00     0.167 HD
ATOM     45  C   UNL A   1      41.489  27.816  28.758  1.00  0.00     0.034 A 
ATOM     46  C   UNL A   1      39.613  31.705  34.312  1.00  0.00     0.034 A 
ATOM     47  C   UNL A   1      42.407  27.786  29.871  1.00  0.00     0.049 A 
ATOM     48  C   UNL A   1      40.861  30.857  34.315  1.00  0.00     0.074 A 
ATOM     49  C   UNL A   1      43.614  27.117  29.975  1.00  0.00     0.029 A 
ATOM     50  N   UNL A   1      42.218  28.449  31.077  1.00  0.00    -0.354 N 
ATOM     51  N   UNL A   1      41.346  30.096  33.360  1.00  0.00    -0.248 NA
ATOM     52  C   UNL A   1      41.671  30.874  35.540  1.00  0.00     0.031 C 
ATOM     53  C   UNL A   1      44.119  27.319  31.264  1.00  0.00     0.029 A 
ATOM     54  C   UNL A   1      43.271  28.182  31.939  1.00  0.00     0.049 A 
ATOM     55  H   UNL A   1      41.448  29.025  31.290  1.00  0.00     0.167 HD
ATOM     56  C   UNL A   1      42.537  29.574  33.860  1.00  0.00     0.074 A 
ATOM     57  C   UNL A   1      42.700  30.116  35.193  1.00  0.00     0.031 C 
ATOM     58  C   UNL A   1      43.418  28.727  33.268  1.00  0.00     0.034 A 
BRANCH  45  59
ATOM     59  C   UNL A   1      41.784  26.974  27.541  1.00  0.00     0.023 A 
ATOM     60  C   UNL A   1      41.462  25.604  27.495  1.00  0.00     0.031 A 
ATOM     61  C   UNL A   1      42.427  27.533  26.422  1.00  0.00     0.131 A 
ATOM     62  C   UNL A   1      41.860  24.826  26.399  1.00  0.00     0.055 A 
ATOM     63  C   UNL A   1      42.740  26.770  25.295  1.00  0.00     0.041 A 
ATOM     64  F   UNL A   1      42.779  28.828  26.413  1.00  0.00    -0.206 F 
ATOM     65  C   UNL A   1      42.471  25.405  25.285  1.00  0.00     0.022 A 
BRANCH  62  66
ATOM     66  S   UNL A   1      41.706  23.023  26.518  1.00  0.00     0.124 S 
ATOM     67  O   UNL A   1      42.378  22.754  27.787  1.00  0.00    -0.237 OA
ATOM     68  O   UNL A   1      40.261  22.827  26.506  1.00  0.00    -0.237 OA
ATOM     69  O   UNL A   1      42.412  22.539  25.334  1.00  0.00    -0.744 OA
ENDBRANCH  62  66
ENDBRANCH  45  59
BRANCH  46  70
ATOM     70  C   UNL A   1      39.218  32.480  35.523  1.00  0.00     0.023 A 
ATOM     71  C   UNL A   1      39.654  33.803  35.708  1.00  0.00     0.031 A 
ATOM     72  C   UNL A   1      38.437  31.897  36.537  1.00  0.00     0.131 A 
ATOM     73  C   UNL A   1      39.350  34.480  36.899  1.00  0.00     0.055 A 
ATOM     74  C   UNL A   1      38.091  32.594  37.695  1.00  0.00     0.041 A 
ATOM     75  F   UNL A   1      37.991  30.637  36.410  1.00  0.00    -0.206 F 
ATOM     76  C   UNL A   1      38.560  33.890  37.888  1.00  0.00     0.022 A 
BRANCH  73  77
ATOM     77  S   UNL A   1      40.079  36.118  37.177  1.00  0.00     0.124 S 
ATOM     78  O   UNL A   1      41.464  35.777  37.483  1.00  0.00    -0.237 OA
ATOM     79  O   UNL A   1      39.848  36.774  35.894  1.00  0.00    -0.237 OA
ATOM     80  O   UNL A   1      39.305  36.650  38.296  1.00  0.00    -0.744 OA
ENDBRANCH  73  77
ENDBRANCH  46  70
BRANCH  58  81
ATOM     81  C   UNL A   1      44.669  28.385  34.042  1.00  0.00     0.023 A 
ATOM     82  C   UNL A   1      44.694  27.358  35.001  1.00  0.00     0.031 A 
ATOM     83  C   UNL A   1      45.855  29.106  33.813  1.00  0.00     0.131 A 
ATOM     84  C   UNL A   1      45.865  27.115  35.734  1.00  0.00     0.055 A 
ATOM     85  C   UNL A   1      47.034  28.819  34.502  1.00  0.00     0.041 A 
ATOM     86  F   UNL A   1      45.888  30.100  32.910  1.00  0.00    -0.206 F 
ATOM     87  C   UNL A   1      47.041  27.827  35.477  1.00  0.00     0.022 A 
BRANCH  84  88
ATOM     88  S   UNL A   1      45.811  25.914  37.092  1.00  0.00     0.124 S 
ATOM     89  O   UNL A   1      45.884  24.644  36.377  1.00  0.00    -0.237 OA
ATOM     90  O   UNL A   1      46.988  26.274  37.875  1.00  0.00    -0.237 OA
ATOM     91  O   UNL A   1      44.529  26.186  37.741  1.00  0.00    -0.744 OA
ENDBRANCH  84  88
ENDBRANCH  58  81
ENDBRANCH  32  33
ENDBRANCH  24  27
ENDBRANCH  22  23
ENDBRANCH  21  22
ENDBRANCH   1  21
TORSDOF 17
ENDMDL
