MODEL 1
REMARK VINA RESULT:     -11.4      0.000      0.000
REMARK SMILES [NH3+][C@@H](C[S@@](=O)c1cccc(F)c1)C(=O)NCCCCNC(=O)c1ccc(-c2c3nc(c(-c4cc(S(=O)(=O)[O-])ccc4F)c4ccc([nH]4)c(-c4cc(S(=O)(=O)[O-])ccc4F)c4nc(c(-c5cc(S(=O)(=O)[O-])ccc5F)c5ccc2[nH]5)C=C4)C=C3)cc1
REMARK SMILES IDX 17 1 16 2 15 3 13 4 14 5 2 7 1 8 3 12 4 13 5 14 6 15 7 16
REMARK SMILES IDX 12 17 8 18 10 19 9 20 11 21 18 22 19 23 20 24 21 25 22 27
REMARK SMILES IDX 23 28 24 29 85 30 25 31 84 32 26 33 27 34 28 35 78 36 29 37
REMARK SMILES IDX 83 38 77 39 79 40 30 41 82 42 76 43 75 44 31 46 63 47 43 48
REMARK SMILES IDX 62 49 44 50 47 51 61 52 80 53 45 54 46 55 60 57 81 58 48 59
REMARK SMILES IDX 32 60 33 61 41 62 34 63 40 64 42 65 39 66 35 67 36 68 37 69
REMARK SMILES IDX 38 70 64 71 65 72 73 73 66 74 72 75 74 76 71 77 67 78 68 79
REMARK SMILES IDX 69 80 70 81 49 82 50 83 58 84 51 85 57 86 59 87 56 88 52 89
REMARK SMILES IDX 53 90 54 91 55 92
REMARK H PARENT 15 6 1 9 1 10 1 11 20 26 79 45 47 56
REMARK Flexibility Score: inf
ROOT
ATOM      1  C   UNL A   1      32.165  27.226  26.614  1.00  0.00     0.023 C 
ENDROOT
BRANCH   1   2
ATOM      2  C   UNL A   1      31.695  26.025  25.813  1.00  0.00     0.116 C 
BRANCH   2   3
ATOM      3  N   UNL A   1      30.623  25.234  26.350  1.00  0.00    -0.351 N 
ATOM      4  C   UNL A   1      30.664  23.920  26.727  1.00  0.00     0.279 C 
ATOM      5  O   UNL A   1      29.682  23.483  27.342  1.00  0.00    -0.268 OA
ATOM      6  H   UNL A   1      29.758  25.691  26.459  1.00  0.00     0.163 HD
BRANCH   4   7
ATOM      7  C   UNL A   1      31.799  22.931  26.313  1.00  0.00     0.283 C 
BRANCH   7   8
ATOM      8  N   UNL A   1      32.462  22.380  27.519  1.00  0.00    -0.347 N 
ATOM      9  H   UNL A   1      33.181  21.715  27.237  1.00  0.00     0.345 HD
ATOM     10  H   UNL A   1      31.770  21.908  28.101  1.00  0.00     0.345 HD
ATOM     11  H   UNL A   1      32.890  23.140  28.049  1.00  0.00     0.345 HD
ENDBRANCH   7   8
BRANCH   7  12
ATOM     12  C   UNL A   1      31.661  21.944  25.141  1.00  0.00     0.185 C 
BRANCH  12  13
ATOM     13  S   UNL A   1      32.822  20.606  24.864  1.00  0.00     0.060 S 
ATOM     14  O   UNL A   1      32.526  20.011  23.519  1.00  0.00    -0.254 OA
BRANCH  13  15
ATOM     15  C   UNL A   1      34.487  21.326  24.696  1.00  0.00     0.042 A 
ATOM     16  C   UNL A   1      34.606  22.488  23.913  1.00  0.00     0.018 A 
ATOM     17  C   UNL A   1      35.667  20.700  25.098  1.00  0.00     0.057 A 
ATOM     18  C   UNL A   1      35.857  22.972  23.506  1.00  0.00     0.004 A 
ATOM     19  C   UNL A   1      36.908  21.170  24.669  1.00  0.00     0.124 A 
ATOM     20  C   UNL A   1      37.015  22.295  23.869  1.00  0.00     0.039 A 
ATOM     21  F   UNL A   1      38.014  20.487  24.998  1.00  0.00    -0.207 F 
ENDBRANCH  13  15
ENDBRANCH  12  13
ENDBRANCH   7  12
ENDBRANCH   4   7
ENDBRANCH   2   3
ENDBRANCH   1   2
BRANCH   1  22
ATOM     22  C   UNL A   1      31.668  28.587  26.152  1.00  0.00     0.023 C 
BRANCH  22  23
ATOM     23  C   UNL A   1      32.726  29.661  25.916  1.00  0.00     0.116 C 
BRANCH  23  24
ATOM     24  N   UNL A   1      32.389  30.978  26.441  1.00  0.00    -0.352 N 
ATOM     25  C   UNL A   1      33.142  31.809  27.247  1.00  0.00     0.251 C 
ATOM     26  H   UNL A   1      31.503  31.323  26.187  1.00  0.00     0.163 HD
ATOM     27  O   UNL A   1      32.681  32.881  27.626  1.00  0.00    -0.269 OA
BRANCH  25  28
ATOM     28  C   UNL A   1      34.481  31.368  27.699  1.00  0.00     0.039 A 
ATOM     29  C   UNL A   1      35.477  32.328  27.894  1.00  0.00     0.014 A 
ATOM     30  C   UNL A   1      34.723  30.030  28.018  1.00  0.00     0.014 A 
ATOM     31  C   UNL A   1      36.672  31.966  28.521  1.00  0.00     0.010 A 
ATOM     32  C   UNL A   1      35.878  29.689  28.718  1.00  0.00     0.010 A 
ATOM     33  C   UNL A   1      36.854  30.658  28.999  1.00  0.00    -0.014 A 
BRANCH  33  34
ATOM     34  C   UNL A   1      38.036  30.287  29.824  1.00  0.00     0.031 A 
ATOM     35  C   UNL A   1      39.062  29.327  29.285  1.00  0.00     0.074 A 
ATOM     36  C   UNL A   1      38.145  30.748  31.087  1.00  0.00     0.049 A 
ATOM     37  N   UNL A   1      40.079  28.777  29.894  1.00  0.00    -0.248 NA
ATOM     38  C   UNL A   1      38.900  28.906  27.885  1.00  0.00     0.031 C 
ATOM     39  C   UNL A   1      37.199  31.652  31.746  1.00  0.00     0.029 A 
ATOM     40  N   UNL A   1      39.099  30.515  32.049  1.00  0.00    -0.354 N 
ATOM     41  C   UNL A   1      40.666  27.929  28.963  1.00  0.00     0.074 A 
ATOM     42  C   UNL A   1      39.861  28.002  27.761  1.00  0.00     0.031 C 
ATOM     43  C   UNL A   1      37.638  31.925  32.986  1.00  0.00     0.029 A 
ATOM     44  C   UNL A   1      38.868  31.178  33.232  1.00  0.00     0.049 A 
ATOM     45  H   UNL A   1      39.876  29.928  31.904  1.00  0.00     0.167 HD
ATOM     46  C   UNL A   1      41.783  27.173  29.089  1.00  0.00     0.034 A 
ATOM     47  C   UNL A   1      39.559  31.181  34.389  1.00  0.00     0.034 A 
ATOM     48  C   UNL A   1      42.603  27.135  30.273  1.00  0.00     0.049 A 
ATOM     49  C   UNL A   1      40.802  30.339  34.503  1.00  0.00     0.074 A 
ATOM     50  C   UNL A   1      43.782  26.441  30.480  1.00  0.00     0.029 A 
ATOM     51  N   UNL A   1      42.335  27.827  31.446  1.00  0.00    -0.354 N 
ATOM     52  N   UNL A   1      41.336  29.538  33.612  1.00  0.00    -0.248 NA
ATOM     53  C   UNL A   1      41.531  30.397  35.778  1.00  0.00     0.031 C 
ATOM     54  C   UNL A   1      44.205  26.678  31.792  1.00  0.00     0.029 A 
ATOM     55  C   UNL A   1      43.320  27.564  32.384  1.00  0.00     0.049 A 
ATOM     56  H   UNL A   1      41.561  28.416  31.590  1.00  0.00     0.167 HD
ATOM     57  C   UNL A   1      42.476  29.012  34.212  1.00  0.00     0.074 A 
ATOM     58  C   UNL A   1      42.554  29.588  35.540  1.00  0.00     0.031 C 
ATOM     59  C   UNL A   1      43.378  28.136  33.706  1.00  0.00     0.034 A 
BRANCH  46  60
ATOM     60  C   UNL A   1      42.181  26.323  27.913  1.00  0.00     0.023 A 
ATOM     61  C   UNL A   1      41.855  24.958  27.853  1.00  0.00     0.031 A 
ATOM     62  C   UNL A   1      42.889  26.885  26.836  1.00  0.00     0.131 A 
ATOM     63  C   UNL A   1      42.283  24.186  26.764  1.00  0.00     0.055 A 
ATOM     64  C   UNL A   1      43.255  26.126  25.723  1.00  0.00     0.041 A 
ATOM     65  F   UNL A   1      43.240  28.180  26.851  1.00  0.00    -0.206 F 
ATOM     66  C   UNL A   1      42.960  24.765  25.687  1.00  0.00     0.022 A 
BRANCH  63  67
ATOM     67  S   UNL A   1      42.015  22.394  26.810  1.00  0.00     0.124 S 
ATOM     68  O   UNL A   1      40.951  22.232  25.822  1.00  0.00    -0.237 OA
ATOM     69  O   UNL A   1      43.322  21.866  26.432  1.00  0.00    -0.237 OA
ATOM     70  O   UNL A   1      41.619  22.144  28.194  1.00  0.00    -0.744 OA
ENDBRANCH  63  67
ENDBRANCH  46  60
BRANCH  47  71
ATOM     71  C   UNL A   1      39.089  32.001  35.539  1.00  0.00     0.023 A 
ATOM     72  C   UNL A   1      38.370  31.415  36.593  1.00  0.00     0.031 A 
ATOM     73  C   UNL A   1      39.353  33.380  35.599  1.00  0.00     0.131 A 
ATOM     74  C   UNL A   1      37.914  32.213  37.653  1.00  0.00     0.055 A 
ATOM     75  C   UNL A   1      38.926  34.163  36.673  1.00  0.00     0.041 A 
ATOM     76  F   UNL A   1      40.047  33.981  34.621  1.00  0.00    -0.206 F 
ATOM     77  C   UNL A   1      38.197  33.581  37.705  1.00  0.00     0.022 A 
BRANCH  74  78
ATOM     78  S   UNL A   1      36.921  31.442  38.960  1.00  0.00     0.124 S 
ATOM     79  O   UNL A   1      37.778  31.621  40.127  1.00  0.00    -0.237 OA
ATOM     80  O   UNL A   1      35.701  32.241  38.930  1.00  0.00    -0.237 OA
ATOM     81  O   UNL A   1      36.769  30.062  38.503  1.00  0.00    -0.744 OA
ENDBRANCH  74  78
ENDBRANCH  47  71
BRANCH  59  82
ATOM     82  C   UNL A   1      44.550  27.770  34.575  1.00  0.00     0.023 A 
ATOM     83  C   UNL A   1      44.513  26.652  35.424  1.00  0.00     0.031 A 
ATOM     84  C   UNL A   1      45.733  28.526  34.516  1.00  0.00     0.131 A 
ATOM     85  C   UNL A   1      45.636  26.332  36.201  1.00  0.00     0.055 A 
ATOM     86  C   UNL A   1      46.861  28.180  35.260  1.00  0.00     0.041 A 
ATOM     87  F   UNL A   1      45.815  29.601  33.716  1.00  0.00    -0.206 F 
ATOM     88  C   UNL A   1      46.814  27.080  36.112  1.00  0.00     0.022 A 
BRANCH  85  89
ATOM     89  S   UNL A   1      45.536  24.931  37.348  1.00  0.00     0.124 S 
ATOM     90  O   UNL A   1      44.611  25.435  38.359  1.00  0.00    -0.237 OA
ATOM     91  O   UNL A   1      45.028  23.860  36.497  1.00  0.00    -0.237 OA
ATOM     92  O   UNL A   1      46.915  24.759  37.799  1.00  0.00    -0.744 OA
ENDBRANCH  85  89
ENDBRANCH  59  82
ENDBRANCH  33  34
ENDBRANCH  25  28
ENDBRANCH  23  24
ENDBRANCH  22  23
ENDBRANCH   1  22
TORSDOF 18
ENDMDL
MODEL 2
REMARK VINA RESULT:     -11.4      1.877      2.838
REMARK SMILES [NH3+][C@@H](C[S@@](=O)c1cccc(F)c1)C(=O)NCCCCNC(=O)c1ccc(-c2c3nc(c(-c4cc(S(=O)(=O)[O-])ccc4F)c4ccc([nH]4)c(-c4cc(S(=O)(=O)[O-])ccc4F)c4nc(c(-c5cc(S(=O)(=O)[O-])ccc5F)c5ccc2[nH]5)C=C4)C=C3)cc1
REMARK SMILES IDX 17 1 16 2 15 3 13 4 14 5 2 7 1 8 3 12 4 13 5 14 6 15 7 16
REMARK SMILES IDX 12 17 8 18 10 19 9 20 11 21 18 22 19 23 20 24 21 25 22 27
REMARK SMILES IDX 23 28 24 29 85 30 25 31 84 32 26 33 27 34 28 35 78 36 29 37
REMARK SMILES IDX 83 38 77 39 79 40 30 41 82 42 76 43 75 44 31 46 63 47 43 48
REMARK SMILES IDX 62 49 44 50 47 51 61 52 80 53 45 54 46 55 60 57 81 58 48 59
REMARK SMILES IDX 32 60 33 61 41 62 34 63 40 64 42 65 39 66 35 67 36 68 37 69
REMARK SMILES IDX 38 70 64 71 65 72 73 73 66 74 72 75 74 76 71 77 67 78 68 79
REMARK SMILES IDX 69 80 70 81 49 82 50 83 58 84 51 85 57 86 59 87 56 88 52 89
REMARK SMILES IDX 53 90 54 91 55 92
REMARK H PARENT 15 6 1 9 1 10 1 11 20 26 79 45 47 56
REMARK Flexibility Score: inf
ROOT
ATOM      1  C   UNL A   1      31.184  27.849  26.697  1.00  0.00     0.023 C 
ENDROOT
BRANCH   1   2
ATOM      2  C   UNL A   1      31.946  26.550  26.507  1.00  0.00     0.116 C 
BRANCH   2   3
ATOM      3  N   UNL A   1      31.293  25.325  26.875  1.00  0.00    -0.351 N 
ATOM      4  C   UNL A   1      31.654  24.051  26.532  1.00  0.00     0.279 C 
ATOM      5  O   UNL A   1      31.068  23.127  27.112  1.00  0.00    -0.268 OA
ATOM      6  H   UNL A   1      30.493  25.412  27.442  1.00  0.00     0.163 HD
BRANCH   4   7
ATOM      7  C   UNL A   1      32.646  23.711  25.376  1.00  0.00     0.283 C 
BRANCH   7   8
ATOM      8  N   UNL A   1      32.641  22.252  25.110  1.00  0.00    -0.347 N 
ATOM      9  H   UNL A   1      32.752  21.746  25.989  1.00  0.00     0.345 HD
ATOM     10  H   UNL A   1      33.410  22.018  24.482  1.00  0.00     0.345 HD
ATOM     11  H   UNL A   1      31.756  21.989  24.676  1.00  0.00     0.345 HD
ENDBRANCH   7   8
BRANCH   7  12
ATOM     12  C   UNL A   1      32.811  24.596  24.129  1.00  0.00     0.185 C 
BRANCH  12  13
ATOM     13  S   UNL A   1      31.555  24.712  22.855  1.00  0.00     0.060 S 
ATOM     14  O   UNL A   1      30.513  23.671  23.139  1.00  0.00    -0.254 OA
BRANCH  13  15
ATOM     15  C   UNL A   1      30.688  26.302  23.057  1.00  0.00     0.042 A 
ATOM     16  C   UNL A   1      29.463  26.280  23.748  1.00  0.00     0.018 A 
ATOM     17  C   UNL A   1      31.033  27.484  22.401  1.00  0.00     0.057 A 
ATOM     18  C   UNL A   1      28.597  27.381  23.737  1.00  0.00     0.004 A 
ATOM     19  C   UNL A   1      30.156  28.568  22.371  1.00  0.00     0.124 A 
ATOM     20  C   UNL A   1      28.937  28.525  23.024  1.00  0.00     0.039 A 
ATOM     21  F   UNL A   1      30.482  29.651  21.652  1.00  0.00    -0.207 F 
ENDBRANCH  13  15
ENDBRANCH  12  13
ENDBRANCH   7  12
ENDBRANCH   4   7
ENDBRANCH   2   3
ENDBRANCH   1   2
BRANCH   1  22
ATOM     22  C   UNL A   1      31.506  28.974  25.725  1.00  0.00     0.023 C 
BRANCH  22  23
ATOM     23  C   UNL A   1      32.739  29.818  26.035  1.00  0.00     0.116 C 
BRANCH  23  24
ATOM     24  N   UNL A   1      32.454  31.164  26.515  1.00  0.00    -0.352 N 
ATOM     25  C   UNL A   1      33.244  31.996  27.284  1.00  0.00     0.251 C 
ATOM     26  H   UNL A   1      31.578  31.531  26.256  1.00  0.00     0.163 HD
ATOM     27  O   UNL A   1      32.824  33.097  27.628  1.00  0.00    -0.269 OA
BRANCH  25  28
ATOM     28  C   UNL A   1      34.570  31.523  27.742  1.00  0.00     0.039 A 
ATOM     29  C   UNL A   1      35.581  32.462  27.961  1.00  0.00     0.014 A 
ATOM     30  C   UNL A   1      34.785  30.176  28.040  1.00  0.00     0.014 A 
ATOM     31  C   UNL A   1      36.763  32.068  28.594  1.00  0.00     0.010 A 
ATOM     32  C   UNL A   1      35.927  29.803  28.746  1.00  0.00     0.010 A 
ATOM     33  C   UNL A   1      36.917  30.749  29.052  1.00  0.00    -0.014 A 
BRANCH  33  34
ATOM     34  C   UNL A   1      38.085  30.343  29.882  1.00  0.00     0.031 A 
ATOM     35  C   UNL A   1      39.097  29.373  29.337  1.00  0.00     0.074 A 
ATOM     36  C   UNL A   1      38.191  30.783  31.153  1.00  0.00     0.049 A 
ATOM     37  N   UNL A   1      40.098  28.795  29.947  1.00  0.00    -0.248 NA
ATOM     38  C   UNL A   1      38.941  28.977  27.929  1.00  0.00     0.031 C 
ATOM     39  C   UNL A   1      37.255  31.694  31.817  1.00  0.00     0.029 A 
ATOM     40  N   UNL A   1      39.131  30.517  32.120  1.00  0.00    -0.354 N 
ATOM     41  C   UNL A   1      40.678  27.951  29.008  1.00  0.00     0.074 A 
ATOM     42  C   UNL A   1      39.886  28.057  27.800  1.00  0.00     0.031 C 
ATOM     43  C   UNL A   1      37.687  31.939  33.065  1.00  0.00     0.029 A 
ATOM     44  C   UNL A   1      38.901  31.167  33.310  1.00  0.00     0.049 A 
ATOM     45  H   UNL A   1      39.898  29.919  31.972  1.00  0.00     0.167 HD
ATOM     46  C   UNL A   1      41.780  27.172  29.132  1.00  0.00     0.034 A 
ATOM     47  C   UNL A   1      39.581  31.138  34.473  1.00  0.00     0.034 A 
ATOM     48  C   UNL A   1      42.587  27.101  30.323  1.00  0.00     0.049 A 
ATOM     49  C   UNL A   1      40.807  30.272  34.586  1.00  0.00     0.074 A 
ATOM     50  C   UNL A   1      43.751  26.381  30.530  1.00  0.00     0.029 A 
ATOM     51  N   UNL A   1      42.322  27.779  31.504  1.00  0.00    -0.354 N 
ATOM     52  N   UNL A   1      41.335  29.475  33.688  1.00  0.00    -0.248 NA
ATOM     53  C   UNL A   1      41.526  30.297  35.868  1.00  0.00     0.031 C 
ATOM     54  C   UNL A   1      44.167  26.590  31.849  1.00  0.00     0.029 A 
ATOM     55  C   UNL A   1      43.293  27.483  32.447  1.00  0.00     0.049 A 
ATOM     56  H   UNL A   1      41.557  28.380  31.651  1.00  0.00     0.167 HD
ATOM     57  C   UNL A   1      42.459  28.918  34.290  1.00  0.00     0.074 A 
ATOM     58  C   UNL A   1      42.535  29.472  35.626  1.00  0.00     0.031 C 
ATOM     59  C   UNL A   1      43.349  28.033  33.778  1.00  0.00     0.034 A 
BRANCH  46  60
ATOM     60  C   UNL A   1      42.173  26.333  27.947  1.00  0.00     0.023 A 
ATOM     61  C   UNL A   1      41.706  25.017  27.794  1.00  0.00     0.031 A 
ATOM     62  C   UNL A   1      43.020  26.857  26.954  1.00  0.00     0.131 A 
ATOM     63  C   UNL A   1      42.131  24.248  26.701  1.00  0.00     0.055 A 
ATOM     64  C   UNL A   1      43.386  26.109  25.834  1.00  0.00     0.041 A 
ATOM     65  F   UNL A   1      43.508  28.102  27.060  1.00  0.00    -0.206 F 
ATOM     66  C   UNL A   1      42.948  24.792  25.707  1.00  0.00     0.022 A 
BRANCH  63  67
ATOM     67  S   UNL A   1      41.666  22.497  26.638  1.00  0.00     0.124 S 
ATOM     68  O   UNL A   1      42.276  22.080  25.378  1.00  0.00    -0.237 OA
ATOM     69  O   UNL A   1      42.276  21.961  27.849  1.00  0.00    -0.237 OA
ATOM     70  O   UNL A   1      40.205  22.531  26.638  1.00  0.00    -0.744 OA
ENDBRANCH  63  67
ENDBRANCH  46  60
BRANCH  47  71
ATOM     71  C   UNL A   1      39.116  31.949  35.632  1.00  0.00     0.023 A 
ATOM     72  C   UNL A   1      38.373  31.362  36.668  1.00  0.00     0.031 A 
ATOM     73  C   UNL A   1      39.407  33.322  35.718  1.00  0.00     0.131 A 
ATOM     74  C   UNL A   1      37.922  32.152  37.736  1.00  0.00     0.055 A 
ATOM     75  C   UNL A   1      38.986  34.095  36.800  1.00  0.00     0.041 A 
ATOM     76  F   UNL A   1      40.125  33.924  34.757  1.00  0.00    -0.206 F 
ATOM     77  C   UNL A   1      38.233  33.512  37.815  1.00  0.00     0.022 A 
BRANCH  74  78
ATOM     78  S   UNL A   1      36.899  31.380  39.020  1.00  0.00     0.124 S 
ATOM     79  O   UNL A   1      37.778  31.454  40.183  1.00  0.00    -0.237 OA
ATOM     80  O   UNL A   1      35.728  32.250  39.044  1.00  0.00    -0.237 OA
ATOM     81  O   UNL A   1      36.661  30.035  38.502  1.00  0.00    -0.744 OA
ENDBRANCH  74  78
ENDBRANCH  47  71
BRANCH  59  82
ATOM     82  C   UNL A   1      44.506  27.633  34.652  1.00  0.00     0.023 A 
ATOM     83  C   UNL A   1      44.452  26.485  35.459  1.00  0.00     0.031 A 
ATOM     84  C   UNL A   1      45.692  28.386  34.638  1.00  0.00     0.131 A 
ATOM     85  C   UNL A   1      45.561  26.133  36.242  1.00  0.00     0.055 A 
ATOM     86  C   UNL A   1      46.807  28.009  35.387  1.00  0.00     0.041 A 
ATOM     87  F   UNL A   1      45.791  29.488  33.878  1.00  0.00    -0.206 F 
ATOM     88  C   UNL A   1      46.743  26.879  36.198  1.00  0.00     0.022 A 
BRANCH  85  89
ATOM     89  S   UNL A   1      45.439  24.693  37.337  1.00  0.00     0.124 S 
ATOM     90  O   UNL A   1      44.795  23.710  36.471  1.00  0.00    -0.237 OA
ATOM     91  O   UNL A   1      46.835  24.429  37.671  1.00  0.00    -0.237 OA
ATOM     92  O   UNL A   1      44.620  25.175  38.447  1.00  0.00    -0.744 OA
ENDBRANCH  85  89
ENDBRANCH  59  82
ENDBRANCH  33  34
ENDBRANCH  25  28
ENDBRANCH  23  24
ENDBRANCH  22  23
ENDBRANCH   1  22
TORSDOF 18
ENDMDL
MODEL 3
REMARK VINA RESULT:     -11.4      5.479     10.542
REMARK SMILES [NH3+][C@@H](C[S@@](=O)c1cccc(F)c1)C(=O)NCCCCNC(=O)c1ccc(-c2c3nc(c(-c4cc(S(=O)(=O)[O-])ccc4F)c4ccc([nH]4)c(-c4cc(S(=O)(=O)[O-])ccc4F)c4nc(c(-c5cc(S(=O)(=O)[O-])ccc5F)c5ccc2[nH]5)C=C4)C=C3)cc1
REMARK SMILES IDX 17 1 16 2 15 3 13 4 14 5 2 7 1 8 3 12 4 13 5 14 6 15 7 16
REMARK SMILES IDX 12 17 8 18 10 19 9 20 11 21 18 22 19 23 20 24 21 25 22 27
REMARK SMILES IDX 23 28 24 29 85 30 25 31 84 32 26 33 27 34 28 35 78 36 29 37
REMARK SMILES IDX 83 38 77 39 79 40 30 41 82 42 76 43 75 44 31 46 63 47 43 48
REMARK SMILES IDX 62 49 44 50 47 51 61 52 80 53 45 54 46 55 60 57 81 58 48 59
REMARK SMILES IDX 32 60 33 61 41 62 34 63 40 64 42 65 39 66 35 67 36 68 37 69
REMARK SMILES IDX 38 70 64 71 65 72 73 73 66 74 72 75 74 76 71 77 67 78 68 79
REMARK SMILES IDX 69 80 70 81 49 82 50 83 58 84 51 85 57 86 59 87 56 88 52 89
REMARK SMILES IDX 53 90 54 91 55 92
REMARK H PARENT 15 6 1 9 1 10 1 11 20 26 79 45 47 56
REMARK Flexibility Score: inf
ROOT
ATOM      1  C   UNL A   1      35.767  23.423  23.569  1.00  0.00     0.023 C 
ENDROOT
BRANCH   1   2
ATOM      2  C   UNL A   1      34.275  23.214  23.757  1.00  0.00     0.116 C 
BRANCH   2   3
ATOM      3  N   UNL A   1      33.646  23.827  24.894  1.00  0.00    -0.351 N 
ATOM      4  C   UNL A   1      32.383  24.346  24.970  1.00  0.00     0.279 C 
ATOM      5  O   UNL A   1      31.971  24.653  26.096  1.00  0.00    -0.268 OA
ATOM      6  H   UNL A   1      34.188  23.879  25.715  1.00  0.00     0.163 HD
BRANCH   4   7
ATOM      7  C   UNL A   1      31.508  24.688  23.723  1.00  0.00     0.283 C 
BRANCH   7   8
ATOM      8  N   UNL A   1      30.078  24.766  24.109  1.00  0.00    -0.347 N 
ATOM      9  H   UNL A   1      29.498  24.478  23.322  1.00  0.00     0.345 HD
ATOM     10  H   UNL A   1      29.849  25.726  24.368  1.00  0.00     0.345 HD
ATOM     11  H   UNL A   1      29.907  24.150  24.903  1.00  0.00     0.345 HD
ENDBRANCH   7   8
BRANCH   7  12
ATOM     12  C   UNL A   1      31.945  25.696  22.647  1.00  0.00     0.185 C 
BRANCH  12  13
ATOM     13  S   UNL A   1      31.662  27.460  22.804  1.00  0.00     0.060 S 
ATOM     14  O   UNL A   1      30.180  27.692  22.772  1.00  0.00    -0.254 OA
BRANCH  13  15
ATOM     15  C   UNL A   1      32.175  27.970  24.475  1.00  0.00     0.042 A 
ATOM     16  C   UNL A   1      33.556  28.021  24.734  1.00  0.00     0.018 A 
ATOM     17  C   UNL A   1      31.313  28.103  25.565  1.00  0.00     0.057 A 
ATOM     18  C   UNL A   1      34.053  28.146  26.038  1.00  0.00     0.004 A 
ATOM     19  C   UNL A   1      31.812  28.201  26.864  1.00  0.00     0.124 A 
ATOM     20  C   UNL A   1      33.174  28.214  27.112  1.00  0.00     0.039 A 
ATOM     21  F   UNL A   1      30.952  28.231  27.892  1.00  0.00    -0.207 F 
ENDBRANCH  13  15
ENDBRANCH  12  13
ENDBRANCH   7  12
ENDBRANCH   4   7
ENDBRANCH   2   3
ENDBRANCH   1   2
BRANCH   1  22
ATOM     22  C   UNL A   1      36.657  22.211  23.803  1.00  0.00     0.023 C 
BRANCH  22  23
ATOM     23  C   UNL A   1      37.023  21.896  25.250  1.00  0.00     0.116 C 
BRANCH  23  24
ATOM     24  N   UNL A   1      38.041  20.865  25.413  1.00  0.00    -0.352 N 
ATOM     25  C   UNL A   1      39.268  20.949  26.042  1.00  0.00     0.251 C 
ATOM     26  H   UNL A   1      37.824  19.989  25.021  1.00  0.00     0.163 HD
ATOM     27  O   UNL A   1      40.020  19.980  26.054  1.00  0.00    -0.269 OA
BRANCH  25  28
ATOM     28  C   UNL A   1      39.692  22.234  26.642  1.00  0.00     0.039 A 
ATOM     29  C   UNL A   1      40.695  22.225  27.615  1.00  0.00     0.014 A 
ATOM     30  C   UNL A   1      39.170  23.445  26.183  1.00  0.00     0.014 A 
ATOM     31  C   UNL A   1      41.259  23.431  28.036  1.00  0.00     0.010 A 
ATOM     32  C   UNL A   1      39.791  24.640  26.542  1.00  0.00     0.010 A 
ATOM     33  C   UNL A   1      40.858  24.644  27.453  1.00  0.00    -0.014 A 
BRANCH  33  34
ATOM     34  C   UNL A   1      41.559  25.923  27.752  1.00  0.00     0.031 A 
ATOM     35  C   UNL A   1      40.869  26.993  28.553  1.00  0.00     0.074 A 
ATOM     36  C   UNL A   1      42.783  26.154  27.234  1.00  0.00     0.049 A 
ATOM     37  N   UNL A   1      41.255  28.218  28.799  1.00  0.00    -0.248 NA
ATOM     38  C   UNL A   1      39.558  26.649  29.122  1.00  0.00     0.031 C 
ATOM     39  C   UNL A   1      43.547  25.216  26.407  1.00  0.00     0.029 A 
ATOM     40  N   UNL A   1      43.603  27.254  27.322  1.00  0.00    -0.354 N 
ATOM     41  C   UNL A   1      40.227  28.799  29.531  1.00  0.00     0.074 A 
ATOM     42  C   UNL A   1      39.180  27.805  29.648  1.00  0.00     0.031 C 
ATOM     43  C   UNL A   1      44.732  25.765  26.095  1.00  0.00     0.029 A 
ATOM     44  C   UNL A   1      44.797  27.111  26.655  1.00  0.00     0.049 A 
ATOM     45  H   UNL A   1      43.357  28.069  27.817  1.00  0.00     0.167 HD
ATOM     46  C   UNL A   1      40.167  30.039  30.074  1.00  0.00     0.034 A 
ATOM     47  C   UNL A   1      45.827  27.967  26.501  1.00  0.00     0.034 A 
ATOM     48  C   UNL A   1      41.228  31.009  29.989  1.00  0.00     0.049 A 
ATOM     49  C   UNL A   1      45.742  29.337  27.120  1.00  0.00     0.074 A 
ATOM     50  C   UNL A   1      41.283  32.274  30.548  1.00  0.00     0.029 A 
ATOM     51  N   UNL A   1      42.423  30.821  29.309  1.00  0.00    -0.354 N 
ATOM     52  N   UNL A   1      44.757  29.870  27.803  1.00  0.00    -0.248 NA
ATOM     53  C   UNL A   1      46.902  30.221  26.943  1.00  0.00     0.031 C 
ATOM     54  C   UNL A   1      42.493  32.867  30.173  1.00  0.00     0.029 A 
ATOM     55  C   UNL A   1      43.216  31.951  29.425  1.00  0.00     0.049 A 
ATOM     56  H   UNL A   1      42.671  30.006  28.817  1.00  0.00     0.167 HD
ATOM     57  C   UNL A   1      45.187  31.145  28.154  1.00  0.00     0.074 A 
ATOM     58  C   UNL A   1      46.521  31.302  27.610  1.00  0.00     0.031 C 
ATOM     59  C   UNL A   1      44.537  32.097  28.868  1.00  0.00     0.034 A 
BRANCH  46  60
ATOM     60  C   UNL A   1      38.907  30.415  30.806  1.00  0.00     0.023 A 
ATOM     61  C   UNL A   1      37.859  31.091  30.160  1.00  0.00     0.031 A 
ATOM     62  C   UNL A   1      38.750  30.088  32.165  1.00  0.00     0.131 A 
ATOM     63  C   UNL A   1      36.720  31.468  30.886  1.00  0.00     0.055 A 
ATOM     64  C   UNL A   1      37.585  30.407  32.865  1.00  0.00     0.041 A 
ATOM     65  F   UNL A   1      39.728  29.457  32.833  1.00  0.00    -0.206 F 
ATOM     66  C   UNL A   1      36.565  31.109  32.227  1.00  0.00     0.022 A 
BRANCH  63  67
ATOM     67  S   UNL A   1      35.476  32.506  30.074  1.00  0.00     0.124 S 
ATOM     68  O   UNL A   1      35.258  31.778  28.826  1.00  0.00    -0.237 OA
ATOM     69  O   UNL A   1      34.372  32.485  31.026  1.00  0.00    -0.237 OA
ATOM     70  O   UNL A   1      36.149  33.795  29.929  1.00  0.00    -0.744 OA
ENDBRANCH  63  67
ENDBRANCH  46  60
BRANCH  47  71
ATOM     71  C   UNL A   1      47.028  27.560  25.721  1.00  0.00     0.023 A 
ATOM     72  C   UNL A   1      47.125  27.848  24.350  1.00  0.00     0.031 A 
ATOM     73  C   UNL A   1      48.092  26.877  26.335  1.00  0.00     0.131 A 
ATOM     74  C   UNL A   1      48.255  27.430  23.630  1.00  0.00     0.055 A 
ATOM     75  C   UNL A   1      49.228  26.495  25.620  1.00  0.00     0.041 A 
ATOM     76  F   UNL A   1      48.048  26.591  27.645  1.00  0.00    -0.206 F 
ATOM     77  C   UNL A   1      49.311  26.766  24.258  1.00  0.00     0.022 A 
BRANCH  74  78
ATOM     78  S   UNL A   1      48.317  27.749  21.845  1.00  0.00     0.124 S 
ATOM     79  O   UNL A   1      48.548  26.411  21.314  1.00  0.00    -0.237 OA
ATOM     80  O   UNL A   1      47.000  28.323  21.591  1.00  0.00    -0.237 OA
ATOM     81  O   UNL A   1      49.435  28.680  21.705  1.00  0.00    -0.744 OA
ENDBRANCH  74  78
ENDBRANCH  47  71
BRANCH  59  82
ATOM     82  C   UNL A   1      45.270  33.383  29.134  1.00  0.00     0.023 A 
ATOM     83  C   UNL A   1      45.259  34.439  28.209  1.00  0.00     0.031 A 
ATOM     84  C   UNL A   1      45.949  33.566  30.351  1.00  0.00     0.131 A 
ATOM     85  C   UNL A   1      45.936  35.630  28.506  1.00  0.00     0.055 A 
ATOM     86  C   UNL A   1      46.587  34.768  30.659  1.00  0.00     0.041 A 
ATOM     87  F   UNL A   1      45.984  32.586  31.267  1.00  0.00    -0.206 F 
ATOM     88  C   UNL A   1      46.587  35.806  29.731  1.00  0.00     0.022 A 
BRANCH  85  89
ATOM     89  S   UNL A   1      45.974  36.949  27.262  1.00  0.00     0.124 S 
ATOM     90  O   UNL A   1      47.041  37.809  27.767  1.00  0.00    -0.237 OA
ATOM     91  O   UNL A   1      46.273  36.219  26.035  1.00  0.00    -0.237 OA
ATOM     92  O   UNL A   1      44.631  37.521  27.328  1.00  0.00    -0.744 OA
ENDBRANCH  85  89
ENDBRANCH  59  82
ENDBRANCH  33  34
ENDBRANCH  25  28
ENDBRANCH  23  24
ENDBRANCH  22  23
ENDBRANCH   1  22
TORSDOF 18
ENDMDL
