MODEL 1
REMARK VINA RESULT:     -11.6      0.000      0.000
REMARK SMILES Nc1c(CC(=O)NCCCCNC(=O)c2ccc(-c3c4nc(c(-c5cc(S(=O)(=O)[O-])ccc5F)c5ccc([nH]5)c(-c5cc(S(=O)(=O)[O-])ccc5F)c5nc(c(-c6cc(S(=O)(=O)[O-])ccc6F)c6ccc3[nH]6)C=C5)C=C4)cc2)cccc1C(=O)c1ccc(Br)cc1
REMARK SMILES IDX 9 1 8 2 7 3 5 4 6 5 4 7 3 8 2 9 81 10 78 11 80 12 79 13 1 14
REMARK SMILES IDX 82 17 83 18 84 19 85 20 90 21 86 22 89 23 87 24 88 25 10 26
REMARK SMILES IDX 11 27 12 28 13 29 14 31 15 32 16 33 77 34 17 35 76 36 18 37
REMARK SMILES IDX 19 38 20 39 70 40 21 41 75 42 69 43 71 44 22 45 74 46 68 47
REMARK SMILES IDX 67 48 23 50 55 51 35 52 54 53 36 54 39 55 53 56 72 57 37 58
REMARK SMILES IDX 38 59 52 61 73 62 40 63 24 64 25 65 33 66 26 67 32 68 34 69
REMARK SMILES IDX 31 70 27 71 28 72 29 73 30 74 56 75 57 76 65 77 58 78 64 79
REMARK SMILES IDX 66 80 63 81 59 82 60 83 61 84 62 85 41 86 42 87 50 88 43 89
REMARK SMILES IDX 49 90 51 91 48 92 44 93 45 94 46 95 47 96
REMARK H PARENT 7 6 1 15 1 16 12 30 71 49 39 60
REMARK Flexibility Score: inf
ROOT
ATOM      1  C   UNL A   1      35.197  21.637  26.245  1.00  0.00     0.023 C 
ENDROOT
BRANCH   1   2
ATOM      2  C   UNL A   1      35.138  20.717  25.026  1.00  0.00     0.116 C 
BRANCH   2   3
ATOM      3  N   UNL A   1      34.110  19.705  25.169  1.00  0.00    -0.356 N 
ATOM      4  C   UNL A   1      32.823  19.719  24.714  1.00  0.00     0.224 C 
ATOM      5  O   UNL A   1      32.085  18.779  25.016  1.00  0.00    -0.275 OA
ATOM      6  H   UNL A   1      34.378  18.895  25.661  1.00  0.00     0.163 HD
BRANCH   4   7
ATOM      7  C   UNL A   1      32.335  20.831  23.797  1.00  0.00     0.137 C 
BRANCH   7   8
ATOM      8  C   UNL A   1      31.857  22.085  24.510  1.00  0.00    -0.015 A 
ATOM      9  C   UNL A   1      31.843  23.366  23.892  1.00  0.00     0.046 A 
ATOM     10  C   UNL A   1      31.476  24.497  24.670  1.00  0.00     0.046 A 
ATOM     11  C   UNL A   1      31.469  21.947  25.856  1.00  0.00     0.006 A 
ATOM     12  C   UNL A   1      31.119  24.317  26.022  1.00  0.00     0.014 A 
ATOM     13  C   UNL A   1      31.108  23.055  26.608  1.00  0.00     0.001 A 
BRANCH   9  14
ATOM     14  N   UNL A   1      32.239  23.469  22.563  1.00  0.00    -0.398 N 
ATOM     15  H   UNL A   1      31.766  24.082  21.954  1.00  0.00     0.156 HD
ATOM     16  H   UNL A   1      32.992  22.930  22.230  1.00  0.00     0.156 HD
ENDBRANCH   9  14
BRANCH  10  17
ATOM     17  C   UNL A   1      31.461  25.929  24.206  1.00  0.00     0.195 C 
ATOM     18  O   UNL A   1      30.796  26.262  23.225  1.00  0.00    -0.289 OA
BRANCH  17  19
ATOM     19  C   UNL A   1      32.175  27.015  24.901  1.00  0.00     0.023 A 
ATOM     20  C   UNL A   1      31.469  28.187  25.194  1.00  0.00     0.013 A 
ATOM     21  C   UNL A   1      33.509  26.871  25.297  1.00  0.00     0.013 A 
ATOM     22  C   UNL A   1      32.076  29.189  25.954  1.00  0.00     0.016 A 
ATOM     23  C   UNL A   1      34.108  27.869  26.069  1.00  0.00     0.016 A 
ATOM     24  C   UNL A   1      33.385  29.016  26.402  1.00  0.00     0.018 A 
ATOM     25  Br  UNL A   1      34.184  30.339  27.493  1.00  0.00    -0.051 Br
ENDBRANCH  17  19
ENDBRANCH  10  17
ENDBRANCH   7   8
ENDBRANCH   4   7
ENDBRANCH   2   3
ENDBRANCH   1   2
BRANCH   1  26
ATOM     26  C   UNL A   1      35.364  23.118  25.897  1.00  0.00     0.023 C 
BRANCH  26  27
ATOM     27  C   UNL A   1      36.788  23.538  25.551  1.00  0.00     0.116 C 
BRANCH  27  28
ATOM     28  N   UNL A   1      37.778  22.546  25.934  1.00  0.00    -0.352 N 
ATOM     29  C   UNL A   1      39.004  22.741  26.519  1.00  0.00     0.251 C 
ATOM     30  H   UNL A   1      37.537  21.609  25.749  1.00  0.00     0.163 HD
ATOM     31  O   UNL A   1      39.777  21.792  26.635  1.00  0.00    -0.269 OA
BRANCH  29  32
ATOM     32  C   UNL A   1      39.399  24.094  26.968  1.00  0.00     0.039 A 
ATOM     33  C   UNL A   1      39.147  24.464  28.291  1.00  0.00     0.014 A 
ATOM     34  C   UNL A   1      40.019  24.994  26.096  1.00  0.00     0.014 A 
ATOM     35  C   UNL A   1      39.557  25.718  28.748  1.00  0.00     0.010 A 
ATOM     36  C   UNL A   1      40.503  26.208  26.577  1.00  0.00     0.010 A 
ATOM     37  C   UNL A   1      40.262  26.591  27.904  1.00  0.00    -0.014 A 
BRANCH  37  38
ATOM     38  C   UNL A   1      40.721  27.919  28.394  1.00  0.00     0.031 A 
ATOM     39  C   UNL A   1      42.193  28.227  28.475  1.00  0.00     0.074 A 
ATOM     40  C   UNL A   1      39.814  28.836  28.784  1.00  0.00     0.049 A 
ATOM     41  N   UNL A   1      42.789  29.322  28.875  1.00  0.00    -0.248 NA
ATOM     42  C   UNL A   1      43.119  27.152  28.085  1.00  0.00     0.031 C 
ATOM     43  C   UNL A   1      38.363  28.636  28.796  1.00  0.00     0.029 A 
ATOM     44  N   UNL A   1      39.974  30.120  29.241  1.00  0.00    -0.354 N 
ATOM     45  C   UNL A   1      44.154  29.066  28.788  1.00  0.00     0.074 A 
ATOM     46  C   UNL A   1      44.295  27.687  28.373  1.00  0.00     0.031 C 
ATOM     47  C   UNL A   1      37.766  29.769  29.197  1.00  0.00     0.029 A 
ATOM     48  C   UNL A   1      38.787  30.763  29.515  1.00  0.00     0.049 A 
ATOM     49  H   UNL A   1      40.855  30.543  29.362  1.00  0.00     0.167 HD
ATOM     50  C   UNL A   1      45.194  29.911  29.005  1.00  0.00     0.034 A 
ATOM     51  C   UNL A   1      38.550  32.008  29.972  1.00  0.00     0.034 A 
ATOM     52  C   UNL A   1      45.034  31.286  29.412  1.00  0.00     0.049 A 
ATOM     53  C   UNL A   1      39.724  32.921  30.229  1.00  0.00     0.074 A 
ATOM     54  C   UNL A   1      46.012  32.244  29.612  1.00  0.00     0.029 A 
ATOM     55  N   UNL A   1      43.818  31.898  29.693  1.00  0.00    -0.354 N 
ATOM     56  N   UNL A   1      41.006  32.682  30.081  1.00  0.00    -0.248 NA
ATOM     57  C   UNL A   1      39.413  34.276  30.699  1.00  0.00     0.031 C 
ATOM     58  C   UNL A   1      45.397  33.407  30.088  1.00  0.00     0.029 A 
ATOM     59  C   UNL A   1      44.026  33.208  30.099  1.00  0.00     0.049 A 
ATOM     60  H   UNL A   1      42.938  31.464  29.616  1.00  0.00     0.167 HD
ATOM     61  C   UNL A   1      41.654  33.870  30.411  1.00  0.00     0.074 A 
ATOM     62  C   UNL A   1      40.616  34.828  30.737  1.00  0.00     0.031 C 
ATOM     63  C   UNL A   1      42.983  34.149  30.441  1.00  0.00     0.034 A 
BRANCH  50  64
ATOM     64  C   UNL A   1      46.589  29.356  28.828  1.00  0.00     0.023 A 
ATOM     65  C   UNL A   1      47.159  29.175  27.555  1.00  0.00     0.031 A 
ATOM     66  C   UNL A   1      47.354  28.977  29.947  1.00  0.00     0.131 A 
ATOM     67  C   UNL A   1      48.412  28.559  27.427  1.00  0.00     0.055 A 
ATOM     68  C   UNL A   1      48.639  28.448  29.816  1.00  0.00     0.041 A 
ATOM     69  F   UNL A   1      46.858  29.103  31.188  1.00  0.00    -0.206 F 
ATOM     70  C   UNL A   1      49.169  28.220  28.550  1.00  0.00     0.022 A 
BRANCH  67  71
ATOM     71  S   UNL A   1      48.968  28.063  25.773  1.00  0.00     0.124 S 
ATOM     72  O   UNL A   1      49.096  26.615  25.927  1.00  0.00    -0.237 OA
ATOM     73  O   UNL A   1      47.877  28.521  24.922  1.00  0.00    -0.237 OA
ATOM     74  O   UNL A   1      50.232  28.778  25.607  1.00  0.00    -0.744 OA
ENDBRANCH  67  71
ENDBRANCH  50  64
BRANCH  51  75
ATOM     75  C   UNL A   1      37.154  32.472  30.222  1.00  0.00     0.023 A 
ATOM     76  C   UNL A   1      36.380  33.035  29.194  1.00  0.00     0.031 A 
ATOM     77  C   UNL A   1      36.591  32.408  31.509  1.00  0.00     0.131 A 
ATOM     78  C   UNL A   1      35.109  33.560  29.480  1.00  0.00     0.055 A 
ATOM     79  C   UNL A   1      35.302  32.875  31.776  1.00  0.00     0.041 A 
ATOM     80  F   UNL A   1      37.284  31.878  32.529  1.00  0.00    -0.206 F 
ATOM     81  C   UNL A   1      34.560  33.469  30.761  1.00  0.00     0.022 A 
BRANCH  78  82
ATOM     82  S   UNL A   1      34.225  34.455  28.174  1.00  0.00     0.124 S 
ATOM     83  O   UNL A   1      35.203  34.445  27.092  1.00  0.00    -0.237 OA
ATOM     84  O   UNL A   1      33.044  33.618  27.979  1.00  0.00    -0.237 OA
ATOM     85  O   UNL A   1      33.968  35.763  28.772  1.00  0.00    -0.744 OA
ENDBRANCH  78  82
ENDBRANCH  51  75
BRANCH  63  86
ATOM     86  C   UNL A   1      43.379  35.561  30.805  1.00  0.00     0.023 A 
ATOM     87  C   UNL A   1      43.414  35.999  32.142  1.00  0.00     0.031 A 
ATOM     88  C   UNL A   1      43.691  36.492  29.799  1.00  0.00     0.131 A 
ATOM     89  C   UNL A   1      43.674  37.347  32.430  1.00  0.00     0.055 A 
ATOM     90  C   UNL A   1      44.026  37.815  30.098  1.00  0.00     0.041 A 
ATOM     91  F   UNL A   1      43.671  36.136  28.505  1.00  0.00    -0.206 F 
ATOM     92  C   UNL A   1      44.000  38.253  31.418  1.00  0.00     0.022 A 
BRANCH  89  93
ATOM     93  S   UNL A   1      43.449  37.929  34.133  1.00  0.00     0.124 S 
ATOM     94  O   UNL A   1      42.517  36.943  34.669  1.00  0.00    -0.237 OA
ATOM     95  O   UNL A   1      44.808  37.876  34.662  1.00  0.00    -0.237 OA
ATOM     96  O   UNL A   1      42.902  39.274  33.966  1.00  0.00    -0.744 OA
ENDBRANCH  89  93
ENDBRANCH  63  86
ENDBRANCH  37  38
ENDBRANCH  29  32
ENDBRANCH  27  28
ENDBRANCH  26  27
ENDBRANCH   1  26
TORSDOF 18
ENDMDL
MODEL 2
REMARK VINA RESULT:     -11.5      4.250      9.774
REMARK SMILES Nc1c(CC(=O)NCCCCNC(=O)c2ccc(-c3c4nc(c(-c5cc(S(=O)(=O)[O-])ccc5F)c5ccc([nH]5)c(-c5cc(S(=O)(=O)[O-])ccc5F)c5nc(c(-c6cc(S(=O)(=O)[O-])ccc6F)c6ccc3[nH]6)C=C5)C=C4)cc2)cccc1C(=O)c1ccc(Br)cc1
REMARK SMILES IDX 9 1 8 2 7 3 5 4 6 5 4 7 3 8 2 9 81 10 78 11 80 12 79 13 1 14
REMARK SMILES IDX 82 17 83 18 84 19 85 20 90 21 86 22 89 23 87 24 88 25 10 26
REMARK SMILES IDX 11 27 12 28 13 29 14 31 15 32 16 33 77 34 17 35 76 36 18 37
REMARK SMILES IDX 19 38 20 39 70 40 21 41 75 42 69 43 71 44 22 45 74 46 68 47
REMARK SMILES IDX 67 48 23 50 55 51 35 52 54 53 36 54 39 55 53 56 72 57 37 58
REMARK SMILES IDX 38 59 52 61 73 62 40 63 24 64 25 65 33 66 26 67 32 68 34 69
REMARK SMILES IDX 31 70 27 71 28 72 29 73 30 74 56 75 57 76 65 77 58 78 64 79
REMARK SMILES IDX 66 80 63 81 59 82 60 83 61 84 62 85 41 86 42 87 50 88 43 89
REMARK SMILES IDX 49 90 51 91 48 92 44 93 45 94 46 95 47 96
REMARK H PARENT 7 6 1 15 1 16 12 30 71 49 39 60
REMARK Flexibility Score: inf
ROOT
ATOM      1  C   UNL A   1      32.455  29.323  24.366  1.00  0.00     0.023 C 
ENDROOT
BRANCH   1   2
ATOM      2  C   UNL A   1      31.035  29.831  24.615  1.00  0.00     0.116 C 
BRANCH   2   3
ATOM      3  N   UNL A   1      30.310  30.019  23.376  1.00  0.00    -0.356 N 
ATOM      4  C   UNL A   1      29.527  29.132  22.696  1.00  0.00     0.224 C 
ATOM      5  O   UNL A   1      29.060  29.475  21.608  1.00  0.00    -0.275 OA
ATOM      6  H   UNL A   1      30.392  30.912  22.968  1.00  0.00     0.163 HD
BRANCH   4   7
ATOM      7  C   UNL A   1      29.180  27.780  23.301  1.00  0.00     0.137 C 
BRANCH   7   8
ATOM      8  C   UNL A   1      30.242  26.707  23.122  1.00  0.00    -0.015 A 
ATOM      9  C   UNL A   1      30.431  25.645  24.049  1.00  0.00     0.046 A 
ATOM     10  C   UNL A   1      31.515  24.748  23.852  1.00  0.00     0.046 A 
ATOM     11  C   UNL A   1      31.094  26.830  22.008  1.00  0.00     0.006 A 
ATOM     12  C   UNL A   1      32.360  24.924  22.737  1.00  0.00     0.014 A 
ATOM     13  C   UNL A   1      32.148  25.949  21.820  1.00  0.00     0.001 A 
BRANCH   9  14
ATOM     14  N   UNL A   1      29.576  25.556  25.144  1.00  0.00    -0.398 N 
ATOM     15  H   UNL A   1      29.401  24.682  25.561  1.00  0.00     0.156 HD
ATOM     16  H   UNL A   1      29.147  26.367  25.500  1.00  0.00     0.156 HD
ENDBRANCH   9  14
BRANCH  10  17
ATOM     17  C   UNL A   1      31.904  23.610  24.757  1.00  0.00     0.195 C 
ATOM     18  O   UNL A   1      31.041  22.906  25.281  1.00  0.00    -0.289 OA
BRANCH  17  19
ATOM     19  C   UNL A   1      33.301  23.230  25.028  1.00  0.00     0.023 A 
ATOM     20  C   UNL A   1      33.756  21.997  24.545  1.00  0.00     0.013 A 
ATOM     21  C   UNL A   1      34.168  24.087  25.714  1.00  0.00     0.013 A 
ATOM     22  C   UNL A   1      35.103  21.654  24.680  1.00  0.00     0.016 A 
ATOM     23  C   UNL A   1      35.517  23.747  25.835  1.00  0.00     0.016 A 
ATOM     24  C   UNL A   1      35.979  22.539  25.308  1.00  0.00     0.018 A 
ATOM     25  Br  UNL A   1      37.816  22.110  25.427  1.00  0.00    -0.051 Br
ENDBRANCH  17  19
ENDBRANCH  10  17
ENDBRANCH   7   8
ENDBRANCH   4   7
ENDBRANCH   2   3
ENDBRANCH   1   2
BRANCH   1  26
ATOM     26  C   UNL A   1      32.894  28.212  25.324  1.00  0.00     0.023 C 
BRANCH  26  27
ATOM     27  C   UNL A   1      33.911  28.640  26.375  1.00  0.00     0.116 C 
BRANCH  27  28
ATOM     28  N   UNL A   1      33.827  30.054  26.702  1.00  0.00    -0.352 N 
ATOM     29  C   UNL A   1      34.662  30.801  27.495  1.00  0.00     0.251 C 
ATOM     30  H   UNL A   1      33.070  30.539  26.301  1.00  0.00     0.163 HD
ATOM     31  O   UNL A   1      34.350  31.955  27.782  1.00  0.00    -0.269 OA
BRANCH  29  32
ATOM     32  C   UNL A   1      35.906  30.202  28.025  1.00  0.00     0.039 A 
ATOM     33  C   UNL A   1      37.064  30.258  27.247  1.00  0.00     0.014 A 
ATOM     34  C   UNL A   1      35.937  29.593  29.282  1.00  0.00     0.014 A 
ATOM     35  C   UNL A   1      38.260  29.743  27.749  1.00  0.00     0.010 A 
ATOM     36  C   UNL A   1      37.147  29.159  29.816  1.00  0.00     0.010 A 
ATOM     37  C   UNL A   1      38.320  29.213  29.050  1.00  0.00    -0.014 A 
BRANCH  37  38
ATOM     38  C   UNL A   1      39.598  28.684  29.598  1.00  0.00     0.031 A 
ATOM     39  C   UNL A   1      40.230  29.334  30.801  1.00  0.00     0.074 A 
ATOM     40  C   UNL A   1      40.197  27.635  29.002  1.00  0.00     0.049 A 
ATOM     41  N   UNL A   1      41.338  29.021  31.424  1.00  0.00    -0.248 NA
ATOM     42  C   UNL A   1      39.543  30.509  31.359  1.00  0.00     0.031 C 
ATOM     43  C   UNL A   1      39.706  26.952  27.802  1.00  0.00     0.029 A 
ATOM     44  N   UNL A   1      41.345  26.955  29.321  1.00  0.00    -0.354 N 
ATOM     45  C   UNL A   1      41.481  29.961  32.441  1.00  0.00     0.074 A 
ATOM     46  C   UNL A   1      40.389  30.899  32.299  1.00  0.00     0.031 C 
ATOM     47  C   UNL A   1      40.522  25.927  27.514  1.00  0.00     0.029 A 
ATOM     48  C   UNL A   1      41.619  25.903  28.476  1.00  0.00     0.049 A 
ATOM     49  H   UNL A   1      41.919  27.195  30.084  1.00  0.00     0.167 HD
ATOM     50  C   UNL A   1      42.419  30.020  33.419  1.00  0.00     0.034 A 
ATOM     51  C   UNL A   1      42.640  25.023  28.475  1.00  0.00     0.034 A 
ATOM     52  C   UNL A   1      43.498  29.071  33.549  1.00  0.00     0.049 A 
ATOM     53  C   UNL A   1      43.684  25.123  29.559  1.00  0.00     0.074 A 
ATOM     54  C   UNL A   1      44.474  29.004  34.529  1.00  0.00     0.029 A 
ATOM     55  N   UNL A   1      43.752  28.027  32.668  1.00  0.00    -0.354 N 
ATOM     56  N   UNL A   1      43.769  25.980  30.550  1.00  0.00    -0.248 NA
ATOM     57  C   UNL A   1      44.760  24.125  29.532  1.00  0.00     0.031 C 
ATOM     58  C   UNL A   1      45.360  27.975  34.197  1.00  0.00     0.029 A 
ATOM     59  C   UNL A   1      44.889  27.336  33.060  1.00  0.00     0.049 A 
ATOM     60  H   UNL A   1      43.206  27.811  31.878  1.00  0.00     0.167 HD
ATOM     61  C   UNL A   1      44.892  25.603  31.283  1.00  0.00     0.074 A 
ATOM     62  C   UNL A   1      45.431  24.426  30.632  1.00  0.00     0.031 C 
ATOM     63  C   UNL A   1      45.430  26.174  32.392  1.00  0.00     0.034 A 
BRANCH  50  64
ATOM     64  C   UNL A   1      42.325  31.162  34.405  1.00  0.00     0.023 A 
ATOM     65  C   UNL A   1      41.325  31.209  35.393  1.00  0.00     0.031 A 
ATOM     66  C   UNL A   1      43.233  32.235  34.343  1.00  0.00     0.131 A 
ATOM     67  C   UNL A   1      41.205  32.336  36.219  1.00  0.00     0.055 A 
ATOM     68  C   UNL A   1      43.163  33.313  35.229  1.00  0.00     0.041 A 
ATOM     69  F   UNL A   1      44.197  32.262  33.409  1.00  0.00    -0.206 F 
ATOM     70  C   UNL A   1      42.134  33.376  36.163  1.00  0.00     0.022 A 
BRANCH  67  71
ATOM     71  S   UNL A   1      39.725  32.496  37.257  1.00  0.00     0.124 S 
ATOM     72  O   UNL A   1      38.944  31.334  36.837  1.00  0.00    -0.237 OA
ATOM     73  O   UNL A   1      40.278  32.441  38.605  1.00  0.00    -0.237 OA
ATOM     74  O   UNL A   1      39.167  33.788  36.863  1.00  0.00    -0.744 OA
ENDBRANCH  67  71
ENDBRANCH  50  64
BRANCH  51  75
ATOM     75  C   UNL A   1      42.736  23.973  27.419  1.00  0.00     0.023 A 
ATOM     76  C   UNL A   1      42.077  22.741  27.556  1.00  0.00     0.031 A 
ATOM     77  C   UNL A   1      43.534  24.167  26.277  1.00  0.00     0.131 A 
ATOM     78  C   UNL A   1      42.270  21.731  26.599  1.00  0.00     0.055 A 
ATOM     79  C   UNL A   1      43.673  23.183  25.296  1.00  0.00     0.041 A 
ATOM     80  F   UNL A   1      44.185  25.326  26.091  1.00  0.00    -0.206 F 
ATOM     81  C   UNL A   1      43.050  21.950  25.463  1.00  0.00     0.022 A 
BRANCH  78  82
ATOM     82  S   UNL A   1      41.564  20.090  26.913  1.00  0.00     0.124 S 
ATOM     83  O   UNL A   1      41.306  19.614  25.559  1.00  0.00    -0.237 OA
ATOM     84  O   UNL A   1      42.647  19.426  27.631  1.00  0.00    -0.237 OA
ATOM     85  O   UNL A   1      40.374  20.379  27.711  1.00  0.00    -0.744 OA
ENDBRANCH  78  82
ENDBRANCH  51  75
BRANCH  63  86
ATOM     86  C   UNL A   1      46.644  25.502  32.988  1.00  0.00     0.023 A 
ATOM     87  C   UNL A   1      47.946  25.787  32.535  1.00  0.00     0.031 A 
ATOM     88  C   UNL A   1      46.497  24.535  33.998  1.00  0.00     0.131 A 
ATOM     89  C   UNL A   1      49.035  25.058  33.033  1.00  0.00     0.055 A 
ATOM     90  C   UNL A   1      47.595  23.868  34.546  1.00  0.00     0.041 A 
ATOM     91  F   UNL A   1      45.281  24.216  34.469  1.00  0.00    -0.206 F 
ATOM     92  C   UNL A   1      48.870  24.114  34.050  1.00  0.00     0.022 A 
BRANCH  89  93
ATOM     93  S   UNL A   1      50.653  25.265  32.239  1.00  0.00     0.124 S 
ATOM     94  O   UNL A   1      50.469  26.506  31.495  1.00  0.00    -0.237 OA
ATOM     95  O   UNL A   1      51.555  25.336  33.385  1.00  0.00    -0.237 OA
ATOM     96  O   UNL A   1      50.789  24.062  31.418  1.00  0.00    -0.744 OA
ENDBRANCH  89  93
ENDBRANCH  63  86
ENDBRANCH  37  38
ENDBRANCH  29  32
ENDBRANCH  27  28
ENDBRANCH  26  27
ENDBRANCH   1  26
TORSDOF 18
ENDMDL
MODEL 3
REMARK VINA RESULT:     -11.4      1.877      2.230
REMARK SMILES Nc1c(CC(=O)NCCCCNC(=O)c2ccc(-c3c4nc(c(-c5cc(S(=O)(=O)[O-])ccc5F)c5ccc([nH]5)c(-c5cc(S(=O)(=O)[O-])ccc5F)c5nc(c(-c6cc(S(=O)(=O)[O-])ccc6F)c6ccc3[nH]6)C=C5)C=C4)cc2)cccc1C(=O)c1ccc(Br)cc1
REMARK SMILES IDX 9 1 8 2 7 3 5 4 6 5 4 7 3 8 2 9 81 10 78 11 80 12 79 13 1 14
REMARK SMILES IDX 82 17 83 18 84 19 85 20 90 21 86 22 89 23 87 24 88 25 10 26
REMARK SMILES IDX 11 27 12 28 13 29 14 31 15 32 16 33 77 34 17 35 76 36 18 37
REMARK SMILES IDX 19 38 20 39 70 40 21 41 75 42 69 43 71 44 22 45 74 46 68 47
REMARK SMILES IDX 67 48 23 50 55 51 35 52 54 53 36 54 39 55 53 56 72 57 37 58
REMARK SMILES IDX 38 59 52 61 73 62 40 63 24 64 25 65 33 66 26 67 32 68 34 69
REMARK SMILES IDX 31 70 27 71 28 72 29 73 30 74 56 75 57 76 65 77 58 78 64 79
REMARK SMILES IDX 66 80 63 81 59 82 60 83 61 84 62 85 41 86 42 87 50 88 43 89
REMARK SMILES IDX 49 90 51 91 48 92 44 93 45 94 46 95 47 96
REMARK H PARENT 7 6 1 15 1 16 12 30 71 49 39 60
REMARK Flexibility Score: inf
ROOT
ATOM      1  C   UNL A   1      35.110  21.528  26.149  1.00  0.00     0.023 C 
ENDROOT
BRANCH   1   2
ATOM      2  C   UNL A   1      35.085  20.567  24.960  1.00  0.00     0.116 C 
BRANCH   2   3
ATOM      3  N   UNL A   1      34.086  19.531  25.130  1.00  0.00    -0.356 N 
ATOM      4  C   UNL A   1      32.799  19.498  24.678  1.00  0.00     0.224 C 
ATOM      5  O   UNL A   1      32.087  18.546  25.005  1.00  0.00    -0.275 OA
ATOM      6  H   UNL A   1      34.377  18.742  25.642  1.00  0.00     0.163 HD
BRANCH   4   7
ATOM      7  C   UNL A   1      32.279  20.573  23.735  1.00  0.00     0.137 C 
BRANCH   7   8
ATOM      8  C   UNL A   1      31.916  21.889  24.402  1.00  0.00    -0.015 A 
ATOM      9  C   UNL A   1      32.113  23.152  23.777  1.00  0.00     0.046 A 
ATOM     10  C   UNL A   1      31.839  24.333  24.518  1.00  0.00     0.046 A 
ATOM     11  C   UNL A   1      31.415  21.824  25.716  1.00  0.00     0.006 A 
ATOM     12  C   UNL A   1      31.363  24.221  25.840  1.00  0.00     0.014 A 
ATOM     13  C   UNL A   1      31.146  22.980  26.431  1.00  0.00     0.001 A 
BRANCH   9  14
ATOM     14  N   UNL A   1      32.617  23.182  22.480  1.00  0.00    -0.398 N 
ATOM     15  H   UNL A   1      32.031  23.436  21.731  1.00  0.00     0.156 HD
ATOM     16  H   UNL A   1      33.558  22.949  22.313  1.00  0.00     0.156 HD
ENDBRANCH   9  14
BRANCH  10  17
ATOM     17  C   UNL A   1      32.045  25.747  24.045  1.00  0.00     0.195 C 
ATOM     18  O   UNL A   1      31.879  26.041  22.861  1.00  0.00    -0.289 OA
BRANCH  17  19
ATOM     19  C   UNL A   1      32.393  26.861  24.945  1.00  0.00     0.023 A 
ATOM     20  C   UNL A   1      33.741  27.047  25.274  1.00  0.00     0.013 A 
ATOM     21  C   UNL A   1      31.416  27.736  25.431  1.00  0.00     0.013 A 
ATOM     22  C   UNL A   1      34.123  28.159  26.028  1.00  0.00     0.016 A 
ATOM     23  C   UNL A   1      31.803  28.855  26.172  1.00  0.00     0.016 A 
ATOM     24  C   UNL A   1      33.154  29.065  26.456  1.00  0.00     0.018 A 
ATOM     25  Br  UNL A   1      33.676  30.610  27.414  1.00  0.00    -0.051 Br
ENDBRANCH  17  19
ENDBRANCH  10  17
ENDBRANCH   7   8
ENDBRANCH   4   7
ENDBRANCH   2   3
ENDBRANCH   1   2
BRANCH   1  26
ATOM     26  C   UNL A   1      35.266  22.999  25.755  1.00  0.00     0.023 C 
BRANCH  26  27
ATOM     27  C   UNL A   1      36.654  23.581  25.993  1.00  0.00     0.116 C 
BRANCH  27  28
ATOM     28  N   UNL A   1      37.682  22.560  26.116  1.00  0.00    -0.352 N 
ATOM     29  C   UNL A   1      38.996  22.708  26.481  1.00  0.00     0.251 C 
ATOM     30  H   UNL A   1      37.396  21.641  25.909  1.00  0.00     0.163 HD
ATOM     31  O   UNL A   1      39.762  21.751  26.385  1.00  0.00    -0.269 OA
BRANCH  29  32
ATOM     32  C   UNL A   1      39.488  24.022  26.951  1.00  0.00     0.039 A 
ATOM     33  C   UNL A   1      40.001  24.922  26.015  1.00  0.00     0.014 A 
ATOM     34  C   UNL A   1      39.440  24.370  28.304  1.00  0.00     0.014 A 
ATOM     35  C   UNL A   1      40.423  26.186  26.431  1.00  0.00     0.010 A 
ATOM     36  C   UNL A   1      39.780  25.660  28.703  1.00  0.00     0.010 A 
ATOM     37  C   UNL A   1      40.293  26.577  27.774  1.00  0.00    -0.014 A 
BRANCH  37  38
ATOM     38  C   UNL A   1      40.720  27.931  28.217  1.00  0.00     0.031 A 
ATOM     39  C   UNL A   1      42.180  28.301  28.219  1.00  0.00     0.074 A 
ATOM     40  C   UNL A   1      39.797  28.819  28.637  1.00  0.00     0.049 A 
ATOM     41  N   UNL A   1      42.749  29.426  28.569  1.00  0.00    -0.248 NA
ATOM     42  C   UNL A   1      43.129  27.256  27.800  1.00  0.00     0.031 C 
ATOM     43  C   UNL A   1      38.357  28.561  28.727  1.00  0.00     0.029 A 
ATOM     44  N   UNL A   1      39.926  30.116  29.063  1.00  0.00    -0.354 N 
ATOM     45  C   UNL A   1      44.118  29.224  28.417  1.00  0.00     0.074 A 
ATOM     46  C   UNL A   1      44.295  27.844  28.019  1.00  0.00     0.031 C 
ATOM     47  C   UNL A   1      37.735  29.676  29.138  1.00  0.00     0.029 A 
ATOM     48  C   UNL A   1      38.729  30.716  29.386  1.00  0.00     0.049 A 
ATOM     49  H   UNL A   1      40.794  30.577  29.132  1.00  0.00     0.167 HD
ATOM     50  C   UNL A   1      45.132  30.113  28.567  1.00  0.00     0.034 A 
ATOM     51  C   UNL A   1      38.464  31.959  29.833  1.00  0.00     0.034 A 
ATOM     52  C   UNL A   1      44.935  31.489  28.958  1.00  0.00     0.049 A 
ATOM     53  C   UNL A   1      39.610  32.923  30.014  1.00  0.00     0.074 A 
ATOM     54  C   UNL A   1      45.882  32.489  29.091  1.00  0.00     0.029 A 
ATOM     55  N   UNL A   1      43.712  32.056  29.289  1.00  0.00    -0.354 N 
ATOM     56  N   UNL A   1      40.892  32.734  29.805  1.00  0.00    -0.248 NA
ATOM     57  C   UNL A   1      39.268  34.274  30.475  1.00  0.00     0.031 C 
ATOM     58  C   UNL A   1      45.244  33.635  29.577  1.00  0.00     0.029 A 
ATOM     59  C   UNL A   1      43.885  33.382  29.661  1.00  0.00     0.049 A 
ATOM     60  H   UNL A   1      42.847  31.586  29.264  1.00  0.00     0.167 HD
ATOM     61  C   UNL A   1      41.506  33.954  30.081  1.00  0.00     0.074 A 
ATOM     62  C   UNL A   1      40.447  34.874  30.443  1.00  0.00     0.031 C 
ATOM     63  C   UNL A   1      42.822  34.286  30.039  1.00  0.00     0.034 A 
BRANCH  50  64
ATOM     64  C   UNL A   1      46.538  29.612  28.329  1.00  0.00     0.023 A 
ATOM     65  C   UNL A   1      47.326  29.091  29.371  1.00  0.00     0.031 A 
ATOM     66  C   UNL A   1      47.112  29.680  27.046  1.00  0.00     0.131 A 
ATOM     67  C   UNL A   1      48.661  28.736  29.132  1.00  0.00     0.055 A 
ATOM     68  C   UNL A   1      48.413  29.239  26.796  1.00  0.00     0.041 A 
ATOM     69  F   UNL A   1      46.421  30.188  26.013  1.00  0.00    -0.206 F 
ATOM     70  C   UNL A   1      49.203  28.780  27.846  1.00  0.00     0.022 A 
BRANCH  67  71
ATOM     71  S   UNL A   1      49.727  28.368  30.553  1.00  0.00     0.124 S 
ATOM     72  O   UNL A   1      51.051  28.676  30.017  1.00  0.00    -0.237 OA
ATOM     73  O   UNL A   1      49.221  29.280  31.572  1.00  0.00    -0.237 OA
ATOM     74  O   UNL A   1      49.481  26.950  30.808  1.00  0.00    -0.744 OA
ENDBRANCH  67  71
ENDBRANCH  50  64
BRANCH  51  75
ATOM     75  C   UNL A   1      37.064  32.371  30.145  1.00  0.00     0.023 A 
ATOM     76  C   UNL A   1      36.284  33.067  29.207  1.00  0.00     0.031 A 
ATOM     77  C   UNL A   1      36.502  32.120  31.409  1.00  0.00     0.131 A 
ATOM     78  C   UNL A   1      35.010  33.536  29.564  1.00  0.00     0.055 A 
ATOM     79  C   UNL A   1      35.209  32.534  31.739  1.00  0.00     0.041 A 
ATOM     80  F   UNL A   1      37.200  31.457  32.344  1.00  0.00    -0.206 F 
ATOM     81  C   UNL A   1      34.461  33.260  30.818  1.00  0.00     0.022 A 
BRANCH  78  82
ATOM     82  S   UNL A   1      34.117  34.599  28.397  1.00  0.00     0.124 S 
ATOM     83  O   UNL A   1      35.001  34.575  27.237  1.00  0.00    -0.237 OA
ATOM     84  O   UNL A   1      32.848  33.891  28.251  1.00  0.00    -0.237 OA
ATOM     85  O   UNL A   1      34.037  35.880  29.097  1.00  0.00    -0.744 OA
ENDBRANCH  78  82
ENDBRANCH  51  75
BRANCH  63  86
ATOM     86  C   UNL A   1      43.177  35.720  30.358  1.00  0.00     0.023 A 
ATOM     87  C   UNL A   1      43.098  36.735  29.387  1.00  0.00     0.031 A 
ATOM     88  C   UNL A   1      43.636  36.070  31.640  1.00  0.00     0.131 A 
ATOM     89  C   UNL A   1      43.547  38.029  29.690  1.00  0.00     0.055 A 
ATOM     90  C   UNL A   1      44.006  37.378  31.958  1.00  0.00     0.041 A 
ATOM     91  F   UNL A   1      43.737  35.145  32.608  1.00  0.00    -0.206 F 
ATOM     92  C   UNL A   1      43.982  38.361  30.975  1.00  0.00     0.022 A 
BRANCH  89  93
ATOM     93  S   UNL A   1      43.680  39.238  28.345  1.00  0.00     0.124 S 
ATOM     94  O   UNL A   1      42.322  39.767  28.277  1.00  0.00    -0.237 OA
ATOM     95  O   UNL A   1      44.697  40.156  28.850  1.00  0.00    -0.237 OA
ATOM     96  O   UNL A   1      44.090  38.431  27.197  1.00  0.00    -0.744 OA
ENDBRANCH  89  93
ENDBRANCH  63  86
ENDBRANCH  37  38
ENDBRANCH  29  32
ENDBRANCH  27  28
ENDBRANCH  26  27
ENDBRANCH   1  26
TORSDOF 18
ENDMDL
