MODEL 1
REMARK VINA RESULT:     -12.1      0.000      0.000
REMARK SMILES Cc1nc(-c2ccc(S(=O)(=O)N3CC[NH2+][C@H](C(=O)NCCCCNC(=O)c4ccc(-c5c6nc(c(-c7cc(S(=O)(=O)[O-])ccc7F)c7ccc([nH]7)c(-c7cc(S(=O)(=O)[O-])ccc7F)c7nc(c(-c8cc(S(=O)(=O)[O-])ccc8F)c8ccc5[nH]8)C=C7)C=C6)cc4)C3)s2)cs1
REMARK SMILES IDX 21 1 20 2 19 3 17 4 18 5 16 7 12 8 13 9 90 10 14 11 15 12
REMARK SMILES IDX 9 15 10 16 11 17 8 18 5 19 6 20 91 21 7 22 4 23 1 24 2 25
REMARK SMILES IDX 3 26 93 27 92 28 22 29 23 30 24 31 25 32 26 34 27 35 28 36
REMARK SMILES IDX 89 37 29 38 88 39 30 40 31 41 32 42 82 43 33 44 87 45 81 46
REMARK SMILES IDX 83 47 34 48 86 49 80 50 79 51 35 53 67 54 47 55 66 56 48 57
REMARK SMILES IDX 51 58 65 59 84 60 49 61 50 62 64 64 85 65 52 66 36 67 37 68
REMARK SMILES IDX 45 69 38 70 44 71 46 72 43 73 39 74 40 75 41 76 42 77 68 78
REMARK SMILES IDX 69 79 77 80 70 81 76 82 78 83 75 84 71 85 72 86 73 87 74 88
REMARK SMILES IDX 53 89 54 90 62 91 55 92 61 93 63 94 60 95 56 96 57 97 58 98
REMARK SMILES IDX 59 99
REMARK H PARENT 19 6 15 13 15 14 24 33 83 52 51 63
REMARK Flexibility Score: inf
ROOT
ATOM      1  C   UNL A   1      36.758  20.115  25.184  1.00  0.00     0.023 C 
ENDROOT
BRANCH   1   2
ATOM      2  C   UNL A   1      36.676  21.588  25.595  1.00  0.00     0.116 C 
BRANCH   2   3
ATOM      3  N   UNL A   1      37.000  22.418  24.455  1.00  0.00    -0.351 N 
ATOM      4  C   UNL A   1      36.179  23.112  23.622  1.00  0.00     0.279 C 
ATOM      5  O   UNL A   1      36.614  23.302  22.479  1.00  0.00    -0.268 OA
ATOM      6  H   UNL A   1      37.960  22.491  24.252  1.00  0.00     0.163 HD
BRANCH   4   7
ATOM      7  C   UNL A   1      34.851  23.774  24.091  1.00  0.00     0.287 C 
ATOM      8  N   UNL A   1      32.679  24.879  23.737  1.00  0.00    -0.185 NA
ATOM      9  C   UNL A   1      32.970  26.012  24.631  1.00  0.00     0.164 C 
ATOM     10  C   UNL A   1      33.912  24.396  23.062  1.00  0.00     0.178 C 
ATOM     11  C   UNL A   1      34.140  25.711  25.582  1.00  0.00     0.278 C 
ATOM     12  N   UNL A   1      35.187  24.763  25.170  1.00  0.00    -0.334 N 
ATOM     13  H   UNL A   1      35.457  24.231  25.998  1.00  0.00     0.347 HD
ATOM     14  H   UNL A   1      35.918  25.348  24.764  1.00  0.00     0.347 HD
BRANCH   8  15
ATOM     15  S   UNL A   1      31.436  23.784  24.103  1.00  0.00     0.253 S 
ATOM     16  O   UNL A   1      30.316  24.129  23.247  1.00  0.00    -0.206 OA
ATOM     17  O   UNL A   1      31.305  23.756  25.542  1.00  0.00    -0.206 OA
BRANCH  15  18
ATOM     18  C   UNL A   1      31.818  22.083  23.677  1.00  0.00     0.135 A 
ATOM     19  C   UNL A   1      32.520  19.723  23.991  1.00  0.00     0.055 A 
ATOM     20  C   UNL A   1      32.404  20.059  22.664  1.00  0.00     0.023 A 
ATOM     21  S   UNL A   1      32.069  21.008  25.014  1.00  0.00    -0.121 S 
ATOM     22  C   UNL A   1      31.982  21.394  22.491  1.00  0.00     0.034 A 
BRANCH  19  23
ATOM     23  C   UNL A   1      33.031  18.374  24.369  1.00  0.00     0.091 A 
ATOM     24  C   UNL A   1      32.110  15.246  25.989  1.00  0.00     0.079 C 
ATOM     25  C   UNL A   1      32.783  16.383  25.306  1.00  0.00     0.090 A 
ATOM     26  N   UNL A   1      32.214  17.551  25.128  1.00  0.00    -0.241 NA
ATOM     27  S   UNL A   1      34.379  16.247  24.687  1.00  0.00    -0.127 S 
ATOM     28  C   UNL A   1      34.256  17.839  24.039  1.00  0.00     0.096 A 
ENDBRANCH  19  23
ENDBRANCH  15  18
ENDBRANCH   8  15
ENDBRANCH   4   7
ENDBRANCH   2   3
ENDBRANCH   1   2
BRANCH   1  29
ATOM     29  C   UNL A   1      38.178  19.673  24.801  1.00  0.00     0.023 C 
BRANCH  29  30
ATOM     30  C   UNL A   1      39.252  20.103  25.793  1.00  0.00     0.116 C 
BRANCH  30  31
ATOM     31  N   UNL A   1      40.262  19.078  25.996  1.00  0.00    -0.352 N 
ATOM     32  C   UNL A   1      41.598  19.244  26.268  1.00  0.00     0.251 C 
ATOM     33  H   UNL A   1      39.950  18.148  25.931  1.00  0.00     0.163 HD
ATOM     34  O   UNL A   1      42.346  18.272  26.271  1.00  0.00    -0.269 OA
BRANCH  32  35
ATOM     35  C   UNL A   1      42.119  20.604  26.501  1.00  0.00     0.039 A 
ATOM     36  C   UNL A   1      42.354  21.427  25.399  1.00  0.00     0.014 A 
ATOM     37  C   UNL A   1      42.338  21.076  27.799  1.00  0.00     0.014 A 
ATOM     38  C   UNL A   1      42.761  22.745  25.602  1.00  0.00     0.010 A 
ATOM     39  C   UNL A   1      42.673  22.410  28.001  1.00  0.00     0.010 A 
ATOM     40  C   UNL A   1      42.893  23.256  26.904  1.00  0.00    -0.014 A 
BRANCH  40  41
ATOM     41  C   UNL A   1      43.268  24.675  27.124  1.00  0.00     0.031 A 
ATOM     42  C   UNL A   1      42.303  25.618  27.787  1.00  0.00     0.074 A 
ATOM     43  C   UNL A   1      44.464  25.117  26.690  1.00  0.00     0.049 A 
ATOM     44  N   UNL A   1      42.446  26.888  28.065  1.00  0.00    -0.248 NA
ATOM     45  C   UNL A   1      40.990  25.067  28.157  1.00  0.00     0.031 C 
ATOM     46  C   UNL A   1      45.455  24.306  25.977  1.00  0.00     0.029 A 
ATOM     47  N   UNL A   1      45.053  26.352  26.784  1.00  0.00    -0.354 N 
ATOM     48  C   UNL A   1      41.242  27.291  28.635  1.00  0.00     0.074 A 
ATOM     49  C   UNL A   1      40.358  26.146  28.594  1.00  0.00     0.031 C 
ATOM     50  C   UNL A   1      46.542  25.055  25.731  1.00  0.00     0.029 A 
ATOM     51  C   UNL A   1      46.315  26.405  26.237  1.00  0.00     0.049 A 
ATOM     52  H   UNL A   1      44.615  27.127  27.202  1.00  0.00     0.167 HD
ATOM     53  C   UNL A   1      40.916  28.494  29.168  1.00  0.00     0.034 A 
ATOM     54  C   UNL A   1      47.191  27.425  26.161  1.00  0.00     0.034 A 
ATOM     55  C   UNL A   1      41.817  29.621  29.207  1.00  0.00     0.049 A 
ATOM     56  C   UNL A   1      46.814  28.748  26.776  1.00  0.00     0.074 A 
ATOM     57  C   UNL A   1      41.613  30.873  29.760  1.00  0.00     0.029 A 
ATOM     58  N   UNL A   1      43.099  29.632  28.667  1.00  0.00    -0.354 N 
ATOM     59  N   UNL A   1      45.694  29.096  27.368  1.00  0.00    -0.248 NA
ATOM     60  C   UNL A   1      47.829  29.808  26.734  1.00  0.00     0.031 C 
ATOM     61  C   UNL A   1      42.743  31.658  29.503  1.00  0.00     0.029 A 
ATOM     62  C   UNL A   1      43.686  30.873  28.857  1.00  0.00     0.049 A 
ATOM     63  H   UNL A   1      43.526  28.869  28.215  1.00  0.00     0.167 HD
ATOM     64  C   UNL A   1      45.886  30.406  27.800  1.00  0.00     0.074 A 
ATOM     65  C   UNL A   1      47.234  30.775  27.416  1.00  0.00     0.031 C 
ATOM     66  C   UNL A   1      45.029  31.228  28.460  1.00  0.00     0.034 A 
BRANCH  53  67
ATOM     67  C   UNL A   1      39.521  28.648  29.728  1.00  0.00     0.023 A 
ATOM     68  C   UNL A   1      38.462  29.144  28.948  1.00  0.00     0.031 A 
ATOM     69  C   UNL A   1      39.252  28.330  31.071  1.00  0.00     0.131 A 
ATOM     70  C   UNL A   1      37.211  29.390  29.534  1.00  0.00     0.055 A 
ATOM     71  C   UNL A   1      37.980  28.495  31.627  1.00  0.00     0.041 A 
ATOM     72  F   UNL A   1      40.223  27.871  31.875  1.00  0.00    -0.206 F 
ATOM     73  C   UNL A   1      36.955  29.044  30.862  1.00  0.00     0.022 A 
BRANCH  70  74
ATOM     74  S   UNL A   1      35.974  30.310  28.579  1.00  0.00     0.124 S 
ATOM     75  O   UNL A   1      35.382  31.162  29.607  1.00  0.00    -0.237 OA
ATOM     76  O   UNL A   1      36.789  30.989  27.577  1.00  0.00    -0.237 OA
ATOM     77  O   UNL A   1      35.093  29.264  28.062  1.00  0.00    -0.744 OA
ENDBRANCH  70  74
ENDBRANCH  53  67
BRANCH  54  78
ATOM     78  C   UNL A   1      48.513  27.238  25.499  1.00  0.00     0.023 A 
ATOM     79  C   UNL A   1      48.673  27.468  24.124  1.00  0.00     0.031 A 
ATOM     80  C   UNL A   1      49.631  26.792  26.228  1.00  0.00     0.131 A 
ATOM     81  C   UNL A   1      49.906  27.203  23.508  1.00  0.00     0.055 A 
ATOM     82  C   UNL A   1      50.870  26.579  25.620  1.00  0.00     0.041 A 
ATOM     83  F   UNL A   1      49.536  26.568  27.548  1.00  0.00    -0.206 F 
ATOM     84  C   UNL A   1      51.008  26.770  24.249  1.00  0.00     0.022 A 
BRANCH  81  85
ATOM     85  S   UNL A   1      50.025  27.353  21.704  1.00  0.00     0.124 S 
ATOM     86  O   UNL A   1      48.876  26.571  21.264  1.00  0.00    -0.237 OA
ATOM     87  O   UNL A   1      49.931  28.796  21.514  1.00  0.00    -0.237 OA
ATOM     88  O   UNL A   1      51.331  26.771  21.401  1.00  0.00    -0.744 OA
ENDBRANCH  81  85
ENDBRANCH  54  78
BRANCH  66  89
ATOM     89  C   UNL A   1      45.555  32.589  28.848  1.00  0.00     0.023 A 
ATOM     90  C   UNL A   1      45.461  33.695  27.986  1.00  0.00     0.031 A 
ATOM     91  C   UNL A   1      46.190  32.770  30.090  1.00  0.00     0.131 A 
ATOM     92  C   UNL A   1      46.057  34.913  28.346  1.00  0.00     0.055 A 
ATOM     93  C   UNL A   1      46.721  34.003  30.471  1.00  0.00     0.041 A 
ATOM     94  F   UNL A   1      46.308  31.749  30.954  1.00  0.00    -0.206 F 
ATOM     95  C   UNL A   1      46.672  35.078  29.589  1.00  0.00     0.022 A 
BRANCH  92  96
ATOM     96  S   UNL A   1      46.119  36.246  27.117  1.00  0.00     0.124 S 
ATOM     97  O   UNL A   1      45.746  35.549  25.891  1.00  0.00    -0.237 OA
ATOM     98  O   UNL A   1      45.137  37.193  27.635  1.00  0.00    -0.237 OA
ATOM     99  O   UNL A   1      47.507  36.701  27.174  1.00  0.00    -0.744 OA
ENDBRANCH  92  96
ENDBRANCH  66  89
ENDBRANCH  40  41
ENDBRANCH  32  35
ENDBRANCH  30  31
ENDBRANCH  29  30
ENDBRANCH   1  29
TORSDOF 17
ENDMDL
MODEL 2
REMARK VINA RESULT:     -12.0      5.511      9.162
REMARK SMILES Cc1nc(-c2ccc(S(=O)(=O)N3CC[NH2+][C@H](C(=O)NCCCCNC(=O)c4ccc(-c5c6nc(c(-c7cc(S(=O)(=O)[O-])ccc7F)c7ccc([nH]7)c(-c7cc(S(=O)(=O)[O-])ccc7F)c7nc(c(-c8cc(S(=O)(=O)[O-])ccc8F)c8ccc5[nH]8)C=C7)C=C6)cc4)C3)s2)cs1
REMARK SMILES IDX 21 1 20 2 19 3 17 4 18 5 16 7 12 8 13 9 90 10 14 11 15 12
REMARK SMILES IDX 9 15 10 16 11 17 8 18 5 19 6 20 91 21 7 22 4 23 1 24 2 25
REMARK SMILES IDX 3 26 93 27 92 28 22 29 23 30 24 31 25 32 26 34 27 35 28 36
REMARK SMILES IDX 89 37 29 38 88 39 30 40 31 41 32 42 82 43 33 44 87 45 81 46
REMARK SMILES IDX 83 47 34 48 86 49 80 50 79 51 35 53 67 54 47 55 66 56 48 57
REMARK SMILES IDX 51 58 65 59 84 60 49 61 50 62 64 64 85 65 52 66 36 67 37 68
REMARK SMILES IDX 45 69 38 70 44 71 46 72 43 73 39 74 40 75 41 76 42 77 68 78
REMARK SMILES IDX 69 79 77 80 70 81 76 82 78 83 75 84 71 85 72 86 73 87 74 88
REMARK SMILES IDX 53 89 54 90 62 91 55 92 61 93 63 94 60 95 56 96 57 97 58 98
REMARK SMILES IDX 59 99
REMARK H PARENT 19 6 15 13 15 14 24 33 83 52 51 63
REMARK Flexibility Score: inf
ROOT
ATOM      1  C   UNL A   1      32.373  27.476  26.746  1.00  0.00     0.023 C 
ENDROOT
BRANCH   1   2
ATOM      2  C   UNL A   1      31.293  26.541  26.195  1.00  0.00     0.116 C 
BRANCH   2   3
ATOM      3  N   UNL A   1      31.270  25.326  26.979  1.00  0.00    -0.351 N 
ATOM      4  C   UNL A   1      31.339  24.028  26.578  1.00  0.00     0.279 C 
ATOM      5  O   UNL A   1      30.800  23.206  27.329  1.00  0.00    -0.268 OA
ATOM      6  H   UNL A   1      31.192  25.459  27.951  1.00  0.00     0.163 HD
BRANCH   4   7
ATOM      7  C   UNL A   1      32.171  23.561  25.348  1.00  0.00     0.287 C 
ATOM      8  N   UNL A   1      32.476  22.942  22.984  1.00  0.00    -0.185 NA
ATOM      9  C   UNL A   1      33.127  21.654  23.276  1.00  0.00     0.164 C 
ATOM     10  C   UNL A   1      31.468  23.284  24.022  1.00  0.00     0.178 C 
ATOM     11  C   UNL A   1      33.652  21.588  24.720  1.00  0.00     0.278 C 
ATOM     12  N   UNL A   1      32.991  22.377  25.771  1.00  0.00    -0.334 N 
ATOM     13  H   UNL A   1      33.721  22.720  26.397  1.00  0.00     0.347 HD
ATOM     14  H   UNL A   1      32.318  21.734  26.190  1.00  0.00     0.347 HD
BRANCH   8  15
ATOM     15  S   UNL A   1      33.324  24.180  22.194  1.00  0.00     0.253 S 
ATOM     16  O   UNL A   1      33.163  23.949  20.770  1.00  0.00    -0.206 OA
ATOM     17  O   UNL A   1      34.633  24.255  22.803  1.00  0.00    -0.206 OA
BRANCH  15  18
ATOM     18  C   UNL A   1      32.636  25.816  22.461  1.00  0.00     0.135 A 
ATOM     19  C   UNL A   1      30.932  27.617  22.575  1.00  0.00     0.055 A 
ATOM     20  C   UNL A   1      32.209  28.102  22.709  1.00  0.00     0.023 A 
ATOM     21  S   UNL A   1      30.906  25.919  22.452  1.00  0.00    -0.121 S 
ATOM     22  C   UNL A   1      33.173  27.072  22.667  1.00  0.00     0.034 A 
BRANCH  19  23
ATOM     23  C   UNL A   1      29.783  28.568  22.517  1.00  0.00     0.091 A 
ATOM     24  C   UNL A   1      28.469  31.460  20.737  1.00  0.00     0.079 C 
ATOM     25  C   UNL A   1      28.740  30.320  21.654  1.00  0.00     0.090 A 
ATOM     26  N   UNL A   1      29.856  29.632  21.632  1.00  0.00    -0.241 NA
ATOM     27  S   UNL A   1      27.592  29.811  22.825  1.00  0.00    -0.127 S 
ATOM     28  C   UNL A   1      28.627  28.504  23.262  1.00  0.00     0.096 A 
ENDBRANCH  19  23
ENDBRANCH  15  18
ENDBRANCH   8  15
ENDBRANCH   4   7
ENDBRANCH   2   3
ENDBRANCH   1   2
BRANCH   1  29
ATOM     29  C   UNL A   1      32.528  28.767  25.930  1.00  0.00     0.023 C 
BRANCH  29  30
ATOM     30  C   UNL A   1      33.743  29.603  26.313  1.00  0.00     0.116 C 
BRANCH  30  31
ATOM     31  N   UNL A   1      33.397  30.984  26.607  1.00  0.00    -0.352 N 
ATOM     32  C   UNL A   1      33.985  31.833  27.511  1.00  0.00     0.251 C 
ATOM     33  H   UNL A   1      32.646  31.357  26.093  1.00  0.00     0.163 HD
ATOM     34  O   UNL A   1      33.480  32.927  27.740  1.00  0.00    -0.269 OA
BRANCH  32  35
ATOM     35  C   UNL A   1      35.192  31.388  28.232  1.00  0.00     0.039 A 
ATOM     36  C   UNL A   1      35.139  30.191  28.949  1.00  0.00     0.014 A 
ATOM     37  C   UNL A   1      36.378  32.127  28.172  1.00  0.00     0.014 A 
ATOM     38  C   UNL A   1      36.293  29.708  29.563  1.00  0.00     0.010 A 
ATOM     39  C   UNL A   1      37.544  31.607  28.723  1.00  0.00     0.010 A 
ATOM     40  C   UNL A   1      37.512  30.395  29.428  1.00  0.00    -0.014 A 
BRANCH  40  41
ATOM     41  C   UNL A   1      38.755  29.853  30.031  1.00  0.00     0.031 A 
ATOM     42  C   UNL A   1      39.204  30.320  31.388  1.00  0.00     0.074 A 
ATOM     43  C   UNL A   1      39.496  28.970  29.333  1.00  0.00     0.049 A 
ATOM     44  N   UNL A   1      40.257  29.966  32.077  1.00  0.00    -0.248 NA
ATOM     45  C   UNL A   1      38.374  31.344  32.041  1.00  0.00     0.031 C 
ATOM     46  C   UNL A   1      39.190  28.494  27.981  1.00  0.00     0.029 A 
ATOM     47  N   UNL A   1      40.653  28.313  29.662  1.00  0.00    -0.354 N 
ATOM     48  C   UNL A   1      40.222  30.728  33.241  1.00  0.00     0.074 A 
ATOM     49  C   UNL A   1      39.083  31.613  33.127  1.00  0.00     0.031 C 
ATOM     50  C   UNL A   1      40.116  27.595  27.612  1.00  0.00     0.029 A 
ATOM     51  C   UNL A   1      41.098  27.454  28.683  1.00  0.00     0.049 A 
ATOM     52  H   UNL A   1      41.123  28.442  30.517  1.00  0.00     0.167 HD
ATOM     53  C   UNL A   1      41.046  30.673  34.316  1.00  0.00     0.034 A 
ATOM     54  C   UNL A   1      42.171  26.639  28.657  1.00  0.00     0.034 A 
ATOM     55  C   UNL A   1      42.172  29.775  34.415  1.00  0.00     0.049 A 
ATOM     56  C   UNL A   1      43.063  26.582  29.870  1.00  0.00     0.074 A 
ATOM     57  C   UNL A   1      43.049  29.599  35.470  1.00  0.00     0.029 A 
ATOM     58  N   UNL A   1      42.579  28.899  33.414  1.00  0.00    -0.354 N 
ATOM     59  N   UNL A   1      42.982  27.264  30.990  1.00  0.00    -0.248 NA
ATOM     60  C   UNL A   1      44.177  25.626  29.825  1.00  0.00     0.031 C 
ATOM     61  C   UNL A   1      44.018  28.664  35.088  1.00  0.00     0.029 A 
ATOM     62  C   UNL A   1      43.703  28.197  33.821  1.00  0.00     0.049 A 
ATOM     63  H   UNL A   1      42.133  28.793  32.543  1.00  0.00     0.167 HD
ATOM     64  C   UNL A   1      44.014  26.792  31.796  1.00  0.00     0.074 A 
ATOM     65  C   UNL A   1      44.690  25.757  31.039  1.00  0.00     0.031 C 
ATOM     66  C   UNL A   1      44.370  27.174  33.050  1.00  0.00     0.034 A 
BRANCH  53  67
ATOM     67  C   UNL A   1      40.765  31.626  35.454  1.00  0.00     0.023 A 
ATOM     68  C   UNL A   1      39.637  31.476  36.282  1.00  0.00     0.031 A 
ATOM     69  C   UNL A   1      41.611  32.723  35.695  1.00  0.00     0.131 A 
ATOM     70  C   UNL A   1      39.340  32.448  37.249  1.00  0.00     0.055 A 
ATOM     71  C   UNL A   1      41.357  33.640  36.718  1.00  0.00     0.041 A 
ATOM     72  F   UNL A   1      42.692  32.934  34.928  1.00  0.00    -0.206 F 
ATOM     73  C   UNL A   1      40.207  33.515  37.491  1.00  0.00     0.022 A 
BRANCH  70  74
ATOM     74  S   UNL A   1      37.728  32.379  38.078  1.00  0.00     0.124 S 
ATOM     75  O   UNL A   1      38.045  32.948  39.385  1.00  0.00    -0.237 OA
ATOM     76  O   UNL A   1      36.891  33.199  37.208  1.00  0.00    -0.237 OA
ATOM     77  O   UNL A   1      37.409  30.953  38.087  1.00  0.00    -0.744 OA
ENDBRANCH  70  74
ENDBRANCH  53  67
BRANCH  54  78
ATOM     78  C   UNL A   1      42.454  25.800  27.459  1.00  0.00     0.023 A 
ATOM     79  C   UNL A   1      42.020  24.467  27.390  1.00  0.00     0.031 A 
ATOM     80  C   UNL A   1      43.196  26.309  26.378  1.00  0.00     0.131 A 
ATOM     81  C   UNL A   1      42.373  23.672  26.288  1.00  0.00     0.055 A 
ATOM     82  C   UNL A   1      43.501  25.529  25.260  1.00  0.00     0.041 A 
ATOM     83  F   UNL A   1      43.626  27.581  26.388  1.00  0.00    -0.206 F 
ATOM     84  C   UNL A   1      43.101  24.197  25.219  1.00  0.00     0.022 A 
BRANCH  81  85
ATOM     85  S   UNL A   1      41.936  21.911  26.313  1.00  0.00     0.124 S 
ATOM     86  O   UNL A   1      42.856  21.361  25.324  1.00  0.00    -0.237 OA
ATOM     87  O   UNL A   1      42.200  21.555  27.704  1.00  0.00    -0.237 OA
ATOM     88  O   UNL A   1      40.527  21.906  25.928  1.00  0.00    -0.744 OA
ENDBRANCH  81  85
ENDBRANCH  54  78
BRANCH  66  89
ATOM     89  C   UNL A   1      45.513  26.425  33.691  1.00  0.00     0.023 A 
ATOM     90  C   UNL A   1      45.308  25.242  34.423  1.00  0.00     0.031 A 
ATOM     91  C   UNL A   1      46.825  26.924  33.593  1.00  0.00     0.131 A 
ATOM     92  C   UNL A   1      46.386  24.638  35.088  1.00  0.00     0.055 A 
ATOM     93  C   UNL A   1      47.903  26.280  34.202  1.00  0.00     0.041 A 
ATOM     94  F   UNL A   1      47.079  28.049  32.907  1.00  0.00    -0.206 F 
ATOM     95  C   UNL A   1      47.684  25.140  34.970  1.00  0.00     0.022 A 
BRANCH  92  96
ATOM     96  S   UNL A   1      46.048  23.252  36.209  1.00  0.00     0.124 S 
ATOM     97  O   UNL A   1      47.169  22.359  35.937  1.00  0.00    -0.237 OA
ATOM     98  O   UNL A   1      46.053  23.900  37.516  1.00  0.00    -0.237 OA
ATOM     99  O   UNL A   1      44.744  22.762  35.766  1.00  0.00    -0.744 OA
ENDBRANCH  92  96
ENDBRANCH  66  89
ENDBRANCH  40  41
ENDBRANCH  32  35
ENDBRANCH  30  31
ENDBRANCH  29  30
ENDBRANCH   1  29
TORSDOF 17
ENDMDL
MODEL 3
REMARK VINA RESULT:     -11.9      5.650      9.244
REMARK SMILES Cc1nc(-c2ccc(S(=O)(=O)N3CC[NH2+][C@H](C(=O)NCCCCNC(=O)c4ccc(-c5c6nc(c(-c7cc(S(=O)(=O)[O-])ccc7F)c7ccc([nH]7)c(-c7cc(S(=O)(=O)[O-])ccc7F)c7nc(c(-c8cc(S(=O)(=O)[O-])ccc8F)c8ccc5[nH]8)C=C7)C=C6)cc4)C3)s2)cs1
REMARK SMILES IDX 21 1 20 2 19 3 17 4 18 5 16 7 12 8 13 9 90 10 14 11 15 12
REMARK SMILES IDX 9 15 10 16 11 17 8 18 5 19 6 20 91 21 7 22 4 23 1 24 2 25
REMARK SMILES IDX 3 26 93 27 92 28 22 29 23 30 24 31 25 32 26 34 27 35 28 36
REMARK SMILES IDX 89 37 29 38 88 39 30 40 31 41 32 42 82 43 33 44 87 45 81 46
REMARK SMILES IDX 83 47 34 48 86 49 80 50 79 51 35 53 67 54 47 55 66 56 48 57
REMARK SMILES IDX 51 58 65 59 84 60 49 61 50 62 64 64 85 65 52 66 36 67 37 68
REMARK SMILES IDX 45 69 38 70 44 71 46 72 43 73 39 74 40 75 41 76 42 77 68 78
REMARK SMILES IDX 69 79 77 80 70 81 76 82 78 83 75 84 71 85 72 86 73 87 74 88
REMARK SMILES IDX 53 89 54 90 62 91 55 92 61 93 63 94 60 95 56 96 57 97 58 98
REMARK SMILES IDX 59 99
REMARK H PARENT 19 6 15 13 15 14 24 33 83 52 51 63
REMARK Flexibility Score: inf
ROOT
ATOM      1  C   UNL A   1      31.867  29.957  26.149  1.00  0.00     0.023 C 
ENDROOT
BRANCH   1   2
ATOM      2  C   UNL A   1      31.232  29.529  24.823  1.00  0.00     0.116 C 
BRANCH   2   3
ATOM      3  N   UNL A   1      32.258  29.451  23.806  1.00  0.00    -0.351 N 
ATOM      4  C   UNL A   1      33.275  28.560  23.662  1.00  0.00     0.279 C 
ATOM      5  O   UNL A   1      34.273  28.980  23.062  1.00  0.00    -0.268 OA
ATOM      6  H   UNL A   1      32.213  30.150  23.115  1.00  0.00     0.163 HD
BRANCH   4   7
ATOM      7  C   UNL A   1      33.159  27.062  24.068  1.00  0.00     0.287 C 
ATOM      8  N   UNL A   1      32.235  24.786  23.899  1.00  0.00    -0.185 NA
ATOM      9  C   UNL A   1      31.916  24.675  25.332  1.00  0.00     0.164 C 
ATOM     10  C   UNL A   1      32.090  26.186  23.421  1.00  0.00     0.178 C 
ATOM     11  C   UNL A   1      32.673  25.716  26.173  1.00  0.00     0.278 C 
ATOM     12  N   UNL A   1      33.065  26.997  25.565  1.00  0.00    -0.334 N 
ATOM     13  H   UNL A   1      33.982  27.242  25.939  1.00  0.00     0.347 HD
ATOM     14  H   UNL A   1      32.307  27.637  25.803  1.00  0.00     0.347 HD
BRANCH   8  15
ATOM     15  S   UNL A   1      33.394  23.770  23.189  1.00  0.00     0.253 S 
ATOM     16  O   UNL A   1      34.617  23.943  23.950  1.00  0.00    -0.206 OA
ATOM     17  O   UNL A   1      33.352  24.010  21.764  1.00  0.00    -0.206 OA
BRANCH  15  18
ATOM     18  C   UNL A   1      33.017  22.022  23.338  1.00  0.00     0.135 A 
ATOM     19  C   UNL A   1      33.262  19.657  24.049  1.00  0.00     0.055 A 
ATOM     20  C   UNL A   1      32.291  19.813  23.091  1.00  0.00     0.023 A 
ATOM     21  S   UNL A   1      33.944  21.147  24.512  1.00  0.00    -0.121 S 
ATOM     22  C   UNL A   1      32.139  21.162  22.707  1.00  0.00     0.034 A 
BRANCH  19  23
ATOM     23  C   UNL A   1      33.619  18.288  24.522  1.00  0.00     0.091 A 
ATOM     24  C   UNL A   1      32.230  15.207  25.876  1.00  0.00     0.079 C 
ATOM     25  C   UNL A   1      33.086  16.312  25.367  1.00  0.00     0.090 A 
ATOM     26  N   UNL A   1      32.620  17.503  25.076  1.00  0.00    -0.241 NA
ATOM     27  S   UNL A   1      34.771  16.105  25.116  1.00  0.00    -0.127 S 
ATOM     28  C   UNL A   1      34.863  17.700  24.468  1.00  0.00     0.096 A 
ENDBRANCH  19  23
ENDBRANCH  15  18
ENDBRANCH   8  15
ENDBRANCH   4   7
ENDBRANCH   2   3
ENDBRANCH   1   2
BRANCH   1  29
ATOM     29  C   UNL A   1      31.691  31.452  26.448  1.00  0.00     0.023 C 
BRANCH  29  30
ATOM     30  C   UNL A   1      32.880  32.090  27.155  1.00  0.00     0.116 C 
BRANCH  30  31
ATOM     31  N   UNL A   1      32.619  33.464  27.551  1.00  0.00    -0.352 N 
ATOM     32  C   UNL A   1      33.287  34.221  28.481  1.00  0.00     0.251 C 
ATOM     33  H   UNL A   1      31.869  33.908  27.095  1.00  0.00     0.163 HD
ATOM     34  O   UNL A   1      32.851  35.322  28.802  1.00  0.00    -0.269 OA
BRANCH  32  35
ATOM     35  C   UNL A   1      34.498  33.670  29.119  1.00  0.00     0.039 A 
ATOM     36  C   UNL A   1      34.348  32.681  30.093  1.00  0.00     0.014 A 
ATOM     37  C   UNL A   1      35.771  34.099  28.734  1.00  0.00     0.014 A 
ATOM     38  C   UNL A   1      35.480  32.083  30.644  1.00  0.00     0.010 A 
ATOM     39  C   UNL A   1      36.897  33.452  29.231  1.00  0.00     0.010 A 
ATOM     40  C   UNL A   1      36.763  32.441  30.194  1.00  0.00    -0.014 A 
BRANCH  40  41
ATOM     41  C   UNL A   1      37.968  31.766  30.735  1.00  0.00     0.031 A 
ATOM     42  C   UNL A   1      38.510  32.151  32.084  1.00  0.00     0.074 A 
ATOM     43  C   UNL A   1      38.593  30.833  29.990  1.00  0.00     0.049 A 
ATOM     44  N   UNL A   1      39.548  31.679  32.724  1.00  0.00    -0.248 NA
ATOM     45  C   UNL A   1      37.809  33.233  32.792  1.00  0.00     0.031 C 
ATOM     46  C   UNL A   1      38.193  30.424  28.641  1.00  0.00     0.029 A 
ATOM     47  N   UNL A   1      39.692  30.058  30.259  1.00  0.00    -0.354 N 
ATOM     48  C   UNL A   1      39.631  32.410  33.905  1.00  0.00     0.074 A 
ATOM     49  C   UNL A   1      38.580  33.404  33.855  1.00  0.00     0.031 C 
ATOM     50  C   UNL A   1      39.012  29.449  28.216  1.00  0.00     0.029 A 
ATOM     51  C   UNL A   1      40.014  29.186  29.244  1.00  0.00     0.049 A 
ATOM     52  H   UNL A   1      40.203  30.119  31.097  1.00  0.00     0.167 HD
ATOM     53  C   UNL A   1      40.484  32.247  34.946  1.00  0.00     0.034 A 
ATOM     54  C   UNL A   1      41.000  28.272  29.158  1.00  0.00     0.034 A 
ATOM     55  C   UNL A   1      41.519  31.241  34.980  1.00  0.00     0.049 A 
ATOM     56  C   UNL A   1      41.927  28.097  30.334  1.00  0.00     0.074 A 
ATOM     57  C   UNL A   1      42.413  30.954  35.996  1.00  0.00     0.029 A 
ATOM     58  N   UNL A   1      41.802  30.356  33.945  1.00  0.00    -0.354 N 
ATOM     59  N   UNL A   1      41.954  28.754  31.471  1.00  0.00    -0.248 NA
ATOM     60  C   UNL A   1      42.939  27.040  30.224  1.00  0.00     0.031 C 
ATOM     61  C   UNL A   1      43.272  29.940  35.556  1.00  0.00     0.029 A 
ATOM     62  C   UNL A   1      42.866  29.539  34.292  1.00  0.00     0.049 A 
ATOM     63  H   UNL A   1      41.316  30.317  33.089  1.00  0.00     0.167 HD
ATOM     64  C   UNL A   1      42.964  28.163  32.225  1.00  0.00     0.074 A 
ATOM     65  C   UNL A   1      43.507  27.088  31.419  1.00  0.00     0.031 C 
ATOM     66  C   UNL A   1      43.400  28.476  33.473  1.00  0.00     0.034 A 
BRANCH  53  67
ATOM     67  C   UNL A   1      40.339  33.193  36.115  1.00  0.00     0.023 A 
ATOM     68  C   UNL A   1      39.657  32.819  37.287  1.00  0.00     0.031 A 
ATOM     69  C   UNL A   1      40.855  34.499  36.046  1.00  0.00     0.131 A 
ATOM     70  C   UNL A   1      39.435  33.762  38.302  1.00  0.00     0.055 A 
ATOM     71  C   UNL A   1      40.706  35.407  37.098  1.00  0.00     0.041 A 
ATOM     72  F   UNL A   1      41.498  34.924  34.948  1.00  0.00    -0.206 F 
ATOM     73  C   UNL A   1      39.978  35.046  38.227  1.00  0.00     0.022 A 
BRANCH  70  74
ATOM     74  S   UNL A   1      38.297  33.332  39.648  1.00  0.00     0.124 S 
ATOM     75  O   UNL A   1      37.053  33.100  38.918  1.00  0.00    -0.237 OA
ATOM     76  O   UNL A   1      38.927  32.152  40.229  1.00  0.00    -0.237 OA
ATOM     77  O   UNL A   1      38.302  34.524  40.494  1.00  0.00    -0.744 OA
ENDBRANCH  70  74
ENDBRANCH  53  67
BRANCH  54  78
ATOM     78  C   UNL A   1      41.156  27.441  27.931  1.00  0.00     0.023 A 
ATOM     79  C   UNL A   1      40.796  26.085  27.925  1.00  0.00     0.031 A 
ATOM     80  C   UNL A   1      41.702  27.984  26.754  1.00  0.00     0.131 A 
ATOM     81  C   UNL A   1      41.032  25.302  26.784  1.00  0.00     0.055 A 
ATOM     82  C   UNL A   1      41.888  27.214  25.604  1.00  0.00     0.041 A 
ATOM     83  F   UNL A   1      42.053  29.278  26.702  1.00  0.00    -0.206 F 
ATOM     84  C   UNL A   1      41.565  25.861  25.620  1.00  0.00     0.022 A 
BRANCH  81  85
ATOM     85  S   UNL A   1      40.707  23.519  26.872  1.00  0.00     0.124 S 
ATOM     86  O   UNL A   1      41.143  23.204  28.227  1.00  0.00    -0.237 OA
ATOM     87  O   UNL A   1      39.270  23.462  26.629  1.00  0.00    -0.237 OA
ATOM     88  O   UNL A   1      41.539  22.970  25.803  1.00  0.00    -0.744 OA
ENDBRANCH  81  85
ENDBRANCH  54  78
BRANCH  66  89
ATOM     89  C   UNL A   1      44.488  27.603  34.052  1.00  0.00     0.023 A 
ATOM     90  C   UNL A   1      44.209  26.347  34.618  1.00  0.00     0.031 A 
ATOM     91  C   UNL A   1      45.820  28.054  34.066  1.00  0.00     0.131 A 
ATOM     92  C   UNL A   1      45.235  25.617  35.237  1.00  0.00     0.055 A 
ATOM     93  C   UNL A   1      46.848  27.292  34.624  1.00  0.00     0.041 A 
ATOM     94  F   UNL A   1      46.144  29.246  33.540  1.00  0.00    -0.206 F 
ATOM     95  C   UNL A   1      46.554  26.074  35.230  1.00  0.00     0.022 A 
BRANCH  92  96
ATOM     96  S   UNL A   1      44.799  24.115  36.157  1.00  0.00     0.124 S 
ATOM     97  O   UNL A   1      43.377  23.978  35.862  1.00  0.00    -0.237 OA
ATOM     98  O   UNL A   1      45.674  23.116  35.552  1.00  0.00    -0.237 OA
ATOM     99  O   UNL A   1      45.115  24.458  37.542  1.00  0.00    -0.744 OA
ENDBRANCH  92  96
ENDBRANCH  66  89
ENDBRANCH  40  41
ENDBRANCH  32  35
ENDBRANCH  30  31
ENDBRANCH  29  30
ENDBRANCH   1  29
TORSDOF 17
ENDMDL
