MODEL 1
REMARK VINA RESULT:     -11.5      0.000      0.000
REMARK SMILES CC1(C)[C@@](C)(C(=O)NCCCCNC(=O)c2ccc(-c3c4nc(c(-c5cc(S(=O)(=O)[O-])ccc5F)c5ccc([nH]5)c(-c5cc(S(=O)(=O)[O-])ccc5F)c5nc(c(-c6cc(S(=O)(=O)[O-])ccc6F)c6ccc3[nH]6)C=C5)C=C4)cc2)[C@@]12CC[C@@H]2C(=O)NCc1ccco1
REMARK SMILES IDX 10 1 9 2 8 3 6 4 7 5 4 7 1 8 2 9 3 10 79 11 5 12 80 13 82 14
REMARK SMILES IDX 81 15 83 16 84 17 85 18 86 20 87 21 88 22 91 23 89 24 90 25
REMARK SMILES IDX 11 26 12 27 13 28 14 29 15 31 16 32 17 33 78 34 18 35 77 36
REMARK SMILES IDX 19 37 20 38 21 39 71 40 22 41 76 42 70 43 72 44 23 45 75 46
REMARK SMILES IDX 69 47 68 48 24 50 56 51 36 52 55 53 37 54 40 55 54 56 73 57
REMARK SMILES IDX 38 58 39 59 53 61 74 62 41 63 25 64 26 65 34 66 27 67 33 68
REMARK SMILES IDX 35 69 32 70 28 71 29 72 30 73 31 74 57 75 58 76 66 77 59 78
REMARK SMILES IDX 65 79 67 80 64 81 60 82 61 83 62 84 63 85 42 86 43 87 51 88
REMARK SMILES IDX 44 89 50 90 52 91 49 92 45 93 46 94 47 95 48 96
REMARK H PARENT 8 6 85 19 13 30 72 49 40 60
REMARK Flexibility Score: inf
ROOT
ATOM      1  C   UNL A   1      31.634  27.534  25.656  1.00  0.00     0.023 C 
ENDROOT
BRANCH   1   2
ATOM      2  C   UNL A   1      30.553  26.544  25.214  1.00  0.00     0.116 C 
BRANCH   2   3
ATOM      3  N   UNL A   1      30.394  25.475  26.175  1.00  0.00    -0.356 N 
ATOM      4  C   UNL A   1      31.157  24.368  26.413  1.00  0.00     0.227 C 
ATOM      5  O   UNL A   1      30.869  23.665  27.369  1.00  0.00    -0.274 OA
ATOM      6  H   UNL A   1      29.605  25.560  26.757  1.00  0.00     0.163 HD
BRANCH   4   7
ATOM      7  C   UNL A   1      32.389  24.080  25.589  1.00  0.00     0.059 C 
ATOM      8  C   UNL A   1      31.046  23.925  23.332  1.00  0.00     0.013 C 
ATOM      9  C   UNL A   1      32.355  23.739  24.080  1.00  0.00    -0.013 C 
ATOM     10  C   UNL A   1      33.539  23.961  23.162  1.00  0.00     0.013 C 
ATOM     11  C   UNL A   1      32.476  22.615  25.101  1.00  0.00     0.003 C 
ATOM     12  C   UNL A   1      33.631  24.791  26.112  1.00  0.00     0.023 C 
ATOM     13  C   UNL A   1      31.460  21.516  25.068  1.00  0.00     0.010 C 
ATOM     14  C   UNL A   1      33.616  21.658  25.330  1.00  0.00     0.086 C 
ATOM     15  C   UNL A   1      32.620  20.523  25.079  1.00  0.00     0.015 C 
BRANCH  14  16
ATOM     16  C   UNL A   1      34.450  21.680  26.631  1.00  0.00     0.224 C 
ATOM     17  O   UNL A   1      33.900  21.550  27.741  1.00  0.00    -0.275 OA
ATOM     18  N   UNL A   1      35.807  21.884  26.687  1.00  0.00    -0.349 N 
ATOM     19  H   UNL A   1      36.166  21.973  27.599  1.00  0.00     0.163 HD
BRANCH  18  20
ATOM     20  C   UNL A   1      36.803  21.993  25.643  1.00  0.00     0.191 C 
BRANCH  20  21
ATOM     21  C   UNL A   1      37.927  22.870  26.052  1.00  0.00     0.122 A 
ATOM     22  C   UNL A   1      38.080  24.219  26.301  1.00  0.00     0.047 A 
ATOM     23  O   UNL A   1      39.129  22.239  26.209  1.00  0.00    -0.467 OA
ATOM     24  C   UNL A   1      39.446  24.419  26.622  1.00  0.00     0.042 A 
ATOM     25  C   UNL A   1      40.041  23.182  26.553  1.00  0.00     0.195 A 
ENDBRANCH  20  21
ENDBRANCH  18  20
ENDBRANCH  14  16
ENDBRANCH   4   7
ENDBRANCH   2   3
ENDBRANCH   1   2
BRANCH   1  26
ATOM     26  C   UNL A   1      32.657  27.924  24.577  1.00  0.00     0.023 C 
BRANCH  26  27
ATOM     27  C   UNL A   1      33.587  29.082  24.936  1.00  0.00     0.116 C 
BRANCH  27  28
ATOM     28  N   UNL A   1      32.876  30.168  25.587  1.00  0.00    -0.352 N 
ATOM     29  C   UNL A   1      33.161  30.839  26.752  1.00  0.00     0.251 C 
ATOM     30  H   UNL A   1      32.063  30.470  25.121  1.00  0.00     0.163 HD
ATOM     31  O   UNL A   1      32.308  31.585  27.229  1.00  0.00    -0.269 OA
BRANCH  29  32
ATOM     32  C   UNL A   1      34.461  30.662  27.448  1.00  0.00     0.039 A 
ATOM     33  C   UNL A   1      35.315  31.765  27.560  1.00  0.00     0.014 A 
ATOM     34  C   UNL A   1      34.873  29.420  27.940  1.00  0.00     0.014 A 
ATOM     35  C   UNL A   1      36.547  31.639  28.213  1.00  0.00     0.010 A 
ATOM     36  C   UNL A   1      36.077  29.308  28.642  1.00  0.00     0.010 A 
ATOM     37  C   UNL A   1      36.928  30.416  28.787  1.00  0.00    -0.014 A 
BRANCH  37  38
ATOM     38  C   UNL A   1      38.204  30.284  29.543  1.00  0.00     0.031 A 
ATOM     39  C   UNL A   1      39.335  29.452  28.999  1.00  0.00     0.074 A 
ATOM     40  C   UNL A   1      38.324  30.864  30.754  1.00  0.00     0.049 A 
ATOM     41  N   UNL A   1      40.489  29.161  29.547  1.00  0.00    -0.248 NA
ATOM     42  C   UNL A   1      39.125  28.848  27.677  1.00  0.00     0.031 C 
ATOM     43  C   UNL A   1      37.287  31.657  31.416  1.00  0.00     0.029 A 
ATOM     44  N   UNL A   1      39.363  30.861  31.652  1.00  0.00    -0.354 N 
ATOM     45  C   UNL A   1      41.140  28.328  28.641  1.00  0.00     0.074 A 
ATOM     46  C   UNL A   1      40.223  28.120  27.538  1.00  0.00     0.031 C 
ATOM     47  C   UNL A   1      37.742  32.066  32.610  1.00  0.00     0.029 A 
ATOM     48  C   UNL A   1      39.087  31.538  32.817  1.00  0.00     0.049 A 
ATOM     49  H   UNL A   1      40.224  30.416  31.478  1.00  0.00     0.167 HD
ATOM     50  C   UNL A   1      42.390  27.803  28.713  1.00  0.00     0.034 A 
ATOM     51  C   UNL A   1      39.823  31.701  33.934  1.00  0.00     0.034 A 
ATOM     52  C   UNL A   1      43.296  28.020  29.817  1.00  0.00     0.049 A 
ATOM     53  C   UNL A   1      41.205  31.107  33.998  1.00  0.00     0.074 A 
ATOM     54  C   UNL A   1      44.601  27.581  29.964  1.00  0.00     0.029 A 
ATOM     55  N   UNL A   1      42.989  28.730  30.972  1.00  0.00    -0.354 N 
ATOM     56  N   UNL A   1      41.827  30.366  33.110  1.00  0.00    -0.248 NA
ATOM     57  C   UNL A   1      41.989  31.383  35.208  1.00  0.00     0.031 C 
ATOM     58  C   UNL A   1      45.060  27.972  31.228  1.00  0.00     0.029 A 
ATOM     59  C   UNL A   1      44.069  28.715  31.845  1.00  0.00     0.049 A 
ATOM     60  H   UNL A   1      42.130  29.178  31.147  1.00  0.00     0.167 HD
ATOM     61  C   UNL A   1      43.084  30.105  33.649  1.00  0.00     0.074 A 
ATOM     62  C   UNL A   1      43.136  30.785  34.928  1.00  0.00     0.031 C 
ATOM     63  C   UNL A   1      44.103  29.374  33.131  1.00  0.00     0.034 A 
BRANCH  50  64
ATOM     64  C   UNL A   1      42.831  26.916  27.571  1.00  0.00     0.023 A 
ATOM     65  C   UNL A   1      42.931  25.521  27.717  1.00  0.00     0.031 A 
ATOM     66  C   UNL A   1      43.198  27.474  26.333  1.00  0.00     0.131 A 
ATOM     67  C   UNL A   1      43.470  24.743  26.681  1.00  0.00     0.055 A 
ATOM     68  C   UNL A   1      43.653  26.683  25.275  1.00  0.00     0.041 A 
ATOM     69  F   UNL A   1      43.140  28.800  26.136  1.00  0.00    -0.206 F 
ATOM     70  C   UNL A   1      43.810  25.312  25.452  1.00  0.00     0.022 A 
BRANCH  67  71
ATOM     71  S   UNL A   1      43.873  23.008  27.024  1.00  0.00     0.124 S 
ATOM     72  O   UNL A   1      43.407  22.350  25.805  1.00  0.00    -0.237 OA
ATOM     73  O   UNL A   1      45.317  23.052  27.216  1.00  0.00    -0.237 OA
ATOM     74  O   UNL A   1      43.092  22.705  28.222  1.00  0.00    -0.744 OA
ENDBRANCH  67  71
ENDBRANCH  50  64
BRANCH  51  75
ATOM     75  C   UNL A   1      39.261  32.444  35.096  1.00  0.00     0.023 A 
ATOM     76  C   UNL A   1      38.677  31.768  36.178  1.00  0.00     0.031 A 
ATOM     77  C   UNL A   1      39.283  33.850  35.127  1.00  0.00     0.131 A 
ATOM     78  C   UNL A   1      38.102  32.498  37.230  1.00  0.00     0.055 A 
ATOM     79  C   UNL A   1      38.749  34.571  36.196  1.00  0.00     0.041 A 
ATOM     80  F   UNL A   1      39.839  34.542  34.120  1.00  0.00    -0.206 F 
ATOM     81  C   UNL A   1      38.145  33.894  37.250  1.00  0.00     0.022 A 
BRANCH  78  82
ATOM     82  S   UNL A   1      37.242  31.596  38.546  1.00  0.00     0.124 S 
ATOM     83  O   UNL A   1      38.192  31.700  39.648  1.00  0.00    -0.237 OA
ATOM     84  O   UNL A   1      36.011  32.367  38.686  1.00  0.00    -0.237 OA
ATOM     85  O   UNL A   1      37.075  30.256  37.989  1.00  0.00    -0.744 OA
ENDBRANCH  78  82
ENDBRANCH  51  75
BRANCH  63  86
ATOM     86  C   UNL A   1      45.373  29.303  33.945  1.00  0.00     0.023 A 
ATOM     87  C   UNL A   1      45.555  28.337  34.949  1.00  0.00     0.031 A 
ATOM     88  C   UNL A   1      46.403  30.237  33.732  1.00  0.00     0.131 A 
ATOM     89  C   UNL A   1      46.712  28.361  35.743  1.00  0.00     0.055 A 
ATOM     90  C   UNL A   1      47.577  30.222  34.487  1.00  0.00     0.041 A 
ATOM     91  F   UNL A   1      46.283  31.185  32.788  1.00  0.00    -0.206 F 
ATOM     92  C   UNL A   1      47.730  29.288  35.509  1.00  0.00     0.022 A 
BRANCH  89  93
ATOM     93  S   UNL A   1      46.828  27.223  37.152  1.00  0.00     0.124 S 
ATOM     94  O   UNL A   1      45.465  27.245  37.673  1.00  0.00    -0.237 OA
ATOM     95  O   UNL A   1      47.249  25.980  36.515  1.00  0.00    -0.237 OA
ATOM     96  O   UNL A   1      47.830  27.847  38.014  1.00  0.00    -0.744 OA
ENDBRANCH  89  93
ENDBRANCH  63  86
ENDBRANCH  37  38
ENDBRANCH  29  32
ENDBRANCH  27  28
ENDBRANCH  26  27
ENDBRANCH   1  26
TORSDOF 17
ENDMDL
MODEL 2
REMARK VINA RESULT:     -11.5      2.275      7.886
REMARK SMILES CC1(C)[C@@](C)(C(=O)NCCCCNC(=O)c2ccc(-c3c4nc(c(-c5cc(S(=O)(=O)[O-])ccc5F)c5ccc([nH]5)c(-c5cc(S(=O)(=O)[O-])ccc5F)c5nc(c(-c6cc(S(=O)(=O)[O-])ccc6F)c6ccc3[nH]6)C=C5)C=C4)cc2)[C@@]12CC[C@@H]2C(=O)NCc1ccco1
REMARK SMILES IDX 10 1 9 2 8 3 6 4 7 5 4 7 1 8 2 9 3 10 79 11 5 12 80 13 82 14
REMARK SMILES IDX 81 15 83 16 84 17 85 18 86 20 87 21 88 22 91 23 89 24 90 25
REMARK SMILES IDX 11 26 12 27 13 28 14 29 15 31 16 32 17 33 78 34 18 35 77 36
REMARK SMILES IDX 19 37 20 38 21 39 71 40 22 41 76 42 70 43 72 44 23 45 75 46
REMARK SMILES IDX 69 47 68 48 24 50 56 51 36 52 55 53 37 54 40 55 54 56 73 57
REMARK SMILES IDX 38 58 39 59 53 61 74 62 41 63 25 64 26 65 34 66 27 67 33 68
REMARK SMILES IDX 35 69 32 70 28 71 29 72 30 73 31 74 57 75 58 76 66 77 59 78
REMARK SMILES IDX 65 79 67 80 64 81 60 82 61 83 62 84 63 85 42 86 43 87 51 88
REMARK SMILES IDX 44 89 50 90 52 91 49 92 45 93 46 94 47 95 48 96
REMARK H PARENT 8 6 85 19 13 30 72 49 40 60
REMARK Flexibility Score: inf
ROOT
ATOM      1  C   UNL A   1      31.902  27.810  27.352  1.00  0.00     0.023 C 
ENDROOT
BRANCH   1   2
ATOM      2  C   UNL A   1      31.041  27.035  26.350  1.00  0.00     0.116 C 
BRANCH   2   3
ATOM      3  N   UNL A   1      31.038  25.619  26.645  1.00  0.00    -0.356 N 
ATOM      4  C   UNL A   1      31.761  24.594  26.107  1.00  0.00     0.227 C 
ATOM      5  O   UNL A   1      31.654  23.487  26.612  1.00  0.00    -0.274 OA
ATOM      6  H   UNL A   1      30.410  25.349  27.353  1.00  0.00     0.163 HD
BRANCH   4   7
ATOM      7  C   UNL A   1      32.750  24.839  24.993  1.00  0.00     0.059 C 
ATOM      8  C   UNL A   1      30.905  25.681  23.317  1.00  0.00     0.013 C 
ATOM      9  C   UNL A   1      32.346  25.265  23.562  1.00  0.00    -0.013 C 
ATOM     10  C   UNL A   1      33.287  25.997  22.627  1.00  0.00     0.013 C 
ATOM     11  C   UNL A   1      32.661  23.803  23.849  1.00  0.00     0.003 C 
ATOM     12  C   UNL A   1      34.108  25.309  25.499  1.00  0.00     0.023 C 
ATOM     13  C   UNL A   1      31.622  22.777  23.516  1.00  0.00     0.010 C 
ATOM     14  C   UNL A   1      33.782  22.950  23.319  1.00  0.00     0.086 C 
ATOM     15  C   UNL A   1      32.711  22.000  22.779  1.00  0.00     0.015 C 
BRANCH  14  16
ATOM     16  C   UNL A   1      34.902  22.411  24.239  1.00  0.00     0.224 C 
ATOM     17  O   UNL A   1      36.072  22.820  24.121  1.00  0.00    -0.275 OA
ATOM     18  N   UNL A   1      34.728  21.441  25.196  1.00  0.00    -0.349 N 
ATOM     19  H   UNL A   1      35.563  21.139  25.620  1.00  0.00     0.163 HD
BRANCH  18  20
ATOM     20  C   UNL A   1      33.538  20.785  25.690  1.00  0.00     0.191 C 
BRANCH  20  21
ATOM     21  C   UNL A   1      33.439  19.391  25.192  1.00  0.00     0.122 A 
ATOM     22  C   UNL A   1      34.241  18.558  24.437  1.00  0.00     0.047 A 
ATOM     23  O   UNL A   1      32.280  18.741  25.510  1.00  0.00    -0.467 OA
ATOM     24  C   UNL A   1      33.532  17.341  24.287  1.00  0.00     0.042 A 
ATOM     25  C   UNL A   1      32.344  17.504  24.960  1.00  0.00     0.195 A 
ENDBRANCH  20  21
ENDBRANCH  18  20
ENDBRANCH  14  16
ENDBRANCH   4   7
ENDBRANCH   2   3
ENDBRANCH   1   2
BRANCH   1  26
ATOM     26  C   UNL A   1      32.022  29.320  27.094  1.00  0.00     0.023 C 
BRANCH  26  27
ATOM     27  C   UNL A   1      33.439  29.839  26.849  1.00  0.00     0.116 C 
BRANCH  27  28
ATOM     28  N   UNL A   1      33.568  31.246  27.184  1.00  0.00    -0.352 N 
ATOM     29  C   UNL A   1      34.486  31.885  27.983  1.00  0.00     0.251 C 
ATOM     30  H   UNL A   1      32.892  31.834  26.775  1.00  0.00     0.163 HD
ATOM     31  O   UNL A   1      34.283  33.056  28.297  1.00  0.00    -0.269 OA
BRANCH  29  32
ATOM     32  C   UNL A   1      35.695  31.184  28.484  1.00  0.00     0.039 A 
ATOM     33  C   UNL A   1      36.945  31.781  28.287  1.00  0.00     0.014 A 
ATOM     34  C   UNL A   1      35.621  29.927  29.093  1.00  0.00     0.014 A 
ATOM     35  C   UNL A   1      38.107  31.153  28.749  1.00  0.00     0.010 A 
ATOM     36  C   UNL A   1      36.776  29.328  29.605  1.00  0.00     0.010 A 
ATOM     37  C   UNL A   1      38.032  29.933  29.439  1.00  0.00    -0.014 A 
BRANCH  37  38
ATOM     38  C   UNL A   1      39.252  29.287  29.996  1.00  0.00     0.031 A 
ATOM     39  C   UNL A   1      39.921  29.842  31.225  1.00  0.00     0.074 A 
ATOM     40  C   UNL A   1      39.799  28.233  29.356  1.00  0.00     0.049 A 
ATOM     41  N   UNL A   1      41.030  29.461  31.810  1.00  0.00    -0.248 NA
ATOM     42  C   UNL A   1      39.269  30.994  31.861  1.00  0.00     0.031 C 
ATOM     43  C   UNL A   1      39.278  27.628  28.130  1.00  0.00     0.029 A 
ATOM     44  N   UNL A   1      40.924  27.497  29.637  1.00  0.00    -0.354 N 
ATOM     45  C   UNL A   1      41.216  30.335  32.878  1.00  0.00     0.074 A 
ATOM     46  C   UNL A   1      40.133  31.296  32.818  1.00  0.00     0.031 C 
ATOM     47  C   UNL A   1      40.077  26.613  27.767  1.00  0.00     0.029 A 
ATOM     48  C   UNL A   1      41.186  26.515  28.711  1.00  0.00     0.049 A 
ATOM     49  H   UNL A   1      41.489  27.658  30.427  1.00  0.00     0.167 HD
ATOM     50  C   UNL A   1      42.186  30.325  33.828  1.00  0.00     0.034 A 
ATOM     51  C   UNL A   1      42.211  25.645  28.618  1.00  0.00     0.034 A 
ATOM     52  C   UNL A   1      43.258  29.359  33.878  1.00  0.00     0.049 A 
ATOM     53  C   UNL A   1      43.280  25.653  29.679  1.00  0.00     0.074 A 
ATOM     54  C   UNL A   1      44.258  29.226  34.828  1.00  0.00     0.029 A 
ATOM     55  N   UNL A   1      43.480  28.364  32.934  1.00  0.00    -0.354 N 
ATOM     56  N   UNL A   1      43.413  26.451  30.712  1.00  0.00    -0.248 NA
ATOM     57  C   UNL A   1      44.330  24.632  29.567  1.00  0.00     0.031 C 
ATOM     58  C   UNL A   1      45.116  28.195  34.425  1.00  0.00     0.029 A 
ATOM     59  C   UNL A   1      44.615  27.635  33.262  1.00  0.00     0.049 A 
ATOM     60  H   UNL A   1      42.915  28.201  32.144  1.00  0.00     0.167 HD
ATOM     61  C   UNL A   1      44.551  26.014  31.385  1.00  0.00     0.074 A 
ATOM     62  C   UNL A   1      45.054  24.871  30.650  1.00  0.00     0.031 C 
ATOM     63  C   UNL A   1      45.124  26.512  32.510  1.00  0.00     0.034 A 
BRANCH  50  64
ATOM     64  C   UNL A   1      42.138  31.417  34.872  1.00  0.00     0.023 A 
ATOM     65  C   UNL A   1      41.123  31.464  35.845  1.00  0.00     0.031 A 
ATOM     66  C   UNL A   1      43.092  32.451  34.870  1.00  0.00     0.131 A 
ATOM     67  C   UNL A   1      41.032  32.562  36.713  1.00  0.00     0.055 A 
ATOM     68  C   UNL A   1      43.045  33.498  35.794  1.00  0.00     0.041 A 
ATOM     69  F   UNL A   1      44.075  32.473  33.958  1.00  0.00    -0.206 F 
ATOM     70  C   UNL A   1      42.000  33.568  36.710  1.00  0.00     0.022 A 
BRANCH  67  71
ATOM     71  S   UNL A   1      39.540  32.737  37.731  1.00  0.00     0.124 S 
ATOM     72  O   UNL A   1      38.788  31.540  37.361  1.00  0.00    -0.237 OA
ATOM     73  O   UNL A   1      40.083  32.759  39.084  1.00  0.00    -0.237 OA
ATOM     74  O   UNL A   1      38.957  33.995  37.270  1.00  0.00    -0.744 OA
ENDBRANCH  67  71
ENDBRANCH  50  64
BRANCH  51  75
ATOM     75  C   UNL A   1      42.290  24.704  27.466  1.00  0.00     0.023 A 
ATOM     76  C   UNL A   1      41.579  23.495  27.466  1.00  0.00     0.031 A 
ATOM     77  C   UNL A   1      43.101  24.998  26.356  1.00  0.00     0.131 A 
ATOM     78  C   UNL A   1      41.722  22.601  26.393  1.00  0.00     0.055 A 
ATOM     79  C   UNL A   1      43.205  24.126  25.271  1.00  0.00     0.041 A 
ATOM     80  F   UNL A   1      43.792  26.147  26.305  1.00  0.00    -0.206 F 
ATOM     81  C   UNL A   1      42.521  22.915  25.291  1.00  0.00     0.022 A 
BRANCH  78  82
ATOM     82  S   UNL A   1      40.892  20.992  26.485  1.00  0.00     0.124 S 
ATOM     83  O   UNL A   1      41.819  20.137  25.751  1.00  0.00    -0.237 OA
ATOM     84  O   UNL A   1      40.819  20.772  27.926  1.00  0.00    -0.237 OA
ATOM     85  O   UNL A   1      39.610  21.232  25.828  1.00  0.00    -0.744 OA
ENDBRANCH  78  82
ENDBRANCH  51  75
BRANCH  63  86
ATOM     86  C   UNL A   1      46.347  25.791  33.026  1.00  0.00     0.023 A 
ATOM     87  C   UNL A   1      46.248  24.718  33.929  1.00  0.00     0.031 A 
ATOM     88  C   UNL A   1      47.632  26.206  32.630  1.00  0.00     0.131 A 
ATOM     89  C   UNL A   1      47.411  24.134  34.452  1.00  0.00     0.055 A 
ATOM     90  C   UNL A   1      48.785  25.584  33.111  1.00  0.00     0.041 A 
ATOM     91  F   UNL A   1      47.787  27.227  31.772  1.00  0.00    -0.206 F 
ATOM     92  C   UNL A   1      48.679  24.551  34.039  1.00  0.00     0.022 A 
BRANCH  89  93
ATOM     93  S   UNL A   1      47.250  22.884  35.758  1.00  0.00     0.124 S 
ATOM     94  O   UNL A   1      45.861  22.462  35.604  1.00  0.00    -0.237 OA
ATOM     95  O   UNL A   1      48.262  21.904  35.378  1.00  0.00    -0.237 OA
ATOM     96  O   UNL A   1      47.538  23.628  36.983  1.00  0.00    -0.744 OA
ENDBRANCH  89  93
ENDBRANCH  63  86
ENDBRANCH  37  38
ENDBRANCH  29  32
ENDBRANCH  27  28
ENDBRANCH  26  27
ENDBRANCH   1  26
TORSDOF 17
ENDMDL
MODEL 3
REMARK VINA RESULT:     -11.4      1.442      7.549
REMARK SMILES CC1(C)[C@@](C)(C(=O)NCCCCNC(=O)c2ccc(-c3c4nc(c(-c5cc(S(=O)(=O)[O-])ccc5F)c5ccc([nH]5)c(-c5cc(S(=O)(=O)[O-])ccc5F)c5nc(c(-c6cc(S(=O)(=O)[O-])ccc6F)c6ccc3[nH]6)C=C5)C=C4)cc2)[C@@]12CC[C@@H]2C(=O)NCc1ccco1
REMARK SMILES IDX 10 1 9 2 8 3 6 4 7 5 4 7 1 8 2 9 3 10 79 11 5 12 80 13 82 14
REMARK SMILES IDX 81 15 83 16 84 17 85 18 86 20 87 21 88 22 91 23 89 24 90 25
REMARK SMILES IDX 11 26 12 27 13 28 14 29 15 31 16 32 17 33 78 34 18 35 77 36
REMARK SMILES IDX 19 37 20 38 21 39 71 40 22 41 76 42 70 43 72 44 23 45 75 46
REMARK SMILES IDX 69 47 68 48 24 50 56 51 36 52 55 53 37 54 40 55 54 56 73 57
REMARK SMILES IDX 38 58 39 59 53 61 74 62 41 63 25 64 26 65 34 66 27 67 33 68
REMARK SMILES IDX 35 69 32 70 28 71 29 72 30 73 31 74 57 75 58 76 66 77 59 78
REMARK SMILES IDX 65 79 67 80 64 81 60 82 61 83 62 84 63 85 42 86 43 87 51 88
REMARK SMILES IDX 44 89 50 90 52 91 49 92 45 93 46 94 47 95 48 96
REMARK H PARENT 8 6 85 19 13 30 72 49 40 60
REMARK Flexibility Score: inf
ROOT
ATOM      1  C   UNL A   1      31.342  27.709  25.788  1.00  0.00     0.023 C 
ENDROOT
BRANCH   1   2
ATOM      2  C   UNL A   1      30.563  26.527  25.202  1.00  0.00     0.116 C 
BRANCH   2   3
ATOM      3  N   UNL A   1      30.429  25.457  26.165  1.00  0.00    -0.356 N 
ATOM      4  C   UNL A   1      31.202  24.355  26.388  1.00  0.00     0.227 C 
ATOM      5  O   UNL A   1      30.936  23.649  27.349  1.00  0.00    -0.274 OA
ATOM      6  H   UNL A   1      29.650  25.538  26.762  1.00  0.00     0.163 HD
BRANCH   4   7
ATOM      7  C   UNL A   1      32.420  24.073  25.540  1.00  0.00     0.059 C 
ATOM      8  C   UNL A   1      31.018  23.757  23.337  1.00  0.00     0.013 C 
ATOM      9  C   UNL A   1      32.355  23.658  24.051  1.00  0.00    -0.013 C 
ATOM     10  C   UNL A   1      33.502  23.880  23.087  1.00  0.00     0.013 C 
ATOM     11  C   UNL A   1      32.551  22.591  25.121  1.00  0.00     0.003 C 
ATOM     12  C   UNL A   1      33.647  24.857  25.990  1.00  0.00     0.023 C 
ATOM     13  C   UNL A   1      31.578  21.454  25.172  1.00  0.00     0.010 C 
ATOM     14  C   UNL A   1      33.734  21.691  25.359  1.00  0.00     0.086 C 
ATOM     15  C   UNL A   1      32.777  20.507  25.193  1.00  0.00     0.015 C 
BRANCH  14  16
ATOM     16  C   UNL A   1      34.605  21.809  26.631  1.00  0.00     0.224 C 
ATOM     17  O   UNL A   1      34.115  21.604  27.758  1.00  0.00    -0.275 OA
ATOM     18  N   UNL A   1      35.927  22.180  26.642  1.00  0.00    -0.349 N 
ATOM     19  H   UNL A   1      36.304  22.307  27.542  1.00  0.00     0.163 HD
BRANCH  18  20
ATOM     20  C   UNL A   1      36.864  22.419  25.566  1.00  0.00     0.191 C 
BRANCH  20  21
ATOM     21  C   UNL A   1      38.134  22.996  26.069  1.00  0.00     0.122 A 
ATOM     22  C   UNL A   1      38.562  24.254  26.441  1.00  0.00     0.047 A 
ATOM     23  O   UNL A   1      39.169  22.111  26.183  1.00  0.00    -0.467 OA
ATOM     24  C   UNL A   1      39.928  24.128  26.798  1.00  0.00     0.042 A 
ATOM     25  C   UNL A   1      40.248  22.803  26.624  1.00  0.00     0.195 A 
ENDBRANCH  20  21
ENDBRANCH  18  20
ENDBRANCH  14  16
ENDBRANCH   4   7
ENDBRANCH   2   3
ENDBRANCH   1   2
BRANCH   1  26
ATOM     26  C   UNL A   1      32.361  28.365  24.842  1.00  0.00     0.023 C 
BRANCH  26  27
ATOM     27  C   UNL A   1      33.494  29.132  25.522  1.00  0.00     0.116 C 
BRANCH  27  28
ATOM     28  N   UNL A   1      33.057  30.429  26.009  1.00  0.00    -0.352 N 
ATOM     29  C   UNL A   1      33.534  31.190  27.049  1.00  0.00     0.251 C 
ATOM     30  H   UNL A   1      32.301  30.824  25.516  1.00  0.00     0.163 HD
ATOM     31  O   UNL A   1      32.878  32.162  27.419  1.00  0.00    -0.269 OA
BRANCH  29  32
ATOM     32  C   UNL A   1      34.803  30.848  27.739  1.00  0.00     0.039 A 
ATOM     33  C   UNL A   1      35.797  31.829  27.837  1.00  0.00     0.014 A 
ATOM     34  C   UNL A   1      35.049  29.567  28.241  1.00  0.00     0.014 A 
ATOM     35  C   UNL A   1      37.006  31.545  28.483  1.00  0.00     0.010 A 
ATOM     36  C   UNL A   1      36.233  29.301  28.937  1.00  0.00     0.010 A 
ATOM     37  C   UNL A   1      37.224  30.287  29.066  1.00  0.00    -0.014 A 
BRANCH  37  38
ATOM     38  C   UNL A   1      38.477  29.993  29.816  1.00  0.00     0.031 A 
ATOM     39  C   UNL A   1      38.691  30.549  31.198  1.00  0.00     0.074 A 
ATOM     40  C   UNL A   1      39.454  29.276  29.226  1.00  0.00     0.049 A 
ATOM     41  N   UNL A   1      39.744  30.464  31.973  1.00  0.00    -0.248 NA
ATOM     42  C   UNL A   1      37.583  31.325  31.770  1.00  0.00     0.031 C 
ATOM     43  C   UNL A   1      39.392  28.720  27.873  1.00  0.00     0.029 A 
ATOM     44  N   UNL A   1      40.696  28.907  29.680  1.00  0.00    -0.354 N 
ATOM     45  C   UNL A   1      39.431  31.186  33.122  1.00  0.00     0.074 A 
ATOM     46  C   UNL A   1      38.111  31.747  32.910  1.00  0.00     0.031 C 
ATOM     47  C   UNL A   1      40.542  28.079  27.609  1.00  0.00     0.029 A 
ATOM     48  C   UNL A   1      41.435  28.206  28.756  1.00  0.00     0.049 A 
ATOM     49  H   UNL A   1      41.026  29.124  30.582  1.00  0.00     0.167 HD
ATOM     50  C   UNL A   1      40.165  31.350  34.252  1.00  0.00     0.034 A 
ATOM     51  C   UNL A   1      42.697  27.734  28.814  1.00  0.00     0.034 A 
ATOM     52  C   UNL A   1      41.479  30.783  34.452  1.00  0.00     0.049 A 
ATOM     53  C   UNL A   1      43.498  27.931  30.075  1.00  0.00     0.074 A 
ATOM     54  C   UNL A   1      42.283  30.842  35.578  1.00  0.00     0.029 A 
ATOM     55  N   UNL A   1      42.188  30.061  33.501  1.00  0.00    -0.354 N 
ATOM     56  N   UNL A   1      43.167  28.571  31.172  1.00  0.00    -0.248 NA
ATOM     57  C   UNL A   1      44.836  27.328  30.108  1.00  0.00     0.031 C 
ATOM     58  C   UNL A   1      43.499  30.210  35.287  1.00  0.00     0.029 A 
ATOM     59  C   UNL A   1      43.430  29.695  34.004  1.00  0.00     0.049 A 
ATOM     60  H   UNL A   1      41.859  29.841  32.599  1.00  0.00     0.167 HD
ATOM     61  C   UNL A   1      44.252  28.430  32.034  1.00  0.00     0.074 A 
ATOM     62  C   UNL A   1      45.235  27.627  31.335  1.00  0.00     0.031 C 
ATOM     63  C   UNL A   1      44.416  28.916  33.291  1.00  0.00     0.034 A 
BRANCH  50  64
ATOM     64  C   UNL A   1      39.565  32.206  35.344  1.00  0.00     0.023 A 
ATOM     65  C   UNL A   1      39.910  33.561  35.493  1.00  0.00     0.031 A 
ATOM     66  C   UNL A   1      38.670  31.651  36.276  1.00  0.00     0.131 A 
ATOM     67  C   UNL A   1      39.438  34.289  36.595  1.00  0.00     0.055 A 
ATOM     68  C   UNL A   1      38.135  32.407  37.323  1.00  0.00     0.041 A 
ATOM     69  F   UNL A   1      38.313  30.360  36.198  1.00  0.00    -0.206 F 
ATOM     70  C   UNL A   1      38.534  33.728  37.499  1.00  0.00     0.022 A 
BRANCH  67  71
ATOM     71  S   UNL A   1      40.153  35.925  36.921  1.00  0.00     0.124 S 
ATOM     72  O   UNL A   1      39.520  36.278  38.189  1.00  0.00    -0.237 OA
ATOM     73  O   UNL A   1      41.581  35.638  36.976  1.00  0.00    -0.237 OA
ATOM     74  O   UNL A   1      39.720  36.722  35.775  1.00  0.00    -0.744 OA
ENDBRANCH  67  71
ENDBRANCH  50  64
BRANCH  51  75
ATOM     75  C   UNL A   1      43.292  27.046  27.635  1.00  0.00     0.023 A 
ATOM     76  C   UNL A   1      43.360  25.647  27.569  1.00  0.00     0.031 A 
ATOM     77  C   UNL A   1      43.822  27.788  26.565  1.00  0.00     0.131 A 
ATOM     78  C   UNL A   1      43.982  25.029  26.472  1.00  0.00     0.055 A 
ATOM     79  C   UNL A   1      44.399  27.169  25.456  1.00  0.00     0.041 A 
ATOM     80  F   UNL A   1      43.771  29.129  26.578  1.00  0.00    -0.206 F 
ATOM     81  C   UNL A   1      44.492  25.781  25.411  1.00  0.00     0.022 A 
BRANCH  78  82
ATOM     82  S   UNL A   1      44.169  23.226  26.480  1.00  0.00     0.124 S 
ATOM     83  O   UNL A   1      43.477  22.849  25.252  1.00  0.00    -0.237 OA
ATOM     84  O   UNL A   1      45.621  23.073  26.471  1.00  0.00    -0.237 OA
ATOM     85  O   UNL A   1      43.510  22.821  27.719  1.00  0.00    -0.744 OA
ENDBRANCH  78  82
ENDBRANCH  51  75
BRANCH  63  86
ATOM     86  C   UNL A   1      45.703  28.560  33.995  1.00  0.00     0.023 A 
ATOM     87  C   UNL A   1      45.818  27.402  34.785  1.00  0.00     0.031 A 
ATOM     88  C   UNL A   1      46.821  29.408  33.899  1.00  0.00     0.131 A 
ATOM     89  C   UNL A   1      47.003  27.154  35.494  1.00  0.00     0.055 A 
ATOM     90  C   UNL A   1      48.016  29.127  34.562  1.00  0.00     0.041 A 
ATOM     91  F   UNL A   1      46.767  30.529  33.161  1.00  0.00    -0.206 F 
ATOM     92  C   UNL A   1      48.107  28.001  35.377  1.00  0.00     0.022 A 
BRANCH  89  93
ATOM     93  S   UNL A   1      47.051  25.758  36.653  1.00  0.00     0.124 S 
ATOM     94  O   UNL A   1      48.457  25.734  37.042  1.00  0.00    -0.237 OA
ATOM     95  O   UNL A   1      46.109  26.178  37.686  1.00  0.00    -0.237 OA
ATOM     96  O   UNL A   1      46.614  24.623  35.841  1.00  0.00    -0.744 OA
ENDBRANCH  89  93
ENDBRANCH  63  86
ENDBRANCH  37  38
ENDBRANCH  29  32
ENDBRANCH  27  28
ENDBRANCH  26  27
ENDBRANCH   1  26
TORSDOF 17
ENDMDL
