MODEL 1
REMARK VINA RESULT:     -12.1      0.000      0.000
REMARK SMILES O=Cc1ccc2c(c1)C=C(C(=O)NCCCCNC(=O)c1ccc(-c3c4nc(c(-c5cc(S(=O)(=O)[O-])ccc5F)c5ccc([nH]5)c(-c5cc(S(=O)(=O)[O-])ccc5F)c5nc(c(-c6cc(S(=O)(=O)[O-])ccc6F)c6ccc3[nH]6)C=C5)C=C4)cc1)[C@H](C(F)(F)F)O2
REMARK SMILES IDX 16 1 15 2 14 3 13 4 11 5 12 6 10 8 3 9 4 10 8 11 5 12 7 13
REMARK SMILES IDX 6 14 9 15 89 16 84 17 2 18 1 19 85 20 86 21 87 22 88 23
REMARK SMILES IDX 17 24 18 25 19 26 20 28 21 29 22 30 83 31 23 32 82 33 24 34
REMARK SMILES IDX 25 35 26 36 76 37 27 38 81 39 75 40 77 41 28 42 80 43 74 44
REMARK SMILES IDX 73 45 29 47 61 48 41 49 60 50 42 51 45 52 59 53 78 54 43 55
REMARK SMILES IDX 44 56 58 58 79 59 46 60 30 61 31 62 39 63 32 64 38 65 40 66
REMARK SMILES IDX 37 67 33 68 34 69 35 70 36 71 62 72 63 73 71 74 64 75 70 76
REMARK SMILES IDX 72 77 69 78 65 79 66 80 67 81 68 82 47 83 48 84 56 85 49 86
REMARK SMILES IDX 55 87 57 88 54 89 50 90 51 91 52 92 53 93
REMARK H PARENT 13 7 18 27 77 46 45 57
REMARK Flexibility Score: inf
ROOT
ATOM      1  C   UNL A   1      31.819  31.820  26.560  1.00  0.00     0.023 C 
ENDROOT
BRANCH   1   2
ATOM      2  C   UNL A   1      31.828  30.292  26.675  1.00  0.00     0.023 C 
BRANCH   2   3
ATOM      3  C   UNL A   1      33.158  29.637  26.283  1.00  0.00     0.116 C 
BRANCH   3   4
ATOM      4  N   UNL A   1      33.364  29.741  24.848  1.00  0.00    -0.352 N 
ATOM      5  C   UNL A   1      33.384  28.818  23.853  1.00  0.00     0.251 C 
ATOM      6  O   UNL A   1      33.742  29.180  22.734  1.00  0.00    -0.270 OA
ATOM      7  H   UNL A   1      33.518  30.662  24.537  1.00  0.00     0.163 HD
BRANCH   5   8
ATOM      8  C   UNL A   1      32.933  27.409  24.035  1.00  0.00     0.067 C 
ATOM      9  C   UNL A   1      33.274  22.928  25.806  1.00  0.00     0.015 A 
ATOM     10  C   UNL A   1      32.033  22.604  25.251  1.00  0.00     0.015 A 
ATOM     11  C   UNL A   1      33.822  24.199  25.617  1.00  0.00     0.023 A 
ATOM     12  C   UNL A   1      31.334  23.563  24.517  1.00  0.00     0.048 A 
ATOM     13  C   UNL A   1      33.118  25.156  24.875  1.00  0.00     0.018 A 
ATOM     14  C   UNL A   1      31.876  24.835  24.332  1.00  0.00     0.128 A 
ATOM     15  C   UNL A   1      33.637  26.503  24.728  1.00  0.00     0.025 C 
ATOM     16  O   UNL A   1      31.103  25.731  23.656  1.00  0.00    -0.475 OA
ATOM     17  C   UNL A   1      31.696  26.998  23.238  1.00  0.00     0.314 C 
BRANCH   9  18
ATOM     18  C   UNL A   1      34.008  21.938  26.619  1.00  0.00     0.260 C 
ATOM     19  O   UNL A   1      33.973  21.948  27.843  1.00  0.00    -0.298 OA
ENDBRANCH   9  18
BRANCH  17  20
ATOM     20  C   UNL A   1      30.547  28.033  23.173  1.00  0.00     0.429 C 
ATOM     21  F   UNL A   1      29.341  27.469  22.943  1.00  0.00    -0.167 F 
ATOM     22  F   UNL A   1      30.419  28.686  24.361  1.00  0.00    -0.167 F 
ATOM     23  F   UNL A   1      30.760  28.981  22.231  1.00  0.00    -0.167 F 
ENDBRANCH  17  20
ENDBRANCH   5   8
ENDBRANCH   3   4
ENDBRANCH   2   3
ENDBRANCH   1   2
BRANCH   1  24
ATOM     24  C   UNL A   1      32.898  32.529  27.372  1.00  0.00     0.116 C 
BRANCH  24  25
ATOM     25  N   UNL A   1      32.564  33.910  27.678  1.00  0.00    -0.352 N 
ATOM     26  C   UNL A   1      33.131  34.744  28.613  1.00  0.00     0.251 C 
ATOM     27  H   UNL A   1      31.833  34.300  27.146  1.00  0.00     0.163 HD
ATOM     28  O   UNL A   1      32.643  35.849  28.816  1.00  0.00    -0.269 OA
BRANCH  26  29
ATOM     29  C   UNL A   1      34.296  34.276  29.394  1.00  0.00     0.039 A 
ATOM     30  C   UNL A   1      34.068  33.563  30.573  1.00  0.00     0.014 A 
ATOM     31  C   UNL A   1      35.601  34.515  28.955  1.00  0.00     0.014 A 
ATOM     32  C   UNL A   1      35.150  33.030  31.278  1.00  0.00     0.010 A 
ATOM     33  C   UNL A   1      36.673  33.930  29.624  1.00  0.00     0.010 A 
ATOM     34  C   UNL A   1      36.459  33.180  30.790  1.00  0.00    -0.014 A 
BRANCH  34  35
ATOM     35  C   UNL A   1      37.611  32.549  31.482  1.00  0.00     0.031 A 
ATOM     36  C   UNL A   1      38.342  31.403  30.837  1.00  0.00     0.074 A 
ATOM     37  C   UNL A   1      37.949  32.963  32.719  1.00  0.00     0.049 A 
ATOM     38  N   UNL A   1      39.321  30.676  31.310  1.00  0.00    -0.248 NA
ATOM     39  C   UNL A   1      37.890  31.002  29.495  1.00  0.00     0.031 C 
ATOM     40  C   UNL A   1      37.276  34.028  33.468  1.00  0.00     0.029 A 
ATOM     41  N   UNL A   1      38.932  32.530  33.575  1.00  0.00    -0.354 N 
ATOM     42  C   UNL A   1      39.589  29.720  30.336  1.00  0.00     0.074 A 
ATOM     43  C   UNL A   1      38.637  29.932  29.267  1.00  0.00     0.031 C 
ATOM     44  C   UNL A   1      37.872  34.171  34.662  1.00  0.00     0.029 A 
ATOM     45  C   UNL A   1      38.943  33.187  34.783  1.00  0.00     0.049 A 
ATOM     46  H   UNL A   1      39.568  31.815  33.345  1.00  0.00     0.167 HD
ATOM     47  C   UNL A   1      40.552  28.766  30.329  1.00  0.00     0.034 A 
ATOM     48  C   UNL A   1      39.719  33.009  35.871  1.00  0.00     0.034 A 
ATOM     49  C   UNL A   1      41.512  28.588  31.391  1.00  0.00     0.049 A 
ATOM     50  C   UNL A   1      40.796  31.954  35.828  1.00  0.00     0.074 A 
ATOM     51  C   UNL A   1      42.580  27.709  31.448  1.00  0.00     0.029 A 
ATOM     52  N   UNL A   1      41.516  29.296  32.587  1.00  0.00    -0.354 N 
ATOM     53  N   UNL A   1      41.086  31.108  34.866  1.00  0.00    -0.248 NA
ATOM     54  C   UNL A   1      41.662  31.841  37.009  1.00  0.00     0.031 C 
ATOM     55  C   UNL A   1      43.191  27.841  32.701  1.00  0.00     0.029 A 
ATOM     56  C   UNL A   1      42.550  28.853  33.398  1.00  0.00     0.049 A 
ATOM     57  H   UNL A   1      40.879  30.008  32.822  1.00  0.00     0.167 HD
ATOM     58  C   UNL A   1      42.186  30.384  35.317  1.00  0.00     0.074 A 
ATOM     59  C   UNL A   1      42.517  30.906  36.626  1.00  0.00     0.031 C 
ATOM     60  C   UNL A   1      42.862  29.380  34.705  1.00  0.00     0.034 A 
BRANCH  47  61
ATOM     61  C   UNL A   1      40.602  27.829  29.148  1.00  0.00     0.023 A 
ATOM     62  C   UNL A   1      41.519  28.006  28.098  1.00  0.00     0.031 A 
ATOM     63  C   UNL A   1      39.713  26.741  29.069  1.00  0.00     0.131 A 
ATOM     64  C   UNL A   1      41.487  27.149  26.988  1.00  0.00     0.055 A 
ATOM     65  C   UNL A   1      39.735  25.848  27.997  1.00  0.00     0.041 A 
ATOM     66  F   UNL A   1      38.801  26.534  30.033  1.00  0.00    -0.206 F 
ATOM     67  C   UNL A   1      40.617  26.056  26.941  1.00  0.00     0.022 A 
BRANCH  64  68
ATOM     68  S   UNL A   1      42.517  27.551  25.550  1.00  0.00     0.124 S 
ATOM     69  O   UNL A   1      43.835  27.696  26.165  1.00  0.00    -0.237 OA
ATOM     70  O   UNL A   1      42.337  26.382  24.696  1.00  0.00    -0.237 OA
ATOM     71  O   UNL A   1      41.933  28.790  25.045  1.00  0.00    -0.744 OA
ENDBRANCH  64  68
ENDBRANCH  47  61
BRANCH  48  72
ATOM     72  C   UNL A   1      39.507  33.828  37.099  1.00  0.00     0.023 A 
ATOM     73  C   UNL A   1      38.852  33.297  38.222  1.00  0.00     0.031 A 
ATOM     74  C   UNL A   1      39.905  35.176  37.147  1.00  0.00     0.131 A 
ATOM     75  C   UNL A   1      38.565  34.122  39.320  1.00  0.00     0.055 A 
ATOM     76  C   UNL A   1      39.665  35.978  38.263  1.00  0.00     0.041 A 
ATOM     77  F   UNL A   1      40.542  35.733  36.104  1.00  0.00    -0.206 F 
ATOM     78  C   UNL A   1      38.976  35.456  39.353  1.00  0.00     0.022 A 
BRANCH  75  79
ATOM     79  S   UNL A   1      37.550  33.452  40.666  1.00  0.00     0.124 S 
ATOM     80  O   UNL A   1      36.461  32.818  39.932  1.00  0.00    -0.237 OA
ATOM     81  O   UNL A   1      38.488  32.550  41.328  1.00  0.00    -0.237 OA
ATOM     82  O   UNL A   1      37.179  34.637  41.436  1.00  0.00    -0.744 OA
ENDBRANCH  75  79
ENDBRANCH  48  72
BRANCH  60  83
ATOM     83  C   UNL A   1      44.056  28.817  35.435  1.00  0.00     0.023 A 
ATOM     84  C   UNL A   1      43.940  27.725  36.312  1.00  0.00     0.031 A 
ATOM     85  C   UNL A   1      45.327  29.395  35.261  1.00  0.00     0.131 A 
ATOM     86  C   UNL A   1      45.061  27.281  37.026  1.00  0.00     0.055 A 
ATOM     87  C   UNL A   1      46.452  28.910  35.929  1.00  0.00     0.041 A 
ATOM     88  F   UNL A   1      45.495  30.441  34.435  1.00  0.00    -0.206 F 
ATOM     89  C   UNL A   1      46.320  27.856  36.829  1.00  0.00     0.022 A 
BRANCH  86  90
ATOM     90  S   UNL A   1      44.837  25.999  38.290  1.00  0.00     0.124 S 
ATOM     91  O   UNL A   1      46.211  25.733  38.700  1.00  0.00    -0.237 OA
ATOM     92  O   UNL A   1      43.998  26.675  39.274  1.00  0.00    -0.237 OA
ATOM     93  O   UNL A   1      44.184  24.912  37.563  1.00  0.00    -0.744 OA
ENDBRANCH  86  90
ENDBRANCH  60  83
ENDBRANCH  34  35
ENDBRANCH  26  29
ENDBRANCH  24  25
ENDBRANCH   1  24
TORSDOF 16
ENDMDL
MODEL 2
REMARK VINA RESULT:     -12.1      3.846      8.916
REMARK SMILES O=Cc1ccc2c(c1)C=C(C(=O)NCCCCNC(=O)c1ccc(-c3c4nc(c(-c5cc(S(=O)(=O)[O-])ccc5F)c5ccc([nH]5)c(-c5cc(S(=O)(=O)[O-])ccc5F)c5nc(c(-c6cc(S(=O)(=O)[O-])ccc6F)c6ccc3[nH]6)C=C5)C=C4)cc1)[C@H](C(F)(F)F)O2
REMARK SMILES IDX 16 1 15 2 14 3 13 4 11 5 12 6 10 8 3 9 4 10 8 11 5 12 7 13
REMARK SMILES IDX 6 14 9 15 89 16 84 17 2 18 1 19 85 20 86 21 87 22 88 23
REMARK SMILES IDX 17 24 18 25 19 26 20 28 21 29 22 30 83 31 23 32 82 33 24 34
REMARK SMILES IDX 25 35 26 36 76 37 27 38 81 39 75 40 77 41 28 42 80 43 74 44
REMARK SMILES IDX 73 45 29 47 61 48 41 49 60 50 42 51 45 52 59 53 78 54 43 55
REMARK SMILES IDX 44 56 58 58 79 59 46 60 30 61 31 62 39 63 32 64 38 65 40 66
REMARK SMILES IDX 37 67 33 68 34 69 35 70 36 71 62 72 63 73 71 74 64 75 70 76
REMARK SMILES IDX 72 77 69 78 65 79 66 80 67 81 68 82 47 83 48 84 56 85 49 86
REMARK SMILES IDX 55 87 57 88 54 89 50 90 51 91 52 92 53 93
REMARK H PARENT 13 7 18 27 77 46 45 57
REMARK Flexibility Score: inf
ROOT
ATOM      1  C   UNL A   1      33.346  29.078  24.871  1.00  0.00     0.023 C 
ENDROOT
BRANCH   1   2
ATOM      2  C   UNL A   1      31.829  29.130  24.662  1.00  0.00     0.023 C 
BRANCH   2   3
ATOM      3  C   UNL A   1      31.198  27.786  24.274  1.00  0.00     0.116 C 
BRANCH   3   4
ATOM      4  N   UNL A   1      30.917  27.003  25.465  1.00  0.00    -0.352 N 
ATOM      5  C   UNL A   1      31.361  25.795  25.897  1.00  0.00     0.251 C 
ATOM      6  O   UNL A   1      30.824  25.300  26.887  1.00  0.00    -0.270 OA
ATOM      7  H   UNL A   1      30.279  27.433  26.079  1.00  0.00     0.163 HD
BRANCH   5   8
ATOM      8  C   UNL A   1      32.507  25.075  25.275  1.00  0.00     0.067 C 
ATOM      9  C   UNL A   1      37.055  23.454  25.116  1.00  0.00     0.015 A 
ATOM     10  C   UNL A   1      36.777  22.761  23.936  1.00  0.00     0.015 A 
ATOM     11  C   UNL A   1      36.068  24.228  25.731  1.00  0.00     0.023 A 
ATOM     12  C   UNL A   1      35.500  22.832  23.378  1.00  0.00     0.048 A 
ATOM     13  C   UNL A   1      34.789  24.300  25.163  1.00  0.00     0.018 A 
ATOM     14  C   UNL A   1      34.510  23.600  23.992  1.00  0.00     0.128 A 
ATOM     15  C   UNL A   1      33.730  25.041  25.824  1.00  0.00     0.025 C 
ATOM     16  O   UNL A   1      33.275  23.568  23.418  1.00  0.00    -0.475 OA
ATOM     17  C   UNL A   1      32.261  24.514  23.876  1.00  0.00     0.314 C 
BRANCH   9  18
ATOM     18  C   UNL A   1      38.389  23.356  25.742  1.00  0.00     0.260 C 
ATOM     19  O   UNL A   1      38.739  22.368  26.376  1.00  0.00    -0.298 OA
ENDBRANCH   9  18
BRANCH  17  20
ATOM     20  C   UNL A   1      30.884  23.848  23.637  1.00  0.00     0.429 C 
ATOM     21  F   UNL A   1      30.921  22.884  22.692  1.00  0.00    -0.167 F 
ATOM     22  F   UNL A   1      30.446  23.228  24.767  1.00  0.00    -0.167 F 
ATOM     23  F   UNL A   1      29.931  24.746  23.292  1.00  0.00    -0.167 F 
ENDBRANCH  17  20
ENDBRANCH   5   8
ENDBRANCH   3   4
ENDBRANCH   2   3
ENDBRANCH   1   2
BRANCH   1  24
ATOM     24  C   UNL A   1      33.796  29.195  26.324  1.00  0.00     0.116 C 
BRANCH  24  25
ATOM     25  N   UNL A   1      33.759  30.560  26.822  1.00  0.00    -0.352 N 
ATOM     26  C   UNL A   1      34.629  31.184  27.685  1.00  0.00     0.251 C 
ATOM     27  H   UNL A   1      33.011  31.113  26.498  1.00  0.00     0.163 HD
ATOM     28  O   UNL A   1      34.378  32.312  28.090  1.00  0.00    -0.269 OA
BRANCH  26  29
ATOM     29  C   UNL A   1      35.834  30.463  28.151  1.00  0.00     0.039 A 
ATOM     30  C   UNL A   1      37.005  30.561  27.396  1.00  0.00     0.014 A 
ATOM     31  C   UNL A   1      35.817  29.721  29.335  1.00  0.00     0.014 A 
ATOM     32  C   UNL A   1      38.180  29.969  27.864  1.00  0.00     0.010 A 
ATOM     33  C   UNL A   1      37.003  29.185  29.831  1.00  0.00     0.010 A 
ATOM     34  C   UNL A   1      38.196  29.306  29.103  1.00  0.00    -0.014 A 
BRANCH  34  35
ATOM     35  C   UNL A   1      39.454  28.743  29.653  1.00  0.00     0.031 A 
ATOM     36  C   UNL A   1      40.156  29.435  30.791  1.00  0.00     0.074 A 
ATOM     37  C   UNL A   1      40.000  27.651  29.080  1.00  0.00     0.049 A 
ATOM     38  N   UNL A   1      41.297  29.142  31.359  1.00  0.00    -0.248 NA
ATOM     39  C   UNL A   1      39.501  30.633  31.339  1.00  0.00     0.031 C 
ATOM     40  C   UNL A   1      39.439  26.929  27.935  1.00  0.00     0.029 A 
ATOM     41  N   UNL A   1      41.154  26.966  29.369  1.00  0.00    -0.354 N 
ATOM     42  C   UNL A   1      41.508  30.128  32.317  1.00  0.00     0.074 A 
ATOM     43  C   UNL A   1      40.399  31.053  32.218  1.00  0.00     0.031 C 
ATOM     44  C   UNL A   1      40.243  25.898  27.628  1.00  0.00     0.029 A 
ATOM     45  C   UNL A   1      41.394  25.906  28.525  1.00  0.00     0.049 A 
ATOM     46  H   UNL A   1      41.754  27.211  30.110  1.00  0.00     0.167 HD
ATOM     47  C   UNL A   1      42.525  30.240  33.206  1.00  0.00     0.034 A 
ATOM     48  C   UNL A   1      42.430  25.045  28.472  1.00  0.00     0.034 A 
ATOM     49  C   UNL A   1      43.607  29.292  33.309  1.00  0.00     0.049 A 
ATOM     50  C   UNL A   1      43.538  25.180  29.487  1.00  0.00     0.074 A 
ATOM     51  C   UNL A   1      44.643  29.265  34.228  1.00  0.00     0.029 A 
ATOM     52  N   UNL A   1      43.800  28.209  32.461  1.00  0.00    -0.354 N 
ATOM     53  N   UNL A   1      43.683  26.076  30.437  1.00  0.00    -0.248 NA
ATOM     54  C   UNL A   1      44.612  24.180  29.434  1.00  0.00     0.031 C 
ATOM     55  C   UNL A   1      45.494  28.204  33.898  1.00  0.00     0.029 A 
ATOM     56  C   UNL A   1      44.953  27.525  32.818  1.00  0.00     0.049 A 
ATOM     57  H   UNL A   1      43.205  27.963  31.717  1.00  0.00     0.167 HD
ATOM     58  C   UNL A   1      44.849  25.726  31.112  1.00  0.00     0.074 A 
ATOM     59  C   UNL A   1      45.355  24.530  30.472  1.00  0.00     0.031 C 
ATOM     60  C   UNL A   1      45.447  26.337  32.165  1.00  0.00     0.034 A 
BRANCH  47  61
ATOM     61  C   UNL A   1      42.526  31.440  34.122  1.00  0.00     0.023 A 
ATOM     62  C   UNL A   1      41.816  31.448  35.334  1.00  0.00     0.031 A 
ATOM     63  C   UNL A   1      43.247  32.596  33.773  1.00  0.00     0.131 A 
ATOM     64  C   UNL A   1      41.792  32.607  36.124  1.00  0.00     0.055 A 
ATOM     65  C   UNL A   1      43.279  33.721  34.599  1.00  0.00     0.041 A 
ATOM     66  F   UNL A   1      43.928  32.654  32.616  1.00  0.00    -0.206 F 
ATOM     67  C   UNL A   1      42.539  33.736  35.777  1.00  0.00     0.022 A 
BRANCH  64  68
ATOM     68  S   UNL A   1      40.677  32.662  37.553  1.00  0.00     0.124 S 
ATOM     69  O   UNL A   1      41.540  32.158  38.619  1.00  0.00    -0.237 OA
ATOM     70  O   UNL A   1      40.329  34.076  37.628  1.00  0.00    -0.237 OA
ATOM     71  O   UNL A   1      39.584  31.770  37.170  1.00  0.00    -0.744 OA
ENDBRANCH  64  68
ENDBRANCH  47  61
BRANCH  48  72
ATOM     72  C   UNL A   1      42.488  23.990  27.420  1.00  0.00     0.023 A 
ATOM     73  C   UNL A   1      41.904  22.729  27.623  1.00  0.00     0.031 A 
ATOM     74  C   UNL A   1      43.181  24.206  26.216  1.00  0.00     0.131 A 
ATOM     75  C   UNL A   1      42.070  21.717  26.666  1.00  0.00     0.055 A 
ATOM     76  C   UNL A   1      43.299  23.213  25.242  1.00  0.00     0.041 A 
ATOM     77  F   UNL A   1      43.754  25.396  25.966  1.00  0.00    -0.206 F 
ATOM     78  C   UNL A   1      42.755  21.954  25.471  1.00  0.00     0.022 A 
BRANCH  75  79
ATOM     79  S   UNL A   1      41.467  20.051  27.051  1.00  0.00     0.124 S 
ATOM     80  O   UNL A   1      42.708  19.287  27.095  1.00  0.00    -0.237 OA
ATOM     81  O   UNL A   1      40.798  20.262  28.331  1.00  0.00    -0.237 OA
ATOM     82  O   UNL A   1      40.581  19.741  25.930  1.00  0.00    -0.744 OA
ENDBRANCH  75  79
ENDBRANCH  48  72
BRANCH  60  83
ATOM     83  C   UNL A   1      46.693  25.687  32.714  1.00  0.00     0.023 A 
ATOM     84  C   UNL A   1      47.963  25.947  32.172  1.00  0.00     0.031 A 
ATOM     85  C   UNL A   1      46.602  24.781  33.786  1.00  0.00     0.131 A 
ATOM     86  C   UNL A   1      49.085  25.265  32.663  1.00  0.00     0.055 A 
ATOM     87  C   UNL A   1      47.731  24.150  34.311  1.00  0.00     0.041 A 
ATOM     88  F   UNL A   1      45.414  24.495  34.341  1.00  0.00    -0.206 F 
ATOM     89  C   UNL A   1      48.979  24.379  33.740  1.00  0.00     0.022 A 
BRANCH  86  90
ATOM     90  S   UNL A   1      50.675  25.478  31.816  1.00  0.00     0.124 S 
ATOM     91  O   UNL A   1      50.594  24.474  30.761  1.00  0.00    -0.237 OA
ATOM     92  O   UNL A   1      50.610  26.869  31.379  1.00  0.00    -0.237 OA
ATOM     93  O   UNL A   1      51.660  25.203  32.861  1.00  0.00    -0.744 OA
ENDBRANCH  86  90
ENDBRANCH  60  83
ENDBRANCH  34  35
ENDBRANCH  26  29
ENDBRANCH  24  25
ENDBRANCH   1  24
TORSDOF 16
ENDMDL
MODEL 3
REMARK VINA RESULT:     -12.1      1.826      2.191
REMARK SMILES O=Cc1ccc2c(c1)C=C(C(=O)NCCCCNC(=O)c1ccc(-c3c4nc(c(-c5cc(S(=O)(=O)[O-])ccc5F)c5ccc([nH]5)c(-c5cc(S(=O)(=O)[O-])ccc5F)c5nc(c(-c6cc(S(=O)(=O)[O-])ccc6F)c6ccc3[nH]6)C=C5)C=C4)cc1)[C@H](C(F)(F)F)O2
REMARK SMILES IDX 16 1 15 2 14 3 13 4 11 5 12 6 10 8 3 9 4 10 8 11 5 12 7 13
REMARK SMILES IDX 6 14 9 15 89 16 84 17 2 18 1 19 85 20 86 21 87 22 88 23
REMARK SMILES IDX 17 24 18 25 19 26 20 28 21 29 22 30 83 31 23 32 82 33 24 34
REMARK SMILES IDX 25 35 26 36 76 37 27 38 81 39 75 40 77 41 28 42 80 43 74 44
REMARK SMILES IDX 73 45 29 47 61 48 41 49 60 50 42 51 45 52 59 53 78 54 43 55
REMARK SMILES IDX 44 56 58 58 79 59 46 60 30 61 31 62 39 63 32 64 38 65 40 66
REMARK SMILES IDX 37 67 33 68 34 69 35 70 36 71 62 72 63 73 71 74 64 75 70 76
REMARK SMILES IDX 72 77 69 78 65 79 66 80 67 81 68 82 47 83 48 84 56 85 49 86
REMARK SMILES IDX 55 87 57 88 54 89 50 90 51 91 52 92 53 93
REMARK H PARENT 13 7 18 27 77 46 45 57
REMARK Flexibility Score: inf
ROOT
ATOM      1  C   UNL A   1      31.776  31.096  26.776  1.00  0.00     0.023 C 
ENDROOT
BRANCH   1   2
ATOM      2  C   UNL A   1      31.996  30.133  25.604  1.00  0.00     0.023 C 
BRANCH   2   3
ATOM      3  C   UNL A   1      32.829  28.894  25.952  1.00  0.00     0.116 C 
BRANCH   3   4
ATOM      4  N   UNL A   1      31.981  27.868  26.535  1.00  0.00    -0.352 N 
ATOM      5  C   UNL A   1      31.873  26.532  26.319  1.00  0.00     0.251 C 
ATOM      6  O   UNL A   1      30.945  25.931  26.856  1.00  0.00    -0.270 OA
ATOM      7  H   UNL A   1      31.363  28.209  27.221  1.00  0.00     0.163 HD
BRANCH   5   8
ATOM      8  C   UNL A   1      32.860  25.750  25.523  1.00  0.00     0.067 C 
ATOM      9  C   UNL A   1      36.805  23.020  24.957  1.00  0.00     0.015 A 
ATOM     10  C   UNL A   1      36.509  22.855  23.602  1.00  0.00     0.015 A 
ATOM     11  C   UNL A   1      35.986  23.807  25.769  1.00  0.00     0.023 A 
ATOM     12  C   UNL A   1      35.377  23.470  23.063  1.00  0.00     0.048 A 
ATOM     13  C   UNL A   1      34.854  24.426  25.222  1.00  0.00     0.018 A 
ATOM     14  C   UNL A   1      34.553  24.252  23.873  1.00  0.00     0.128 A 
ATOM     15  C   UNL A   1      33.951  25.189  26.064  1.00  0.00     0.025 C 
ATOM     16  O   UNL A   1      33.437  24.766  23.285  1.00  0.00    -0.475 OA
ATOM     17  C   UNL A   1      32.656  25.765  24.009  1.00  0.00     0.314 C 
BRANCH   9  18
ATOM     18  C   UNL A   1      37.975  22.343  25.551  1.00  0.00     0.260 C 
ATOM     19  O   UNL A   1      38.195  21.151  25.377  1.00  0.00    -0.298 OA
ENDBRANCH   9  18
BRANCH  17  20
ATOM     20  C   UNL A   1      31.196  25.642  23.513  1.00  0.00     0.429 C 
ATOM     21  F   UNL A   1      30.510  24.656  24.130  1.00  0.00    -0.167 F 
ATOM     22  F   UNL A   1      30.500  26.783  23.774  1.00  0.00    -0.167 F 
ATOM     23  F   UNL A   1      31.121  25.440  22.177  1.00  0.00    -0.167 F 
ENDBRANCH  17  20
ENDBRANCH   5   8
ENDBRANCH   3   4
ENDBRANCH   2   3
ENDBRANCH   1   2
BRANCH   1  24
ATOM     24  C   UNL A   1      32.988  31.947  27.140  1.00  0.00     0.116 C 
BRANCH  24  25
ATOM     25  N   UNL A   1      32.647  33.335  27.407  1.00  0.00    -0.352 N 
ATOM     26  C   UNL A   1      33.192  34.190  28.336  1.00  0.00     0.251 C 
ATOM     27  H   UNL A   1      31.930  33.713  26.848  1.00  0.00     0.163 HD
ATOM     28  O   UNL A   1      32.701  35.300  28.501  1.00  0.00    -0.269 OA
BRANCH  26  29
ATOM     29  C   UNL A   1      34.338  33.740  29.156  1.00  0.00     0.039 A 
ATOM     30  C   UNL A   1      34.105  32.827  30.187  1.00  0.00     0.014 A 
ATOM     31  C   UNL A   1      35.634  34.194  28.894  1.00  0.00     0.014 A 
ATOM     32  C   UNL A   1      35.182  32.316  30.912  1.00  0.00     0.010 A 
ATOM     33  C   UNL A   1      36.712  33.636  29.576  1.00  0.00     0.010 A 
ATOM     34  C   UNL A   1      36.498  32.690  30.590  1.00  0.00    -0.014 A 
BRANCH  34  35
ATOM     35  C   UNL A   1      37.659  32.092  31.296  1.00  0.00     0.031 A 
ATOM     36  C   UNL A   1      38.453  30.992  30.646  1.00  0.00     0.074 A 
ATOM     37  C   UNL A   1      37.950  32.492  32.550  1.00  0.00     0.049 A 
ATOM     38  N   UNL A   1      39.450  30.296  31.127  1.00  0.00    -0.248 NA
ATOM     39  C   UNL A   1      38.050  30.603  29.284  1.00  0.00     0.031 C 
ATOM     40  C   UNL A   1      37.214  33.511  33.305  1.00  0.00     0.029 A 
ATOM     41  N   UNL A   1      38.929  32.081  33.420  1.00  0.00    -0.354 N 
ATOM     42  C   UNL A   1      39.782  29.375  30.139  1.00  0.00     0.074 A 
ATOM     43  C   UNL A   1      38.847  29.571  29.052  1.00  0.00     0.031 C 
ATOM     44  C   UNL A   1      37.775  33.652  34.516  1.00  0.00     0.029 A 
ATOM     45  C   UNL A   1      38.884  32.711  34.642  1.00  0.00     0.049 A 
ATOM     46  H   UNL A   1      39.601  31.399  33.191  1.00  0.00     0.167 HD
ATOM     47  C   UNL A   1      40.785  28.463  30.136  1.00  0.00     0.034 A 
ATOM     48  C   UNL A   1      39.641  32.542  35.745  1.00  0.00     0.034 A 
ATOM     49  C   UNL A   1      41.725  28.301  31.218  1.00  0.00     0.049 A 
ATOM     50  C   UNL A   1      40.763  31.534  35.706  1.00  0.00     0.074 A 
ATOM     51  C   UNL A   1      42.828  27.467  31.282  1.00  0.00     0.029 A 
ATOM     52  N   UNL A   1      41.671  28.982  32.427  1.00  0.00    -0.354 N 
ATOM     53  N   UNL A   1      41.110  30.723  34.734  1.00  0.00    -0.248 NA
ATOM     54  C   UNL A   1      41.604  31.431  36.906  1.00  0.00     0.031 C 
ATOM     55  C   UNL A   1      43.403  27.596  32.552  1.00  0.00     0.029 A 
ATOM     56  C   UNL A   1      42.703  28.564  33.255  1.00  0.00     0.049 A 
ATOM     57  H   UNL A   1      41.000  29.661  32.662  1.00  0.00     0.167 HD
ATOM     58  C   UNL A   1      42.229  30.036  35.196  1.00  0.00     0.074 A 
ATOM     59  C   UNL A   1      42.507  30.541  36.524  1.00  0.00     0.031 C 
ATOM     60  C   UNL A   1      42.962  29.075  34.579  1.00  0.00     0.034 A 
BRANCH  47  61
ATOM     61  C   UNL A   1      40.902  27.555  28.936  1.00  0.00     0.023 A 
ATOM     62  C   UNL A   1      41.899  27.736  27.963  1.00  0.00     0.031 A 
ATOM     63  C   UNL A   1      39.997  26.492  28.762  1.00  0.00     0.131 A 
ATOM     64  C   UNL A   1      41.932  26.909  26.831  1.00  0.00     0.055 A 
ATOM     65  C   UNL A   1      40.080  25.626  27.670  1.00  0.00     0.041 A 
ATOM     66  F   UNL A   1      39.011  26.282  29.648  1.00  0.00    -0.206 F 
ATOM     67  C   UNL A   1      41.044  25.839  26.689  1.00  0.00     0.022 A 
BRANCH  64  68
ATOM     68  S   UNL A   1      43.076  27.322  25.486  1.00  0.00     0.124 S 
ATOM     69  O   UNL A   1      43.351  26.004  24.918  1.00  0.00    -0.237 OA
ATOM     70  O   UNL A   1      42.279  28.220  24.658  1.00  0.00    -0.237 OA
ATOM     71  O   UNL A   1      44.204  27.945  26.174  1.00  0.00    -0.744 OA
ENDBRANCH  64  68
ENDBRANCH  47  61
BRANCH  48  72
ATOM     72  C   UNL A   1      39.365  33.323  36.984  1.00  0.00     0.023 A 
ATOM     73  C   UNL A   1      39.997  34.554  37.223  1.00  0.00     0.031 A 
ATOM     74  C   UNL A   1      38.506  32.822  37.979  1.00  0.00     0.131 A 
ATOM     75  C   UNL A   1      39.807  35.214  38.446  1.00  0.00     0.055 A 
ATOM     76  C   UNL A   1      38.278  33.509  39.173  1.00  0.00     0.041 A 
ATOM     77  F   UNL A   1      37.870  31.653  37.801  1.00  0.00    -0.206 F 
ATOM     78  C   UNL A   1      38.944  34.706  39.419  1.00  0.00     0.022 A 
BRANCH  75  79
ATOM     79  S   UNL A   1      40.789  36.700  38.792  1.00  0.00     0.124 S 
ATOM     80  O   UNL A   1      39.752  37.715  38.939  1.00  0.00    -0.237 OA
ATOM     81  O   UNL A   1      41.490  36.319  40.013  1.00  0.00    -0.237 OA
ATOM     82  O   UNL A   1      41.633  36.834  37.606  1.00  0.00    -0.744 OA
ENDBRANCH  75  79
ENDBRANCH  48  72
BRANCH  60  83
ATOM     83  C   UNL A   1      44.161  28.546  35.326  1.00  0.00     0.023 A 
ATOM     84  C   UNL A   1      44.048  27.508  36.267  1.00  0.00     0.031 A 
ATOM     85  C   UNL A   1      45.433  29.103  35.103  1.00  0.00     0.131 A 
ATOM     86  C   UNL A   1      45.175  27.097  36.993  1.00  0.00     0.055 A 
ATOM     87  C   UNL A   1      46.563  28.649  35.785  1.00  0.00     0.041 A 
ATOM     88  F   UNL A   1      45.599  30.097  34.216  1.00  0.00    -0.206 F 
ATOM     89  C   UNL A   1      46.435  27.650  36.746  1.00  0.00     0.022 A 
BRANCH  86  90
ATOM     90  S   UNL A   1      44.958  25.893  38.332  1.00  0.00     0.124 S 
ATOM     91  O   UNL A   1      46.291  25.852  38.922  1.00  0.00    -0.237 OA
ATOM     92  O   UNL A   1      43.919  26.517  39.145  1.00  0.00    -0.237 OA
ATOM     93  O   UNL A   1      44.550  24.675  37.635  1.00  0.00    -0.744 OA
ENDBRANCH  86  90
ENDBRANCH  60  83
ENDBRANCH  34  35
ENDBRANCH  26  29
ENDBRANCH  24  25
ENDBRANCH   1  24
TORSDOF 16
ENDMDL
