MODEL 1
REMARK VINA RESULT:     -12.0      0.000      0.000
REMARK SMILES CC[C@H]1CC(=O)N(CCn2cc(C(=O)NCCCCNC(=O)c3ccc(-c4c5nc(c(-c6cc(S(=O)(=O)[O-])ccc6F)c6ccc([nH]6)c(-c6cc(S(=O)(=O)[O-])ccc6F)c6nc(c(-c7cc(S(=O)(=O)[O-])ccc7F)c7ccc4[nH]7)C=C6)C=C5)cc3)nn2)C1
REMARK SMILES IDX 17 1 16 2 15 3 13 4 14 5 12 7 10 8 11 9 87 10 86 11 9 12
REMARK SMILES IDX 8 13 7 14 3 15 4 16 88 17 5 18 6 19 2 20 1 21 18 22 19 23
REMARK SMILES IDX 20 24 21 25 22 27 23 28 24 29 85 30 25 31 84 32 26 33 27 34
REMARK SMILES IDX 28 35 78 36 29 37 83 38 77 39 79 40 30 41 82 42 76 43 75 44
REMARK SMILES IDX 31 46 63 47 43 48 62 49 44 50 47 51 61 52 80 53 45 54 46 55
REMARK SMILES IDX 60 57 81 58 48 59 32 60 33 61 41 62 34 63 40 64 42 65 39 66
REMARK SMILES IDX 35 67 36 68 37 69 38 70 64 71 65 72 73 73 66 74 72 75 74 76
REMARK SMILES IDX 71 77 67 78 68 79 69 80 70 81 49 82 50 83 58 84 51 85 57 86
REMARK SMILES IDX 59 87 56 88 52 89 53 90 54 91 55 92
REMARK H PARENT 15 6 20 26 79 45 47 56
REMARK Flexibility Score: inf
ROOT
ATOM      1  C   UNL A   1      46.467  21.527  38.327  1.00  0.00     0.023 C 
ENDROOT
BRANCH   1   2
ATOM      2  C   UNL A   1      46.799  20.030  38.295  1.00  0.00     0.116 C 
BRANCH   2   3
ATOM      3  N   UNL A   1      47.569  19.346  39.303  1.00  0.00    -0.351 N 
ATOM      4  C   UNL A   1      47.173  18.193  40.003  1.00  0.00     0.273 C 
ATOM      5  O   UNL A   1      48.056  17.585  40.609  1.00  0.00    -0.267 OA
ATOM      6  H   UNL A   1      48.453  19.719  39.521  1.00  0.00     0.163 HD
BRANCH   4   7
ATOM      7  C   UNL A   1      45.784  17.691  39.966  1.00  0.00     0.170 A 
ATOM      8  N   UNL A   1      43.971  16.501  39.740  1.00  0.00    -0.250 N 
ATOM      9  C   UNL A   1      45.130  16.835  39.091  1.00  0.00     0.145 A 
ATOM     10  N   UNL A   1      43.748  17.352  40.753  1.00  0.00    -0.067 NA
ATOM     11  N   UNL A   1      44.854  18.068  40.919  1.00  0.00    -0.125 NA
BRANCH   8  12
ATOM     12  C   UNL A   1      43.100  15.353  39.559  1.00  0.00     0.167 C 
BRANCH  12  13
ATOM     13  C   UNL A   1      41.967  15.166  40.587  1.00  0.00     0.143 C 
BRANCH  13  14
ATOM     14  N   UNL A   1      42.093  14.010  41.477  1.00  0.00    -0.341 N 
ATOM     15  C   UNL A   1      42.998  12.674  43.229  1.00  0.00     0.017 C 
ATOM     16  C   UNL A   1      42.113  11.815  42.323  1.00  0.00     0.105 C 
ATOM     17  C   UNL A   1      42.800  14.085  42.714  1.00  0.00     0.123 C 
ATOM     18  C   UNL A   1      41.774  12.703  41.141  1.00  0.00     0.222 C 
ATOM     19  O   UNL A   1      41.295  12.335  40.091  1.00  0.00    -0.275 OA
BRANCH  15  20
ATOM     20  C   UNL A   1      42.640  12.531  44.717  1.00  0.00     0.002 C 
ATOM     21  C   UNL A   1      43.599  11.659  45.524  1.00  0.00     0.004 C 
ENDBRANCH  15  20
ENDBRANCH  13  14
ENDBRANCH  12  13
ENDBRANCH   8  12
ENDBRANCH   4   7
ENDBRANCH   2   3
ENDBRANCH   1   2
BRANCH   1  22
ATOM     22  C   UNL A   1      47.313  22.615  37.661  1.00  0.00     0.023 C 
BRANCH  22  23
ATOM     23  C   UNL A   1      46.678  23.893  37.078  1.00  0.00     0.116 C 
BRANCH  23  24
ATOM     24  N   UNL A   1      45.240  24.114  37.294  1.00  0.00    -0.352 N 
ATOM     25  C   UNL A   1      44.355  24.776  36.428  1.00  0.00     0.251 C 
ATOM     26  H   UNL A   1      44.860  23.762  38.130  1.00  0.00     0.163 HD
ATOM     27  O   UNL A   1      43.321  25.274  36.858  1.00  0.00    -0.269 OA
BRANCH  25  28
ATOM     28  C   UNL A   1      44.649  24.803  34.972  1.00  0.00     0.039 A 
ATOM     29  C   UNL A   1      45.087  23.726  34.200  1.00  0.00     0.014 A 
ATOM     30  C   UNL A   1      44.494  26.038  34.369  1.00  0.00     0.014 A 
ATOM     31  C   UNL A   1      45.250  23.904  32.813  1.00  0.00     0.010 A 
ATOM     32  C   UNL A   1      44.525  26.192  33.007  1.00  0.00     0.010 A 
ATOM     33  C   UNL A   1      44.947  25.143  32.216  1.00  0.00    -0.014 A 
BRANCH  33  34
ATOM     34  C   UNL A   1      44.849  25.338  30.767  1.00  0.00     0.031 A 
ATOM     35  C   UNL A   1      45.992  26.108  30.205  1.00  0.00     0.074 A 
ATOM     36  C   UNL A   1      44.009  24.654  29.953  1.00  0.00     0.049 A 
ATOM     37  N   UNL A   1      45.961  27.305  29.727  1.00  0.00    -0.248 NA
ATOM     38  C   UNL A   1      47.357  25.569  30.349  1.00  0.00     0.031 C 
ATOM     39  C   UNL A   1      43.043  23.605  30.299  1.00  0.00     0.029 A 
ATOM     40  N   UNL A   1      43.919  24.681  28.591  1.00  0.00    -0.354 N 
ATOM     41  C   UNL A   1      47.246  27.572  29.271  1.00  0.00     0.074 A 
ATOM     42  C   UNL A   1      48.092  26.581  29.881  1.00  0.00     0.031 C 
ATOM     43  C   UNL A   1      42.652  22.950  29.180  1.00  0.00     0.029 A 
ATOM     44  C   UNL A   1      43.220  23.615  28.018  1.00  0.00     0.049 A 
ATOM     45  H   UNL A   1      44.320  25.399  28.051  1.00  0.00     0.167 HD
ATOM     46  C   UNL A   1      47.457  28.432  28.236  1.00  0.00     0.034 A 
ATOM     47  C   UNL A   1      43.133  23.291  26.692  1.00  0.00     0.034 A 
ATOM     48  C   UNL A   1      46.269  29.215  27.967  1.00  0.00     0.049 A 
ATOM     49  C   UNL A   1      43.441  24.540  25.944  1.00  0.00     0.074 A 
ATOM     50  C   UNL A   1      45.469  30.037  28.743  1.00  0.00     0.029 A 
ATOM     51  N   UNL A   1      45.486  28.861  26.888  1.00  0.00    -0.354 N 
ATOM     52  N   UNL A   1      42.684  25.605  26.002  1.00  0.00    -0.248 NA
ATOM     53  C   UNL A   1      44.833  24.791  25.593  1.00  0.00     0.031 C 
ATOM     54  C   UNL A   1      44.135  29.665  28.397  1.00  0.00     0.029 A 
ATOM     55  C   UNL A   1      44.195  28.744  27.349  1.00  0.00     0.049 A 
ATOM     56  H   UNL A   1      45.793  28.719  25.964  1.00  0.00     0.167 HD
ATOM     57  C   UNL A   1      43.566  26.665  26.145  1.00  0.00     0.074 A 
ATOM     58  C   UNL A   1      44.880  26.111  25.809  1.00  0.00     0.031 C 
ATOM     59  C   UNL A   1      43.220  27.809  26.812  1.00  0.00     0.034 A 
BRANCH  46  60
ATOM     60  C   UNL A   1      48.590  28.333  27.242  1.00  0.00     0.023 A 
ATOM     61  C   UNL A   1      48.255  28.063  25.900  1.00  0.00     0.031 A 
ATOM     62  C   UNL A   1      49.960  28.213  27.569  1.00  0.00     0.131 A 
ATOM     63  C   UNL A   1      49.226  27.614  24.990  1.00  0.00     0.055 A 
ATOM     64  C   UNL A   1      50.934  27.835  26.641  1.00  0.00     0.041 A 
ATOM     65  F   UNL A   1      50.422  28.354  28.816  1.00  0.00    -0.206 F 
ATOM     66  C   UNL A   1      50.567  27.503  25.349  1.00  0.00     0.022 A 
BRANCH  63  67
ATOM     67  S   UNL A   1      48.676  27.007  23.375  1.00  0.00     0.124 S 
ATOM     68  O   UNL A   1      47.561  27.903  23.088  1.00  0.00    -0.237 OA
ATOM     69  O   UNL A   1      49.873  27.188  22.561  1.00  0.00    -0.237 OA
ATOM     70  O   UNL A   1      48.309  25.618  23.642  1.00  0.00    -0.744 OA
ENDBRANCH  63  67
ENDBRANCH  46  60
BRANCH  47  71
ATOM     71  C   UNL A   1      43.155  21.920  26.076  1.00  0.00     0.023 A 
ATOM     72  C   UNL A   1      44.318  21.298  25.552  1.00  0.00     0.031 A 
ATOM     73  C   UNL A   1      42.022  21.085  26.217  1.00  0.00     0.131 A 
ATOM     74  C   UNL A   1      44.305  19.920  25.195  1.00  0.00     0.055 A 
ATOM     75  C   UNL A   1      42.015  19.731  25.868  1.00  0.00     0.041 A 
ATOM     76  F   UNL A   1      40.892  21.537  26.785  1.00  0.00    -0.206 F 
ATOM     77  C   UNL A   1      43.159  19.139  25.363  1.00  0.00     0.022 A 
BRANCH  74  78
ATOM     78  S   UNL A   1      45.806  19.076  24.575  1.00  0.00     0.124 S 
ATOM     79  O   UNL A   1      46.843  20.075  24.806  1.00  0.00    -0.237 OA
ATOM     80  O   UNL A   1      45.862  17.878  25.404  1.00  0.00    -0.237 OA
ATOM     81  O   UNL A   1      45.503  18.826  23.165  1.00  0.00    -0.744 OA
ENDBRANCH  74  78
ENDBRANCH  47  71
BRANCH  59  82
ATOM     82  C   UNL A   1      41.768  28.038  27.204  1.00  0.00     0.023 A 
ATOM     83  C   UNL A   1      41.190  27.706  28.454  1.00  0.00     0.031 A 
ATOM     84  C   UNL A   1      40.973  28.769  26.301  1.00  0.00     0.131 A 
ATOM     85  C   UNL A   1      39.868  28.104  28.751  1.00  0.00     0.055 A 
ATOM     86  C   UNL A   1      39.678  29.185  26.610  1.00  0.00     0.041 A 
ATOM     87  F   UNL A   1      41.464  29.135  25.105  1.00  0.00    -0.206 F 
ATOM     88  C   UNL A   1      39.119  28.850  27.835  1.00  0.00     0.022 A 
BRANCH  85  89
ATOM     89  S   UNL A   1      39.080  27.646  30.331  1.00  0.00     0.124 S 
ATOM     90  O   UNL A   1      40.087  27.992  31.327  1.00  0.00    -0.237 OA
ATOM     91  O   UNL A   1      37.871  28.464  30.332  1.00  0.00    -0.237 OA
ATOM     92  O   UNL A   1      38.839  26.209  30.186  1.00  0.00    -0.744 OA
ENDBRANCH  85  89
ENDBRANCH  59  82
ENDBRANCH  33  34
ENDBRANCH  25  28
ENDBRANCH  23  24
ENDBRANCH  22  23
ENDBRANCH   1  22
TORSDOF 18
ENDMDL
MODEL 2
REMARK VINA RESULT:     -11.8      7.004     13.461
REMARK SMILES CC[C@H]1CC(=O)N(CCn2cc(C(=O)NCCCCNC(=O)c3ccc(-c4c5nc(c(-c6cc(S(=O)(=O)[O-])ccc6F)c6ccc([nH]6)c(-c6cc(S(=O)(=O)[O-])ccc6F)c6nc(c(-c7cc(S(=O)(=O)[O-])ccc7F)c7ccc4[nH]7)C=C6)C=C5)cc3)nn2)C1
REMARK SMILES IDX 17 1 16 2 15 3 13 4 14 5 12 7 10 8 11 9 87 10 86 11 9 12
REMARK SMILES IDX 8 13 7 14 3 15 4 16 88 17 5 18 6 19 2 20 1 21 18 22 19 23
REMARK SMILES IDX 20 24 21 25 22 27 23 28 24 29 85 30 25 31 84 32 26 33 27 34
REMARK SMILES IDX 28 35 78 36 29 37 83 38 77 39 79 40 30 41 82 42 76 43 75 44
REMARK SMILES IDX 31 46 63 47 43 48 62 49 44 50 47 51 61 52 80 53 45 54 46 55
REMARK SMILES IDX 60 57 81 58 48 59 32 60 33 61 41 62 34 63 40 64 42 65 39 66
REMARK SMILES IDX 35 67 36 68 37 69 38 70 64 71 65 72 73 73 66 74 72 75 74 76
REMARK SMILES IDX 71 77 67 78 68 79 69 80 70 81 49 82 50 83 58 84 51 85 57 86
REMARK SMILES IDX 59 87 56 88 52 89 53 90 54 91 55 92
REMARK H PARENT 15 6 20 26 79 45 47 56
REMARK Flexibility Score: inf
ROOT
ATOM      1  C   UNL A   1      32.750  29.065  24.970  1.00  0.00     0.023 C 
ENDROOT
BRANCH   1   2
ATOM      2  C   UNL A   1      31.267  29.447  24.887  1.00  0.00     0.116 C 
BRANCH   2   3
ATOM      3  N   UNL A   1      30.575  29.761  23.663  1.00  0.00    -0.351 N 
ATOM      4  C   UNL A   1      30.080  28.832  22.732  1.00  0.00     0.273 C 
ATOM      5  O   UNL A   1      29.276  29.257  21.901  1.00  0.00    -0.267 OA
ATOM      6  H   UNL A   1      30.436  30.714  23.459  1.00  0.00     0.163 HD
BRANCH   4   7
ATOM      7  C   UNL A   1      30.448  27.401  22.780  1.00  0.00     0.170 A 
ATOM      8  N   UNL A   1      31.489  25.487  22.834  1.00  0.00    -0.250 N 
ATOM      9  C   UNL A   1      31.470  26.685  22.172  1.00  0.00     0.145 A 
ATOM     10  N   UNL A   1      30.354  25.327  23.532  1.00  0.00    -0.067 NA
ATOM     11  N   UNL A   1      29.720  26.494  23.529  1.00  0.00    -0.125 NA
BRANCH   8  12
ATOM     12  C   UNL A   1      32.557  24.512  22.965  1.00  0.00     0.167 C 
BRANCH  12  13
ATOM     13  C   UNL A   1      32.149  23.025  22.992  1.00  0.00     0.143 C 
BRANCH  13  14
ATOM     14  N   UNL A   1      32.813  22.197  24.000  1.00  0.00    -0.341 N 
ATOM     15  C   UNL A   1      34.491  21.567  25.568  1.00  0.00     0.017 C 
ATOM     16  C   UNL A   1      33.626  20.354  25.215  1.00  0.00     0.105 C 
ATOM     17  C   UNL A   1      33.806  22.727  24.877  1.00  0.00     0.123 C 
ATOM     18  C   UNL A   1      32.749  20.813  24.067  1.00  0.00     0.222 C 
ATOM     19  O   UNL A   1      32.094  20.096  23.344  1.00  0.00    -0.275 OA
BRANCH  15  20
ATOM     20  C   UNL A   1      34.628  21.778  27.084  1.00  0.00     0.002 C 
ATOM     21  C   UNL A   1      33.368  22.296  27.774  1.00  0.00     0.004 C 
ENDBRANCH  15  20
ENDBRANCH  13  14
ENDBRANCH  12  13
ENDBRANCH   8  12
ENDBRANCH   4   7
ENDBRANCH   2   3
ENDBRANCH   1   2
BRANCH   1  22
ATOM     22  C   UNL A   1      33.504  28.802  26.277  1.00  0.00     0.023 C 
BRANCH  22  23
ATOM     23  C   UNL A   1      33.538  29.839  27.417  1.00  0.00     0.116 C 
BRANCH  23  24
ATOM     24  N   UNL A   1      34.028  31.192  27.109  1.00  0.00    -0.352 N 
ATOM     25  C   UNL A   1      35.192  31.796  27.613  1.00  0.00     0.251 C 
ATOM     26  H   UNL A   1      33.486  31.727  26.487  1.00  0.00     0.163 HD
ATOM     27  O   UNL A   1      35.293  33.017  27.647  1.00  0.00    -0.269 OA
BRANCH  25  28
ATOM     28  C   UNL A   1      36.329  30.939  28.035  1.00  0.00     0.039 A 
ATOM     29  C   UNL A   1      36.542  29.610  27.665  1.00  0.00     0.014 A 
ATOM     30  C   UNL A   1      37.221  31.542  28.903  1.00  0.00     0.014 A 
ATOM     31  C   UNL A   1      37.714  28.962  28.098  1.00  0.00     0.010 A 
ATOM     32  C   UNL A   1      38.424  30.967  29.226  1.00  0.00     0.010 A 
ATOM     33  C   UNL A   1      38.666  29.657  28.868  1.00  0.00    -0.014 A 
BRANCH  33  34
ATOM     34  C   UNL A   1      40.011  29.144  29.145  1.00  0.00     0.031 A 
ATOM     35  C   UNL A   1      40.265  28.930  30.596  1.00  0.00     0.074 A 
ATOM     36  C   UNL A   1      40.841  28.616  28.211  1.00  0.00     0.049 A 
ATOM     37  N   UNL A   1      41.059  29.608  31.352  1.00  0.00    -0.248 NA
ATOM     38  C   UNL A   1      39.416  27.980  31.337  1.00  0.00     0.031 C 
ATOM     39  C   UNL A   1      40.612  28.436  26.773  1.00  0.00     0.029 A 
ATOM     40  N   UNL A   1      42.054  28.015  28.382  1.00  0.00    -0.354 N 
ATOM     41  C   UNL A   1      41.008  29.005  32.603  1.00  0.00     0.074 A 
ATOM     42  C   UNL A   1      39.831  28.178  32.591  1.00  0.00     0.031 C 
ATOM     43  C   UNL A   1      41.530  27.580  26.264  1.00  0.00     0.029 A 
ATOM     44  C   UNL A   1      42.501  27.256  27.297  1.00  0.00     0.049 A 
ATOM     45  H   UNL A   1      42.577  28.109  29.210  1.00  0.00     0.167 HD
ATOM     46  C   UNL A   1      42.078  29.051  33.446  1.00  0.00     0.034 A 
ATOM     47  C   UNL A   1      43.574  26.408  27.258  1.00  0.00     0.034 A 
ATOM     48  C   UNL A   1      43.037  30.043  33.007  1.00  0.00     0.049 A 
ATOM     49  C   UNL A   1      44.478  26.841  28.358  1.00  0.00     0.074 A 
ATOM     50  C   UNL A   1      42.953  31.396  32.726  1.00  0.00     0.029 A 
ATOM     51  N   UNL A   1      44.173  29.608  32.357  1.00  0.00    -0.354 N 
ATOM     52  N   UNL A   1      45.068  28.008  28.373  1.00  0.00    -0.248 NA
ATOM     53  C   UNL A   1      44.288  26.229  29.667  1.00  0.00     0.031 C 
ATOM     54  C   UNL A   1      43.679  31.553  31.508  1.00  0.00     0.029 A 
ATOM     55  C   UNL A   1      44.268  30.328  31.188  1.00  0.00     0.049 A 
ATOM     56  H   UNL A   1      44.797  28.914  32.670  1.00  0.00     0.167 HD
ATOM     57  C   UNL A   1      44.914  28.472  29.670  1.00  0.00     0.074 A 
ATOM     58  C   UNL A   1      44.493  27.300  30.443  1.00  0.00     0.031 C 
ATOM     59  C   UNL A   1      44.838  29.808  29.956  1.00  0.00     0.034 A 
BRANCH  46  60
ATOM     60  C   UNL A   1      42.437  27.982  34.451  1.00  0.00     0.023 A 
ATOM     61  C   UNL A   1      43.185  26.882  33.989  1.00  0.00     0.031 A 
ATOM     62  C   UNL A   1      41.868  27.841  35.737  1.00  0.00     0.131 A 
ATOM     63  C   UNL A   1      43.266  25.697  34.739  1.00  0.00     0.055 A 
ATOM     64  C   UNL A   1      42.012  26.686  36.511  1.00  0.00     0.041 A 
ATOM     65  F   UNL A   1      41.063  28.762  36.277  1.00  0.00    -0.206 F 
ATOM     66  C   UNL A   1      42.689  25.593  36.002  1.00  0.00     0.022 A 
BRANCH  63  67
ATOM     67  S   UNL A   1      43.991  24.232  33.959  1.00  0.00     0.124 S 
ATOM     68  O   UNL A   1      42.973  23.222  34.225  1.00  0.00    -0.237 OA
ATOM     69  O   UNL A   1      44.121  24.664  32.571  1.00  0.00    -0.237 OA
ATOM     70  O   UNL A   1      45.251  24.055  34.676  1.00  0.00    -0.744 OA
ENDBRANCH  63  67
ENDBRANCH  46  60
BRANCH  47  71
ATOM     71  C   UNL A   1      43.669  25.074  26.573  1.00  0.00     0.023 A 
ATOM     72  C   UNL A   1      42.864  23.950  26.898  1.00  0.00     0.031 A 
ATOM     73  C   UNL A   1      44.428  24.963  25.385  1.00  0.00     0.131 A 
ATOM     74  C   UNL A   1      42.853  22.800  26.060  1.00  0.00     0.055 A 
ATOM     75  C   UNL A   1      44.411  23.831  24.564  1.00  0.00     0.041 A 
ATOM     76  F   UNL A   1      45.156  25.994  24.927  1.00  0.00    -0.206 F 
ATOM     77  C   UNL A   1      43.618  22.747  24.892  1.00  0.00     0.022 A 
BRANCH  74  78
ATOM     78  S   UNL A   1      41.780  21.362  26.420  1.00  0.00     0.124 S 
ATOM     79  O   UNL A   1      42.292  20.352  25.501  1.00  0.00    -0.237 OA
ATOM     80  O   UNL A   1      42.024  21.132  27.839  1.00  0.00    -0.237 OA
ATOM     81  O   UNL A   1      40.435  21.848  26.106  1.00  0.00    -0.744 OA
ENDBRANCH  74  78
ENDBRANCH  47  71
BRANCH  59  82
ATOM     82  C   UNL A   1      45.166  30.826  28.874  1.00  0.00     0.023 A 
ATOM     83  C   UNL A   1      46.467  31.240  28.499  1.00  0.00     0.031 A 
ATOM     84  C   UNL A   1      44.092  31.283  28.085  1.00  0.00     0.131 A 
ATOM     85  C   UNL A   1      46.647  32.079  27.378  1.00  0.00     0.055 A 
ATOM     86  C   UNL A   1      44.278  32.089  26.962  1.00  0.00     0.041 A 
ATOM     87  F   UNL A   1      42.832  30.914  28.371  1.00  0.00    -0.206 F 
ATOM     88  C   UNL A   1      45.557  32.494  26.607  1.00  0.00     0.022 A 
BRANCH  85  89
ATOM     89  S   UNL A   1      48.307  32.671  26.904  1.00  0.00     0.124 S 
ATOM     90  O   UNL A   1      49.046  31.442  26.644  1.00  0.00    -0.237 OA
ATOM     91  O   UNL A   1      48.025  33.507  25.739  1.00  0.00    -0.237 OA
ATOM     92  O   UNL A   1      48.755  33.410  28.086  1.00  0.00    -0.744 OA
ENDBRANCH  85  89
ENDBRANCH  59  82
ENDBRANCH  33  34
ENDBRANCH  25  28
ENDBRANCH  23  24
ENDBRANCH  22  23
ENDBRANCH   1  22
TORSDOF 18
ENDMDL
MODEL 3
REMARK VINA RESULT:     -11.8      6.795     13.521
REMARK SMILES CC[C@H]1CC(=O)N(CCn2cc(C(=O)NCCCCNC(=O)c3ccc(-c4c5nc(c(-c6cc(S(=O)(=O)[O-])ccc6F)c6ccc([nH]6)c(-c6cc(S(=O)(=O)[O-])ccc6F)c6nc(c(-c7cc(S(=O)(=O)[O-])ccc7F)c7ccc4[nH]7)C=C6)C=C5)cc3)nn2)C1
REMARK SMILES IDX 17 1 16 2 15 3 13 4 14 5 12 7 10 8 11 9 87 10 86 11 9 12
REMARK SMILES IDX 8 13 7 14 3 15 4 16 88 17 5 18 6 19 2 20 1 21 18 22 19 23
REMARK SMILES IDX 20 24 21 25 22 27 23 28 24 29 85 30 25 31 84 32 26 33 27 34
REMARK SMILES IDX 28 35 78 36 29 37 83 38 77 39 79 40 30 41 82 42 76 43 75 44
REMARK SMILES IDX 31 46 63 47 43 48 62 49 44 50 47 51 61 52 80 53 45 54 46 55
REMARK SMILES IDX 60 57 81 58 48 59 32 60 33 61 41 62 34 63 40 64 42 65 39 66
REMARK SMILES IDX 35 67 36 68 37 69 38 70 64 71 65 72 73 73 66 74 72 75 74 76
REMARK SMILES IDX 71 77 67 78 68 79 69 80 70 81 49 82 50 83 58 84 51 85 57 86
REMARK SMILES IDX 59 87 56 88 52 89 53 90 54 91 55 92
REMARK H PARENT 15 6 20 26 79 45 47 56
REMARK Flexibility Score: inf
ROOT
ATOM      1  C   UNL A   1      35.968  33.716  27.989  1.00  0.00     0.023 C 
ENDROOT
BRANCH   1   2
ATOM      2  C   UNL A   1      34.519  33.938  28.440  1.00  0.00     0.116 C 
BRANCH   2   3
ATOM      3  N   UNL A   1      33.732  35.098  28.105  1.00  0.00    -0.351 N 
ATOM      4  C   UNL A   1      33.304  36.093  29.001  1.00  0.00     0.273 C 
ATOM      5  O   UNL A   1      32.895  37.144  28.505  1.00  0.00    -0.267 OA
ATOM      6  H   UNL A   1      33.471  35.204  27.162  1.00  0.00     0.163 HD
BRANCH   4   7
ATOM      7  C   UNL A   1      33.399  35.923  30.466  1.00  0.00     0.170 A 
ATOM      8  N   UNL A   1      34.038  35.517  32.510  1.00  0.00    -0.250 N 
ATOM      9  C   UNL A   1      34.050  34.981  31.250  1.00  0.00     0.145 A 
ATOM     10  N   UNL A   1      33.143  36.515  32.578  1.00  0.00    -0.067 NA
ATOM     11  N   UNL A   1      32.762  36.790  31.336  1.00  0.00    -0.125 NA
BRANCH   8  12
ATOM     12  C   UNL A   1      34.898  35.244  33.647  1.00  0.00     0.167 C 
BRANCH  12  13
ATOM     13  C   UNL A   1      34.837  33.825  34.247  1.00  0.00     0.143 C 
BRANCH  13  14
ATOM     14  N   UNL A   1      35.995  32.968  33.988  1.00  0.00    -0.341 N 
ATOM     15  C   UNL A   1      38.281  32.301  34.001  1.00  0.00     0.017 C 
ATOM     16  C   UNL A   1      37.502  31.469  32.980  1.00  0.00     0.105 C 
ATOM     17  C   UNL A   1      37.218  33.115  34.708  1.00  0.00     0.123 C 
ATOM     18  C   UNL A   1      36.134  32.117  32.902  1.00  0.00     0.222 C 
ATOM     19  O   UNL A   1      35.300  31.915  32.046  1.00  0.00    -0.275 OA
BRANCH  15  20
ATOM     20  C   UNL A   1      39.105  31.435  34.969  1.00  0.00     0.002 C 
ATOM     21  C   UNL A   1      39.640  32.176  36.192  1.00  0.00     0.004 C 
ENDBRANCH  15  20
ENDBRANCH  13  14
ENDBRANCH  12  13
ENDBRANCH   8  12
ENDBRANCH   4   7
ENDBRANCH   2   3
ENDBRANCH   1   2
BRANCH   1  22
ATOM     22  C   UNL A   1      37.140  33.457  28.940  1.00  0.00     0.023 C 
BRANCH  22  23
ATOM     23  C   UNL A   1      37.506  32.035  29.409  1.00  0.00     0.116 C 
BRANCH  23  24
ATOM     24  N   UNL A   1      36.479  30.987  29.312  1.00  0.00    -0.352 N 
ATOM     25  C   UNL A   1      36.566  29.795  28.573  1.00  0.00     0.251 C 
ATOM     26  H   UNL A   1      35.647  31.135  29.815  1.00  0.00     0.163 HD
ATOM     27  O   UNL A   1      35.550  29.212  28.213  1.00  0.00    -0.269 OA
BRANCH  25  28
ATOM     28  C   UNL A   1      37.903  29.210  28.296  1.00  0.00     0.039 A 
ATOM     29  C   UNL A   1      38.727  29.513  27.211  1.00  0.00     0.014 A 
ATOM     30  C   UNL A   1      38.320  28.254  29.205  1.00  0.00     0.014 A 
ATOM     31  C   UNL A   1      40.001  28.919  27.137  1.00  0.00     0.010 A 
ATOM     32  C   UNL A   1      39.602  27.768  29.213  1.00  0.00     0.010 A 
ATOM     33  C   UNL A   1      40.442  28.056  28.158  1.00  0.00    -0.014 A 
BRANCH  33  34
ATOM     34  C   UNL A   1      41.829  27.599  28.285  1.00  0.00     0.031 A 
ATOM     35  C   UNL A   1      42.119  26.386  27.472  1.00  0.00     0.074 A 
ATOM     36  C   UNL A   1      42.837  28.336  28.814  1.00  0.00     0.049 A 
ATOM     37  N   UNL A   1      42.357  25.197  27.910  1.00  0.00    -0.248 NA
ATOM     38  C   UNL A   1      41.952  26.451  26.009  1.00  0.00     0.031 C 
ATOM     39  C   UNL A   1      42.794  29.697  29.358  1.00  0.00     0.029 A 
ATOM     40  N   UNL A   1      44.170  28.049  28.876  1.00  0.00    -0.354 N 
ATOM     41  C   UNL A   1      42.627  24.421  26.790  1.00  0.00     0.074 A 
ATOM     42  C   UNL A   1      42.142  25.174  25.665  1.00  0.00     0.031 C 
ATOM     43  C   UNL A   1      44.051  30.189  29.470  1.00  0.00     0.029 A 
ATOM     44  C   UNL A   1      45.003  29.138  29.144  1.00  0.00     0.049 A 
ATOM     45  H   UNL A   1      44.520  27.140  28.741  1.00  0.00     0.167 HD
ATOM     46  C   UNL A   1      43.452  23.339  26.871  1.00  0.00     0.034 A 
ATOM     47  C   UNL A   1      46.368  29.180  29.081  1.00  0.00     0.034 A 
ATOM     48  C   UNL A   1      43.677  22.965  28.252  1.00  0.00     0.049 A 
ATOM     49  C   UNL A   1      46.828  27.771  29.215  1.00  0.00     0.074 A 
ATOM     50  C   UNL A   1      42.838  22.650  29.306  1.00  0.00     0.029 A 
ATOM     51  N   UNL A   1      44.874  23.323  28.836  1.00  0.00    -0.354 N 
ATOM     52  N   UNL A   1      46.638  27.063  30.298  1.00  0.00    -0.248 NA
ATOM     53  C   UNL A   1      46.988  26.995  27.992  1.00  0.00     0.031 C 
ATOM     54  C   UNL A   1      43.375  23.367  30.417  1.00  0.00     0.029 A 
ATOM     55  C   UNL A   1      44.570  23.966  30.014  1.00  0.00     0.049 A 
ATOM     56  H   UNL A   1      45.775  23.151  28.478  1.00  0.00     0.167 HD
ATOM     57  C   UNL A   1      46.208  25.825  29.847  1.00  0.00     0.074 A 
ATOM     58  C   UNL A   1      46.517  25.816  28.415  1.00  0.00     0.031 C 
ATOM     59  C   UNL A   1      45.370  25.036  30.587  1.00  0.00     0.034 A 
BRANCH  46  60
ATOM     60  C   UNL A   1      44.333  22.833  25.753  1.00  0.00     0.023 A 
ATOM     61  C   UNL A   1      44.375  21.442  25.538  1.00  0.00     0.031 A 
ATOM     62  C   UNL A   1      45.324  23.587  25.084  1.00  0.00     0.131 A 
ATOM     63  C   UNL A   1      45.402  20.858  24.779  1.00  0.00     0.055 A 
ATOM     64  C   UNL A   1      46.302  23.009  24.271  1.00  0.00     0.041 A 
ATOM     65  F   UNL A   1      45.467  24.906  25.255  1.00  0.00    -0.206 F 
ATOM     66  C   UNL A   1      46.365  21.634  24.137  1.00  0.00     0.022 A 
BRANCH  63  67
ATOM     67  S   UNL A   1      45.561  19.054  24.789  1.00  0.00     0.124 S 
ATOM     68  O   UNL A   1      45.640  18.757  23.364  1.00  0.00    -0.237 OA
ATOM     69  O   UNL A   1      46.788  18.866  25.555  1.00  0.00    -0.237 OA
ATOM     70  O   UNL A   1      44.338  18.610  25.453  1.00  0.00    -0.744 OA
ENDBRANCH  63  67
ENDBRANCH  46  60
BRANCH  47  71
ATOM     71  C   UNL A   1      47.232  30.297  28.567  1.00  0.00     0.023 A 
ATOM     72  C   UNL A   1      46.791  31.297  27.662  1.00  0.00     0.031 A 
ATOM     73  C   UNL A   1      48.490  30.528  29.172  1.00  0.00     0.131 A 
ATOM     74  C   UNL A   1      47.593  32.443  27.400  1.00  0.00     0.055 A 
ATOM     75  C   UNL A   1      49.273  31.657  28.913  1.00  0.00     0.041 A 
ATOM     76  F   UNL A   1      48.972  29.699  30.112  1.00  0.00    -0.206 F 
ATOM     77  C   UNL A   1      48.826  32.624  28.032  1.00  0.00     0.022 A 
BRANCH  74  78
ATOM     78  S   UNL A   1      47.022  33.778  26.285  1.00  0.00     0.124 S 
ATOM     79  O   UNL A   1      45.830  33.194  25.683  1.00  0.00    -0.237 OA
ATOM     80  O   UNL A   1      46.807  34.889  27.206  1.00  0.00    -0.237 OA
ATOM     81  O   UNL A   1      48.145  33.961  25.363  1.00  0.00    -0.744 OA
ENDBRANCH  74  78
ENDBRANCH  47  71
BRANCH  59  82
ATOM     82  C   UNL A   1      45.082  25.402  32.036  1.00  0.00     0.023 A 
ATOM     83  C   UNL A   1      45.867  25.025  33.152  1.00  0.00     0.031 A 
ATOM     84  C   UNL A   1      44.029  26.308  32.266  1.00  0.00     0.131 A 
ATOM     85  C   UNL A   1      45.579  25.552  34.430  1.00  0.00     0.055 A 
ATOM     86  C   UNL A   1      43.767  26.848  33.524  1.00  0.00     0.041 A 
ATOM     87  F   UNL A   1      43.255  26.725  31.249  1.00  0.00    -0.206 F 
ATOM     88  C   UNL A   1      44.539  26.468  34.613  1.00  0.00     0.022 A 
BRANCH  85  89
ATOM     89  S   UNL A   1      46.541  25.043  35.896  1.00  0.00     0.124 S 
ATOM     90  O   UNL A   1      45.517  24.670  36.863  1.00  0.00    -0.237 OA
ATOM     91  O   UNL A   1      47.359  23.951  35.375  1.00  0.00    -0.237 OA
ATOM     92  O   UNL A   1      47.294  26.251  36.243  1.00  0.00    -0.744 OA
ENDBRANCH  85  89
ENDBRANCH  59  82
ENDBRANCH  33  34
ENDBRANCH  25  28
ENDBRANCH  23  24
ENDBRANCH  22  23
ENDBRANCH   1  22
TORSDOF 18
ENDMDL
