MODEL 1
REMARK VINA RESULT:     -11.8      0.000      0.000
REMARK SMILES Cc1ccc([C@H](CCC(F)(F)F)C(=O)NCCCCNC(=O)c2ccc(-c3c4nc(c(-c5cc(S(=O)(=O)[O-])ccc5F)c5ccc([nH]5)c(-c5cc(S(=O)(=O)[O-])ccc5F)c5nc(c(-c6cc(S(=O)(=O)[O-])ccc6F)c6ccc3[nH]6)C=C5)C=C4)cc2)cc1
REMARK SMILES IDX 17 1 16 2 15 3 13 4 14 5 6 7 5 8 1 9 2 10 3 11 87 12 4 13
REMARK SMILES IDX 86 14 7 15 8 16 9 17 10 18 11 19 12 20 18 21 19 22 20 23
REMARK SMILES IDX 21 24 22 26 23 27 24 28 85 29 25 30 84 31 26 32 27 33 28 34
REMARK SMILES IDX 78 35 29 36 83 37 77 38 79 39 30 40 82 41 76 42 75 43 31 45
REMARK SMILES IDX 63 46 43 47 62 48 44 49 47 50 61 51 80 52 45 53 46 54 60 56
REMARK SMILES IDX 81 57 48 58 32 59 33 60 41 61 34 62 40 63 42 64 39 65 35 66
REMARK SMILES IDX 36 67 37 68 38 69 64 70 65 71 73 72 66 73 72 74 74 75 71 76
REMARK SMILES IDX 67 77 68 78 69 79 70 80 49 81 50 82 58 83 51 84 57 85 59 86
REMARK SMILES IDX 56 87 52 88 53 89 54 90 55 91
REMARK H PARENT 15 6 20 25 79 44 47 55
REMARK Flexibility Score: inf
ROOT
ATOM      1  C   UNL A   1      32.784  29.490  25.350  1.00  0.00     0.023 C 
ENDROOT
BRANCH   1   2
ATOM      2  C   UNL A   1      33.934  28.478  25.379  1.00  0.00     0.116 C 
BRANCH   2   3
ATOM      3  N   UNL A   1      33.915  27.564  24.237  1.00  0.00    -0.356 N 
ATOM      4  C   UNL A   1      33.847  26.203  24.180  1.00  0.00     0.227 C 
ATOM      5  O   UNL A   1      33.619  25.701  23.075  1.00  0.00    -0.274 OA
ATOM      6  H   UNL A   1      33.958  28.008  23.359  1.00  0.00     0.163 HD
BRANCH   4   7
ATOM      7  C   UNL A   1      34.079  25.305  25.406  1.00  0.00     0.109 C 
BRANCH   7   8
ATOM      8  C   UNL A   1      34.997  24.102  25.151  1.00  0.00    -0.036 A 
ATOM      9  C   UNL A   1      37.503  20.573  24.932  1.00  0.00     0.044 C 
ATOM     10  C   UNL A   1      36.663  21.815  24.972  1.00  0.00    -0.051 A 
ATOM     11  C   UNL A   1      37.136  22.989  25.562  1.00  0.00     0.004 A 
ATOM     12  C   UNL A   1      35.398  21.819  24.387  1.00  0.00     0.004 A 
ATOM     13  C   UNL A   1      36.311  24.117  25.653  1.00  0.00     0.005 A 
ATOM     14  C   UNL A   1      34.588  22.955  24.456  1.00  0.00     0.005 A 
ENDBRANCH   7   8
BRANCH   7  15
ATOM     15  C   UNL A   1      32.755  24.898  26.107  1.00  0.00     0.027 C 
BRANCH  15  16
ATOM     16  C   UNL A   1      31.453  25.147  25.331  1.00  0.00     0.116 C 
BRANCH  16  17
ATOM     17  C   UNL A   1      30.578  26.278  25.823  1.00  0.00     0.389 C 
ATOM     18  F   UNL A   1      30.295  27.161  24.845  1.00  0.00    -0.171 F 
ATOM     19  F   UNL A   1      29.397  25.781  26.269  1.00  0.00    -0.171 F 
ATOM     20  F   UNL A   1      31.141  26.931  26.854  1.00  0.00    -0.171 F 
ENDBRANCH  16  17
ENDBRANCH  15  16
ENDBRANCH   7  15
ENDBRANCH   4   7
ENDBRANCH   2   3
ENDBRANCH   1   2
BRANCH   1  21
ATOM     21  C   UNL A   1      32.742  30.478  26.518  1.00  0.00     0.023 C 
BRANCH  21  22
ATOM     22  C   UNL A   1      33.645  30.122  27.690  1.00  0.00     0.116 C 
BRANCH  22  23
ATOM     23  N   UNL A   1      34.305  31.239  28.343  1.00  0.00    -0.352 N 
ATOM     24  C   UNL A   1      35.486  31.260  29.080  1.00  0.00     0.251 C 
ATOM     25  H   UNL A   1      33.850  32.108  28.252  1.00  0.00     0.163 HD
ATOM     26  O   UNL A   1      35.794  32.240  29.722  1.00  0.00    -0.269 OA
BRANCH  24  27
ATOM     27  C   UNL A   1      36.429  30.106  28.987  1.00  0.00     0.039 A 
ATOM     28  C   UNL A   1      36.682  29.376  30.157  1.00  0.00     0.014 A 
ATOM     29  C   UNL A   1      37.189  29.866  27.848  1.00  0.00     0.014 A 
ATOM     30  C   UNL A   1      37.837  28.595  30.249  1.00  0.00     0.010 A 
ATOM     31  C   UNL A   1      38.388  29.196  27.972  1.00  0.00     0.010 A 
ATOM     32  C   UNL A   1      38.739  28.604  29.187  1.00  0.00    -0.014 A 
BRANCH  32  33
ATOM     33  C   UNL A   1      40.116  28.134  29.277  1.00  0.00     0.031 A 
ATOM     34  C   UNL A   1      40.498  26.797  28.780  1.00  0.00     0.074 A 
ATOM     35  C   UNL A   1      41.081  28.985  29.687  1.00  0.00     0.049 A 
ATOM     36  N   UNL A   1      41.564  26.172  29.146  1.00  0.00    -0.248 NA
ATOM     37  C   UNL A   1      39.683  26.040  27.837  1.00  0.00     0.031 C 
ATOM     38  C   UNL A   1      42.526  28.829  29.541  1.00  0.00     0.029 A 
ATOM     39  N   UNL A   1      40.936  30.072  30.543  1.00  0.00    -0.354 N 
ATOM     40  C   UNL A   1      41.735  25.107  28.295  1.00  0.00     0.074 A 
ATOM     41  C   UNL A   1      40.506  25.030  27.538  1.00  0.00     0.031 C 
ATOM     42  C   UNL A   1      43.138  29.588  30.462  1.00  0.00     0.029 A 
ATOM     43  C   UNL A   1      42.108  30.139  31.323  1.00  0.00     0.049 A 
ATOM     44  H   UNL A   1      40.163  30.679  30.594  1.00  0.00     0.167 HD
ATOM     45  C   UNL A   1      42.945  24.485  28.226  1.00  0.00     0.034 A 
ATOM     46  C   UNL A   1      42.040  29.992  32.680  1.00  0.00     0.034 A 
ATOM     47  C   UNL A   1      43.915  25.064  29.154  1.00  0.00     0.049 A 
ATOM     48  C   UNL A   1      42.779  28.775  33.210  1.00  0.00     0.074 A 
ATOM     49  C   UNL A   1      44.987  25.932  29.026  1.00  0.00     0.029 A 
ATOM     50  N   UNL A   1      43.679  24.953  30.511  1.00  0.00    -0.354 N 
ATOM     51  N   UNL A   1      43.411  27.911  32.462  1.00  0.00    -0.248 NA
ATOM     52  C   UNL A   1      42.794  28.390  34.623  1.00  0.00     0.031 C 
ATOM     53  C   UNL A   1      45.377  26.350  30.332  1.00  0.00     0.029 A 
ATOM     54  C   UNL A   1      44.557  25.719  31.250  1.00  0.00     0.049 A 
ATOM     55  H   UNL A   1      42.969  24.394  30.904  1.00  0.00     0.167 HD
ATOM     56  C   UNL A   1      43.825  26.853  33.229  1.00  0.00     0.074 A 
ATOM     57  C   UNL A   1      43.430  27.206  34.581  1.00  0.00     0.031 C 
ATOM     58  C   UNL A   1      44.412  25.741  32.695  1.00  0.00     0.034 A 
BRANCH  45  59
ATOM     59  C   UNL A   1      43.322  23.508  27.142  1.00  0.00     0.023 A 
ATOM     60  C   UNL A   1      42.672  22.261  27.088  1.00  0.00     0.031 A 
ATOM     61  C   UNL A   1      44.304  23.726  26.158  1.00  0.00     0.131 A 
ATOM     62  C   UNL A   1      43.065  21.269  26.175  1.00  0.00     0.055 A 
ATOM     63  C   UNL A   1      44.744  22.717  25.291  1.00  0.00     0.041 A 
ATOM     64  F   UNL A   1      44.843  24.939  25.960  1.00  0.00    -0.206 F 
ATOM     65  C   UNL A   1      44.131  21.473  25.305  1.00  0.00     0.022 A 
BRANCH  62  66
ATOM     66  S   UNL A   1      42.145  19.707  26.132  1.00  0.00     0.124 S 
ATOM     67  O   UNL A   1      42.474  19.117  27.425  1.00  0.00    -0.237 OA
ATOM     68  O   UNL A   1      40.771  20.167  25.963  1.00  0.00    -0.237 OA
ATOM     69  O   UNL A   1      42.711  19.013  24.975  1.00  0.00    -0.744 OA
ENDBRANCH  62  66
ENDBRANCH  45  59
BRANCH  46  70
ATOM     70  C   UNL A   1      40.781  30.575  33.238  1.00  0.00     0.023 A 
ATOM     71  C   UNL A   1      40.732  31.983  33.345  1.00  0.00     0.031 A 
ATOM     72  C   UNL A   1      39.565  29.878  33.222  1.00  0.00     0.131 A 
ATOM     73  C   UNL A   1      39.510  32.657  33.220  1.00  0.00     0.055 A 
ATOM     74  C   UNL A   1      38.340  30.556  33.200  1.00  0.00     0.041 A 
ATOM     75  F   UNL A   1      39.542  28.543  33.085  1.00  0.00    -0.206 F 
ATOM     76  C   UNL A   1      38.309  31.951  33.144  1.00  0.00     0.022 A 
BRANCH  73  77
ATOM     77  S   UNL A   1      39.553  34.435  32.830  1.00  0.00     0.124 S 
ATOM     78  O   UNL A   1      40.979  34.729  32.909  1.00  0.00    -0.237 OA
ATOM     79  O   UNL A   1      38.960  34.479  31.494  1.00  0.00    -0.237 OA
ATOM     80  O   UNL A   1      38.725  35.040  33.871  1.00  0.00    -0.744 OA
ENDBRANCH  73  77
ENDBRANCH  46  70
BRANCH  58  81
ATOM     81  C   UNL A   1      44.876  24.561  33.511  1.00  0.00     0.023 A 
ATOM     82  C   UNL A   1      46.223  24.381  33.858  1.00  0.00     0.031 A 
ATOM     83  C   UNL A   1      43.988  23.526  33.892  1.00  0.00     0.131 A 
ATOM     84  C   UNL A   1      46.628  23.255  34.599  1.00  0.00     0.055 A 
ATOM     85  C   UNL A   1      44.409  22.369  34.549  1.00  0.00     0.041 A 
ATOM     86  F   UNL A   1      42.667  23.614  33.681  1.00  0.00    -0.206 F 
ATOM     87  C   UNL A   1      45.736  22.231  34.918  1.00  0.00     0.022 A 
BRANCH  84  88
ATOM     88  S   UNL A   1      48.331  23.189  35.211  1.00  0.00     0.124 S 
ATOM     89  O   UNL A   1      49.112  23.151  33.981  1.00  0.00    -0.237 OA
ATOM     90  O   UNL A   1      48.416  24.429  35.979  1.00  0.00    -0.237 OA
ATOM     91  O   UNL A   1      48.364  21.965  36.009  1.00  0.00    -0.744 OA
ENDBRANCH  84  88
ENDBRANCH  58  81
ENDBRANCH  32  33
ENDBRANCH  24  27
ENDBRANCH  22  23
ENDBRANCH  21  22
ENDBRANCH   1  21
TORSDOF 18
ENDMDL
MODEL 2
REMARK VINA RESULT:     -11.5      1.782      3.269
REMARK SMILES Cc1ccc([C@H](CCC(F)(F)F)C(=O)NCCCCNC(=O)c2ccc(-c3c4nc(c(-c5cc(S(=O)(=O)[O-])ccc5F)c5ccc([nH]5)c(-c5cc(S(=O)(=O)[O-])ccc5F)c5nc(c(-c6cc(S(=O)(=O)[O-])ccc6F)c6ccc3[nH]6)C=C5)C=C4)cc2)cc1
REMARK SMILES IDX 17 1 16 2 15 3 13 4 14 5 6 7 5 8 1 9 2 10 3 11 87 12 4 13
REMARK SMILES IDX 86 14 7 15 8 16 9 17 10 18 11 19 12 20 18 21 19 22 20 23
REMARK SMILES IDX 21 24 22 26 23 27 24 28 85 29 25 30 84 31 26 32 27 33 28 34
REMARK SMILES IDX 78 35 29 36 83 37 77 38 79 39 30 40 82 41 76 42 75 43 31 45
REMARK SMILES IDX 63 46 43 47 62 48 44 49 47 50 61 51 80 52 45 53 46 54 60 56
REMARK SMILES IDX 81 57 48 58 32 59 33 60 41 61 34 62 40 63 42 64 39 65 35 66
REMARK SMILES IDX 36 67 37 68 38 69 64 70 65 71 73 72 66 73 72 74 74 75 71 76
REMARK SMILES IDX 67 77 68 78 69 79 70 80 49 81 50 82 58 83 51 84 57 85 59 86
REMARK SMILES IDX 56 87 52 88 53 89 54 90 55 91
REMARK H PARENT 15 6 20 25 79 44 47 55
REMARK Flexibility Score: inf
ROOT
ATOM      1  C   UNL A   1      33.144  29.556  25.474  1.00  0.00     0.023 C 
ENDROOT
BRANCH   1   2
ATOM      2  C   UNL A   1      33.415  28.064  25.686  1.00  0.00     0.116 C 
BRANCH   2   3
ATOM      3  N   UNL A   1      32.246  27.340  26.186  1.00  0.00    -0.356 N 
ATOM      4  C   UNL A   1      31.366  26.513  25.553  1.00  0.00     0.227 C 
ATOM      5  O   UNL A   1      30.601  25.857  26.268  1.00  0.00    -0.274 OA
ATOM      6  H   UNL A   1      32.063  27.474  27.144  1.00  0.00     0.163 HD
BRANCH   4   7
ATOM      7  C   UNL A   1      31.275  26.407  24.022  1.00  0.00     0.109 C 
BRANCH   7   8
ATOM      8  C   UNL A   1      30.409  27.485  23.358  1.00  0.00    -0.036 A 
ATOM      9  C   UNL A   1      27.884  30.721  21.966  1.00  0.00     0.044 C 
ATOM     10  C   UNL A   1      28.744  29.575  22.408  1.00  0.00    -0.051 A 
ATOM     11  C   UNL A   1      28.184  28.429  22.978  1.00  0.00     0.004 A 
ATOM     12  C   UNL A   1      30.125  29.628  22.226  1.00  0.00     0.004 A 
ATOM     13  C   UNL A   1      29.007  27.399  23.450  1.00  0.00     0.005 A 
ATOM     14  C   UNL A   1      30.941  28.586  22.674  1.00  0.00     0.005 A 
ENDBRANCH   7   8
BRANCH   7  15
ATOM     15  C   UNL A   1      30.908  24.976  23.543  1.00  0.00     0.027 C 
BRANCH  15  16
ATOM     16  C   UNL A   1      31.986  23.894  23.697  1.00  0.00     0.116 C 
BRANCH  16  17
ATOM     17  C   UNL A   1      33.157  23.965  22.743  1.00  0.00     0.389 C 
ATOM     18  F   UNL A   1      34.152  24.737  23.219  1.00  0.00    -0.171 F 
ATOM     19  F   UNL A   1      33.668  22.723  22.554  1.00  0.00    -0.171 F 
ATOM     20  F   UNL A   1      32.787  24.423  21.534  1.00  0.00    -0.171 F 
ENDBRANCH  16  17
ENDBRANCH  15  16
ENDBRANCH   7  15
ENDBRANCH   4   7
ENDBRANCH   2   3
ENDBRANCH   1   2
BRANCH   1  21
ATOM     21  C   UNL A   1      32.951  30.382  26.749  1.00  0.00     0.023 C 
BRANCH  21  22
ATOM     22  C   UNL A   1      33.931  30.067  27.870  1.00  0.00     0.116 C 
BRANCH  22  23
ATOM     23  N   UNL A   1      34.686  31.195  28.387  1.00  0.00    -0.352 N 
ATOM     24  C   UNL A   1      35.937  31.215  28.996  1.00  0.00     0.251 C 
ATOM     25  H   UNL A   1      34.249  32.072  28.292  1.00  0.00     0.163 HD
ATOM     26  O   UNL A   1      36.337  32.218  29.547  1.00  0.00    -0.269 OA
BRANCH  24  27
ATOM     27  C   UNL A   1      36.833  30.028  28.874  1.00  0.00     0.039 A 
ATOM     28  C   UNL A   1      37.013  29.227  30.011  1.00  0.00     0.014 A 
ATOM     29  C   UNL A   1      37.622  29.813  27.750  1.00  0.00     0.014 A 
ATOM     30  C   UNL A   1      38.129  28.392  30.101  1.00  0.00     0.010 A 
ATOM     31  C   UNL A   1      38.786  29.085  27.879  1.00  0.00     0.010 A 
ATOM     32  C   UNL A   1      39.068  28.416  29.072  1.00  0.00    -0.014 A 
BRANCH  32  33
ATOM     33  C   UNL A   1      40.419  27.881  29.182  1.00  0.00     0.031 A 
ATOM     34  C   UNL A   1      40.739  26.516  28.719  1.00  0.00     0.074 A 
ATOM     35  C   UNL A   1      41.423  28.693  29.580  1.00  0.00     0.049 A 
ATOM     36  N   UNL A   1      41.771  25.848  29.107  1.00  0.00    -0.248 NA
ATOM     37  C   UNL A   1      39.894  25.779  27.787  1.00  0.00     0.031 C 
ATOM     38  C   UNL A   1      42.859  28.463  29.449  1.00  0.00     0.029 A 
ATOM     39  N   UNL A   1      41.326  29.805  30.410  1.00  0.00    -0.354 N 
ATOM     40  C   UNL A   1      41.894  24.757  28.282  1.00  0.00     0.074 A 
ATOM     41  C   UNL A   1      40.668  24.723  27.518  1.00  0.00     0.031 C 
ATOM     42  C   UNL A   1      43.502  29.212  30.358  1.00  0.00     0.029 A 
ATOM     43  C   UNL A   1      42.495  29.833  31.198  1.00  0.00     0.049 A 
ATOM     44  H   UNL A   1      40.583  30.451  30.442  1.00  0.00     0.167 HD
ATOM     45  C   UNL A   1      43.073  24.075  28.237  1.00  0.00     0.034 A 
ATOM     46  C   UNL A   1      42.411  29.720  32.557  1.00  0.00     0.034 A 
ATOM     47  C   UNL A   1      44.064  24.626  29.159  1.00  0.00     0.049 A 
ATOM     48  C   UNL A   1      43.085  28.481  33.120  1.00  0.00     0.074 A 
ATOM     49  C   UNL A   1      45.178  25.438  29.019  1.00  0.00     0.029 A 
ATOM     50  N   UNL A   1      43.814  24.559  30.516  1.00  0.00    -0.354 N 
ATOM     51  N   UNL A   1      43.679  27.571  32.397  1.00  0.00    -0.248 NA
ATOM     52  C   UNL A   1      43.072  28.129  34.542  1.00  0.00     0.031 C 
ATOM     53  C   UNL A   1      45.580  25.866  30.319  1.00  0.00     0.029 A 
ATOM     54  C   UNL A   1      44.723  25.298  31.244  1.00  0.00     0.049 A 
ATOM     55  H   UNL A   1      43.075  24.045  30.916  1.00  0.00     0.167 HD
ATOM     56  C   UNL A   1      44.035  26.511  33.191  1.00  0.00     0.074 A 
ATOM     57  C   UNL A   1      43.650  26.915  34.531  1.00  0.00     0.031 C 
ATOM     58  C   UNL A   1      44.571  25.360  32.687  1.00  0.00     0.034 A 
BRANCH  45  59
ATOM     59  C   UNL A   1      43.408  23.056  27.178  1.00  0.00     0.023 A 
ATOM     60  C   UNL A   1      42.766  21.804  27.204  1.00  0.00     0.031 A 
ATOM     61  C   UNL A   1      44.344  23.238  26.143  1.00  0.00     0.131 A 
ATOM     62  C   UNL A   1      43.125  20.777  26.316  1.00  0.00     0.055 A 
ATOM     63  C   UNL A   1      44.752  22.196  25.299  1.00  0.00     0.041 A 
ATOM     64  F   UNL A   1      44.866  24.444  25.871  1.00  0.00    -0.206 F 
ATOM     65  C   UNL A   1      44.150  20.951  25.392  1.00  0.00     0.022 A 
BRANCH  62  66
ATOM     66  S   UNL A   1      42.215  19.210  26.379  1.00  0.00     0.124 S 
ATOM     67  O   UNL A   1      42.408  18.794  27.764  1.00  0.00    -0.237 OA
ATOM     68  O   UNL A   1      40.867  19.625  26.011  1.00  0.00    -0.237 OA
ATOM     69  O   UNL A   1      42.899  18.382  25.385  1.00  0.00    -0.744 OA
ENDBRANCH  62  66
ENDBRANCH  45  59
BRANCH  46  70
ATOM     70  C   UNL A   1      41.178  30.377  33.092  1.00  0.00     0.023 A 
ATOM     71  C   UNL A   1      41.183  31.790  33.130  1.00  0.00     0.031 A 
ATOM     72  C   UNL A   1      39.937  29.726  33.117  1.00  0.00     0.131 A 
ATOM     73  C   UNL A   1      39.985  32.503  32.978  1.00  0.00     0.055 A 
ATOM     74  C   UNL A   1      38.738  30.448  33.067  1.00  0.00     0.041 A 
ATOM     75  F   UNL A   1      39.863  28.389  33.046  1.00  0.00    -0.206 F 
ATOM     76  C   UNL A   1      38.759  31.840  32.943  1.00  0.00     0.022 A 
BRANCH  73  77
ATOM     77  S   UNL A   1      40.092  34.256  32.501  1.00  0.00     0.124 S 
ATOM     78  O   UNL A   1      38.729  34.538  32.068  1.00  0.00    -0.237 OA
ATOM     79  O   UNL A   1      40.518  34.897  33.745  1.00  0.00    -0.237 OA
ATOM     80  O   UNL A   1      41.105  34.269  31.447  1.00  0.00    -0.744 OA
ENDBRANCH  73  77
ENDBRANCH  46  70
BRANCH  58  81
ATOM     81  C   UNL A   1      44.970  24.177  33.533  1.00  0.00     0.023 A 
ATOM     82  C   UNL A   1      46.313  23.886  33.815  1.00  0.00     0.031 A 
ATOM     83  C   UNL A   1      44.015  23.249  34.012  1.00  0.00     0.131 A 
ATOM     84  C   UNL A   1      46.655  22.760  34.587  1.00  0.00     0.055 A 
ATOM     85  C   UNL A   1      44.365  22.087  34.700  1.00  0.00     0.041 A 
ATOM     86  F   UNL A   1      42.698  23.453  33.869  1.00  0.00    -0.206 F 
ATOM     87  C   UNL A   1      45.693  21.840  35.003  1.00  0.00     0.022 A 
BRANCH  84  88
ATOM     88  S   UNL A   1      48.378  22.559  35.108  1.00  0.00     0.124 S 
ATOM     89  O   UNL A   1      48.931  23.892  34.903  1.00  0.00    -0.237 OA
ATOM     90  O   UNL A   1      48.218  22.143  36.499  1.00  0.00    -0.237 OA
ATOM     91  O   UNL A   1      48.892  21.527  34.210  1.00  0.00    -0.744 OA
ENDBRANCH  84  88
ENDBRANCH  58  81
ENDBRANCH  32  33
ENDBRANCH  24  27
ENDBRANCH  22  23
ENDBRANCH  21  22
ENDBRANCH   1  21
TORSDOF 18
ENDMDL
MODEL 3
REMARK VINA RESULT:     -11.5      4.339     10.495
REMARK SMILES Cc1ccc([C@H](CCC(F)(F)F)C(=O)NCCCCNC(=O)c2ccc(-c3c4nc(c(-c5cc(S(=O)(=O)[O-])ccc5F)c5ccc([nH]5)c(-c5cc(S(=O)(=O)[O-])ccc5F)c5nc(c(-c6cc(S(=O)(=O)[O-])ccc6F)c6ccc3[nH]6)C=C5)C=C4)cc2)cc1
REMARK SMILES IDX 17 1 16 2 15 3 13 4 14 5 6 7 5 8 1 9 2 10 3 11 87 12 4 13
REMARK SMILES IDX 86 14 7 15 8 16 9 17 10 18 11 19 12 20 18 21 19 22 20 23
REMARK SMILES IDX 21 24 22 26 23 27 24 28 85 29 25 30 84 31 26 32 27 33 28 34
REMARK SMILES IDX 78 35 29 36 83 37 77 38 79 39 30 40 82 41 76 42 75 43 31 45
REMARK SMILES IDX 63 46 43 47 62 48 44 49 47 50 61 51 80 52 45 53 46 54 60 56
REMARK SMILES IDX 81 57 48 58 32 59 33 60 41 61 34 62 40 63 42 64 39 65 35 66
REMARK SMILES IDX 36 67 37 68 38 69 64 70 65 71 73 72 66 73 72 74 74 75 71 76
REMARK SMILES IDX 67 77 68 78 69 79 70 80 49 81 50 82 58 83 51 84 57 85 59 86
REMARK SMILES IDX 56 87 52 88 53 89 54 90 55 91
REMARK H PARENT 15 6 20 25 79 44 47 55
REMARK Flexibility Score: inf
ROOT
ATOM      1  C   UNL A   1      37.843  21.555  25.068  1.00  0.00     0.023 C 
ENDROOT
BRANCH   1   2
ATOM      2  C   UNL A   1      36.321  21.504  24.898  1.00  0.00     0.116 C 
BRANCH   2   3
ATOM      3  N   UNL A   1      35.606  21.555  26.173  1.00  0.00    -0.356 N 
ATOM      4  C   UNL A   1      34.288  21.765  26.452  1.00  0.00     0.227 C 
ATOM      5  O   UNL A   1      33.917  21.531  27.608  1.00  0.00    -0.274 OA
ATOM      6  H   UNL A   1      36.174  21.414  26.965  1.00  0.00     0.163 HD
BRANCH   4   7
ATOM      7  C   UNL A   1      33.290  22.303  25.414  1.00  0.00     0.109 C 
BRANCH   7   8
ATOM      8  C   UNL A   1      32.851  23.755  25.645  1.00  0.00    -0.036 A 
ATOM      9  C   UNL A   1      31.561  27.727  26.803  1.00  0.00     0.044 C 
ATOM     10  C   UNL A   1      31.989  26.361  26.357  1.00  0.00    -0.051 A 
ATOM     11  C   UNL A   1      31.062  25.329  26.196  1.00  0.00     0.004 A 
ATOM     12  C   UNL A   1      33.329  26.111  26.067  1.00  0.00     0.004 A 
ATOM     13  C   UNL A   1      31.489  24.042  25.848  1.00  0.00     0.005 A 
ATOM     14  C   UNL A   1      33.748  24.832  25.693  1.00  0.00     0.005 A 
ENDBRANCH   7   8
BRANCH   7  15
ATOM     15  C   UNL A   1      32.085  21.350  25.194  1.00  0.00     0.027 C 
BRANCH  15  16
ATOM     16  C   UNL A   1      32.280  20.204  24.190  1.00  0.00     0.116 C 
BRANCH  16  17
ATOM     17  C   UNL A   1      32.829  18.908  24.743  1.00  0.00     0.389 C 
ATOM     18  F   UNL A   1      32.342  17.834  24.092  1.00  0.00    -0.171 F 
ATOM     19  F   UNL A   1      34.178  18.886  24.599  1.00  0.00    -0.171 F 
ATOM     20  F   UNL A   1      32.574  18.779  26.056  1.00  0.00    -0.171 F 
ENDBRANCH  16  17
ENDBRANCH  15  16
ENDBRANCH   7  15
ENDBRANCH   4   7
ENDBRANCH   2   3
ENDBRANCH   1   2
BRANCH   1  21
ATOM     21  C   UNL A   1      38.394  22.825  25.721  1.00  0.00     0.023 C 
BRANCH  21  22
ATOM     22  C   UNL A   1      39.406  22.586  26.832  1.00  0.00     0.116 C 
BRANCH  22  23
ATOM     23  N   UNL A   1      40.785  22.909  26.512  1.00  0.00    -0.352 N 
ATOM     24  C   UNL A   1      41.391  24.154  26.369  1.00  0.00     0.251 C 
ATOM     25  H   UNL A   1      41.378  22.134  26.377  1.00  0.00     0.163 HD
ATOM     26  O   UNL A   1      42.507  24.246  25.907  1.00  0.00    -0.269 OA
BRANCH  24  27
ATOM     27  C   UNL A   1      40.699  25.370  26.889  1.00  0.00     0.039 A 
ATOM     28  C   UNL A   1      40.777  26.543  26.123  1.00  0.00     0.014 A 
ATOM     29  C   UNL A   1      40.162  25.420  28.170  1.00  0.00     0.014 A 
ATOM     30  C   UNL A   1      40.545  27.781  26.726  1.00  0.00     0.010 A 
ATOM     31  C   UNL A   1      40.049  26.642  28.801  1.00  0.00     0.010 A 
ATOM     32  C   UNL A   1      40.291  27.822  28.095  1.00  0.00    -0.014 A 
BRANCH  32  33
ATOM     33  C   UNL A   1      40.376  29.028  28.910  1.00  0.00     0.031 A 
ATOM     34  C   UNL A   1      39.274  30.010  28.933  1.00  0.00     0.074 A 
ATOM     35  C   UNL A   1      41.412  29.180  29.763  1.00  0.00     0.049 A 
ATOM     36  N   UNL A   1      39.411  31.237  29.307  1.00  0.00    -0.248 NA
ATOM     37  C   UNL A   1      37.917  29.687  28.508  1.00  0.00     0.031 C 
ATOM     38  C   UNL A   1      41.519  30.122  30.874  1.00  0.00     0.029 A 
ATOM     39  N   UNL A   1      42.692  28.651  29.635  1.00  0.00    -0.354 N 
ATOM     40  C   UNL A   1      38.154  31.768  29.461  1.00  0.00     0.074 A 
ATOM     41  C   UNL A   1      37.259  30.786  28.891  1.00  0.00     0.031 C 
ATOM     42  C   UNL A   1      42.817  30.311  31.157  1.00  0.00     0.029 A 
ATOM     43  C   UNL A   1      43.587  29.613  30.144  1.00  0.00     0.049 A 
ATOM     44  H   UNL A   1      42.929  27.772  29.259  1.00  0.00     0.167 HD
ATOM     45  C   UNL A   1      37.990  32.919  30.171  1.00  0.00     0.034 A 
ATOM     46  C   UNL A   1      44.529  30.177  29.329  1.00  0.00     0.034 A 
ATOM     47  C   UNL A   1      39.262  33.455  30.652  1.00  0.00     0.049 A 
ATOM     48  C   UNL A   1      44.366  31.675  29.137  1.00  0.00     0.074 A 
ATOM     49  C   UNL A   1      39.917  33.461  31.872  1.00  0.00     0.029 A 
ATOM     50  N   UNL A   1      40.189  33.890  29.724  1.00  0.00    -0.354 N 
ATOM     51  N   UNL A   1      43.409  32.388  29.667  1.00  0.00    -0.248 NA
ATOM     52  C   UNL A   1      45.226  32.476  28.263  1.00  0.00     0.031 C 
ATOM     53  C   UNL A   1      41.258  33.894  31.654  1.00  0.00     0.029 A 
ATOM     54  C   UNL A   1      41.407  34.169  30.306  1.00  0.00     0.049 A 
ATOM     55  H   UNL A   1      40.002  33.989  28.762  1.00  0.00     0.167 HD
ATOM     56  C   UNL A   1      43.453  33.664  29.167  1.00  0.00     0.074 A 
ATOM     57  C   UNL A   1      44.620  33.676  28.303  1.00  0.00     0.031 C 
ATOM     58  C   UNL A   1      42.502  34.601  29.454  1.00  0.00     0.034 A 
BRANCH  45  59
ATOM     59  C   UNL A   1      36.651  33.429  30.637  1.00  0.00     0.023 A 
ATOM     60  C   UNL A   1      35.779  34.018  29.702  1.00  0.00     0.031 A 
ATOM     61  C   UNL A   1      36.182  33.386  31.964  1.00  0.00     0.131 A 
ATOM     62  C   UNL A   1      34.572  34.615  30.101  1.00  0.00     0.055 A 
ATOM     63  C   UNL A   1      35.012  34.038  32.375  1.00  0.00     0.041 A 
ATOM     64  F   UNL A   1      36.809  32.667  32.907  1.00  0.00    -0.206 F 
ATOM     65  C   UNL A   1      34.205  34.671  31.442  1.00  0.00     0.022 A 
BRANCH  62  66
ATOM     66  S   UNL A   1      33.478  35.307  28.831  1.00  0.00     0.124 S 
ATOM     67  O   UNL A   1      32.534  36.086  29.624  1.00  0.00    -0.237 OA
ATOM     68  O   UNL A   1      34.410  36.066  28.006  1.00  0.00    -0.237 OA
ATOM     69  O   UNL A   1      32.913  34.120  28.189  1.00  0.00    -0.744 OA
ENDBRANCH  62  66
ENDBRANCH  45  59
BRANCH  46  70
ATOM     70  C   UNL A   1      45.035  29.204  28.313  1.00  0.00     0.023 A 
ATOM     71  C   UNL A   1      45.945  28.227  28.775  1.00  0.00     0.031 A 
ATOM     72  C   UNL A   1      44.345  28.944  27.121  1.00  0.00     0.131 A 
ATOM     73  C   UNL A   1      45.985  26.961  28.173  1.00  0.00     0.055 A 
ATOM     74  C   UNL A   1      44.466  27.712  26.466  1.00  0.00     0.041 A 
ATOM     75  F   UNL A   1      43.441  29.815  26.648  1.00  0.00    -0.206 F 
ATOM     76  C   UNL A   1      45.247  26.695  27.020  1.00  0.00     0.022 A 
BRANCH  73  77
ATOM     77  S   UNL A   1      46.749  25.598  29.106  1.00  0.00     0.124 S 
ATOM     78  O   UNL A   1      46.262  24.426  28.388  1.00  0.00    -0.237 OA
ATOM     79  O   UNL A   1      48.177  25.886  28.974  1.00  0.00    -0.237 OA
ATOM     80  O   UNL A   1      46.230  25.770  30.461  1.00  0.00    -0.744 OA
ENDBRANCH  73  77
ENDBRANCH  46  70
BRANCH  58  81
ATOM     81  C   UNL A   1      42.522  36.011  28.919  1.00  0.00     0.023 A 
ATOM     82  C   UNL A   1      43.040  37.081  29.663  1.00  0.00     0.031 A 
ATOM     83  C   UNL A   1      41.935  36.341  27.673  1.00  0.00     0.131 A 
ATOM     84  C   UNL A   1      43.020  38.389  29.145  1.00  0.00     0.055 A 
ATOM     85  C   UNL A   1      41.839  37.651  27.203  1.00  0.00     0.041 A 
ATOM     86  F   UNL A   1      41.471  35.400  26.839  1.00  0.00    -0.206 F 
ATOM     87  C   UNL A   1      42.394  38.687  27.935  1.00  0.00     0.022 A 
BRANCH  84  88
ATOM     88  S   UNL A   1      43.903  39.689  30.046  1.00  0.00     0.124 S 
ATOM     89  O   UNL A   1      45.287  39.474  29.643  1.00  0.00    -0.237 OA
ATOM     90  O   UNL A   1      43.267  40.895  29.521  1.00  0.00    -0.237 OA
ATOM     91  O   UNL A   1      43.610  39.396  31.448  1.00  0.00    -0.744 OA
ENDBRANCH  84  88
ENDBRANCH  58  81
ENDBRANCH  32  33
ENDBRANCH  24  27
ENDBRANCH  22  23
ENDBRANCH  21  22
ENDBRANCH   1  21
TORSDOF 18
ENDMDL
