MODEL 1
REMARK VINA RESULT:     -12.0      0.000      0.000
REMARK SMILES O=C(C[C@H]1CCCCO1)N[C@@H](C(=O)NCCCCNC(=O)c1ccc(-c2c3nc(c(-c4cc(S(=O)(=O)[O-])ccc4F)c4ccc([nH]4)c(-c4cc(S(=O)(=O)[O-])ccc4F)c4nc(c(-c5cc(S(=O)(=O)[O-])ccc5F)c5ccc2[nH]5)C=C4)C=C3)cc1)C1CCCCC1
REMARK SMILES IDX 16 1 15 2 14 3 12 4 13 5 11 7 10 8 1 9 2 10 3 12 4 13 5 14
REMARK SMILES IDX 9 15 6 16 8 17 7 18 85 19 86 20 90 21 87 22 89 23 88 24
REMARK SMILES IDX 17 25 18 26 19 27 20 28 21 30 22 31 23 32 84 33 24 34 83 35
REMARK SMILES IDX 25 36 26 37 27 38 77 39 28 40 82 41 76 42 78 43 29 44 81 45
REMARK SMILES IDX 75 46 74 47 30 49 62 50 42 51 61 52 43 53 46 54 60 55 79 56
REMARK SMILES IDX 44 57 45 58 59 60 80 61 47 62 31 63 32 64 40 65 33 66 39 67
REMARK SMILES IDX 41 68 38 69 34 70 35 71 36 72 37 73 63 74 64 75 72 76 65 77
REMARK SMILES IDX 71 78 73 79 70 80 66 81 67 82 68 83 69 84 48 85 49 86 57 87
REMARK SMILES IDX 50 88 56 89 58 90 55 91 51 92 52 93 53 94 54 95
REMARK H PARENT 14 6 10 11 19 29 78 48 46 59
REMARK Flexibility Score: inf
ROOT
ATOM      1  C   UNL A   1      32.075  30.307  26.234  1.00  0.00     0.023 C 
ENDROOT
BRANCH   1   2
ATOM      2  C   UNL A   1      32.609  29.260  27.212  1.00  0.00     0.116 C 
BRANCH   2   3
ATOM      3  N   UNL A   1      31.687  28.147  27.337  1.00  0.00    -0.354 N 
ATOM      4  C   UNL A   1      31.394  27.167  26.428  1.00  0.00     0.242 C 
ATOM      5  O   UNL A   1      30.506  26.365  26.721  1.00  0.00    -0.273 OA
ATOM      6  H   UNL A   1      31.207  28.088  28.194  1.00  0.00     0.163 HD
BRANCH   4   7
ATOM      7  C   UNL A   1      32.175  27.106  25.089  1.00  0.00     0.174 C 
BRANCH   7   8
ATOM      8  N   UNL A   1      31.235  27.454  24.021  1.00  0.00    -0.344 N 
ATOM      9  O   UNL A   1      32.633  28.929  22.971  1.00  0.00    -0.275 OA
ATOM     10  C   UNL A   1      31.557  28.341  23.017  1.00  0.00     0.223 C 
ATOM     11  H   UNL A   1      30.341  27.041  24.022  1.00  0.00     0.164 HD
BRANCH  10  12
ATOM     12  C   UNL A   1      30.467  28.584  21.992  1.00  0.00     0.132 C 
BRANCH  12  13
ATOM     13  C   UNL A   1      29.670  29.843  22.328  1.00  0.00     0.127 C 
ATOM     14  C   UNL A   1      28.172  29.664  22.057  1.00  0.00     0.033 C 
ATOM     15  O   UNL A   1      29.841  30.167  23.716  1.00  0.00    -0.378 OA
ATOM     16  C   UNL A   1      27.451  30.976  22.342  1.00  0.00     0.005 C 
ATOM     17  C   UNL A   1      29.271  31.440  24.029  1.00  0.00     0.160 C 
ATOM     18  C   UNL A   1      27.772  31.463  23.752  1.00  0.00     0.029 C 
ENDBRANCH  12  13
ENDBRANCH  10  12
ENDBRANCH   7   8
BRANCH   7  19
ATOM     19  C   UNL A   1      32.811  25.702  24.869  1.00  0.00     0.021 C 
ATOM     20  C   UNL A   1      33.711  25.631  23.619  1.00  0.00     0.006 C 
ATOM     21  C   UNL A   1      33.616  25.289  26.120  1.00  0.00     0.006 C 
ATOM     22  C   UNL A   1      34.399  24.275  23.470  1.00  0.00     0.000 C 
ATOM     23  C   UNL A   1      34.308  23.939  25.953  1.00  0.00     0.000 C 
ATOM     24  C   UNL A   1      35.195  23.914  24.715  1.00  0.00     0.000 C 
ENDBRANCH   7  19
ENDBRANCH   4   7
ENDBRANCH   2   3
ENDBRANCH   1   2
BRANCH   1  25
ATOM     25  C   UNL A   1      31.735  31.656  26.874  1.00  0.00     0.023 C 
BRANCH  25  26
ATOM     26  C   UNL A   1      32.929  32.436  27.419  1.00  0.00     0.116 C 
BRANCH  26  27
ATOM     27  N   UNL A   1      32.628  33.836  27.664  1.00  0.00    -0.352 N 
ATOM     28  C   UNL A   1      33.208  34.694  28.568  1.00  0.00     0.251 C 
ATOM     29  H   UNL A   1      31.913  34.223  27.108  1.00  0.00     0.163 HD
ATOM     30  O   UNL A   1      32.737  35.815  28.736  1.00  0.00    -0.269 OA
BRANCH  28  31
ATOM     31  C   UNL A   1      34.370  34.241  29.362  1.00  0.00     0.039 A 
ATOM     32  C   UNL A   1      34.141  33.570  30.565  1.00  0.00     0.014 A 
ATOM     33  C   UNL A   1      35.675  34.450  28.907  1.00  0.00     0.014 A 
ATOM     34  C   UNL A   1      35.222  33.047  31.279  1.00  0.00     0.010 A 
ATOM     35  C   UNL A   1      36.744  33.870  29.585  1.00  0.00     0.010 A 
ATOM     36  C   UNL A   1      36.529  33.157  30.775  1.00  0.00    -0.014 A 
BRANCH  36  37
ATOM     37  C   UNL A   1      37.676  32.520  31.472  1.00  0.00     0.031 A 
ATOM     38  C   UNL A   1      38.406  31.370  30.836  1.00  0.00     0.074 A 
ATOM     39  C   UNL A   1      38.015  32.939  32.708  1.00  0.00     0.049 A 
ATOM     40  N   UNL A   1      39.387  30.648  31.312  1.00  0.00    -0.248 NA
ATOM     41  C   UNL A   1      37.952  30.960  29.499  1.00  0.00     0.031 C 
ATOM     42  C   UNL A   1      37.350  34.014  33.448  1.00  0.00     0.029 A 
ATOM     43  N   UNL A   1      38.999  32.509  33.564  1.00  0.00    -0.354 N 
ATOM     44  C   UNL A   1      39.663  29.693  30.340  1.00  0.00     0.074 A 
ATOM     45  C   UNL A   1      38.701  29.892  29.275  1.00  0.00     0.031 C 
ATOM     46  C   UNL A   1      37.958  34.175  34.634  1.00  0.00     0.029 A 
ATOM     47  C   UNL A   1      39.027  33.189  34.760  1.00  0.00     0.049 A 
ATOM     48  H   UNL A   1      39.623  31.782  33.343  1.00  0.00     0.167 HD
ATOM     49  C   UNL A   1      40.642  28.754  30.325  1.00  0.00     0.034 A 
ATOM     50  C   UNL A   1      39.817  33.029  35.840  1.00  0.00     0.034 A 
ATOM     51  C   UNL A   1      41.598  28.577  31.391  1.00  0.00     0.049 A 
ATOM     52  C   UNL A   1      40.887  31.967  35.809  1.00  0.00     0.074 A 
ATOM     53  C   UNL A   1      42.665  27.697  31.455  1.00  0.00     0.029 A 
ATOM     54  N   UNL A   1      41.600  29.285  32.586  1.00  0.00    -0.354 N 
ATOM     55  N   UNL A   1      41.171  31.109  34.857  1.00  0.00    -0.248 NA
ATOM     56  C   UNL A   1      41.749  31.861  36.993  1.00  0.00     0.031 C 
ATOM     57  C   UNL A   1      43.268  27.826  32.712  1.00  0.00     0.029 A 
ATOM     58  C   UNL A   1      42.628  28.841  33.404  1.00  0.00     0.049 A 
ATOM     59  H   UNL A   1      40.964  30.000  32.818  1.00  0.00     0.167 HD
ATOM     60  C   UNL A   1      42.265  30.382  35.316  1.00  0.00     0.074 A 
ATOM     61  C   UNL A   1      42.596  30.913  36.623  1.00  0.00     0.031 C 
ATOM     62  C   UNL A   1      42.939  29.370  34.711  1.00  0.00     0.034 A 
BRANCH  49  63
ATOM     63  C   UNL A   1      40.705  27.834  29.128  1.00  0.00     0.023 A 
ATOM     64  C   UNL A   1      41.652  28.019  28.105  1.00  0.00     0.031 A 
ATOM     65  C   UNL A   1      39.790  26.775  28.992  1.00  0.00     0.131 A 
ATOM     66  C   UNL A   1      41.613  27.210  26.959  1.00  0.00     0.055 A 
ATOM     67  C   UNL A   1      39.812  25.920  27.888  1.00  0.00     0.041 A 
ATOM     68  F   UNL A   1      38.850  26.560  29.925  1.00  0.00    -0.206 F 
ATOM     69  C   UNL A   1      40.716  26.145  26.855  1.00  0.00     0.022 A 
BRANCH  66  70
ATOM     70  S   UNL A   1      42.654  27.662  25.545  1.00  0.00     0.124 S 
ATOM     71  O   UNL A   1      42.530  26.478  24.698  1.00  0.00    -0.237 OA
ATOM     72  O   UNL A   1      42.007  28.871  25.050  1.00  0.00    -0.237 OA
ATOM     73  O   UNL A   1      43.975  27.859  26.139  1.00  0.00    -0.744 OA
ENDBRANCH  66  70
ENDBRANCH  49  63
BRANCH  50  74
ATOM     74  C   UNL A   1      39.630  33.887  37.046  1.00  0.00     0.023 A 
ATOM     75  C   UNL A   1      39.042  33.377  38.214  1.00  0.00     0.031 A 
ATOM     76  C   UNL A   1      40.006  35.243  37.034  1.00  0.00     0.131 A 
ATOM     77  C   UNL A   1      38.801  34.226  39.305  1.00  0.00     0.055 A 
ATOM     78  C   UNL A   1      39.812  36.071  38.142  1.00  0.00     0.041 A 
ATOM     79  F   UNL A   1      40.579  35.779  35.946  1.00  0.00    -0.206 F 
ATOM     80  C   UNL A   1      39.194  35.566  39.281  1.00  0.00     0.022 A 
BRANCH  77  81
ATOM     81  S   UNL A   1      37.890  33.570  40.730  1.00  0.00     0.124 S 
ATOM     82  O   UNL A   1      38.825  32.580  41.251  1.00  0.00    -0.237 OA
ATOM     83  O   UNL A   1      37.702  34.767  41.544  1.00  0.00    -0.237 OA
ATOM     84  O   UNL A   1      36.671  33.028  40.132  1.00  0.00    -0.744 OA
ENDBRANCH  77  81
ENDBRANCH  50  74
BRANCH  62  85
ATOM     85  C   UNL A   1      44.130  28.806  35.446  1.00  0.00     0.023 A 
ATOM     86  C   UNL A   1      43.998  27.778  36.395  1.00  0.00     0.031 A 
ATOM     87  C   UNL A   1      45.418  29.318  35.200  1.00  0.00     0.131 A 
ATOM     88  C   UNL A   1      45.124  27.332  37.104  1.00  0.00     0.055 A 
ATOM     89  C   UNL A   1      46.542  28.827  35.863  1.00  0.00     0.041 A 
ATOM     90  F   UNL A   1      45.603  30.301  34.305  1.00  0.00    -0.206 F 
ATOM     91  C   UNL A   1      46.398  27.838  36.832  1.00  0.00     0.022 A 
BRANCH  88  92
ATOM     92  S   UNL A   1      44.889  26.143  38.454  1.00  0.00     0.124 S 
ATOM     93  O   UNL A   1      45.935  26.539  39.392  1.00  0.00    -0.237 OA
ATOM     94  O   UNL A   1      43.519  26.416  38.875  1.00  0.00    -0.237 OA
ATOM     95  O   UNL A   1      45.092  24.847  37.809  1.00  0.00    -0.744 OA
ENDBRANCH  88  92
ENDBRANCH  62  85
ENDBRANCH  36  37
ENDBRANCH  28  31
ENDBRANCH  26  27
ENDBRANCH  25  26
ENDBRANCH   1  25
TORSDOF 18
ENDMDL
MODEL 2
REMARK VINA RESULT:     -11.8      6.261     12.273
REMARK SMILES O=C(C[C@H]1CCCCO1)N[C@@H](C(=O)NCCCCNC(=O)c1ccc(-c2c3nc(c(-c4cc(S(=O)(=O)[O-])ccc4F)c4ccc([nH]4)c(-c4cc(S(=O)(=O)[O-])ccc4F)c4nc(c(-c5cc(S(=O)(=O)[O-])ccc5F)c5ccc2[nH]5)C=C4)C=C3)cc1)C1CCCCC1
REMARK SMILES IDX 16 1 15 2 14 3 12 4 13 5 11 7 10 8 1 9 2 10 3 12 4 13 5 14
REMARK SMILES IDX 9 15 6 16 8 17 7 18 85 19 86 20 90 21 87 22 89 23 88 24
REMARK SMILES IDX 17 25 18 26 19 27 20 28 21 30 22 31 23 32 84 33 24 34 83 35
REMARK SMILES IDX 25 36 26 37 27 38 77 39 28 40 82 41 76 42 78 43 29 44 81 45
REMARK SMILES IDX 75 46 74 47 30 49 62 50 42 51 61 52 43 53 46 54 60 55 79 56
REMARK SMILES IDX 44 57 45 58 59 60 80 61 47 62 31 63 32 64 40 65 33 66 39 67
REMARK SMILES IDX 41 68 38 69 34 70 35 71 36 72 37 73 63 74 64 75 72 76 65 77
REMARK SMILES IDX 71 78 73 79 70 80 66 81 67 82 68 83 69 84 48 85 49 86 57 87
REMARK SMILES IDX 50 88 56 89 58 90 55 91 51 92 52 93 53 94 54 95
REMARK H PARENT 14 6 10 11 19 29 78 48 46 59
REMARK Flexibility Score: inf
ROOT
ATOM      1  C   UNL A   1      36.900  20.994  25.300  1.00  0.00     0.023 C 
ENDROOT
BRANCH   1   2
ATOM      2  C   UNL A   1      37.114  22.507  25.242  1.00  0.00     0.116 C 
BRANCH   2   3
ATOM      3  N   UNL A   1      36.547  23.067  24.030  1.00  0.00    -0.354 N 
ATOM      4  C   UNL A   1      35.251  23.424  23.773  1.00  0.00     0.242 C 
ATOM      5  O   UNL A   1      34.980  23.801  22.632  1.00  0.00    -0.273 OA
ATOM      6  H   UNL A   1      37.181  23.211  23.292  1.00  0.00     0.163 HD
BRANCH   4   7
ATOM      7  C   UNL A   1      34.194  23.339  24.905  1.00  0.00     0.174 C 
BRANCH   7   8
ATOM      8  N   UNL A   1      33.377  22.151  24.648  1.00  0.00    -0.344 N 
ATOM      9  O   UNL A   1      33.757  21.180  26.685  1.00  0.00    -0.275 OA
ATOM     10  C   UNL A   1      33.205  21.158  25.588  1.00  0.00     0.223 C 
ATOM     11  H   UNL A   1      32.935  22.058  23.773  1.00  0.00     0.164 HD
BRANCH  10  12
ATOM     12  C   UNL A   1      32.326  20.001  25.158  1.00  0.00     0.132 C 
BRANCH  12  13
ATOM     13  C   UNL A   1      33.076  18.675  25.259  1.00  0.00     0.127 C 
ATOM     14  C   UNL A   1      32.160  17.474  25.001  1.00  0.00     0.033 C 
ATOM     15  O   UNL A   1      34.140  18.646  24.295  1.00  0.00    -0.378 OA
ATOM     16  C   UNL A   1      32.954  16.187  25.190  1.00  0.00     0.005 C 
ATOM     17  C   UNL A   1      34.985  17.509  24.484  1.00  0.00     0.160 C 
ATOM     18  C   UNL A   1      34.210  16.205  24.325  1.00  0.00     0.029 C 
ENDBRANCH  12  13
ENDBRANCH  10  12
ENDBRANCH   7   8
BRANCH   7  19
ATOM     19  C   UNL A   1      33.332  24.634  24.973  1.00  0.00     0.021 C 
ATOM     20  C   UNL A   1      32.046  24.467  25.807  1.00  0.00     0.006 C 
ATOM     21  C   UNL A   1      34.177  25.797  25.536  1.00  0.00     0.006 C 
ATOM     22  C   UNL A   1      31.261  25.770  25.939  1.00  0.00     0.000 C 
ATOM     23  C   UNL A   1      33.378  27.089  25.674  1.00  0.00     0.000 C 
ATOM     24  C   UNL A   1      32.123  26.884  26.513  1.00  0.00     0.000 C 
ENDBRANCH   7  19
ENDBRANCH   4   7
ENDBRANCH   2   3
ENDBRANCH   1   2
BRANCH   1  25
ATOM     25  C   UNL A   1      38.143  20.165  24.965  1.00  0.00     0.023 C 
BRANCH  25  26
ATOM     26  C   UNL A   1      39.386  20.495  25.788  1.00  0.00     0.116 C 
BRANCH  26  27
ATOM     27  N   UNL A   1      40.303  19.374  25.904  1.00  0.00    -0.352 N 
ATOM     28  C   UNL A   1      41.658  19.395  26.136  1.00  0.00     0.251 C 
ATOM     29  H   UNL A   1      39.902  18.481  25.803  1.00  0.00     0.163 HD
ATOM     30  O   UNL A   1      42.305  18.353  26.069  1.00  0.00    -0.269 OA
BRANCH  28  31
ATOM     31  C   UNL A   1      42.331  20.680  26.420  1.00  0.00     0.039 A 
ATOM     32  C   UNL A   1      42.821  21.433  25.351  1.00  0.00     0.014 A 
ATOM     33  C   UNL A   1      42.450  21.153  27.730  1.00  0.00     0.014 A 
ATOM     34  C   UNL A   1      43.370  22.696  25.591  1.00  0.00     0.010 A 
ATOM     35  C   UNL A   1      42.936  22.438  27.960  1.00  0.00     0.010 A 
ATOM     36  C   UNL A   1      43.395  23.225  26.892  1.00  0.00    -0.014 A 
BRANCH  36  37
ATOM     37  C   UNL A   1      43.883  24.605  27.148  1.00  0.00     0.031 A 
ATOM     38  C   UNL A   1      42.945  25.656  27.673  1.00  0.00     0.074 A 
ATOM     39  C   UNL A   1      45.158  24.923  26.846  1.00  0.00     0.049 A 
ATOM     40  N   UNL A   1      43.168  26.925  27.902  1.00  0.00    -0.248 NA
ATOM     41  C   UNL A   1      41.566  25.229  27.950  1.00  0.00     0.031 C 
ATOM     42  C   UNL A   1      46.149  24.001  26.286  1.00  0.00     0.029 A 
ATOM     43  N   UNL A   1      45.839  26.109  26.959  1.00  0.00    -0.354 N 
ATOM     44  C   UNL A   1      41.958  27.450  28.339  1.00  0.00     0.074 A 
ATOM     45  C   UNL A   1      40.991  26.375  28.283  1.00  0.00     0.031 C 
ATOM     46  C   UNL A   1      47.314  24.648  26.128  1.00  0.00     0.029 A 
ATOM     47  C   UNL A   1      47.146  26.040  26.532  1.00  0.00     0.049 A 
ATOM     48  H   UNL A   1      45.431  26.932  27.311  1.00  0.00     0.167 HD
ATOM     49  C   UNL A   1      41.685  28.708  28.771  1.00  0.00     0.034 A 
ATOM     50  C   UNL A   1      48.097  26.992  26.463  1.00  0.00     0.034 A 
ATOM     51  C   UNL A   1      42.665  29.766  28.829  1.00  0.00     0.049 A 
ATOM     52  C   UNL A   1      47.766  28.387  26.931  1.00  0.00     0.074 A 
ATOM     53  C   UNL A   1      42.512  31.058  29.302  1.00  0.00     0.029 A 
ATOM     54  N   UNL A   1      43.979  29.659  28.392  1.00  0.00    -0.354 N 
ATOM     55  N   UNL A   1      46.630  28.854  27.397  1.00  0.00    -0.248 NA
ATOM     56  C   UNL A   1      48.848  29.378  26.876  1.00  0.00     0.031 C 
ATOM     57  C   UNL A   1      43.710  31.749  29.089  1.00  0.00     0.029 A 
ATOM     58  C   UNL A   1      44.637  30.869  28.555  1.00  0.00     0.049 A 
ATOM     59  H   UNL A   1      44.385  28.843  28.021  1.00  0.00     0.167 HD
ATOM     60  C   UNL A   1      46.871  30.186  27.717  1.00  0.00     0.074 A 
ATOM     61  C   UNL A   1      48.263  30.442  27.406  1.00  0.00     0.031 C 
ATOM     62  C   UNL A   1      46.022  31.114  28.228  1.00  0.00     0.034 A 
BRANCH  49  63
ATOM     63  C   UNL A   1      40.263  29.006  29.187  1.00  0.00     0.023 A 
ATOM     64  C   UNL A   1      39.876  29.010  30.539  1.00  0.00     0.031 A 
ATOM     65  C   UNL A   1      39.275  29.263  28.220  1.00  0.00     0.131 A 
ATOM     66  C   UNL A   1      38.527  29.188  30.881  1.00  0.00     0.055 A 
ATOM     67  C   UNL A   1      37.950  29.523  28.573  1.00  0.00     0.041 A 
ATOM     68  F   UNL A   1      39.579  29.253  26.913  1.00  0.00    -0.206 F 
ATOM     69  C   UNL A   1      37.565  29.470  29.909  1.00  0.00     0.022 A 
BRANCH  66  70
ATOM     70  S   UNL A   1      38.025  28.898  32.600  1.00  0.00     0.124 S 
ATOM     71  O   UNL A   1      38.146  27.445  32.700  1.00  0.00    -0.237 OA
ATOM     72  O   UNL A   1      39.005  29.674  33.350  1.00  0.00    -0.237 OA
ATOM     73  O   UNL A   1      36.656  29.407  32.648  1.00  0.00    -0.744 OA
ENDBRANCH  66  70
ENDBRANCH  49  63
BRANCH  50  74
ATOM     74  C   UNL A   1      49.451  26.670  25.928  1.00  0.00     0.023 A 
ATOM     75  C   UNL A   1      49.848  27.104  24.653  1.00  0.00     0.031 A 
ATOM     76  C   UNL A   1      50.356  25.891  26.672  1.00  0.00     0.131 A 
ATOM     77  C   UNL A   1      51.095  26.717  24.140  1.00  0.00     0.055 A 
ATOM     78  C   UNL A   1      51.617  25.553  26.177  1.00  0.00     0.041 A 
ATOM     79  F   UNL A   1      50.029  25.457  27.899  1.00  0.00    -0.206 F 
ATOM     80  C   UNL A   1      51.987  25.955  24.898  1.00  0.00     0.022 A 
BRANCH  77  81
ATOM     81  S   UNL A   1      51.503  27.157  22.427  1.00  0.00     0.124 S 
ATOM     82  O   UNL A   1      52.602  26.243  22.139  1.00  0.00    -0.237 OA
ATOM     83  O   UNL A   1      50.245  26.887  21.739  1.00  0.00    -0.237 OA
ATOM     84  O   UNL A   1      51.871  28.569  22.519  1.00  0.00    -0.744 OA
ENDBRANCH  77  81
ENDBRANCH  50  74
BRANCH  62  85
ATOM     85  C   UNL A   1      46.595  32.479  28.522  1.00  0.00     0.023 A 
ATOM     86  C   UNL A   1      46.559  33.518  27.576  1.00  0.00     0.031 A 
ATOM     87  C   UNL A   1      47.199  32.738  29.766  1.00  0.00     0.131 A 
ATOM     88  C   UNL A   1      47.166  34.749  27.866  1.00  0.00     0.055 A 
ATOM     89  C   UNL A   1      47.746  33.984  30.072  1.00  0.00     0.041 A 
ATOM     90  F   UNL A   1      47.263  31.782  30.706  1.00  0.00    -0.206 F 
ATOM     91  C   UNL A   1      47.744  34.995  29.115  1.00  0.00     0.022 A 
BRANCH  88  92
ATOM     92  S   UNL A   1      47.270  36.000  26.557  1.00  0.00     0.124 S 
ATOM     93  O   UNL A   1      46.534  37.115  27.143  1.00  0.00    -0.237 OA
ATOM     94  O   UNL A   1      48.711  36.189  26.420  1.00  0.00    -0.237 OA
ATOM     95  O   UNL A   1      46.619  35.359  25.416  1.00  0.00    -0.744 OA
ENDBRANCH  88  92
ENDBRANCH  62  85
ENDBRANCH  36  37
ENDBRANCH  28  31
ENDBRANCH  26  27
ENDBRANCH  25  26
ENDBRANCH   1  25
TORSDOF 18
ENDMDL
MODEL 3
REMARK VINA RESULT:     -11.7      4.315      9.460
REMARK SMILES O=C(C[C@H]1CCCCO1)N[C@@H](C(=O)NCCCCNC(=O)c1ccc(-c2c3nc(c(-c4cc(S(=O)(=O)[O-])ccc4F)c4ccc([nH]4)c(-c4cc(S(=O)(=O)[O-])ccc4F)c4nc(c(-c5cc(S(=O)(=O)[O-])ccc5F)c5ccc2[nH]5)C=C4)C=C3)cc1)C1CCCCC1
REMARK SMILES IDX 16 1 15 2 14 3 12 4 13 5 11 7 10 8 1 9 2 10 3 12 4 13 5 14
REMARK SMILES IDX 9 15 6 16 8 17 7 18 85 19 86 20 90 21 87 22 89 23 88 24
REMARK SMILES IDX 17 25 18 26 19 27 20 28 21 30 22 31 23 32 84 33 24 34 83 35
REMARK SMILES IDX 25 36 26 37 27 38 77 39 28 40 82 41 76 42 78 43 29 44 81 45
REMARK SMILES IDX 75 46 74 47 30 49 62 50 42 51 61 52 43 53 46 54 60 55 79 56
REMARK SMILES IDX 44 57 45 58 59 60 80 61 47 62 31 63 32 64 40 65 33 66 39 67
REMARK SMILES IDX 41 68 38 69 34 70 35 71 36 72 37 73 63 74 64 75 72 76 65 77
REMARK SMILES IDX 71 78 73 79 70 80 66 81 67 82 68 83 69 84 48 85 49 86 57 87
REMARK SMILES IDX 50 88 56 89 58 90 55 91 51 92 52 93 53 94 54 95
REMARK H PARENT 14 6 10 11 19 29 78 48 46 59
REMARK Flexibility Score: inf
ROOT
ATOM      1  C   UNL A   1      33.526  26.043  25.601  1.00  0.00     0.023 C 
ENDROOT
BRANCH   1   2
ATOM      2  C   UNL A   1      32.446  24.993  25.862  1.00  0.00     0.116 C 
BRANCH   2   3
ATOM      3  N   UNL A   1      32.912  23.991  26.803  1.00  0.00    -0.354 N 
ATOM      4  C   UNL A   1      33.553  22.809  26.553  1.00  0.00     0.242 C 
ATOM      5  O   UNL A   1      33.778  22.069  27.513  1.00  0.00    -0.273 OA
ATOM      6  H   UNL A   1      32.742  24.189  27.752  1.00  0.00     0.163 HD
BRANCH   4   7
ATOM      7  C   UNL A   1      33.964  22.453  25.101  1.00  0.00     0.174 C 
BRANCH   7   8
ATOM      8  N   UNL A   1      33.458  21.106  24.825  1.00  0.00    -0.344 N 
ATOM      9  O   UNL A   1      32.334  21.681  22.917  1.00  0.00    -0.275 OA
ATOM     10  C   UNL A   1      32.685  20.822  23.720  1.00  0.00     0.223 C 
ATOM     11  H   UNL A   1      33.678  20.378  25.451  1.00  0.00     0.164 HD
BRANCH  10  12
ATOM     12  C   UNL A   1      32.251  19.376  23.586  1.00  0.00     0.132 C 
BRANCH  12  13
ATOM     13  C   UNL A   1      33.088  18.467  24.484  1.00  0.00     0.127 C 
ATOM     14  C   UNL A   1      32.372  17.149  24.797  1.00  0.00     0.033 C 
ATOM     15  O   UNL A   1      34.332  18.160  23.835  1.00  0.00    -0.378 OA
ATOM     16  C   UNL A   1      33.229  16.326  25.752  1.00  0.00     0.005 C 
ATOM     17  C   UNL A   1      35.225  17.473  24.715  1.00  0.00     0.160 C 
ATOM     18  C   UNL A   1      34.634  16.148  25.185  1.00  0.00     0.029 C 
ENDBRANCH  12  13
ENDBRANCH  10  12
ENDBRANCH   7   8
BRANCH   7  19
ATOM     19  C   UNL A   1      35.506  22.545  24.909  1.00  0.00     0.021 C 
ATOM     20  C   UNL A   1      36.172  23.595  25.821  1.00  0.00     0.006 C 
ATOM     21  C   UNL A   1      36.148  21.161  25.147  1.00  0.00     0.006 C 
ATOM     22  C   UNL A   1      37.693  23.607  25.686  1.00  0.00     0.000 C 
ATOM     23  C   UNL A   1      37.668  21.189  25.021  1.00  0.00     0.000 C 
ATOM     24  C   UNL A   1      38.287  22.231  25.945  1.00  0.00     0.000 C 
ENDBRANCH   7  19
ENDBRANCH   4   7
ENDBRANCH   2   3
ENDBRANCH   1   2
BRANCH   1  25
ATOM     25  C   UNL A   1      33.332  27.356  26.366  1.00  0.00     0.023 C 
BRANCH  25  26
ATOM     26  C   UNL A   1      34.271  28.489  25.961  1.00  0.00     0.116 C 
BRANCH  26  27
ATOM     27  N   UNL A   1      33.814  29.792  26.413  1.00  0.00    -0.352 N 
ATOM     28  C   UNL A   1      34.363  30.607  27.374  1.00  0.00     0.251 C 
ATOM     29  H   UNL A   1      33.005  30.138  25.972  1.00  0.00     0.163 HD
ATOM     30  O   UNL A   1      33.767  31.621  27.727  1.00  0.00    -0.269 OA
BRANCH  28  31
ATOM     31  C   UNL A   1      35.645  30.231  28.006  1.00  0.00     0.039 A 
ATOM     32  C   UNL A   1      35.623  29.642  29.272  1.00  0.00     0.014 A 
ATOM     33  C   UNL A   1      36.859  30.431  27.342  1.00  0.00     0.014 A 
ATOM     34  C   UNL A   1      36.815  29.188  29.843  1.00  0.00     0.010 A 
ATOM     35  C   UNL A   1      38.035  29.918  27.882  1.00  0.00     0.010 A 
ATOM     36  C   UNL A   1      38.025  29.286  29.136  1.00  0.00    -0.014 A 
BRANCH  36  37
ATOM     37  C   UNL A   1      39.283  28.719  29.687  1.00  0.00     0.031 A 
ATOM     38  C   UNL A   1      39.930  29.341  30.892  1.00  0.00     0.074 A 
ATOM     39  C   UNL A   1      39.872  27.682  29.060  1.00  0.00     0.049 A 
ATOM     40  N   UNL A   1      41.056  29.028  31.481  1.00  0.00    -0.248 NA
ATOM     41  C   UNL A   1      39.234  30.486  31.498  1.00  0.00     0.031 C 
ATOM     42  C   UNL A   1      39.363  27.024  27.853  1.00  0.00     0.029 A 
ATOM     43  N   UNL A   1      41.030  27.001  29.342  1.00  0.00    -0.354 N 
ATOM     44  C   UNL A   1      41.209  29.940  32.519  1.00  0.00     0.074 A 
ATOM     45  C   UNL A   1      40.091  30.857  32.437  1.00  0.00     0.031 C 
ATOM     46  C   UNL A   1      40.190  26.023  27.515  1.00  0.00     0.029 A 
ATOM     47  C   UNL A   1      41.311  25.991  28.450  1.00  0.00     0.049 A 
ATOM     48  H   UNL A   1      41.607  27.216  30.109  1.00  0.00     0.167 HD
ATOM     49  C   UNL A   1      42.179  29.994  33.466  1.00  0.00     0.034 A 
ATOM     50  C   UNL A   1      42.356  25.144  28.385  1.00  0.00     0.034 A 
ATOM     51  C   UNL A   1      43.282  29.066  33.538  1.00  0.00     0.049 A 
ATOM     52  C   UNL A   1      43.432  25.233  29.438  1.00  0.00     0.074 A 
ATOM     53  C   UNL A   1      44.288  28.994  34.486  1.00  0.00     0.029 A 
ATOM     54  N   UNL A   1      43.532  28.054  32.620  1.00  0.00    -0.354 N 
ATOM     55  N   UNL A   1      43.531  26.067  30.448  1.00  0.00    -0.248 NA
ATOM     56  C   UNL A   1      44.528  24.261  29.349  1.00  0.00     0.031 C 
ATOM     57  C   UNL A   1      45.179  27.984  34.106  1.00  0.00     0.029 A 
ATOM     58  C   UNL A   1      44.691  27.373  32.962  1.00  0.00     0.049 A 
ATOM     59  H   UNL A   1      42.968  27.849  31.839  1.00  0.00     0.167 HD
ATOM     60  C   UNL A   1      44.686  25.698  31.131  1.00  0.00     0.074 A 
ATOM     61  C   UNL A   1      45.238  24.559  30.426  1.00  0.00     0.031 C 
ATOM     62  C   UNL A   1      45.238  26.247  32.243  1.00  0.00     0.034 A 
BRANCH  49  63
ATOM     63  C   UNL A   1      42.098  31.111  34.481  1.00  0.00     0.023 A 
ATOM     64  C   UNL A   1      42.763  32.334  34.286  1.00  0.00     0.031 A 
ATOM     65  C   UNL A   1      41.368  30.943  35.671  1.00  0.00     0.131 A 
ATOM     66  C   UNL A   1      42.751  33.308  35.297  1.00  0.00     0.055 A 
ATOM     67  C   UNL A   1      41.290  31.949  36.636  1.00  0.00     0.041 A 
ATOM     68  F   UNL A   1      40.728  29.790  35.923  1.00  0.00    -0.206 F 
ATOM     69  C   UNL A   1      41.998  33.134  36.460  1.00  0.00     0.022 A 
BRANCH  66  70
ATOM     70  S   UNL A   1      43.852  34.740  35.133  1.00  0.00     0.124 S 
ATOM     71  O   UNL A   1      44.982  34.339  35.969  1.00  0.00    -0.237 OA
ATOM     72  O   UNL A   1      44.104  34.781  33.698  1.00  0.00    -0.237 OA
ATOM     73  O   UNL A   1      43.057  35.846  35.661  1.00  0.00    -0.744 OA
ENDBRANCH  66  70
ENDBRANCH  49  63
BRANCH  50  74
ATOM     74  C   UNL A   1      42.447  24.138  27.288  1.00  0.00     0.023 A 
ATOM     75  C   UNL A   1      41.912  22.849  27.439  1.00  0.00     0.031 A 
ATOM     76  C   UNL A   1      43.105  24.442  26.082  1.00  0.00     0.131 A 
ATOM     77  C   UNL A   1      42.085  21.896  26.424  1.00  0.00     0.055 A 
ATOM     78  C   UNL A   1      43.228  23.506  25.053  1.00  0.00     0.041 A 
ATOM     79  F   UNL A   1      43.627  25.662  25.882  1.00  0.00    -0.206 F 
ATOM     80  C   UNL A   1      42.727  22.220  25.227  1.00  0.00     0.022 A 
BRANCH  77  81
ATOM     81  S   UNL A   1      41.526  20.196  26.725  1.00  0.00     0.124 S 
ATOM     82  O   UNL A   1      42.792  19.495  26.906  1.00  0.00    -0.237 OA
ATOM     83  O   UNL A   1      40.704  20.356  27.920  1.00  0.00    -0.237 OA
ATOM     84  O   UNL A   1      40.793  19.860  25.506  1.00  0.00    -0.744 OA
ENDBRANCH  77  81
ENDBRANCH  50  74
BRANCH  62  85
ATOM     85  C   UNL A   1      46.482  25.587  32.787  1.00  0.00     0.023 A 
ATOM     86  C   UNL A   1      46.418  24.561  33.745  1.00  0.00     0.031 A 
ATOM     87  C   UNL A   1      47.751  26.005  32.348  1.00  0.00     0.131 A 
ATOM     88  C   UNL A   1      47.602  24.024  34.274  1.00  0.00     0.055 A 
ATOM     89  C   UNL A   1      48.924  25.424  32.832  1.00  0.00     0.041 A 
ATOM     90  F   UNL A   1      47.872  26.982  31.435  1.00  0.00    -0.206 F 
ATOM     91  C   UNL A   1      48.854  24.437  33.811  1.00  0.00     0.022 A 
BRANCH  88  92
ATOM     92  S   UNL A   1      47.487  22.840  35.643  1.00  0.00     0.124 S 
ATOM     93  O   UNL A   1      46.460  21.921  35.164  1.00  0.00    -0.237 OA
ATOM     94  O   UNL A   1      48.843  22.304  35.707  1.00  0.00    -0.237 OA
ATOM     95  O   UNL A   1      47.095  23.668  36.782  1.00  0.00    -0.744 OA
ENDBRANCH  88  92
ENDBRANCH  62  85
ENDBRANCH  36  37
ENDBRANCH  28  31
ENDBRANCH  26  27
ENDBRANCH  25  26
ENDBRANCH   1  25
TORSDOF 18
ENDMDL
