MODEL 1
REMARK VINA RESULT:     -10.3      0.000      0.000
REMARK SMILES C=C(C)C(=O)OCC[C@@H](C(C)=O)C(=O)NCCCCNC(=O)c1ccc(-c2c3nc(c(-c4cc(S(=O)(=O)[O-])ccc4F)c4ccc([nH]4)c(-c4cc(S(=O)(=O)[O-])ccc4F)c4nc(c(-c5cc(S(=O)(=O)[O-])ccc5F)c5ccc2[nH]5)C=C4)C=C3)cc1
REMARK SMILES IDX 16 1 15 2 13 3 14 4 9 6 8 7 7 8 6 9 4 10 5 11 2 12 1 13 3 14
REMARK SMILES IDX 10 15 11 16 12 17 17 18 18 19 19 20 20 21 21 22 22 24 23 25
REMARK SMILES IDX 24 26 85 27 25 28 84 29 26 30 27 31 28 32 78 33 29 34 83 35
REMARK SMILES IDX 77 36 79 37 30 38 82 39 76 40 75 41 31 43 63 44 43 45 62 46
REMARK SMILES IDX 44 47 47 48 61 49 80 50 45 51 46 52 60 54 81 55 48 56 32 57
REMARK SMILES IDX 33 58 41 59 34 60 40 61 42 62 39 63 35 64 36 65 37 66 38 67
REMARK SMILES IDX 64 68 65 69 73 70 66 71 72 72 74 73 71 74 67 75 68 76 69 77
REMARK SMILES IDX 70 78 49 79 50 80 58 81 51 82 57 83 59 84 56 85 52 86 53 87
REMARK SMILES IDX 54 88 55 89
REMARK H PARENT 15 5 20 23 79 42 47 53
REMARK Flexibility Score: inf
ROOT
ATOM      1  C   UNL A   1      32.918  29.775  26.006  1.00  0.00     0.116 C 
ENDROOT
BRANCH   1   2
ATOM      2  N   UNL A   1      33.463  29.386  24.717  1.00  0.00    -0.355 N 
ATOM      3  C   UNL A   1      32.878  28.699  23.698  1.00  0.00     0.230 C 
ATOM      4  O   UNL A   1      33.537  28.479  22.681  1.00  0.00    -0.274 OA
ATOM      5  H   UNL A   1      34.395  29.660  24.556  1.00  0.00     0.163 HD
BRANCH   3   6
ATOM      6  C   UNL A   1      31.450  28.201  23.821  1.00  0.00     0.148 C 
BRANCH   6   7
ATOM      7  C   UNL A   1      30.778  28.281  22.435  1.00  0.00     0.063 C 
BRANCH   7   8
ATOM      8  C   UNL A   1      30.379  29.681  21.973  1.00  0.00     0.234 C 
BRANCH   8   9
ATOM      9  O   UNL A   1      29.141  29.651  21.254  1.00  0.00    -0.462 OA
BRANCH   9  10
ATOM     10  C   UNL A   1      28.249  30.622  21.556  1.00  0.00     0.333 C 
ATOM     11  O   UNL A   1      27.936  31.570  20.852  1.00  0.00    -0.247 OA
BRANCH  10  12
ATOM     12  C   UNL A   1      27.633  30.320  22.871  1.00  0.00     0.027 C 
ATOM     13  C   UNL A   1      27.545  31.324  23.758  1.00  0.00     0.020 C 
ATOM     14  C   UNL A   1      27.177  28.922  23.136  1.00  0.00     0.051 C 
ENDBRANCH  10  12
ENDBRANCH   9  10
ENDBRANCH   8   9
ENDBRANCH   7   8
ENDBRANCH   6   7
BRANCH   6  15
ATOM     15  C   UNL A   1      31.379  26.831  24.487  1.00  0.00     0.142 C 
ATOM     16  C   UNL A   1      30.030  26.157  24.592  1.00  0.00     0.088 C 
ATOM     17  O   UNL A   1      32.382  26.265  24.929  1.00  0.00    -0.299 OA
ENDBRANCH   6  15
ENDBRANCH   3   6
ENDBRANCH   1   2
BRANCH   1  18
ATOM     18  C   UNL A   1      31.724  30.706  25.852  1.00  0.00     0.023 C 
BRANCH  18  19
ATOM     19  C   UNL A   1      31.609  31.749  26.960  1.00  0.00     0.023 C 
BRANCH  19  20
ATOM     20  C   UNL A   1      32.913  32.458  27.297  1.00  0.00     0.116 C 
BRANCH  20  21
ATOM     21  N   UNL A   1      32.724  33.871  27.597  1.00  0.00    -0.352 N 
ATOM     22  C   UNL A   1      33.363  34.627  28.551  1.00  0.00     0.251 C 
ATOM     23  H   UNL A   1      32.056  34.343  27.049  1.00  0.00     0.163 HD
ATOM     24  O   UNL A   1      32.985  35.766  28.799  1.00  0.00    -0.269 OA
BRANCH  22  25
ATOM     25  C   UNL A   1      34.487  34.019  29.289  1.00  0.00     0.039 A 
ATOM     26  C   UNL A   1      34.218  33.110  30.312  1.00  0.00     0.014 A 
ATOM     27  C   UNL A   1      35.802  34.295  28.903  1.00  0.00     0.014 A 
ATOM     28  C   UNL A   1      35.275  32.421  30.908  1.00  0.00     0.010 A 
ATOM     29  C   UNL A   1      36.842  33.546  29.439  1.00  0.00     0.010 A 
ATOM     30  C   UNL A   1      36.591  32.605  30.450  1.00  0.00    -0.014 A 
BRANCH  30  31
ATOM     31  C   UNL A   1      37.728  31.846  31.031  1.00  0.00     0.031 A 
ATOM     32  C   UNL A   1      38.218  32.188  32.412  1.00  0.00     0.074 A 
ATOM     33  C   UNL A   1      38.357  30.907  30.297  1.00  0.00     0.049 A 
ATOM     34  N   UNL A   1      39.253  31.724  33.063  1.00  0.00    -0.248 NA
ATOM     35  C   UNL A   1      37.458  33.215  33.141  1.00  0.00     0.031 C 
ATOM     36  C   UNL A   1      37.993  30.511  28.935  1.00  0.00     0.029 A 
ATOM     37  N   UNL A   1      39.441  30.119  30.592  1.00  0.00    -0.354 N 
ATOM     38  C   UNL A   1      39.277  32.412  34.271  1.00  0.00     0.074 A 
ATOM     39  C   UNL A   1      38.198  33.375  34.226  1.00  0.00     0.031 C 
ATOM     40  C   UNL A   1      38.819  29.535  28.526  1.00  0.00     0.029 A 
ATOM     41  C   UNL A   1      39.804  29.271  29.570  1.00  0.00     0.049 A 
ATOM     42  H   UNL A   1      39.914  30.155  31.455  1.00  0.00     0.167 HD
ATOM     43  C   UNL A   1      40.103  32.236  35.331  1.00  0.00     0.034 A 
ATOM     44  C   UNL A   1      40.823  28.393  29.481  1.00  0.00     0.034 A 
ATOM     45  C   UNL A   1      41.168  31.264  35.359  1.00  0.00     0.049 A 
ATOM     46  C   UNL A   1      41.758  28.244  30.656  1.00  0.00     0.074 A 
ATOM     47  C   UNL A   1      42.041  30.971  36.392  1.00  0.00     0.029 A 
ATOM     48  N   UNL A   1      41.510  30.428  34.303  1.00  0.00    -0.354 N 
ATOM     49  N   UNL A   1      41.746  28.875  31.808  1.00  0.00    -0.248 NA
ATOM     50  C   UNL A   1      42.839  27.259  30.522  1.00  0.00     0.031 C 
ATOM     51  C   UNL A   1      42.953  30.014  35.938  1.00  0.00     0.029 A 
ATOM     52  C   UNL A   1      42.598  29.643  34.650  1.00  0.00     0.049 A 
ATOM     53  H   UNL A   1      41.047  30.398  33.435  1.00  0.00     0.167 HD
ATOM     54  C   UNL A   1      42.793  28.333  32.549  1.00  0.00     0.074 A 
ATOM     55  C   UNL A   1      43.408  27.320  31.717  1.00  0.00     0.031 C 
ATOM     56  C   UNL A   1      43.204  28.638  33.807  1.00  0.00     0.034 A 
BRANCH  43  57
ATOM     57  C   UNL A   1      39.895  33.136  36.527  1.00  0.00     0.023 A 
ATOM     58  C   UNL A   1      40.652  34.307  36.709  1.00  0.00     0.031 A 
ATOM     59  C   UNL A   1      38.961  32.799  37.522  1.00  0.00     0.131 A 
ATOM     60  C   UNL A   1      40.529  35.046  37.895  1.00  0.00     0.055 A 
ATOM     61  C   UNL A   1      38.776  33.591  38.657  1.00  0.00     0.041 A 
ATOM     62  F   UNL A   1      38.224  31.681  37.419  1.00  0.00    -0.206 F 
ATOM     63  C   UNL A   1      39.575  34.712  38.859  1.00  0.00     0.022 A 
BRANCH  60  64
ATOM     64  S   UNL A   1      41.748  36.346  38.233  1.00  0.00     0.124 S 
ATOM     65  O   UNL A   1      40.921  37.364  38.877  1.00  0.00    -0.237 OA
ATOM     66  O   UNL A   1      42.708  35.663  39.093  1.00  0.00    -0.237 OA
ATOM     67  O   UNL A   1      42.242  36.705  36.905  1.00  0.00    -0.744 OA
ENDBRANCH  60  64
ENDBRANCH  43  57
BRANCH  44  68
ATOM     68  C   UNL A   1      41.022  27.586  28.243  1.00  0.00     0.023 A 
ATOM     69  C   UNL A   1      40.744  26.210  28.225  1.00  0.00     0.031 A 
ATOM     70  C   UNL A   1      41.538  28.168  27.070  1.00  0.00     0.131 A 
ATOM     71  C   UNL A   1      41.029  25.452  27.079  1.00  0.00     0.055 A 
ATOM     72  C   UNL A   1      41.766  27.420  25.914  1.00  0.00     0.041 A 
ATOM     73  F   UNL A   1      41.819  29.479  27.030  1.00  0.00    -0.206 F 
ATOM     74  C   UNL A   1      41.524  26.049  25.919  1.00  0.00     0.022 A 
BRANCH  71  75
ATOM     75  S   UNL A   1      40.829  23.651  27.158  1.00  0.00     0.124 S 
ATOM     76  O   UNL A   1      41.524  23.329  28.399  1.00  0.00    -0.237 OA
ATOM     77  O   UNL A   1      39.376  23.509  27.181  1.00  0.00    -0.237 OA
ATOM     78  O   UNL A   1      41.479  23.183  25.936  1.00  0.00    -0.744 OA
ENDBRANCH  71  75
ENDBRANCH  44  68
BRANCH  56  79
ATOM     79  C   UNL A   1      44.336  27.820  34.380  1.00  0.00     0.023 A 
ATOM     80  C   UNL A   1      44.109  26.647  35.120  1.00  0.00     0.031 A 
ATOM     81  C   UNL A   1      45.668  28.225  34.177  1.00  0.00     0.131 A 
ATOM     82  C   UNL A   1      45.193  25.951  35.677  1.00  0.00     0.055 A 
ATOM     83  C   UNL A   1      46.745  27.494  34.678  1.00  0.00     0.041 A 
ATOM     84  F   UNL A   1      45.945  29.340  33.481  1.00  0.00    -0.206 F 
ATOM     85  C   UNL A   1      46.510  26.356  35.443  1.00  0.00     0.022 A 
BRANCH  82  86
ATOM     86  S   UNL A   1      44.857  24.558  36.789  1.00  0.00     0.124 S 
ATOM     87  O   UNL A   1      44.520  23.494  35.848  1.00  0.00    -0.237 OA
ATOM     88  O   UNL A   1      46.127  24.406  37.493  1.00  0.00    -0.237 OA
ATOM     89  O   UNL A   1      43.747  25.034  37.610  1.00  0.00    -0.744 OA
ENDBRANCH  82  86
ENDBRANCH  56  79
ENDBRANCH  30  31
ENDBRANCH  22  25
ENDBRANCH  20  21
ENDBRANCH  19  20
ENDBRANCH  18  19
ENDBRANCH   1  18
TORSDOF 20
ENDMDL
MODEL 2
REMARK VINA RESULT:     -10.1      1.564      7.888
REMARK SMILES C=C(C)C(=O)OCC[C@@H](C(C)=O)C(=O)NCCCCNC(=O)c1ccc(-c2c3nc(c(-c4cc(S(=O)(=O)[O-])ccc4F)c4ccc([nH]4)c(-c4cc(S(=O)(=O)[O-])ccc4F)c4nc(c(-c5cc(S(=O)(=O)[O-])ccc5F)c5ccc2[nH]5)C=C4)C=C3)cc1
REMARK SMILES IDX 16 1 15 2 13 3 14 4 9 6 8 7 7 8 6 9 4 10 5 11 2 12 1 13 3 14
REMARK SMILES IDX 10 15 11 16 12 17 17 18 18 19 19 20 20 21 21 22 22 24 23 25
REMARK SMILES IDX 24 26 85 27 25 28 84 29 26 30 27 31 28 32 78 33 29 34 83 35
REMARK SMILES IDX 77 36 79 37 30 38 82 39 76 40 75 41 31 43 63 44 43 45 62 46
REMARK SMILES IDX 44 47 47 48 61 49 80 50 45 51 46 52 60 54 81 55 48 56 32 57
REMARK SMILES IDX 33 58 41 59 34 60 40 61 42 62 39 63 35 64 36 65 37 66 38 67
REMARK SMILES IDX 64 68 65 69 73 70 66 71 72 72 74 73 71 74 67 75 68 76 69 77
REMARK SMILES IDX 70 78 49 79 50 80 58 81 51 82 57 83 59 84 56 85 52 86 53 87
REMARK SMILES IDX 54 88 55 89
REMARK H PARENT 15 5 20 23 79 42 47 53
REMARK Flexibility Score: inf
ROOT
ATOM      1  C   UNL A   1      31.709  29.453  26.495  1.00  0.00     0.116 C 
ENDROOT
BRANCH   1   2
ATOM      2  N   UNL A   1      32.528  28.584  25.668  1.00  0.00    -0.355 N 
ATOM      3  C   UNL A   1      32.161  27.537  24.878  1.00  0.00     0.230 C 
ATOM      4  O   UNL A   1      33.037  26.933  24.256  1.00  0.00    -0.274 OA
ATOM      5  H   UNL A   1      33.493  28.780  25.681  1.00  0.00     0.163 HD
BRANCH   3   6
ATOM      6  C   UNL A   1      30.707  27.114  24.780  1.00  0.00     0.148 C 
BRANCH   6   7
ATOM      7  C   UNL A   1      30.233  27.310  23.326  1.00  0.00     0.063 C 
BRANCH   7   8
ATOM      8  C   UNL A   1      30.319  28.737  22.788  1.00  0.00     0.234 C 
BRANCH   8   9
ATOM      9  O   UNL A   1      29.031  29.363  22.785  1.00  0.00    -0.462 OA
BRANCH   9  10
ATOM     10  C   UNL A   1      28.902  30.462  22.005  1.00  0.00     0.333 C 
ATOM     11  O   UNL A   1      29.129  30.538  20.808  1.00  0.00    -0.247 OA
BRANCH  10  12
ATOM     12  C   UNL A   1      28.355  31.571  22.824  1.00  0.00     0.027 C 
ATOM     13  C   UNL A   1      28.841  32.803  22.598  1.00  0.00     0.020 C 
ATOM     14  C   UNL A   1      27.327  31.250  23.859  1.00  0.00     0.051 C 
ENDBRANCH  10  12
ENDBRANCH   9  10
ENDBRANCH   8   9
ENDBRANCH   7   8
ENDBRANCH   6   7
BRANCH   6  15
ATOM     15  C   UNL A   1      30.481  25.715  25.344  1.00  0.00     0.142 C 
ATOM     16  C   UNL A   1      30.658  24.535  24.417  1.00  0.00     0.088 C 
ATOM     17  O   UNL A   1      30.169  25.527  26.523  1.00  0.00    -0.299 OA
ENDBRANCH   6  15
ENDBRANCH   3   6
ENDBRANCH   1   2
BRANCH   1  18
ATOM     18  C   UNL A   1      31.513  30.817  25.849  1.00  0.00     0.023 C 
BRANCH  18  19
ATOM     19  C   UNL A   1      31.441  31.967  26.850  1.00  0.00     0.023 C 
BRANCH  19  20
ATOM     20  C   UNL A   1      32.792  32.556  27.233  1.00  0.00     0.116 C 
BRANCH  20  21
ATOM     21  N   UNL A   1      32.692  33.926  27.717  1.00  0.00    -0.352 N 
ATOM     22  C   UNL A   1      33.441  34.534  28.696  1.00  0.00     0.251 C 
ATOM     23  H   UNL A   1      32.002  34.485  27.292  1.00  0.00     0.163 HD
ATOM     24  O   UNL A   1      33.136  35.646  29.114  1.00  0.00    -0.269 OA
BRANCH  22  25
ATOM     25  C   UNL A   1      34.595  33.802  29.252  1.00  0.00     0.039 A 
ATOM     26  C   UNL A   1      35.886  34.207  28.913  1.00  0.00     0.014 A 
ATOM     27  C   UNL A   1      34.387  32.771  30.173  1.00  0.00     0.014 A 
ATOM     28  C   UNL A   1      36.976  33.617  29.553  1.00  0.00     0.010 A 
ATOM     29  C   UNL A   1      35.469  32.247  30.868  1.00  0.00     0.010 A 
ATOM     30  C   UNL A   1      36.775  32.660  30.563  1.00  0.00    -0.014 A 
BRANCH  30  31
ATOM     31  C   UNL A   1      37.916  32.055  31.297  1.00  0.00     0.031 A 
ATOM     32  C   UNL A   1      38.698  30.939  30.659  1.00  0.00     0.074 A 
ATOM     33  C   UNL A   1      38.201  32.457  32.551  1.00  0.00     0.049 A 
ATOM     34  N   UNL A   1      39.658  30.207  31.162  1.00  0.00    -0.248 NA
ATOM     35  C   UNL A   1      38.325  30.580  29.282  1.00  0.00     0.031 C 
ATOM     36  C   UNL A   1      37.492  33.507  33.285  1.00  0.00     0.029 A 
ATOM     37  N   UNL A   1      39.159  32.025  33.433  1.00  0.00    -0.354 N 
ATOM     38  C   UNL A   1      39.992  29.292  30.169  1.00  0.00     0.074 A 
ATOM     39  C   UNL A   1      39.080  29.516  29.068  1.00  0.00     0.031 C 
ATOM     40  C   UNL A   1      38.059  33.657  34.494  1.00  0.00     0.029 A 
ATOM     41  C   UNL A   1      39.134  32.682  34.643  1.00  0.00     0.049 A 
ATOM     42  H   UNL A   1      39.804  31.312  33.221  1.00  0.00     0.167 HD
ATOM     43  C   UNL A   1      40.987  28.371  30.164  1.00  0.00     0.034 A 
ATOM     44  C   UNL A   1      39.884  32.506  35.750  1.00  0.00     0.034 A 
ATOM     45  C   UNL A   1      41.891  28.169  31.270  1.00  0.00     0.049 A 
ATOM     46  C   UNL A   1      40.956  31.445  35.740  1.00  0.00     0.074 A 
ATOM     47  C   UNL A   1      42.959  27.293  31.361  1.00  0.00     0.029 A 
ATOM     48  N   UNL A   1      41.831  28.848  32.481  1.00  0.00    -0.354 N 
ATOM     49  N   UNL A   1      41.286  30.612  34.779  1.00  0.00    -0.248 NA
ATOM     50  C   UNL A   1      41.762  31.306  36.959  1.00  0.00     0.031 C 
ATOM     51  C   UNL A   1      43.497  27.390  32.648  1.00  0.00     0.029 A 
ATOM     52  C   UNL A   1      42.823  28.388  33.334  1.00  0.00     0.049 A 
ATOM     53  H   UNL A   1      41.180  29.552  32.701  1.00  0.00     0.167 HD
ATOM     54  C   UNL A   1      42.366  29.879  35.268  1.00  0.00     0.074 A 
ATOM     55  C   UNL A   1      42.633  30.374  36.601  1.00  0.00     0.031 C 
ATOM     56  C   UNL A   1      43.076  28.891  34.664  1.00  0.00     0.034 A 
BRANCH  43  57
ATOM     57  C   UNL A   1      41.120  27.503  28.935  1.00  0.00     0.023 A 
ATOM     58  C   UNL A   1      42.128  27.727  27.980  1.00  0.00     0.031 A 
ATOM     59  C   UNL A   1      40.205  26.465  28.689  1.00  0.00     0.131 A 
ATOM     60  C   UNL A   1      42.142  26.990  26.787  1.00  0.00     0.055 A 
ATOM     61  C   UNL A   1      40.281  25.672  27.543  1.00  0.00     0.041 A 
ATOM     62  F   UNL A   1      39.205  26.215  29.550  1.00  0.00    -0.206 F 
ATOM     63  C   UNL A   1      41.242  25.944  26.574  1.00  0.00     0.022 A 
BRANCH  60  64
ATOM     64  S   UNL A   1      43.242  27.531  25.451  1.00  0.00     0.124 S 
ATOM     65  O   UNL A   1      43.738  26.254  24.942  1.00  0.00    -0.237 OA
ATOM     66  O   UNL A   1      42.336  28.261  24.571  1.00  0.00    -0.237 OA
ATOM     67  O   UNL A   1      44.240  28.348  26.139  1.00  0.00    -0.744 OA
ENDBRANCH  60  64
ENDBRANCH  43  57
BRANCH  44  68
ATOM     68  C   UNL A   1      39.654  33.345  36.962  1.00  0.00     0.023 A 
ATOM     69  C   UNL A   1      40.512  34.411  37.276  1.00  0.00     0.031 A 
ATOM     70  C   UNL A   1      38.600  33.066  37.851  1.00  0.00     0.131 A 
ATOM     71  C   UNL A   1      40.335  35.126  38.469  1.00  0.00     0.055 A 
ATOM     72  C   UNL A   1      38.393  33.817  39.009  1.00  0.00     0.041 A 
ATOM     73  F   UNL A   1      37.747  32.060  37.599  1.00  0.00    -0.206 F 
ATOM     74  C   UNL A   1      39.273  34.845  39.331  1.00  0.00     0.022 A 
BRANCH  71  75
ATOM     75  S   UNL A   1      41.571  36.371  38.928  1.00  0.00     0.124 S 
ATOM     76  O   UNL A   1      42.704  35.985  38.095  1.00  0.00    -0.237 OA
ATOM     77  O   UNL A   1      40.899  37.614  38.560  1.00  0.00    -0.237 OA
ATOM     78  O   UNL A   1      41.748  36.162  40.363  1.00  0.00    -0.744 OA
ENDBRANCH  71  75
ENDBRANCH  44  68
BRANCH  56  79
ATOM     79  C   UNL A   1      44.253  28.326  35.424  1.00  0.00     0.023 A 
ATOM     80  C   UNL A   1      44.101  27.320  36.394  1.00  0.00     0.031 A 
ATOM     81  C   UNL A   1      45.551  28.805  35.167  1.00  0.00     0.131 A 
ATOM     82  C   UNL A   1      45.220  26.866  37.110  1.00  0.00     0.055 A 
ATOM     83  C   UNL A   1      46.667  28.304  35.835  1.00  0.00     0.041 A 
ATOM     84  F   UNL A   1      45.755  29.768  34.253  1.00  0.00    -0.206 F 
ATOM     85  C   UNL A   1      46.503  27.338  36.823  1.00  0.00     0.022 A 
BRANCH  82  86
ATOM     86  S   UNL A   1      44.965  25.715  38.488  1.00  0.00     0.124 S 
ATOM     87  O   UNL A   1      43.828  26.317  39.179  1.00  0.00    -0.237 OA
ATOM     88  O   UNL A   1      44.697  24.456  37.799  1.00  0.00    -0.237 OA
ATOM     89  O   UNL A   1      46.230  25.764  39.217  1.00  0.00    -0.744 OA
ENDBRANCH  82  86
ENDBRANCH  56  79
ENDBRANCH  30  31
ENDBRANCH  22  25
ENDBRANCH  20  21
ENDBRANCH  19  20
ENDBRANCH  18  19
ENDBRANCH   1  18
TORSDOF 20
ENDMDL
MODEL 3
REMARK VINA RESULT:     -10.1      2.821      4.396
REMARK SMILES C=C(C)C(=O)OCC[C@@H](C(C)=O)C(=O)NCCCCNC(=O)c1ccc(-c2c3nc(c(-c4cc(S(=O)(=O)[O-])ccc4F)c4ccc([nH]4)c(-c4cc(S(=O)(=O)[O-])ccc4F)c4nc(c(-c5cc(S(=O)(=O)[O-])ccc5F)c5ccc2[nH]5)C=C4)C=C3)cc1
REMARK SMILES IDX 16 1 15 2 13 3 14 4 9 6 8 7 7 8 6 9 4 10 5 11 2 12 1 13 3 14
REMARK SMILES IDX 10 15 11 16 12 17 17 18 18 19 19 20 20 21 21 22 22 24 23 25
REMARK SMILES IDX 24 26 85 27 25 28 84 29 26 30 27 31 28 32 78 33 29 34 83 35
REMARK SMILES IDX 77 36 79 37 30 38 82 39 76 40 75 41 31 43 63 44 43 45 62 46
REMARK SMILES IDX 44 47 47 48 61 49 80 50 45 51 46 52 60 54 81 55 48 56 32 57
REMARK SMILES IDX 33 58 41 59 34 60 40 61 42 62 39 63 35 64 36 65 37 66 38 67
REMARK SMILES IDX 64 68 65 69 73 70 66 71 72 72 74 73 71 74 67 75 68 76 69 77
REMARK SMILES IDX 70 78 49 79 50 80 58 81 51 82 57 83 59 84 56 85 52 86 53 87
REMARK SMILES IDX 54 88 55 89
REMARK H PARENT 15 5 20 23 79 42 47 53
REMARK Flexibility Score: inf
ROOT
ATOM      1  C   UNL A   1      31.074  27.920  25.039  1.00  0.00     0.116 C 
ENDROOT
BRANCH   1   2
ATOM      2  N   UNL A   1      30.657  26.732  24.314  1.00  0.00    -0.355 N 
ATOM      3  C   UNL A   1      31.411  25.792  23.680  1.00  0.00     0.230 C 
ATOM      4  O   UNL A   1      30.836  24.854  23.123  1.00  0.00    -0.274 OA
ATOM      5  H   UNL A   1      29.684  26.584  24.276  1.00  0.00     0.163 HD
BRANCH   3   6
ATOM      6  C   UNL A   1      32.923  25.907  23.645  1.00  0.00     0.148 C 
BRANCH   6   7
ATOM      7  C   UNL A   1      33.530  24.526  23.964  1.00  0.00     0.063 C 
BRANCH   7   8
ATOM      8  C   UNL A   1      34.894  24.544  24.652  1.00  0.00     0.234 C 
BRANCH   8   9
ATOM      9  O   UNL A   1      35.037  23.428  25.537  1.00  0.00    -0.462 OA
BRANCH   9  10
ATOM     10  C   UNL A   1      35.354  22.244  24.962  1.00  0.00     0.333 C 
ATOM     11  O   UNL A   1      36.256  22.038  24.165  1.00  0.00    -0.247 OA
BRANCH  10  12
ATOM     12  C   UNL A   1      34.470  21.189  25.514  1.00  0.00     0.027 C 
ATOM     13  C   UNL A   1      33.833  21.457  26.666  1.00  0.00     0.020 C 
ATOM     14  C   UNL A   1      34.365  19.894  24.777  1.00  0.00     0.051 C 
ENDBRANCH  10  12
ENDBRANCH   9  10
ENDBRANCH   8   9
ENDBRANCH   7   8
ENDBRANCH   6   7
BRANCH   6  15
ATOM     15  C   UNL A   1      33.418  26.540  22.349  1.00  0.00     0.142 C 
ATOM     16  C   UNL A   1      33.728  28.018  22.349  1.00  0.00     0.088 C 
ATOM     17  O   UNL A   1      33.576  25.881  21.317  1.00  0.00    -0.299 OA
ENDBRANCH   6  15
ENDBRANCH   3   6
ENDBRANCH   1   2
BRANCH   1  18
ATOM     18  C   UNL A   1      31.431  27.599  26.483  1.00  0.00     0.023 C 
BRANCH  18  19
ATOM     19  C   UNL A   1      31.874  28.814  27.292  1.00  0.00     0.023 C 
BRANCH  19  20
ATOM     20  C   UNL A   1      33.029  29.595  26.679  1.00  0.00     0.116 C 
BRANCH  20  21
ATOM     21  N   UNL A   1      32.945  31.025  26.944  1.00  0.00    -0.352 N 
ATOM     22  C   UNL A   1      33.831  31.809  27.643  1.00  0.00     0.251 C 
ATOM     23  H   UNL A   1      32.156  31.485  26.578  1.00  0.00     0.163 HD
ATOM     24  O   UNL A   1      33.548  32.968  27.927  1.00  0.00    -0.269 OA
BRANCH  22  25
ATOM     25  C   UNL A   1      35.110  31.210  28.073  1.00  0.00     0.039 A 
ATOM     26  C   UNL A   1      36.272  31.980  28.023  1.00  0.00     0.014 A 
ATOM     27  C   UNL A   1      35.130  29.916  28.600  1.00  0.00     0.014 A 
ATOM     28  C   UNL A   1      37.451  31.470  28.568  1.00  0.00     0.010 A 
ATOM     29  C   UNL A   1      36.283  29.447  29.216  1.00  0.00     0.010 A 
ATOM     30  C   UNL A   1      37.457  30.217  29.203  1.00  0.00    -0.014 A 
BRANCH  30  31
ATOM     31  C   UNL A   1      38.685  29.674  29.837  1.00  0.00     0.031 A 
ATOM     32  C   UNL A   1      39.118  30.194  31.181  1.00  0.00     0.074 A 
ATOM     33  C   UNL A   1      39.441  28.771  29.180  1.00  0.00     0.049 A 
ATOM     34  N   UNL A   1      40.204  29.934  31.860  1.00  0.00    -0.248 NA
ATOM     35  C   UNL A   1      38.221  31.164  31.827  1.00  0.00     0.031 C 
ATOM     36  C   UNL A   1      39.140  28.216  27.859  1.00  0.00     0.029 A 
ATOM     37  N   UNL A   1      40.622  28.167  29.532  1.00  0.00    -0.354 N 
ATOM     38  C   UNL A   1      40.128  30.717  33.007  1.00  0.00     0.074 A 
ATOM     39  C   UNL A   1      38.927  31.516  32.889  1.00  0.00     0.031 C 
ATOM     40  C   UNL A   1      40.095  27.332  27.526  1.00  0.00     0.029 A 
ATOM     41  C   UNL A   1      41.102  27.295  28.582  1.00  0.00     0.049 A 
ATOM     42  H   UNL A   1      41.082  28.340  30.385  1.00  0.00     0.167 HD
ATOM     43  C   UNL A   1      40.966  30.747  34.072  1.00  0.00     0.034 A 
ATOM     44  C   UNL A   1      42.233  26.560  28.560  1.00  0.00     0.034 A 
ATOM     45  C   UNL A   1      42.154  29.936  34.173  1.00  0.00     0.049 A 
ATOM     46  C   UNL A   1      43.175  26.641  29.736  1.00  0.00     0.074 A 
ATOM     47  C   UNL A   1      43.055  29.853  35.221  1.00  0.00     0.029 A 
ATOM     48  N   UNL A   1      42.613  29.069  33.188  1.00  0.00    -0.354 N 
ATOM     49  N   UNL A   1      43.070  27.359  30.831  1.00  0.00    -0.248 NA
ATOM     50  C   UNL A   1      44.381  25.807  29.676  1.00  0.00     0.031 C 
ATOM     51  C   UNL A   1      44.093  28.996  34.841  1.00  0.00     0.029 A 
ATOM     52  C   UNL A   1      43.798  28.473  33.592  1.00  0.00     0.049 A 
ATOM     53  H   UNL A   1      42.162  28.903  32.330  1.00  0.00     0.167 HD
ATOM     54  C   UNL A   1      44.179  27.030  31.607  1.00  0.00     0.074 A 
ATOM     55  C   UNL A   1      44.931  26.045  30.858  1.00  0.00     0.031 C 
ATOM     56  C   UNL A   1      44.539  27.494  32.832  1.00  0.00     0.034 A 
BRANCH  43  57
ATOM     57  C   UNL A   1      40.631  31.706  35.190  1.00  0.00     0.023 A 
ATOM     58  C   UNL A   1      39.653  31.403  36.153  1.00  0.00     0.031 A 
ATOM     59  C   UNL A   1      41.264  32.959  35.271  1.00  0.00     0.131 A 
ATOM     60  C   UNL A   1      39.272  32.369  37.096  1.00  0.00     0.055 A 
ATOM     61  C   UNL A   1      40.947  33.881  36.271  1.00  0.00     0.041 A 
ATOM     62  F   UNL A   1      42.190  33.318  34.367  1.00  0.00    -0.206 F 
ATOM     63  C   UNL A   1      39.933  33.597  37.179  1.00  0.00     0.022 A 
BRANCH  60  64
ATOM     64  S   UNL A   1      37.791  32.062  38.097  1.00  0.00     0.124 S 
ATOM     65  O   UNL A   1      37.416  30.718  37.663  1.00  0.00    -0.237 OA
ATOM     66  O   UNL A   1      38.301  32.176  39.459  1.00  0.00    -0.237 OA
ATOM     67  O   UNL A   1      36.873  33.121  37.682  1.00  0.00    -0.744 OA
ENDBRANCH  60  64
ENDBRANCH  43  57
BRANCH  44  68
ATOM     68  C   UNL A   1      42.546  25.688  27.391  1.00  0.00     0.023 A 
ATOM     69  C   UNL A   1      42.107  24.354  27.348  1.00  0.00     0.031 A 
ATOM     70  C   UNL A   1      43.329  26.157  26.321  1.00  0.00     0.131 A 
ATOM     71  C   UNL A   1      42.494  23.523  26.286  1.00  0.00     0.055 A 
ATOM     72  C   UNL A   1      43.663  25.342  25.239  1.00  0.00     0.041 A 
ATOM     73  F   UNL A   1      43.773  27.424  26.309  1.00  0.00    -0.206 F 
ATOM     74  C   UNL A   1      43.257  24.012  25.224  1.00  0.00     0.022 A 
BRANCH  71  75
ATOM     75  S   UNL A   1      42.062  21.763  26.359  1.00  0.00     0.124 S 
ATOM     76  O   UNL A   1      42.399  21.432  27.739  1.00  0.00    -0.237 OA
ATOM     77  O   UNL A   1      40.638  21.788  26.035  1.00  0.00    -0.237 OA
ATOM     78  O   UNL A   1      42.920  21.160  25.342  1.00  0.00    -0.744 OA
ENDBRANCH  71  75
ENDBRANCH  44  68
BRANCH  56  79
ATOM     79  C   UNL A   1      45.771  26.890  33.463  1.00  0.00     0.023 A 
ATOM     80  C   UNL A   1      45.726  25.681  34.178  1.00  0.00     0.031 A 
ATOM     81  C   UNL A   1      47.013  27.541  33.342  1.00  0.00     0.131 A 
ATOM     82  C   UNL A   1      46.889  25.189  34.791  1.00  0.00     0.055 A 
ATOM     83  C   UNL A   1      48.177  27.014  33.898  1.00  0.00     0.041 A 
ATOM     84  F   UNL A   1      47.114  28.701  32.673  1.00  0.00    -0.206 F 
ATOM     85  C   UNL A   1      48.118  25.837  34.639  1.00  0.00     0.022 A 
BRANCH  82  86
ATOM     86  S   UNL A   1      46.759  23.736  35.869  1.00  0.00     0.124 S 
ATOM     87  O   UNL A   1      47.891  23.925  36.771  1.00  0.00    -0.237 OA
ATOM     88  O   UNL A   1      45.436  23.905  36.463  1.00  0.00    -0.237 OA
ATOM     89  O   UNL A   1      46.883  22.611  34.945  1.00  0.00    -0.744 OA
ENDBRANCH  82  86
ENDBRANCH  56  79
ENDBRANCH  30  31
ENDBRANCH  22  25
ENDBRANCH  20  21
ENDBRANCH  19  20
ENDBRANCH  18  19
ENDBRANCH   1  18
TORSDOF 20
ENDMDL
