MODEL 1
REMARK VINA RESULT:     -13.5      0.000      0.000
REMARK SMILES Cc1ccccc1C(=O)Nc1cc(NC(=O)c2ccccc2C)cc(C(=O)NCCCCNC(=O)c2ccc(-c3c4nc(c(-c5cc(S(=O)(=O)[O-])ccc5F)c5ccc([nH]5)c(-c5cc(S(=O)(=O)[O-])ccc5F)c5nc(c(-c6cc(S(=O)(=O)[O-])ccc6F)c6ccc3[nH]6)C=C5)C=C4)cc2)c1
REMARK SMILES IDX 31 1 30 2 29 3 28 4 26 5 27 6 25 8 11 9 12 10 99 11 13 12
REMARK SMILES IDX 24 13 10 14 8 15 9 16 7 18 1 19 2 20 3 21 4 22 6 23 5 24
REMARK SMILES IDX 14 25 15 26 16 28 17 29 18 30 22 31 19 32 21 33 23 34 20 35
REMARK SMILES IDX 32 36 33 37 34 38 35 40 36 41 37 42 98 43 38 44 97 45 39 46
REMARK SMILES IDX 40 47 41 48 91 49 42 50 96 51 90 52 92 53 43 54 95 55 89 56
REMARK SMILES IDX 88 57 44 59 76 60 56 61 75 62 57 63 60 64 74 65 93 66 58 67
REMARK SMILES IDX 59 68 73 70 94 71 61 72 45 73 46 74 54 75 47 76 53 77 55 78
REMARK SMILES IDX 52 79 48 80 49 81 50 82 51 83 77 84 78 85 86 86 79 87 85 88
REMARK SMILES IDX 87 89 84 90 80 91 81 92 82 93 83 94 62 95 63 96 71 97 64 98
REMARK SMILES IDX 70 99 72 100 69 101 65 102 66 103 67 104 68 105
REMARK H PARENT 28 7 10 17 14 27 33 39 92 58 60 69
REMARK Flexibility Score: inf
ROOT
ATOM      1  C   UNL A   1      33.581  29.793  26.706  1.00  0.00     0.023 C 
ENDROOT
BRANCH   1   2
ATOM      2  C   UNL A   1      32.421  28.935  27.225  1.00  0.00     0.023 C 
BRANCH   2   3
ATOM      3  C   UNL A   1      32.492  27.464  26.793  1.00  0.00     0.116 C 
BRANCH   3   4
ATOM      4  N   UNL A   1      31.215  26.778  26.951  1.00  0.00    -0.352 N 
ATOM      5  C   UNL A   1      30.605  25.681  26.404  1.00  0.00     0.251 C 
ATOM      6  O   UNL A   1      29.463  25.441  26.808  1.00  0.00    -0.269 OA
ATOM      7  H   UNL A   1      30.644  27.218  27.623  1.00  0.00     0.163 HD
BRANCH   5   8
ATOM      8  C   UNL A   1      31.188  24.768  25.375  1.00  0.00     0.043 A 
ATOM      9  C   UNL A   1      31.750  22.466  24.802  1.00  0.00     0.044 A 
ATOM     10  C   UNL A   1      32.313  22.889  23.598  1.00  0.00     0.052 A 
ATOM     11  C   UNL A   1      31.093  23.387  25.626  1.00  0.00     0.040 A 
ATOM     12  C   UNL A   1      32.375  24.248  23.311  1.00  0.00     0.044 A 
ATOM     13  C   UNL A   1      31.878  25.170  24.236  1.00  0.00     0.040 A 
BRANCH   9  14
ATOM     14  N   UNL A   1      31.923  21.166  25.305  1.00  0.00    -0.322 N 
ATOM     15  C   UNL A   1      33.092  20.513  25.652  1.00  0.00     0.255 C 
ATOM     16  O   UNL A   1      33.046  19.322  25.964  1.00  0.00    -0.269 OA
ATOM     17  H   UNL A   1      31.096  20.647  25.429  1.00  0.00     0.170 HD
BRANCH  15  18
ATOM     18  C   UNL A   1      34.409  21.214  25.698  1.00  0.00     0.043 A 
ATOM     19  C   UNL A   1      33.928  22.661  27.788  1.00  0.00     0.045 C 
ATOM     20  C   UNL A   1      34.765  22.227  26.616  1.00  0.00    -0.038 A 
ATOM     21  C   UNL A   1      36.001  22.879  26.454  1.00  0.00     0.004 A 
ATOM     22  C   UNL A   1      36.910  22.470  25.479  1.00  0.00     0.000 A 
ATOM     23  C   UNL A   1      35.355  20.778  24.753  1.00  0.00     0.014 A 
ATOM     24  C   UNL A   1      36.602  21.398  24.650  1.00  0.00     0.001 A 
ENDBRANCH  15  18
ENDBRANCH   9  14
BRANCH  12  25
ATOM     25  N   UNL A   1      32.956  24.790  22.153  1.00  0.00    -0.322 N 
ATOM     26  C   UNL A   1      32.779  26.002  21.537  1.00  0.00     0.255 C 
ATOM     27  H   UNL A   1      33.601  24.197  21.707  1.00  0.00     0.170 HD
ATOM     28  O   UNL A   1      33.243  26.208  20.417  1.00  0.00    -0.269 OA
BRANCH  26  29
ATOM     29  C   UNL A   1      32.086  27.119  22.214  1.00  0.00     0.043 A 
ATOM     30  C   UNL A   1      30.690  27.128  22.075  1.00  0.00     0.014 A 
ATOM     31  C   UNL A   1      32.743  28.161  22.898  1.00  0.00    -0.038 A 
ATOM     32  C   UNL A   1      29.931  28.132  22.669  1.00  0.00     0.001 A 
ATOM     33  C   UNL A   1      31.955  29.145  23.519  1.00  0.00     0.004 A 
ATOM     34  C   UNL A   1      34.238  28.280  23.018  1.00  0.00     0.045 C 
ATOM     35  C   UNL A   1      30.563  29.130  23.404  1.00  0.00     0.000 A 
ENDBRANCH  26  29
ENDBRANCH  12  25
ENDBRANCH   5   8
ENDBRANCH   3   4
ENDBRANCH   2   3
ENDBRANCH   1   2
BRANCH   1  36
ATOM     36  C   UNL A   1      34.234  30.670  27.769  1.00  0.00     0.116 C 
BRANCH  36  37
ATOM     37  N   UNL A   1      33.675  31.997  27.949  1.00  0.00    -0.352 N 
ATOM     38  C   UNL A   1      34.077  33.005  28.820  1.00  0.00     0.251 C 
ATOM     39  H   UNL A   1      32.904  32.214  27.376  1.00  0.00     0.163 HD
ATOM     40  O   UNL A   1      33.357  33.964  29.025  1.00  0.00    -0.269 OA
BRANCH  38  41
ATOM     41  C   UNL A   1      35.445  32.966  29.417  1.00  0.00     0.039 A 
ATOM     42  C   UNL A   1      36.511  33.443  28.639  1.00  0.00     0.014 A 
ATOM     43  C   UNL A   1      35.707  32.289  30.601  1.00  0.00     0.014 A 
ATOM     44  C   UNL A   1      37.811  33.021  28.916  1.00  0.00     0.010 A 
ATOM     45  C   UNL A   1      36.965  31.762  30.799  1.00  0.00     0.010 A 
ATOM     46  C   UNL A   1      38.004  32.082  29.923  1.00  0.00    -0.014 A 
BRANCH  46  47
ATOM     47  C   UNL A   1      39.214  31.288  30.097  1.00  0.00     0.031 A 
ATOM     48  C   UNL A   1      39.274  29.908  29.584  1.00  0.00     0.074 A 
ATOM     49  C   UNL A   1      40.331  31.899  30.548  1.00  0.00     0.049 A 
ATOM     50  N   UNL A   1      40.197  29.058  29.871  1.00  0.00    -0.248 NA
ATOM     51  C   UNL A   1      38.240  29.353  28.721  1.00  0.00     0.031 C 
ATOM     52  C   UNL A   1      41.711  31.436  30.441  1.00  0.00     0.029 A 
ATOM     53  N   UNL A   1      40.392  32.970  31.436  1.00  0.00    -0.354 N 
ATOM     54  C   UNL A   1      40.069  27.990  29.012  1.00  0.00     0.074 A 
ATOM     55  C   UNL A   1      38.782  28.180  28.391  1.00  0.00     0.031 C 
ATOM     56  C   UNL A   1      42.439  32.020  31.405  1.00  0.00     0.029 A 
ATOM     57  C   UNL A   1      41.513  32.745  32.255  1.00  0.00     0.049 A 
ATOM     58  H   UNL A   1      39.772  33.734  31.482  1.00  0.00     0.167 HD
ATOM     59  C   UNL A   1      41.141  27.163  28.836  1.00  0.00     0.034 A 
ATOM     60  C   UNL A   1      41.353  32.530  33.594  1.00  0.00     0.034 A 
ATOM     61  C   UNL A   1      42.197  27.462  29.813  1.00  0.00     0.049 A 
ATOM     62  C   UNL A   1      41.848  31.177  34.051  1.00  0.00     0.074 A 
ATOM     63  C   UNL A   1      43.418  28.111  29.736  1.00  0.00     0.029 A 
ATOM     64  N   UNL A   1      41.918  27.323  31.171  1.00  0.00    -0.354 N 
ATOM     65  N   UNL A   1      42.066  30.159  33.261  1.00  0.00    -0.248 NA
ATOM     66  C   UNL A   1      42.149  30.874  35.443  1.00  0.00     0.031 C 
ATOM     67  C   UNL A   1      43.841  28.412  31.062  1.00  0.00     0.029 A 
ATOM     68  C   UNL A   1      42.896  27.917  31.946  1.00  0.00     0.049 A 
ATOM     69  H   UNL A   1      41.128  26.860  31.533  1.00  0.00     0.167 HD
ATOM     70  C   UNL A   1      42.523  29.088  33.992  1.00  0.00     0.074 A 
ATOM     71  C   UNL A   1      42.572  29.602  35.352  1.00  0.00     0.031 C 
ATOM     72  C   UNL A   1      42.813  27.883  33.405  1.00  0.00     0.034 A 
BRANCH  59  73
ATOM     73  C   UNL A   1      41.364  26.283  27.613  1.00  0.00     0.023 A 
ATOM     74  C   UNL A   1      41.350  24.879  27.771  1.00  0.00     0.031 A 
ATOM     75  C   UNL A   1      41.670  26.723  26.309  1.00  0.00     0.131 A 
ATOM     76  C   UNL A   1      41.716  24.009  26.722  1.00  0.00     0.055 A 
ATOM     77  C   UNL A   1      42.070  25.863  25.276  1.00  0.00     0.041 A 
ATOM     78  F   UNL A   1      41.547  27.999  25.935  1.00  0.00    -0.206 F 
ATOM     79  C   UNL A   1      42.108  24.498  25.482  1.00  0.00     0.022 A 
BRANCH  76  80
ATOM     80  S   UNL A   1      41.683  22.217  27.002  1.00  0.00     0.124 S 
ATOM     81  O   UNL A   1      42.104  21.695  25.706  1.00  0.00    -0.237 OA
ATOM     82  O   UNL A   1      42.626  22.058  28.103  1.00  0.00    -0.237 OA
ATOM     83  O   UNL A   1      40.286  21.954  27.347  1.00  0.00    -0.744 OA
ENDBRANCH  76  80
ENDBRANCH  59  73
BRANCH  60  84
ATOM     84  C   UNL A   1      40.205  33.295  34.165  1.00  0.00     0.023 A 
ATOM     85  C   UNL A   1      39.305  32.563  34.972  1.00  0.00     0.031 A 
ATOM     86  C   UNL A   1      40.235  34.687  34.316  1.00  0.00     0.131 A 
ATOM     87  C   UNL A   1      38.633  33.191  36.028  1.00  0.00     0.055 A 
ATOM     88  C   UNL A   1      39.482  35.325  35.313  1.00  0.00     0.041 A 
ATOM     89  F   UNL A   1      41.089  35.435  33.602  1.00  0.00    -0.206 F 
ATOM     90  C   UNL A   1      38.718  34.572  36.208  1.00  0.00     0.022 A 
BRANCH  87  91
ATOM     91  S   UNL A   1      37.907  32.134  37.319  1.00  0.00     0.124 S 
ATOM     92  O   UNL A   1      36.626  32.788  37.558  1.00  0.00    -0.237 OA
ATOM     93  O   UNL A   1      37.846  30.826  36.664  1.00  0.00    -0.237 OA
ATOM     94  O   UNL A   1      38.870  32.212  38.413  1.00  0.00    -0.744 OA
ENDBRANCH  87  91
ENDBRANCH  60  84
BRANCH  72  95
ATOM     95  C   UNL A   1      43.121  26.568  34.118  1.00  0.00     0.023 A 
ATOM     96  C   UNL A   1      44.362  25.920  34.072  1.00  0.00     0.031 A 
ATOM     97  C   UNL A   1      42.150  25.928  34.934  1.00  0.00     0.131 A 
ATOM     98  C   UNL A   1      44.588  24.696  34.734  1.00  0.00     0.055 A 
ATOM     99  C   UNL A   1      42.392  24.746  35.644  1.00  0.00     0.041 A 
ATOM    100  F   UNL A   1      40.916  26.427  35.099  1.00  0.00    -0.206 F 
ATOM    101  C   UNL A   1      43.616  24.111  35.537  1.00  0.00     0.022 A 
BRANCH  98 102
ATOM    102  S   UNL A   1      46.178  23.866  34.474  1.00  0.00     0.124 S 
ATOM    103  O   UNL A   1      45.760  22.587  33.905  1.00  0.00    -0.237 OA
ATOM    104  O   UNL A   1      46.857  24.774  33.555  1.00  0.00    -0.237 OA
ATOM    105  O   UNL A   1      46.753  23.792  35.814  1.00  0.00    -0.744 OA
ENDBRANCH  98 102
ENDBRANCH  72  95
ENDBRANCH  46  47
ENDBRANCH  38  41
ENDBRANCH  36  37
ENDBRANCH   1  36
TORSDOF 18
ENDMDL
MODEL 2
REMARK VINA RESULT:     -13.0      1.396      2.950
REMARK SMILES Cc1ccccc1C(=O)Nc1cc(NC(=O)c2ccccc2C)cc(C(=O)NCCCCNC(=O)c2ccc(-c3c4nc(c(-c5cc(S(=O)(=O)[O-])ccc5F)c5ccc([nH]5)c(-c5cc(S(=O)(=O)[O-])ccc5F)c5nc(c(-c6cc(S(=O)(=O)[O-])ccc6F)c6ccc3[nH]6)C=C5)C=C4)cc2)c1
REMARK SMILES IDX 31 1 30 2 29 3 28 4 26 5 27 6 25 8 11 9 12 10 99 11 13 12
REMARK SMILES IDX 24 13 10 14 8 15 9 16 7 18 1 19 2 20 3 21 4 22 6 23 5 24
REMARK SMILES IDX 14 25 15 26 16 28 17 29 18 30 22 31 19 32 21 33 23 34 20 35
REMARK SMILES IDX 32 36 33 37 34 38 35 40 36 41 37 42 98 43 38 44 97 45 39 46
REMARK SMILES IDX 40 47 41 48 91 49 42 50 96 51 90 52 92 53 43 54 95 55 89 56
REMARK SMILES IDX 88 57 44 59 76 60 56 61 75 62 57 63 60 64 74 65 93 66 58 67
REMARK SMILES IDX 59 68 73 70 94 71 61 72 45 73 46 74 54 75 47 76 53 77 55 78
REMARK SMILES IDX 52 79 48 80 49 81 50 82 51 83 77 84 78 85 86 86 79 87 85 88
REMARK SMILES IDX 87 89 84 90 80 91 81 92 82 93 83 94 62 95 63 96 71 97 64 98
REMARK SMILES IDX 70 99 72 100 69 101 65 102 66 103 67 104 68 105
REMARK H PARENT 28 7 10 17 14 27 33 39 92 58 60 69
REMARK Flexibility Score: inf
ROOT
ATOM      1  C   UNL A   1      34.638  30.817  27.332  1.00  0.00     0.023 C 
ENDROOT
BRANCH   1   2
ATOM      2  C   UNL A   1      34.890  29.306  27.386  1.00  0.00     0.023 C 
BRANCH   2   3
ATOM      3  C   UNL A   1      34.104  28.504  26.340  1.00  0.00     0.116 C 
BRANCH   3   4
ATOM      4  N   UNL A   1      34.284  29.029  24.991  1.00  0.00    -0.352 N 
ATOM      5  C   UNL A   1      33.817  28.726  23.740  1.00  0.00     0.251 C 
ATOM      6  O   UNL A   1      34.249  29.426  22.819  1.00  0.00    -0.269 OA
ATOM      7  H   UNL A   1      34.900  29.797  24.977  1.00  0.00     0.163 HD
BRANCH   5   8
ATOM      8  C   UNL A   1      32.850  27.640  23.398  1.00  0.00     0.043 A 
ATOM      9  C   UNL A   1      30.779  26.511  24.011  1.00  0.00     0.044 A 
ATOM     10  C   UNL A   1      30.946  25.606  22.964  1.00  0.00     0.052 A 
ATOM     11  C   UNL A   1      31.664  27.585  24.152  1.00  0.00     0.040 A 
ATOM     12  C   UNL A   1      32.090  25.672  22.176  1.00  0.00     0.044 A 
ATOM     13  C   UNL A   1      33.058  26.642  22.452  1.00  0.00     0.040 A 
BRANCH   9  14
ATOM     14  N   UNL A   1      29.829  26.326  25.029  1.00  0.00    -0.322 N 
ATOM     15  C   UNL A   1      29.850  25.440  26.091  1.00  0.00     0.255 C 
ATOM     16  O   UNL A   1      28.858  25.346  26.816  1.00  0.00    -0.269 OA
ATOM     17  H   UNL A   1      29.037  26.909  24.980  1.00  0.00     0.170 HD
BRANCH  15  18
ATOM     18  C   UNL A   1      31.052  24.617  26.416  1.00  0.00     0.043 A 
ATOM     19  C   UNL A   1      29.807  22.395  26.865  1.00  0.00     0.045 C 
ATOM     20  C   UNL A   1      31.032  23.267  26.827  1.00  0.00    -0.038 A 
ATOM     21  C   UNL A   1      32.241  22.663  27.217  1.00  0.00     0.004 A 
ATOM     22  C   UNL A   1      33.455  23.339  27.101  1.00  0.00     0.000 A 
ATOM     23  C   UNL A   1      32.287  25.270  26.256  1.00  0.00     0.014 A 
ATOM     24  C   UNL A   1      33.483  24.631  26.589  1.00  0.00     0.001 A 
ENDBRANCH  15  18
ENDBRANCH   9  14
BRANCH  12  25
ATOM     25  N   UNL A   1      32.384  24.790  21.125  1.00  0.00    -0.322 N 
ATOM     26  C   UNL A   1      33.195  23.685  21.073  1.00  0.00     0.255 C 
ATOM     27  H   UNL A   1      31.929  25.000  20.278  1.00  0.00     0.170 HD
ATOM     28  O   UNL A   1      33.466  23.159  19.996  1.00  0.00    -0.269 OA
BRANCH  26  29
ATOM     29  C   UNL A   1      33.717  23.051  22.303  1.00  0.00     0.043 A 
ATOM     30  C   UNL A   1      34.986  23.490  22.709  1.00  0.00     0.014 A 
ATOM     31  C   UNL A   1      33.056  22.027  23.009  1.00  0.00    -0.038 A 
ATOM     32  C   UNL A   1      35.579  22.965  23.852  1.00  0.00     0.001 A 
ATOM     33  C   UNL A   1      33.657  21.535  24.179  1.00  0.00     0.004 A 
ATOM     34  C   UNL A   1      31.737  21.434  22.594  1.00  0.00     0.045 C 
ATOM     35  C   UNL A   1      34.907  21.999  24.595  1.00  0.00     0.000 A 
ENDBRANCH  26  29
ENDBRANCH  12  25
ENDBRANCH   5   8
ENDBRANCH   3   4
ENDBRANCH   2   3
ENDBRANCH   1   2
BRANCH   1  36
ATOM     36  C   UNL A   1      34.246  31.435  28.670  1.00  0.00     0.116 C 
BRANCH  36  37
ATOM     37  N   UNL A   1      33.855  32.831  28.650  1.00  0.00    -0.352 N 
ATOM     38  C   UNL A   1      34.442  33.914  29.298  1.00  0.00     0.251 C 
ATOM     39  H   UNL A   1      33.064  33.043  28.102  1.00  0.00     0.163 HD
ATOM     40  O   UNL A   1      33.852  34.976  29.378  1.00  0.00    -0.269 OA
BRANCH  38  41
ATOM     41  C   UNL A   1      35.845  33.807  29.796  1.00  0.00     0.039 A 
ATOM     42  C   UNL A   1      36.880  34.134  28.907  1.00  0.00     0.014 A 
ATOM     43  C   UNL A   1      36.146  33.202  31.009  1.00  0.00     0.014 A 
ATOM     44  C   UNL A   1      38.162  33.628  29.123  1.00  0.00     0.010 A 
ATOM     45  C   UNL A   1      37.371  32.589  31.159  1.00  0.00     0.010 A 
ATOM     46  C   UNL A   1      38.360  32.755  30.187  1.00  0.00    -0.014 A 
BRANCH  46  47
ATOM     47  C   UNL A   1      39.515  31.879  30.338  1.00  0.00     0.031 A 
ATOM     48  C   UNL A   1      39.487  30.514  29.781  1.00  0.00     0.074 A 
ATOM     49  C   UNL A   1      40.667  32.402  30.809  1.00  0.00     0.049 A 
ATOM     50  N   UNL A   1      40.352  29.598  30.043  1.00  0.00    -0.248 NA
ATOM     51  C   UNL A   1      38.422  30.055  28.900  1.00  0.00     0.031 C 
ATOM     52  C   UNL A   1      42.015  31.853  30.689  1.00  0.00     0.029 A 
ATOM     53  N   UNL A   1      40.795  33.438  31.730  1.00  0.00    -0.354 N 
ATOM     54  C   UNL A   1      40.157  28.568  29.151  1.00  0.00     0.074 A 
ATOM     55  C   UNL A   1      38.888  28.860  28.534  1.00  0.00     0.031 C 
ATOM     56  C   UNL A   1      42.776  32.358  31.672  1.00  0.00     0.029 A 
ATOM     57  C   UNL A   1      41.896  33.115  32.544  1.00  0.00     0.049 A 
ATOM     58  H   UNL A   1      40.226  34.239  31.799  1.00  0.00     0.167 HD
ATOM     59  C   UNL A   1      41.174  27.678  28.950  1.00  0.00     0.034 A 
ATOM     60  C   UNL A   1      41.718  32.869  33.875  1.00  0.00     0.034 A 
ATOM     61  C   UNL A   1      42.244  27.877  29.938  1.00  0.00     0.049 A 
ATOM     62  C   UNL A   1      42.122  31.473  34.290  1.00  0.00     0.074 A 
ATOM     63  C   UNL A   1      43.505  28.448  29.883  1.00  0.00     0.029 A 
ATOM     64  N   UNL A   1      41.952  27.714  31.291  1.00  0.00    -0.354 N 
ATOM     65  N   UNL A   1      42.277  30.469  33.468  1.00  0.00    -0.248 NA
ATOM     66  C   UNL A   1      42.398  31.108  35.671  1.00  0.00     0.031 C 
ATOM     67  C   UNL A   1      43.942  28.679  31.218  1.00  0.00     0.029 A 
ATOM     68  C   UNL A   1      42.964  28.219  32.085  1.00  0.00     0.049 A 
ATOM     69  H   UNL A   1      41.132  27.293  31.636  1.00  0.00     0.167 HD
ATOM     70  C   UNL A   1      42.661  29.348  34.166  1.00  0.00     0.074 A 
ATOM     71  C   UNL A   1      42.738  29.815  35.542  1.00  0.00     0.031 C 
ATOM     72  C   UNL A   1      42.874  28.145  33.542  1.00  0.00     0.034 A 
BRANCH  59  73
ATOM     73  C   UNL A   1      41.344  26.825  27.701  1.00  0.00     0.023 A 
ATOM     74  C   UNL A   1      41.391  25.418  27.836  1.00  0.00     0.031 A 
ATOM     75  C   UNL A   1      41.542  27.294  26.386  1.00  0.00     0.131 A 
ATOM     76  C   UNL A   1      41.715  24.577  26.751  1.00  0.00     0.055 A 
ATOM     77  C   UNL A   1      41.901  26.463  25.314  1.00  0.00     0.041 A 
ATOM     78  F   UNL A   1      41.348  28.569  26.043  1.00  0.00    -0.206 F 
ATOM     79  C   UNL A   1      42.002  25.097  25.495  1.00  0.00     0.022 A 
BRANCH  76  80
ATOM     80  S   UNL A   1      41.766  22.782  27.003  1.00  0.00     0.124 S 
ATOM     81  O   UNL A   1      42.131  22.295  25.677  1.00  0.00    -0.237 OA
ATOM     82  O   UNL A   1      42.775  22.644  28.046  1.00  0.00    -0.237 OA
ATOM     83  O   UNL A   1      40.402  22.460  27.422  1.00  0.00    -0.744 OA
ENDBRANCH  76  80
ENDBRANCH  59  73
BRANCH  60  84
ATOM     84  C   UNL A   1      40.621  33.689  34.468  1.00  0.00     0.023 A 
ATOM     85  C   UNL A   1      39.560  32.973  35.068  1.00  0.00     0.031 A 
ATOM     86  C   UNL A   1      40.806  35.025  34.846  1.00  0.00     0.131 A 
ATOM     87  C   UNL A   1      38.866  33.521  36.155  1.00  0.00     0.055 A 
ATOM     88  C   UNL A   1      40.039  35.601  35.871  1.00  0.00     0.041 A 
ATOM     89  F   UNL A   1      41.814  35.747  34.337  1.00  0.00    -0.206 F 
ATOM     90  C   UNL A   1      39.101  34.833  36.565  1.00  0.00     0.022 A 
BRANCH  87  91
ATOM     91  S   UNL A   1      37.887  32.390  37.191  1.00  0.00     0.124 S 
ATOM     92  O   UNL A   1      37.820  31.197  36.355  1.00  0.00    -0.237 OA
ATOM     93  O   UNL A   1      38.702  32.278  38.401  1.00  0.00    -0.237 OA
ATOM     94  O   UNL A   1      36.625  33.099  37.381  1.00  0.00    -0.744 OA
ENDBRANCH  87  91
ENDBRANCH  60  84
BRANCH  72  95
ATOM     95  C   UNL A   1      43.093  26.791  34.214  1.00  0.00     0.023 A 
ATOM     96  C   UNL A   1      44.293  26.071  34.159  1.00  0.00     0.031 A 
ATOM     97  C   UNL A   1      42.075  26.185  34.997  1.00  0.00     0.131 A 
ATOM     98  C   UNL A   1      44.436  24.815  34.782  1.00  0.00     0.055 A 
ATOM     99  C   UNL A   1      42.236  24.967  35.670  1.00  0.00     0.041 A 
ATOM    100  F   UNL A   1      40.871  26.752  35.166  1.00  0.00    -0.206 F 
ATOM    101  C   UNL A   1      43.421  24.264  35.555  1.00  0.00     0.022 A 
BRANCH  98 102
ATOM    102  S   UNL A   1      45.977  23.899  34.512  1.00  0.00     0.124 S 
ATOM    103  O   UNL A   1      46.534  23.841  35.861  1.00  0.00    -0.237 OA
ATOM    104  O   UNL A   1      45.495  22.631  33.973  1.00  0.00    -0.237 OA
ATOM    105  O   UNL A   1      46.716  24.734  33.569  1.00  0.00    -0.744 OA
ENDBRANCH  98 102
ENDBRANCH  72  95
ENDBRANCH  46  47
ENDBRANCH  38  41
ENDBRANCH  36  37
ENDBRANCH   1  36
TORSDOF 18
ENDMDL
MODEL 3
REMARK VINA RESULT:     -13.0      1.635      3.969
REMARK SMILES Cc1ccccc1C(=O)Nc1cc(NC(=O)c2ccccc2C)cc(C(=O)NCCCCNC(=O)c2ccc(-c3c4nc(c(-c5cc(S(=O)(=O)[O-])ccc5F)c5ccc([nH]5)c(-c5cc(S(=O)(=O)[O-])ccc5F)c5nc(c(-c6cc(S(=O)(=O)[O-])ccc6F)c6ccc3[nH]6)C=C5)C=C4)cc2)c1
REMARK SMILES IDX 31 1 30 2 29 3 28 4 26 5 27 6 25 8 11 9 12 10 99 11 13 12
REMARK SMILES IDX 24 13 10 14 8 15 9 16 7 18 1 19 2 20 3 21 4 22 6 23 5 24
REMARK SMILES IDX 14 25 15 26 16 28 17 29 18 30 22 31 19 32 21 33 23 34 20 35
REMARK SMILES IDX 32 36 33 37 34 38 35 40 36 41 37 42 98 43 38 44 97 45 39 46
REMARK SMILES IDX 40 47 41 48 91 49 42 50 96 51 90 52 92 53 43 54 95 55 89 56
REMARK SMILES IDX 88 57 44 59 76 60 56 61 75 62 57 63 60 64 74 65 93 66 58 67
REMARK SMILES IDX 59 68 73 70 94 71 61 72 45 73 46 74 54 75 47 76 53 77 55 78
REMARK SMILES IDX 52 79 48 80 49 81 50 82 51 83 77 84 78 85 86 86 79 87 85 88
REMARK SMILES IDX 87 89 84 90 80 91 81 92 82 93 83 94 62 95 63 96 71 97 64 98
REMARK SMILES IDX 70 99 72 100 69 101 65 102 66 103 67 104 68 105
REMARK H PARENT 28 7 10 17 14 27 33 39 92 58 60 69
REMARK Flexibility Score: inf
ROOT
ATOM      1  C   UNL A   1      34.157  31.505  28.021  1.00  0.00     0.023 C 
ENDROOT
BRANCH   1   2
ATOM      2  C   UNL A   1      35.309  30.594  27.579  1.00  0.00     0.023 C 
BRANCH   2   3
ATOM      3  C   UNL A   1      34.888  29.143  27.311  1.00  0.00     0.116 C 
BRANCH   3   4
ATOM      4  N   UNL A   1      33.565  28.842  27.849  1.00  0.00    -0.352 N 
ATOM      5  C   UNL A   1      32.500  28.064  27.481  1.00  0.00     0.251 C 
ATOM      6  O   UNL A   1      31.517  28.107  28.228  1.00  0.00    -0.269 OA
ATOM      7  H   UNL A   1      33.395  29.322  28.692  1.00  0.00     0.163 HD
BRANCH   5   8
ATOM      8  C   UNL A   1      32.423  27.186  26.275  1.00  0.00     0.043 A 
ATOM      9  C   UNL A   1      30.961  26.120  24.642  1.00  0.00     0.044 A 
ATOM     10  C   UNL A   1      32.057  25.497  24.046  1.00  0.00     0.052 A 
ATOM     11  C   UNL A   1      31.159  27.044  25.673  1.00  0.00     0.040 A 
ATOM     12  C   UNL A   1      33.323  25.662  24.599  1.00  0.00     0.044 A 
ATOM     13  C   UNL A   1      33.475  26.444  25.747  1.00  0.00     0.040 A 
BRANCH   9  14
ATOM     14  N   UNL A   1      29.634  25.766  24.345  1.00  0.00    -0.322 N 
ATOM     15  C   UNL A   1      28.631  26.535  23.783  1.00  0.00     0.255 C 
ATOM     16  O   UNL A   1      27.490  26.077  23.712  1.00  0.00    -0.269 OA
ATOM     17  H   UNL A   1      29.383  24.841  24.569  1.00  0.00     0.170 HD
BRANCH  15  18
ATOM     18  C   UNL A   1      28.893  27.893  23.221  1.00  0.00     0.043 A 
ATOM     19  C   UNL A   1      30.985  27.268  21.834  1.00  0.00     0.045 C 
ATOM     20  C   UNL A   1      29.986  28.240  22.398  1.00  0.00    -0.038 A 
ATOM     21  C   UNL A   1      30.163  29.592  22.048  1.00  0.00     0.004 A 
ATOM     22  C   UNL A   1      29.227  30.559  22.410  1.00  0.00     0.000 A 
ATOM     23  C   UNL A   1      27.930  28.868  23.536  1.00  0.00     0.014 A 
ATOM     24  C   UNL A   1      28.093  30.193  23.125  1.00  0.00     0.001 A 
ENDBRANCH  15  18
ENDBRANCH   9  14
BRANCH  12  25
ATOM     25  N   UNL A   1      34.489  25.051  24.111  1.00  0.00    -0.322 N 
ATOM     26  C   UNL A   1      34.918  23.749  24.168  1.00  0.00     0.255 C 
ATOM     27  H   UNL A   1      35.105  25.662  23.649  1.00  0.00     0.170 HD
ATOM     28  O   UNL A   1      36.067  23.456  23.845  1.00  0.00    -0.269 OA
BRANCH  26  29
ATOM     29  C   UNL A   1      34.006  22.651  24.552  1.00  0.00     0.043 A 
ATOM     30  C   UNL A   1      33.309  22.053  23.491  1.00  0.00     0.014 A 
ATOM     31  C   UNL A   1      33.767  22.248  25.881  1.00  0.00    -0.038 A 
ATOM     32  C   UNL A   1      32.422  21.009  23.732  1.00  0.00     0.001 A 
ATOM     33  C   UNL A   1      32.892  21.170  26.098  1.00  0.00     0.004 A 
ATOM     34  C   UNL A   1      34.399  22.893  27.084  1.00  0.00     0.045 C 
ATOM     35  C   UNL A   1      32.227  20.558  25.034  1.00  0.00     0.000 A 
ENDBRANCH  26  29
ENDBRANCH  12  25
ENDBRANCH   5   8
ENDBRANCH   3   4
ENDBRANCH   2   3
ENDBRANCH   1   2
BRANCH   1  36
ATOM     36  C   UNL A   1      34.514  32.987  28.064  1.00  0.00     0.116 C 
BRANCH  36  37
ATOM     37  N   UNL A   1      33.824  33.792  29.055  1.00  0.00    -0.352 N 
ATOM     38  C   UNL A   1      34.224  34.122  30.346  1.00  0.00     0.251 C 
ATOM     39  H   UNL A   1      32.953  34.156  28.775  1.00  0.00     0.163 HD
ATOM     40  O   UNL A   1      33.427  34.597  31.134  1.00  0.00    -0.269 OA
BRANCH  38  41
ATOM     41  C   UNL A   1      35.661  33.999  30.730  1.00  0.00     0.039 A 
ATOM     42  C   UNL A   1      36.626  34.290  29.753  1.00  0.00     0.014 A 
ATOM     43  C   UNL A   1      36.051  33.413  31.927  1.00  0.00     0.014 A 
ATOM     44  C   UNL A   1      37.912  33.764  29.875  1.00  0.00     0.010 A 
ATOM     45  C   UNL A   1      37.274  32.780  31.990  1.00  0.00     0.010 A 
ATOM     46  C   UNL A   1      38.183  32.909  30.937  1.00  0.00    -0.014 A 
BRANCH  46  47
ATOM     47  C   UNL A   1      39.331  32.015  31.012  1.00  0.00     0.031 A 
ATOM     48  C   UNL A   1      39.262  30.669  30.414  1.00  0.00     0.074 A 
ATOM     49  C   UNL A   1      40.509  32.509  31.450  1.00  0.00     0.049 A 
ATOM     50  N   UNL A   1      40.125  29.735  30.611  1.00  0.00    -0.248 NA
ATOM     51  C   UNL A   1      38.155  30.251  29.564  1.00  0.00     0.031 C 
ATOM     52  C   UNL A   1      41.843  31.948  31.257  1.00  0.00     0.029 A 
ATOM     53  N   UNL A   1      40.688  33.514  32.398  1.00  0.00    -0.354 N 
ATOM     54  C   UNL A   1      39.881  28.736  29.695  1.00  0.00     0.074 A 
ATOM     55  C   UNL A   1      38.590  29.063  29.142  1.00  0.00     0.031 C 
ATOM     56  C   UNL A   1      42.651  32.413  32.223  1.00  0.00     0.029 A 
ATOM     57  C   UNL A   1      41.818  33.152  33.154  1.00  0.00     0.049 A 
ATOM     58  H   UNL A   1      40.134  34.319  32.515  1.00  0.00     0.167 HD
ATOM     59  C   UNL A   1      40.876  27.842  29.424  1.00  0.00     0.034 A 
ATOM     60  C   UNL A   1      41.692  32.866  34.483  1.00  0.00     0.034 A 
ATOM     61  C   UNL A   1      41.988  27.996  30.372  1.00  0.00     0.049 A 
ATOM     62  C   UNL A   1      42.095  31.452  34.836  1.00  0.00     0.074 A 
ATOM     63  C   UNL A   1      43.253  28.553  30.283  1.00  0.00     0.029 A 
ATOM     64  N   UNL A   1      41.751  27.793  31.730  1.00  0.00    -0.354 N 
ATOM     65  N   UNL A   1      42.202  30.473  33.978  1.00  0.00    -0.248 NA
ATOM     66  C   UNL A   1      42.423  31.040  36.193  1.00  0.00     0.031 C 
ATOM     67  C   UNL A   1      43.748  28.736  31.605  1.00  0.00     0.029 A 
ATOM     68  C   UNL A   1      42.801  28.261  32.497  1.00  0.00     0.049 A 
ATOM     69  H   UNL A   1      40.941  27.371  32.097  1.00  0.00     0.167 HD
ATOM     70  C   UNL A   1      42.600  29.326  34.624  1.00  0.00     0.074 A 
ATOM     71  C   UNL A   1      42.740  29.748  36.009  1.00  0.00     0.031 C 
ATOM     72  C   UNL A   1      42.771  28.141  33.954  1.00  0.00     0.034 A 
BRANCH  59  73
ATOM     73  C   UNL A   1      40.983  27.027  28.143  1.00  0.00     0.023 A 
ATOM     74  C   UNL A   1      41.043  25.617  28.234  1.00  0.00     0.031 A 
ATOM     75  C   UNL A   1      41.109  27.536  26.834  1.00  0.00     0.131 A 
ATOM     76  C   UNL A   1      41.312  24.811  27.108  1.00  0.00     0.055 A 
ATOM     77  C   UNL A   1      41.414  26.739  25.721  1.00  0.00     0.041 A 
ATOM     78  F   UNL A   1      40.892  28.819  26.540  1.00  0.00    -0.206 F 
ATOM     79  C   UNL A   1      41.530  25.369  25.854  1.00  0.00     0.022 A 
BRANCH  76  80
ATOM     80  S   UNL A   1      41.383  23.009  27.303  1.00  0.00     0.124 S 
ATOM     81  O   UNL A   1      39.972  22.657  27.430  1.00  0.00    -0.237 OA
ATOM     82  O   UNL A   1      42.048  22.590  26.074  1.00  0.00    -0.237 OA
ATOM     83  O   UNL A   1      42.174  22.831  28.520  1.00  0.00    -0.744 OA
ENDBRANCH  76  80
ENDBRANCH  59  73
BRANCH  60  84
ATOM     84  C   UNL A   1      40.631  33.679  35.147  1.00  0.00     0.023 A 
ATOM     85  C   UNL A   1      39.535  32.962  35.678  1.00  0.00     0.031 A 
ATOM     86  C   UNL A   1      40.876  34.965  35.646  1.00  0.00     0.131 A 
ATOM     87  C   UNL A   1      38.861  33.441  36.809  1.00  0.00     0.055 A 
ATOM     88  C   UNL A   1      40.132  35.481  36.717  1.00  0.00     0.041 A 
ATOM     89  F   UNL A   1      41.920  35.682  35.206  1.00  0.00    -0.206 F 
ATOM     90  C   UNL A   1      39.155  34.698  37.338  1.00  0.00     0.022 A 
BRANCH  87  91
ATOM     91  S   UNL A   1      37.824  32.268  37.737  1.00  0.00     0.124 S 
ATOM     92  O   UNL A   1      38.525  32.191  39.013  1.00  0.00    -0.237 OA
ATOM     93  O   UNL A   1      36.524  32.939  37.760  1.00  0.00    -0.237 OA
ATOM     94  O   UNL A   1      37.860  31.056  36.923  1.00  0.00    -0.744 OA
ENDBRANCH  87  91
ENDBRANCH  60  84
BRANCH  72  95
ATOM     95  C   UNL A   1      43.000  26.764  34.572  1.00  0.00     0.023 A 
ATOM     96  C   UNL A   1      44.264  26.223  34.842  1.00  0.00     0.031 A 
ATOM     97  C   UNL A   1      41.909  25.944  34.967  1.00  0.00     0.131 A 
ATOM     98  C   UNL A   1      44.419  24.937  35.398  1.00  0.00     0.055 A 
ATOM     99  C   UNL A   1      42.062  24.693  35.577  1.00  0.00     0.041 A 
ATOM    100  F   UNL A   1      40.634  26.321  34.794  1.00  0.00    -0.206 F 
ATOM    101  C   UNL A   1      43.326  24.173  35.786  1.00  0.00     0.022 A 
BRANCH  98 102
ATOM    102  S   UNL A   1      46.099  24.273  35.554  1.00  0.00     0.124 S 
ATOM    103  O   UNL A   1      46.813  25.015  34.519  1.00  0.00    -0.237 OA
ATOM    104  O   UNL A   1      46.444  24.618  36.930  1.00  0.00    -0.237 OA
ATOM    105  O   UNL A   1      45.932  22.846  35.294  1.00  0.00    -0.744 OA
ENDBRANCH  98 102
ENDBRANCH  72  95
ENDBRANCH  46  47
ENDBRANCH  38  41
ENDBRANCH  36  37
ENDBRANCH   1  36
TORSDOF 18
ENDMDL
