MODEL 1
REMARK VINA RESULT:     -12.7      0.000      0.000
REMARK SMILES Cc1ccc(NC(=O)C[C@@H](C(=O)NCCCCNC(=O)c2ccc(-c3c4nc(c(-c5cc(S(=O)(=O)[O-])ccc5F)c5ccc([nH]5)c(-c5cc(S(=O)(=O)[O-])ccc5F)c5nc(c(-c6cc(S(=O)(=O)[O-])ccc6F)c6ccc3[nH]6)C=C5)C=C4)cc2)[NH+]2CCOCC2)cc1
REMARK SMILES IDX 15 1 14 2 13 3 11 4 12 5 10 7 9 8 7 9 6 10 8 12 5 13 1 14
REMARK SMILES IDX 2 15 3 16 91 17 4 18 90 19 84 20 85 21 89 22 86 24 88 25
REMARK SMILES IDX 87 26 16 27 17 28 18 29 19 30 20 32 21 33 22 34 83 35 23 36
REMARK SMILES IDX 82 37 24 38 25 39 26 40 76 41 27 42 81 43 75 44 77 45 28 46
REMARK SMILES IDX 80 47 74 48 73 49 29 51 61 52 41 53 60 54 42 55 45 56 59 57
REMARK SMILES IDX 78 58 43 59 44 60 58 62 79 63 46 64 30 65 31 66 39 67 32 68
REMARK SMILES IDX 38 69 40 70 37 71 33 72 34 73 35 74 36 75 62 76 63 77 71 78
REMARK SMILES IDX 64 79 70 80 72 81 69 82 65 83 66 84 67 85 68 86 47 87 48 88
REMARK SMILES IDX 56 89 49 90 55 91 57 92 54 93 50 94 51 95 52 96 53 97
REMARK H PARENT 13 6 6 11 84 23 18 31 77 50 45 61
REMARK Flexibility Score: inf
ROOT
ATOM      1  C   UNL A   1      33.650  29.775  27.119  1.00  0.00     0.023 C 
ENDROOT
BRANCH   1   2
ATOM      2  C   UNL A   1      32.416  29.466  26.251  1.00  0.00     0.116 C 
BRANCH   2   3
ATOM      3  N   UNL A   1      32.745  29.111  24.875  1.00  0.00    -0.351 N 
ATOM      4  C   UNL A   1      32.025  28.996  23.730  1.00  0.00     0.278 C 
ATOM      5  O   UNL A   1      32.714  28.864  22.708  1.00  0.00    -0.268 OA
ATOM      6  H   UNL A   1      33.700  28.910  24.750  1.00  0.00     0.163 HD
BRANCH   4   7
ATOM      7  C   UNL A   1      30.458  29.087  23.669  1.00  0.00     0.283 C 
BRANCH   7   8
ATOM      8  C   UNL A   1      29.753  27.892  22.989  1.00  0.00     0.175 C 
BRANCH   8   9
ATOM      9  C   UNL A   1      28.817  26.970  23.722  1.00  0.00     0.230 C 
ATOM     10  N   UNL A   1      29.199  25.781  24.269  1.00  0.00    -0.326 N 
ATOM     11  H   UNL A   1      28.471  25.299  24.725  1.00  0.00     0.169 HD
ATOM     12  O   UNL A   1      27.619  27.269  23.793  1.00  0.00    -0.274 OA
BRANCH  10  13
ATOM     13  C   UNL A   1      30.431  25.113  24.309  1.00  0.00     0.041 A 
ATOM     14  C   UNL A   1      33.640  22.288  24.715  1.00  0.00     0.044 C 
ATOM     15  C   UNL A   1      32.606  23.347  24.481  1.00  0.00    -0.051 A 
ATOM     16  C   UNL A   1      32.455  24.380  25.409  1.00  0.00     0.005 A 
ATOM     17  C   UNL A   1      31.737  23.286  23.389  1.00  0.00     0.005 A 
ATOM     18  C   UNL A   1      31.378  25.264  25.317  1.00  0.00     0.026 A 
ATOM     19  C   UNL A   1      30.672  24.185  23.290  1.00  0.00     0.026 A 
ENDBRANCH  10  13
ENDBRANCH   8   9
ENDBRANCH   7   8
BRANCH   7  20
ATOM     20  N   UNL A   1      30.075  30.379  22.985  1.00  0.00    -0.320 N 
ATOM     21  C   UNL A   1      29.238  31.286  23.803  1.00  0.00     0.291 C 
ATOM     22  C   UNL A   1      29.570  30.361  21.603  1.00  0.00     0.291 C 
ATOM     23  H   UNL A   1      31.022  30.746  22.889  1.00  0.00     0.348 HD
ATOM     24  C   UNL A   1      27.721  31.139  23.584  1.00  0.00     0.221 C 
ATOM     25  C   UNL A   1      28.053  30.209  21.463  1.00  0.00     0.221 C 
ATOM     26  O   UNL A   1      27.370  31.227  22.197  1.00  0.00    -0.370 OA
ENDBRANCH   7  20
ENDBRANCH   4   7
ENDBRANCH   2   3
ENDBRANCH   1   2
BRANCH   1  27
ATOM     27  C   UNL A   1      33.788  31.203  27.645  1.00  0.00     0.023 C 
BRANCH  27  28
ATOM     28  C   UNL A   1      35.227  31.671  27.813  1.00  0.00     0.116 C 
BRANCH  28  29
ATOM     29  N   UNL A   1      35.582  31.981  29.201  1.00  0.00    -0.352 N 
ATOM     30  C   UNL A   1      36.337  31.219  30.078  1.00  0.00     0.251 C 
ATOM     31  H   UNL A   1      35.242  32.835  29.554  1.00  0.00     0.163 HD
ATOM     32  O   UNL A   1      36.592  31.580  31.223  1.00  0.00    -0.269 OA
BRANCH  30  33
ATOM     33  C   UNL A   1      36.934  29.977  29.546  1.00  0.00     0.039 A 
ATOM     34  C   UNL A   1      37.266  28.990  30.477  1.00  0.00     0.014 A 
ATOM     35  C   UNL A   1      37.494  29.992  28.271  1.00  0.00     0.014 A 
ATOM     36  C   UNL A   1      38.361  28.173  30.221  1.00  0.00     0.010 A 
ATOM     37  C   UNL A   1      38.643  29.250  28.063  1.00  0.00     0.010 A 
ATOM     38  C   UNL A   1      39.120  28.401  29.070  1.00  0.00    -0.014 A 
BRANCH  38  39
ATOM     39  C   UNL A   1      40.496  27.924  28.952  1.00  0.00     0.031 A 
ATOM     40  C   UNL A   1      40.785  26.560  28.473  1.00  0.00     0.074 A 
ATOM     41  C   UNL A   1      41.539  28.685  29.357  1.00  0.00     0.049 A 
ATOM     42  N   UNL A   1      41.722  25.819  28.963  1.00  0.00    -0.248 NA
ATOM     43  C   UNL A   1      40.011  25.909  27.423  1.00  0.00     0.031 C 
ATOM     44  C   UNL A   1      42.960  28.394  29.175  1.00  0.00     0.029 A 
ATOM     45  N   UNL A   1      41.518  29.757  30.244  1.00  0.00    -0.354 N 
ATOM     46  C   UNL A   1      41.861  24.740  28.128  1.00  0.00     0.074 A 
ATOM     47  C   UNL A   1      40.724  24.795  27.235  1.00  0.00     0.031 C 
ATOM     48  C   UNL A   1      43.662  29.065  30.101  1.00  0.00     0.029 A 
ATOM     49  C   UNL A   1      42.716  29.733  30.975  1.00  0.00     0.049 A 
ATOM     50  H   UNL A   1      40.791  30.414  30.343  1.00  0.00     0.167 HD
ATOM     51  C   UNL A   1      42.992  23.984  28.149  1.00  0.00     0.034 A 
ATOM     52  C   UNL A   1      42.729  29.695  32.336  1.00  0.00     0.034 A 
ATOM     53  C   UNL A   1      43.994  24.486  29.080  1.00  0.00     0.049 A 
ATOM     54  C   UNL A   1      43.437  28.493  32.912  1.00  0.00     0.074 A 
ATOM     55  C   UNL A   1      45.149  25.232  28.903  1.00  0.00     0.029 A 
ATOM     56  N   UNL A   1      43.748  24.470  30.448  1.00  0.00    -0.354 N 
ATOM     57  N   UNL A   1      43.796  27.448  32.221  1.00  0.00    -0.248 NA
ATOM     58  C   UNL A   1      43.752  28.356  34.329  1.00  0.00     0.031 C 
ATOM     59  C   UNL A   1      45.596  25.667  30.176  1.00  0.00     0.029 A 
ATOM     60  C   UNL A   1      44.724  25.174  31.130  1.00  0.00     0.049 A 
ATOM     61  H   UNL A   1      42.983  24.019  30.873  1.00  0.00     0.167 HD
ATOM     62  C   UNL A   1      44.325  26.494  33.060  1.00  0.00     0.074 A 
ATOM     63  C   UNL A   1      44.301  27.130  34.365  1.00  0.00     0.031 C 
ATOM     64  C   UNL A   1      44.703  25.264  32.587  1.00  0.00     0.034 A 
BRANCH  51  65
ATOM     65  C   UNL A   1      43.275  22.990  27.055  1.00  0.00     0.023 A 
ATOM     66  C   UNL A   1      42.747  21.688  27.130  1.00  0.00     0.031 A 
ATOM     67  C   UNL A   1      44.099  23.264  25.947  1.00  0.00     0.131 A 
ATOM     68  C   UNL A   1      43.125  20.699  26.205  1.00  0.00     0.055 A 
ATOM     69  C   UNL A   1      44.520  22.268  25.058  1.00  0.00     0.041 A 
ATOM     70  F   UNL A   1      44.530  24.511  25.696  1.00  0.00    -0.206 F 
ATOM     71  C   UNL A   1      44.044  20.970  25.196  1.00  0.00     0.022 A 
BRANCH  68  72
ATOM     72  S   UNL A   1      42.396  19.045  26.351  1.00  0.00     0.124 S 
ATOM     73  O   UNL A   1      41.093  19.221  25.716  1.00  0.00    -0.237 OA
ATOM     74  O   UNL A   1      43.358  18.221  25.629  1.00  0.00    -0.237 OA
ATOM     75  O   UNL A   1      42.351  18.820  27.795  1.00  0.00    -0.744 OA
ENDBRANCH  68  72
ENDBRANCH  51  65
BRANCH  52  76
ATOM     76  C   UNL A   1      41.580  30.398  32.965  1.00  0.00     0.023 A 
ATOM     77  C   UNL A   1      41.629  31.806  32.999  1.00  0.00     0.031 A 
ATOM     78  C   UNL A   1      40.340  29.775  33.157  1.00  0.00     0.131 A 
ATOM     79  C   UNL A   1      40.445  32.550  33.064  1.00  0.00     0.055 A 
ATOM     80  C   UNL A   1      39.163  30.525  33.277  1.00  0.00     0.041 A 
ATOM     81  F   UNL A   1      40.230  28.440  33.102  1.00  0.00    -0.206 F 
ATOM     82  C   UNL A   1      39.206  31.916  33.185  1.00  0.00     0.022 A 
BRANCH  79  83
ATOM     83  S   UNL A   1      40.514  34.329  32.711  1.00  0.00     0.124 S 
ATOM     84  O   UNL A   1      39.354  34.518  31.850  1.00  0.00    -0.237 OA
ATOM     85  O   UNL A   1      40.421  34.924  34.044  1.00  0.00    -0.237 OA
ATOM     86  O   UNL A   1      41.817  34.490  32.072  1.00  0.00    -0.744 OA
ENDBRANCH  79  83
ENDBRANCH  52  76
BRANCH  64  87
ATOM     87  C   UNL A   1      45.157  24.054  33.395  1.00  0.00     0.023 A 
ATOM     88  C   UNL A   1      46.439  23.898  33.939  1.00  0.00     0.031 A 
ATOM     89  C   UNL A   1      44.259  22.988  33.677  1.00  0.00     0.131 A 
ATOM     90  C   UNL A   1      46.802  22.746  34.667  1.00  0.00     0.055 A 
ATOM     91  C   UNL A   1      44.604  21.866  34.441  1.00  0.00     0.041 A 
ATOM     92  F   UNL A   1      42.994  22.985  33.234  1.00  0.00    -0.206 F 
ATOM     93  C   UNL A   1      45.888  21.734  34.936  1.00  0.00     0.022 A 
BRANCH  90  94
ATOM     94  S   UNL A   1      48.520  22.587  35.225  1.00  0.00     0.124 S 
ATOM     95  O   UNL A   1      49.187  23.630  34.451  1.00  0.00    -0.237 OA
ATOM     96  O   UNL A   1      48.405  22.839  36.658  1.00  0.00    -0.237 OA
ATOM     97  O   UNL A   1      48.878  21.218  34.862  1.00  0.00    -0.744 OA
ENDBRANCH  90  94
ENDBRANCH  64  87
ENDBRANCH  38  39
ENDBRANCH  30  33
ENDBRANCH  28  29
ENDBRANCH  27  28
ENDBRANCH   1  27
TORSDOF 18
ENDMDL
MODEL 2
REMARK VINA RESULT:     -12.6      1.098      3.179
REMARK SMILES Cc1ccc(NC(=O)C[C@@H](C(=O)NCCCCNC(=O)c2ccc(-c3c4nc(c(-c5cc(S(=O)(=O)[O-])ccc5F)c5ccc([nH]5)c(-c5cc(S(=O)(=O)[O-])ccc5F)c5nc(c(-c6cc(S(=O)(=O)[O-])ccc6F)c6ccc3[nH]6)C=C5)C=C4)cc2)[NH+]2CCOCC2)cc1
REMARK SMILES IDX 15 1 14 2 13 3 11 4 12 5 10 7 9 8 7 9 6 10 8 12 5 13 1 14
REMARK SMILES IDX 2 15 3 16 91 17 4 18 90 19 84 20 85 21 89 22 86 24 88 25
REMARK SMILES IDX 87 26 16 27 17 28 18 29 19 30 20 32 21 33 22 34 83 35 23 36
REMARK SMILES IDX 82 37 24 38 25 39 26 40 76 41 27 42 81 43 75 44 77 45 28 46
REMARK SMILES IDX 80 47 74 48 73 49 29 51 61 52 41 53 60 54 42 55 45 56 59 57
REMARK SMILES IDX 78 58 43 59 44 60 58 62 79 63 46 64 30 65 31 66 39 67 32 68
REMARK SMILES IDX 38 69 40 70 37 71 33 72 34 73 35 74 36 75 62 76 63 77 71 78
REMARK SMILES IDX 64 79 70 80 72 81 69 82 65 83 66 84 67 85 68 86 47 87 48 88
REMARK SMILES IDX 56 89 49 90 55 91 57 92 54 93 50 94 51 95 52 96 53 97
REMARK H PARENT 13 6 6 11 84 23 18 31 77 50 45 61
REMARK Flexibility Score: inf
ROOT
ATOM      1  C   UNL A   1      32.707  31.080  26.910  1.00  0.00     0.023 C 
ENDROOT
BRANCH   1   2
ATOM      2  C   UNL A   1      32.021  30.212  25.839  1.00  0.00     0.116 C 
BRANCH   2   3
ATOM      3  N   UNL A   1      32.928  29.752  24.794  1.00  0.00    -0.351 N 
ATOM      4  C   UNL A   1      33.031  28.609  24.067  1.00  0.00     0.278 C 
ATOM      5  O   UNL A   1      33.829  28.680  23.120  1.00  0.00    -0.268 OA
ATOM      6  H   UNL A   1      33.619  30.415  24.567  1.00  0.00     0.163 HD
BRANCH   4   7
ATOM      7  C   UNL A   1      32.177  27.320  24.337  1.00  0.00     0.283 C 
BRANCH   7   8
ATOM      8  C   UNL A   1      30.674  27.566  24.599  1.00  0.00     0.175 C 
BRANCH   8   9
ATOM      9  C   UNL A   1      29.587  26.960  23.752  1.00  0.00     0.230 C 
ATOM     10  N   UNL A   1      28.693  27.693  23.028  1.00  0.00    -0.326 N 
ATOM     11  H   UNL A   1      28.051  27.148  22.519  1.00  0.00     0.169 HD
ATOM     12  O   UNL A   1      29.452  25.731  23.746  1.00  0.00    -0.274 OA
BRANCH  10  13
ATOM     13  C   UNL A   1      28.515  29.074  22.870  1.00  0.00     0.041 A 
ATOM     14  C   UNL A   1      28.766  33.360  22.992  1.00  0.00     0.044 C 
ATOM     15  C   UNL A   1      28.609  31.879  22.822  1.00  0.00    -0.051 A 
ATOM     16  C   UNL A   1      27.576  31.215  23.488  1.00  0.00     0.005 A 
ATOM     17  C   UNL A   1      29.518  31.134  22.068  1.00  0.00     0.005 A 
ATOM     18  C   UNL A   1      27.525  29.820  23.503  1.00  0.00     0.026 A 
ATOM     19  C   UNL A   1      29.451  29.738  22.070  1.00  0.00     0.026 A 
ENDBRANCH  10  13
ENDBRANCH   8   9
ENDBRANCH   7   8
BRANCH   7  20
ATOM     20  N   UNL A   1      32.792  26.565  25.493  1.00  0.00    -0.320 N 
ATOM     21  C   UNL A   1      34.015  25.803  25.152  1.00  0.00     0.291 C 
ATOM     22  C   UNL A   1      31.943  25.756  26.382  1.00  0.00     0.291 C 
ATOM     23  H   UNL A   1      33.019  27.383  26.059  1.00  0.00     0.348 HD
ATOM     24  C   UNL A   1      33.775  24.327  24.784  1.00  0.00     0.221 C 
ATOM     25  C   UNL A   1      31.746  24.300  25.950  1.00  0.00     0.221 C 
ATOM     26  O   UNL A   1      33.006  23.645  25.784  1.00  0.00    -0.370 OA
ENDBRANCH   7  20
ENDBRANCH   4   7
ENDBRANCH   2   3
ENDBRANCH   1   2
BRANCH   1  27
ATOM     27  C   UNL A   1      33.918  30.478  27.621  1.00  0.00     0.023 C 
BRANCH  27  28
ATOM     28  C   UNL A   1      35.149  31.373  27.628  1.00  0.00     0.116 C 
BRANCH  28  29
ATOM     29  N   UNL A   1      35.553  31.802  28.971  1.00  0.00    -0.352 N 
ATOM     30  C   UNL A   1      36.361  31.131  29.873  1.00  0.00     0.251 C 
ATOM     31  H   UNL A   1      35.205  32.674  29.267  1.00  0.00     0.163 HD
ATOM     32  O   UNL A   1      36.653  31.589  30.973  1.00  0.00    -0.269 OA
BRANCH  30  33
ATOM     33  C   UNL A   1      36.968  29.864  29.417  1.00  0.00     0.039 A 
ATOM     34  C   UNL A   1      37.315  28.941  30.407  1.00  0.00     0.014 A 
ATOM     35  C   UNL A   1      37.521  29.803  28.141  1.00  0.00     0.014 A 
ATOM     36  C   UNL A   1      38.417  28.120  30.197  1.00  0.00     0.010 A 
ATOM     37  C   UNL A   1      38.676  29.061  27.973  1.00  0.00     0.010 A 
ATOM     38  C   UNL A   1      39.168  28.282  29.029  1.00  0.00    -0.014 A 
BRANCH  38  39
ATOM     39  C   UNL A   1      40.548  27.813  28.933  1.00  0.00     0.031 A 
ATOM     40  C   UNL A   1      40.852  26.451  28.456  1.00  0.00     0.074 A 
ATOM     41  C   UNL A   1      41.580  28.578  29.357  1.00  0.00     0.049 A 
ATOM     42  N   UNL A   1      41.785  25.713  28.960  1.00  0.00    -0.248 NA
ATOM     43  C   UNL A   1      40.099  25.798  27.392  1.00  0.00     0.031 C 
ATOM     44  C   UNL A   1      43.005  28.294  29.198  1.00  0.00     0.029 A 
ATOM     45  N   UNL A   1      41.539  29.647  30.246  1.00  0.00    -0.354 N 
ATOM     46  C   UNL A   1      41.942  24.637  28.125  1.00  0.00     0.074 A 
ATOM     47  C   UNL A   1      40.821  24.688  27.213  1.00  0.00     0.031 C 
ATOM     48  C   UNL A   1      43.688  28.966  30.137  1.00  0.00     0.029 A 
ATOM     49  C   UNL A   1      42.725  29.628  30.996  1.00  0.00     0.049 A 
ATOM     50  H   UNL A   1      40.807  30.300  30.334  1.00  0.00     0.167 HD
ATOM     51  C   UNL A   1      43.077  23.887  28.164  1.00  0.00     0.034 A 
ATOM     52  C   UNL A   1      42.715  29.586  32.358  1.00  0.00     0.034 A 
ATOM     53  C   UNL A   1      44.061  24.392  29.112  1.00  0.00     0.049 A 
ATOM     54  C   UNL A   1      43.419  28.387  32.943  1.00  0.00     0.074 A 
ATOM     55  C   UNL A   1      45.215  25.144  28.956  1.00  0.00     0.029 A 
ATOM     56  N   UNL A   1      43.791  24.371  30.476  1.00  0.00    -0.354 N 
ATOM     57  N   UNL A   1      43.795  27.346  32.256  1.00  0.00    -0.248 NA
ATOM     58  C   UNL A   1      43.711  28.249  34.365  1.00  0.00     0.031 C 
ATOM     59  C   UNL A   1      45.638  25.578  30.238  1.00  0.00     0.029 A 
ATOM     60  C   UNL A   1      44.753  25.079  31.175  1.00  0.00     0.049 A 
ATOM     61  H   UNL A   1      43.022  23.916  30.887  1.00  0.00     0.167 HD
ATOM     62  C   UNL A   1      44.314  26.392  33.102  1.00  0.00     0.074 A 
ATOM     63  C   UNL A   1      44.265  27.026  34.407  1.00  0.00     0.031 C 
ATOM     64  C   UNL A   1      44.706  25.165  32.632  1.00  0.00     0.034 A 
BRANCH  51  65
ATOM     65  C   UNL A   1      43.383  22.896  27.073  1.00  0.00     0.023 A 
ATOM     66  C   UNL A   1      42.805  21.614  27.099  1.00  0.00     0.031 A 
ATOM     67  C   UNL A   1      44.276  23.153  26.015  1.00  0.00     0.131 A 
ATOM     68  C   UNL A   1      43.196  20.624  26.183  1.00  0.00     0.055 A 
ATOM     69  C   UNL A   1      44.709  22.153  25.136  1.00  0.00     0.041 A 
ATOM     70  F   UNL A   1      44.766  24.387  25.806  1.00  0.00    -0.206 F 
ATOM     71  C   UNL A   1      44.179  20.873  25.229  1.00  0.00     0.022 A 
BRANCH  68  72
ATOM     72  S   UNL A   1      42.401  18.996  26.264  1.00  0.00     0.124 S 
ATOM     73  O   UNL A   1      43.248  18.190  25.390  1.00  0.00    -0.237 OA
ATOM     74  O   UNL A   1      42.471  18.691  27.689  1.00  0.00    -0.237 OA
ATOM     75  O   UNL A   1      41.055  19.250  25.754  1.00  0.00    -0.744 OA
ENDBRANCH  68  72
ENDBRANCH  51  65
BRANCH  52  76
ATOM     76  C   UNL A   1      41.552  30.283  32.969  1.00  0.00     0.023 A 
ATOM     77  C   UNL A   1      41.588  31.691  32.995  1.00  0.00     0.031 A 
ATOM     78  C   UNL A   1      40.316  29.650  33.150  1.00  0.00     0.131 A 
ATOM     79  C   UNL A   1      40.396  32.424  33.041  1.00  0.00     0.055 A 
ATOM     80  C   UNL A   1      39.131  30.389  33.252  1.00  0.00     0.041 A 
ATOM     81  F   UNL A   1      40.219  28.313  33.102  1.00  0.00    -0.206 F 
ATOM     82  C   UNL A   1      39.162  31.780  33.151  1.00  0.00     0.022 A 
BRANCH  79  83
ATOM     83  S   UNL A   1      40.453  34.202  32.679  1.00  0.00     0.124 S 
ATOM     84  O   UNL A   1      40.558  34.217  31.227  1.00  0.00    -0.237 OA
ATOM     85  O   UNL A   1      39.185  34.682  33.230  1.00  0.00    -0.237 OA
ATOM     86  O   UNL A   1      41.634  34.652  33.411  1.00  0.00    -0.744 OA
ENDBRANCH  79  83
ENDBRANCH  52  76
BRANCH  64  87
ATOM     87  C   UNL A   1      45.153  23.955  33.445  1.00  0.00     0.023 A 
ATOM     88  C   UNL A   1      46.447  23.773  33.952  1.00  0.00     0.031 A 
ATOM     89  C   UNL A   1      44.236  22.919  33.772  1.00  0.00     0.131 A 
ATOM     90  C   UNL A   1      46.802  22.622  34.686  1.00  0.00     0.055 A 
ATOM     91  C   UNL A   1      44.575  21.800  34.542  1.00  0.00     0.041 A 
ATOM     92  F   UNL A   1      42.958  22.944  33.369  1.00  0.00    -0.206 F 
ATOM     93  C   UNL A   1      45.870  21.640  35.000  1.00  0.00     0.022 A 
BRANCH  90  94
ATOM     94  S   UNL A   1      48.531  22.426  35.193  1.00  0.00     0.124 S 
ATOM     95  O   UNL A   1      49.246  23.039  34.077  1.00  0.00    -0.237 OA
ATOM     96  O   UNL A   1      48.572  23.164  36.452  1.00  0.00    -0.237 OA
ATOM     97  O   UNL A   1      48.694  20.979  35.317  1.00  0.00    -0.744 OA
ENDBRANCH  90  94
ENDBRANCH  64  87
ENDBRANCH  38  39
ENDBRANCH  30  33
ENDBRANCH  28  29
ENDBRANCH  27  28
ENDBRANCH   1  27
TORSDOF 18
ENDMDL
MODEL 3
REMARK VINA RESULT:     -12.5      1.670      2.592
REMARK SMILES Cc1ccc(NC(=O)C[C@@H](C(=O)NCCCCNC(=O)c2ccc(-c3c4nc(c(-c5cc(S(=O)(=O)[O-])ccc5F)c5ccc([nH]5)c(-c5cc(S(=O)(=O)[O-])ccc5F)c5nc(c(-c6cc(S(=O)(=O)[O-])ccc6F)c6ccc3[nH]6)C=C5)C=C4)cc2)[NH+]2CCOCC2)cc1
REMARK SMILES IDX 15 1 14 2 13 3 11 4 12 5 10 7 9 8 7 9 6 10 8 12 5 13 1 14
REMARK SMILES IDX 2 15 3 16 91 17 4 18 90 19 84 20 85 21 89 22 86 24 88 25
REMARK SMILES IDX 87 26 16 27 17 28 18 29 19 30 20 32 21 33 22 34 83 35 23 36
REMARK SMILES IDX 82 37 24 38 25 39 26 40 76 41 27 42 81 43 75 44 77 45 28 46
REMARK SMILES IDX 80 47 74 48 73 49 29 51 61 52 41 53 60 54 42 55 45 56 59 57
REMARK SMILES IDX 78 58 43 59 44 60 58 62 79 63 46 64 30 65 31 66 39 67 32 68
REMARK SMILES IDX 38 69 40 70 37 71 33 72 34 73 35 74 36 75 62 76 63 77 71 78
REMARK SMILES IDX 64 79 70 80 72 81 69 82 65 83 66 84 67 85 68 86 47 87 48 88
REMARK SMILES IDX 56 89 49 90 55 91 57 92 54 93 50 94 51 95 52 96 53 97
REMARK H PARENT 13 6 6 11 84 23 18 31 77 50 45 61
REMARK Flexibility Score: inf
ROOT
ATOM      1  C   UNL A   1      34.100  29.317  27.516  1.00  0.00     0.023 C 
ENDROOT
BRANCH   1   2
ATOM      2  C   UNL A   1      34.029  28.569  26.172  1.00  0.00     0.116 C 
BRANCH   2   3
ATOM      3  N   UNL A   1      32.734  28.679  25.512  1.00  0.00    -0.351 N 
ATOM      4  C   UNL A   1      31.881  27.785  24.949  1.00  0.00     0.278 C 
ATOM      5  O   UNL A   1      30.769  28.255  24.664  1.00  0.00    -0.268 OA
ATOM      6  H   UNL A   1      32.407  29.606  25.462  1.00  0.00     0.163 HD
BRANCH   4   7
ATOM      7  C   UNL A   1      32.221  26.268  24.731  1.00  0.00     0.283 C 
BRANCH   7   8
ATOM      8  C   UNL A   1      32.577  25.480  26.012  1.00  0.00     0.175 C 
BRANCH   8   9
ATOM      9  C   UNL A   1      31.758  24.321  26.513  1.00  0.00     0.230 C 
ATOM     10  N   UNL A   1      32.214  23.037  26.562  1.00  0.00    -0.326 N 
ATOM     11  H   UNL A   1      31.560  22.396  26.925  1.00  0.00     0.169 HD
ATOM     12  O   UNL A   1      30.586  24.522  26.852  1.00  0.00    -0.274 OA
BRANCH  10  13
ATOM     13  C   UNL A   1      33.435  22.455  26.196  1.00  0.00     0.041 A 
ATOM     14  C   UNL A   1      37.246  21.474  24.475  1.00  0.00     0.044 C 
ATOM     15  C   UNL A   1      35.954  21.734  25.189  1.00  0.00    -0.051 A 
ATOM     16  C   UNL A   1      34.815  21.006  24.840  1.00  0.00     0.005 A 
ATOM     17  C   UNL A   1      35.845  22.741  26.151  1.00  0.00     0.005 A 
ATOM     18  C   UNL A   1      33.564  21.359  25.349  1.00  0.00     0.026 A 
ATOM     19  C   UNL A   1      34.593  23.079  26.672  1.00  0.00     0.026 A 
ENDBRANCH  10  13
ENDBRANCH   8   9
ENDBRANCH   7   8
BRANCH   7  20
ATOM     20  N   UNL A   1      33.342  26.163  23.723  1.00  0.00    -0.320 N 
ATOM     21  C   UNL A   1      33.028  26.724  22.389  1.00  0.00     0.291 C 
ATOM     22  C   UNL A   1      34.074  24.897  23.562  1.00  0.00     0.291 C 
ATOM     23  H   UNL A   1      34.003  26.760  24.222  1.00  0.00     0.348 HD
ATOM     24  C   UNL A   1      32.497  25.702  21.367  1.00  0.00     0.221 C 
ATOM     25  C   UNL A   1      33.486  23.929  22.531  1.00  0.00     0.221 C 
ATOM     26  O   UNL A   1      33.358  24.561  21.256  1.00  0.00    -0.370 OA
ENDBRANCH   7  20
ENDBRANCH   4   7
ENDBRANCH   2   3
ENDBRANCH   1   2
BRANCH   1  27
ATOM     27  C   UNL A   1      33.960  30.838  27.472  1.00  0.00     0.023 C 
BRANCH  27  28
ATOM     28  C   UNL A   1      35.274  31.593  27.619  1.00  0.00     0.116 C 
BRANCH  28  29
ATOM     29  N   UNL A   1      35.602  31.929  29.008  1.00  0.00    -0.352 N 
ATOM     30  C   UNL A   1      36.348  31.190  29.911  1.00  0.00     0.251 C 
ATOM     31  H   UNL A   1      35.248  32.787  29.339  1.00  0.00     0.163 HD
ATOM     32  O   UNL A   1      36.579  31.573  31.053  1.00  0.00    -0.269 OA
BRANCH  30  33
ATOM     33  C   UNL A   1      36.965  29.945  29.411  1.00  0.00     0.039 A 
ATOM     34  C   UNL A   1      37.297  28.980  30.365  1.00  0.00     0.014 A 
ATOM     35  C   UNL A   1      37.540  29.941  28.143  1.00  0.00     0.014 A 
ATOM     36  C   UNL A   1      38.404  28.171  30.139  1.00  0.00     0.010 A 
ATOM     37  C   UNL A   1      38.699  29.208  27.963  1.00  0.00     0.010 A 
ATOM     38  C   UNL A   1      39.174  28.384  28.992  1.00  0.00    -0.014 A 
BRANCH  38  39
ATOM     39  C   UNL A   1      40.557  27.922  28.900  1.00  0.00     0.031 A 
ATOM     40  C   UNL A   1      40.869  26.565  28.415  1.00  0.00     0.074 A 
ATOM     41  C   UNL A   1      41.584  28.689  29.334  1.00  0.00     0.049 A 
ATOM     42  N   UNL A   1      41.803  25.828  28.920  1.00  0.00    -0.248 NA
ATOM     43  C   UNL A   1      40.124  25.915  27.343  1.00  0.00     0.031 C 
ATOM     44  C   UNL A   1      43.011  28.412  29.180  1.00  0.00     0.029 A 
ATOM     45  N   UNL A   1      41.534  29.752  30.230  1.00  0.00    -0.354 N 
ATOM     46  C   UNL A   1      41.969  24.757  28.078  1.00  0.00     0.074 A 
ATOM     47  C   UNL A   1      40.851  24.809  27.161  1.00  0.00     0.031 C 
ATOM     48  C   UNL A   1      43.686  29.081  30.126  1.00  0.00     0.029 A 
ATOM     49  C   UNL A   1      42.716  29.733  30.985  1.00  0.00     0.049 A 
ATOM     50  H   UNL A   1      40.799  30.401  30.318  1.00  0.00     0.167 HD
ATOM     51  C   UNL A   1      43.107  24.012  28.117  1.00  0.00     0.034 A 
ATOM     52  C   UNL A   1      42.700  29.682  32.347  1.00  0.00     0.034 A 
ATOM     53  C   UNL A   1      44.084  24.515  29.074  1.00  0.00     0.049 A 
ATOM     54  C   UNL A   1      43.406  28.482  32.927  1.00  0.00     0.074 A 
ATOM     55  C   UNL A   1      45.235  25.273  28.928  1.00  0.00     0.029 A 
ATOM     56  N   UNL A   1      43.808  24.484  30.436  1.00  0.00    -0.354 N 
ATOM     57  N   UNL A   1      43.791  27.447  32.235  1.00  0.00    -0.248 NA
ATOM     58  C   UNL A   1      43.692  28.336  34.350  1.00  0.00     0.031 C 
ATOM     59  C   UNL A   1      45.650  25.701  30.214  1.00  0.00     0.029 A 
ATOM     60  C   UNL A   1      44.763  25.191  31.145  1.00  0.00     0.049 A 
ATOM     61  H   UNL A   1      43.039  24.023  30.840  1.00  0.00     0.167 HD
ATOM     62  C   UNL A   1      44.310  26.490  33.077  1.00  0.00     0.074 A 
ATOM     63  C   UNL A   1      44.252  27.115  34.387  1.00  0.00     0.031 C 
ATOM     64  C   UNL A   1      44.709  25.268  32.601  1.00  0.00     0.034 A 
BRANCH  51  65
ATOM     65  C   UNL A   1      43.422  23.030  27.021  1.00  0.00     0.023 A 
ATOM     66  C   UNL A   1      42.883  21.731  27.059  1.00  0.00     0.031 A 
ATOM     67  C   UNL A   1      44.288  23.312  25.947  1.00  0.00     0.131 A 
ATOM     68  C   UNL A   1      43.287  20.752  26.136  1.00  0.00     0.055 A 
ATOM     69  C   UNL A   1      44.734  22.325  25.061  1.00  0.00     0.041 A 
ATOM     70  F   UNL A   1      44.736  24.560  25.729  1.00  0.00    -0.206 F 
ATOM     71  C   UNL A   1      44.244  21.029  25.164  1.00  0.00     0.022 A 
BRANCH  68  72
ATOM     72  S   UNL A   1      42.542  19.101  26.233  1.00  0.00     0.124 S 
ATOM     73  O   UNL A   1      42.256  18.971  27.658  1.00  0.00    -0.237 OA
ATOM     74  O   UNL A   1      41.386  19.234  25.353  1.00  0.00    -0.237 OA
ATOM     75  O   UNL A   1      43.598  18.222  25.734  1.00  0.00    -0.744 OA
ENDBRANCH  68  72
ENDBRANCH  51  65
BRANCH  52  76
ATOM     76  C   UNL A   1      41.531  30.370  32.956  1.00  0.00     0.023 A 
ATOM     77  C   UNL A   1      41.550  31.778  32.971  1.00  0.00     0.031 A 
ATOM     78  C   UNL A   1      40.304  29.723  33.147  1.00  0.00     0.131 A 
ATOM     79  C   UNL A   1      40.350  32.498  33.016  1.00  0.00     0.055 A 
ATOM     80  C   UNL A   1      39.110  30.449  33.248  1.00  0.00     0.041 A 
ATOM     81  F   UNL A   1      40.223  28.386  33.111  1.00  0.00    -0.206 F 
ATOM     82  C   UNL A   1      39.124  31.840  33.136  1.00  0.00     0.022 A 
BRANCH  79  83
ATOM     83  S   UNL A   1      40.384  34.273  32.639  1.00  0.00     0.124 S 
ATOM     84  O   UNL A   1      39.018  34.678  32.942  1.00  0.00    -0.237 OA
ATOM     85  O   UNL A   1      41.413  34.774  33.550  1.00  0.00    -0.237 OA
ATOM     86  O   UNL A   1      40.763  34.305  31.229  1.00  0.00    -0.744 OA
ENDBRANCH  79  83
ENDBRANCH  52  76
BRANCH  64  87
ATOM     87  C   UNL A   1      45.157  24.055  33.409  1.00  0.00     0.023 A 
ATOM     88  C   UNL A   1      46.440  23.891  33.949  1.00  0.00     0.031 A 
ATOM     89  C   UNL A   1      44.253  22.995  33.694  1.00  0.00     0.131 A 
ATOM     90  C   UNL A   1      46.797  22.736  34.676  1.00  0.00     0.055 A 
ATOM     91  C   UNL A   1      44.592  21.872  34.457  1.00  0.00     0.041 A 
ATOM     92  F   UNL A   1      42.986  23.002  33.255  1.00  0.00    -0.206 F 
ATOM     93  C   UNL A   1      45.877  21.731  34.949  1.00  0.00     0.022 A 
BRANCH  90  94
ATOM     94  S   UNL A   1      48.515  22.565  35.229  1.00  0.00     0.124 S 
ATOM     95  O   UNL A   1      49.015  23.930  35.089  1.00  0.00    -0.237 OA
ATOM     96  O   UNL A   1      48.355  22.088  36.599  1.00  0.00    -0.237 OA
ATOM     97  O   UNL A   1      49.086  21.596  34.296  1.00  0.00    -0.744 OA
ENDBRANCH  90  94
ENDBRANCH  64  87
ENDBRANCH  38  39
ENDBRANCH  30  33
ENDBRANCH  28  29
ENDBRANCH  27  28
ENDBRANCH   1  27
TORSDOF 18
ENDMDL
