MODEL 1
REMARK VINA RESULT:     -13.2      0.000      0.000
REMARK SMILES [NH3+][C@@]1(C(=O)NCCCCNC(=O)c2ccc(-c3c4nc(c(-c5cc(S(=O)(=O)[O-])ccc5F)c5ccc([nH]5)c(-c5cc(S(=O)(=O)[O-])ccc5F)c5nc(c(-c6cc(S(=O)(=O)[O-])ccc6F)c6ccc3[nH]6)C=C5)C=C4)cc2)CC[N@H+](Cc2ccc(OCC(=O)N3CCCCC3)cc2)C1
REMARK SMILES IDX 6 1 5 2 3 3 4 4 2 6 76 7 96 8 77 9 78 10 1 12 79 16 80 17
REMARK SMILES IDX 81 18 95 19 82 20 94 21 83 22 84 23 85 24 86 25 87 26 88 27
REMARK SMILES IDX 89 28 93 29 90 30 92 31 91 32 7 33 8 34 9 35 10 36 11 37
REMARK SMILES IDX 12 39 13 40 14 41 75 42 15 43 74 44 16 45 17 46 18 47 68 48
REMARK SMILES IDX 19 49 73 50 67 51 69 52 20 53 72 54 66 55 65 56 21 58 53 59
REMARK SMILES IDX 33 60 52 61 34 62 37 63 51 64 70 65 35 66 36 67 50 69 71 70
REMARK SMILES IDX 38 71 22 72 23 73 31 74 24 75 30 76 32 77 29 78 25 79 26 80
REMARK SMILES IDX 27 81 28 82 54 83 55 84 63 85 56 86 62 87 64 88 61 89 57 90
REMARK SMILES IDX 58 91 59 92 60 93 39 94 40 95 48 96 41 97 47 98 49 99 46 100
REMARK SMILES IDX 42 101 43 102 44 103 45 104
REMARK H PARENT 5 5 78 11 1 13 1 14 1 15 10 38 69 57 37 68
REMARK Flexibility Score: inf
ROOT
ATOM      1  C   UNL A   1      33.445  27.535  25.628  1.00  0.00     0.116 C 
ENDROOT
BRANCH   1   2
ATOM      2  N   UNL A   1      33.918  26.790  24.341  1.00  0.00    -0.350 N 
ATOM      3  C   UNL A   1      33.275  26.450  23.193  1.00  0.00     0.287 C 
ATOM      4  O   UNL A   1      34.024  26.163  22.243  1.00  0.00    -0.268 OA
ATOM      5  H   UNL A   1      34.863  26.514  24.365  1.00  0.00     0.163 HD
BRANCH   3   6
ATOM      6  C   UNL A   1      31.707  26.323  23.014  1.00  0.00     0.228 C 
ATOM      7  C   UNL A   1      30.852  27.159  23.960  1.00  0.00     0.146 C 
ATOM      8  C   UNL A   1      31.190  24.882  23.193  1.00  0.00     0.342 C 
ATOM      9  C   UNL A   1      30.073  26.185  24.841  1.00  0.00     0.270 C 
ATOM     10  N   UNL A   1      30.351  24.821  24.398  1.00  0.00    -0.325 N 
ATOM     11  H   UNL A   1      29.476  24.369  24.132  1.00  0.00     0.348 HD
BRANCH   6  12
ATOM     12  N   UNL A   1      31.424  26.835  21.629  1.00  0.00    -0.340 N 
ATOM     13  H   UNL A   1      32.195  27.426  21.321  1.00  0.00     0.345 HD
ATOM     14  H   UNL A   1      30.560  27.378  21.637  1.00  0.00     0.345 HD
ATOM     15  H   UNL A   1      31.322  26.046  20.989  1.00  0.00     0.345 HD
ENDBRANCH   6  12
BRANCH  10  16
ATOM     16  C   UNL A   1      30.776  23.897  25.455  1.00  0.00     0.299 C 
BRANCH  16  17
ATOM     17  C   UNL A   1      32.175  23.364  25.271  1.00  0.00     0.006 A 
ATOM     18  C   UNL A   1      33.445  24.002  26.375  1.00  0.00     0.013 A 
ATOM     19  C   UNL A   1      32.480  21.855  24.292  1.00  0.00     0.013 A 
ATOM     20  C   UNL A   1      35.040  23.178  26.476  1.00  0.00     0.047 A 
ATOM     21  C   UNL A   1      34.072  21.020  24.424  1.00  0.00     0.047 A 
ATOM     22  C   UNL A   1      35.328  21.660  25.562  1.00  0.00     0.120 A 
BRANCH  22  23
ATOM     23  O   UNL A   1      36.560  21.136  25.802  1.00  0.00    -0.484 OA
BRANCH  23  24
ATOM     24  C   UNL A   1      37.654  21.708  25.125  1.00  0.00     0.329 C 
BRANCH  24  25
ATOM     25  C   UNL A   1      38.656  22.515  25.962  1.00  0.00     0.260 C 
ATOM     26  O   UNL A   1      38.477  23.730  26.090  1.00  0.00    -0.271 OA
ATOM     27  N   UNL A   1      39.689  21.853  26.620  1.00  0.00    -0.340 N 
ATOM     28  C   UNL A   1      40.465  22.582  27.618  1.00  0.00     0.119 C 
ATOM     29  C   UNL A   1      40.139  20.476  26.403  1.00  0.00     0.119 C 
ATOM     30  C   UNL A   1      41.921  22.677  27.185  1.00  0.00     0.022 C 
ATOM     31  C   UNL A   1      41.630  20.434  26.037  1.00  0.00     0.022 C 
ATOM     32  C   UNL A   1      42.506  21.283  26.961  1.00  0.00     0.004 C 
ENDBRANCH  24  25
ENDBRANCH  23  24
ENDBRANCH  22  23
ENDBRANCH  16  17
ENDBRANCH  10  16
ENDBRANCH   3   6
ENDBRANCH   1   2
BRANCH   1  33
ATOM     33  C   UNL A   1      33.990  29.418  26.578  1.00  0.00     0.023 C 
BRANCH  33  34
ATOM     34  C   UNL A   1      33.178  30.852  27.084  1.00  0.00     0.023 C 
BRANCH  34  35
ATOM     35  C   UNL A   1      33.971  32.040  27.625  1.00  0.00     0.116 C 
BRANCH  35  36
ATOM     36  N   UNL A   1      33.227  33.292  27.714  1.00  0.00    -0.352 N 
ATOM     37  C   UNL A   1      33.396  34.257  28.687  1.00  0.00     0.251 C 
ATOM     38  H   UNL A   1      32.547  33.462  27.023  1.00  0.00     0.163 HD
ATOM     39  O   UNL A   1      32.689  35.252  28.749  1.00  0.00    -0.269 OA
BRANCH  37  40
ATOM     40  C   UNL A   1      34.463  33.999  29.672  1.00  0.00     0.039 A 
ATOM     41  C   UNL A   1      34.190  33.177  30.766  1.00  0.00     0.014 A 
ATOM     42  C   UNL A   1      35.772  34.357  29.341  1.00  0.00     0.014 A 
ATOM     43  C   UNL A   1      35.255  32.653  31.500  1.00  0.00     0.010 A 
ATOM     44  C   UNL A   1      36.827  33.762  30.020  1.00  0.00     0.010 A 
ATOM     45  C   UNL A   1      36.581  32.907  31.108  1.00  0.00    -0.014 A 
BRANCH  45  46
ATOM     46  C   UNL A   1      37.721  32.312  31.853  1.00  0.00     0.031 A 
ATOM     47  C   UNL A   1      38.547  31.240  31.197  1.00  0.00     0.074 A 
ATOM     48  C   UNL A   1      37.989  32.701  33.116  1.00  0.00     0.049 A 
ATOM     49  N   UNL A   1      39.577  30.585  31.666  1.00  0.00    -0.248 NA
ATOM     50  C   UNL A   1      38.133  30.823  29.849  1.00  0.00     0.031 C 
ATOM     51  C   UNL A   1      37.220  33.685  33.883  1.00  0.00     0.029 A 
ATOM     52  N   UNL A   1      38.988  32.321  33.979  1.00  0.00    -0.354 N 
ATOM     53  C   UNL A   1      39.924  29.673  30.674  1.00  0.00     0.074 A 
ATOM     54  C   UNL A   1      38.940  29.800  29.623  1.00  0.00     0.031 C 
ATOM     55  C   UNL A   1      37.801  33.863  35.082  1.00  0.00     0.029 A 
ATOM     56  C   UNL A   1      38.965  32.987  35.185  1.00  0.00     0.049 A 
ATOM     57  H   UNL A   1      39.659  31.637  33.755  1.00  0.00     0.167 HD
ATOM     58  C   UNL A   1      40.988  28.835  30.624  1.00  0.00     0.034 A 
ATOM     59  C   UNL A   1      39.795  32.904  36.245  1.00  0.00     0.034 A 
ATOM     60  C   UNL A   1      41.976  28.742  31.668  1.00  0.00     0.049 A 
ATOM     61  C   UNL A   1      40.976  31.966  36.168  1.00  0.00     0.074 A 
ATOM     62  C   UNL A   1      43.129  27.978  31.699  1.00  0.00     0.029 A 
ATOM     63  N   UNL A   1      41.924  29.436  32.870  1.00  0.00    -0.354 N 
ATOM     64  N   UNL A   1      41.333  31.164  35.190  1.00  0.00    -0.248 NA
ATOM     65  C   UNL A   1      41.873  31.932  37.331  1.00  0.00     0.031 C 
ATOM     66  C   UNL A   1      43.740  28.162  32.944  1.00  0.00     0.029 A 
ATOM     67  C   UNL A   1      43.010  29.096  33.661  1.00  0.00     0.049 A 
ATOM     68  H   UNL A   1      41.219  30.075  33.123  1.00  0.00     0.167 HD
ATOM     69  C   UNL A   1      42.516  30.559  35.609  1.00  0.00     0.074 A 
ATOM     70  C   UNL A   1      42.817  31.098  36.918  1.00  0.00     0.031 C 
ATOM     71  C   UNL A   1      43.288  29.644  34.968  1.00  0.00     0.034 A 
BRANCH  58  72
ATOM     72  C   UNL A   1      41.113  27.956  29.403  1.00  0.00     0.023 A 
ATOM     73  C   UNL A   1      42.101  28.185  28.428  1.00  0.00     0.031 A 
ATOM     74  C   UNL A   1      40.199  26.911  29.180  1.00  0.00     0.131 A 
ATOM     75  C   UNL A   1      42.093  27.450  27.235  1.00  0.00     0.055 A 
ATOM     76  C   UNL A   1      40.254  26.121  28.030  1.00  0.00     0.041 A 
ATOM     77  F   UNL A   1      39.222  26.657  30.064  1.00  0.00    -0.206 F 
ATOM     78  C   UNL A   1      41.192  26.401  27.039  1.00  0.00     0.022 A 
BRANCH  75  79
ATOM     79  S   UNL A   1      43.167  27.994  25.878  1.00  0.00     0.124 S 
ATOM     80  O   UNL A   1      43.409  29.390  26.238  1.00  0.00    -0.237 OA
ATOM     81  O   UNL A   1      44.308  27.095  26.000  1.00  0.00    -0.237 OA
ATOM     82  O   UNL A   1      42.341  27.798  24.689  1.00  0.00    -0.744 OA
ENDBRANCH  75  79
ENDBRANCH  58  72
BRANCH  59  83
ATOM     83  C   UNL A   1      39.566  33.734  37.465  1.00  0.00     0.023 A 
ATOM     84  C   UNL A   1      38.834  33.233  38.555  1.00  0.00     0.031 A 
ATOM     85  C   UNL A   1      40.025  35.061  37.537  1.00  0.00     0.131 A 
ATOM     86  C   UNL A   1      38.538  34.068  39.644  1.00  0.00     0.055 A 
ATOM     87  C   UNL A   1      39.772  35.871  38.646  1.00  0.00     0.041 A 
ATOM     88  F   UNL A   1      40.735  35.590  36.527  1.00  0.00    -0.206 F 
ATOM     89  C   UNL A   1      39.011  35.379  39.702  1.00  0.00     0.022 A 
BRANCH  86  90
ATOM     90  S   UNL A   1      37.446  33.439  40.951  1.00  0.00     0.124 S 
ATOM     91  O   UNL A   1      37.097  34.665  41.661  1.00  0.00    -0.237 OA
ATOM     92  O   UNL A   1      36.377  32.817  40.178  1.00  0.00    -0.237 OA
ATOM     93  O   UNL A   1      38.300  32.511  41.690  1.00  0.00    -0.744 OA
ENDBRANCH  86  90
ENDBRANCH  59  83
BRANCH  71  94
ATOM     94  C   UNL A   1      44.554  29.206  35.662  1.00  0.00     0.023 A 
ATOM     95  C   UNL A   1      44.558  28.169  36.609  1.00  0.00     0.031 A 
ATOM     96  C   UNL A   1      45.775  29.839  35.366  1.00  0.00     0.131 A 
ATOM     97  C   UNL A   1      45.750  27.827  37.264  1.00  0.00     0.055 A 
ATOM     98  C   UNL A   1      46.969  29.455  35.977  1.00  0.00     0.041 A 
ATOM     99  F   UNL A   1      45.828  30.837  34.469  1.00  0.00    -0.206 F 
ATOM    100  C   UNL A   1      46.958  28.451  36.942  1.00  0.00     0.022 A 
BRANCH  97 101
ATOM    101  S   UNL A   1      45.686  26.611  38.608  1.00  0.00     0.124 S 
ATOM    102  O   UNL A   1      46.792  27.039  39.459  1.00  0.00    -0.237 OA
ATOM    103  O   UNL A   1      44.348  26.817  39.152  1.00  0.00    -0.237 OA
ATOM    104  O   UNL A   1      45.888  25.333  37.926  1.00  0.00    -0.744 OA
ENDBRANCH  97 101
ENDBRANCH  71  94
ENDBRANCH  45  46
ENDBRANCH  37  40
ENDBRANCH  35  36
ENDBRANCH  34  35
ENDBRANCH  33  34
ENDBRANCH   1  33
TORSDOF 20
ENDMDL
MODEL 2
REMARK VINA RESULT:     -13.0      3.669      9.389
REMARK SMILES [NH3+][C@@]1(C(=O)NCCCCNC(=O)c2ccc(-c3c4nc(c(-c5cc(S(=O)(=O)[O-])ccc5F)c5ccc([nH]5)c(-c5cc(S(=O)(=O)[O-])ccc5F)c5nc(c(-c6cc(S(=O)(=O)[O-])ccc6F)c6ccc3[nH]6)C=C5)C=C4)cc2)CC[N@H+](Cc2ccc(OCC(=O)N3CCCCC3)cc2)C1
REMARK SMILES IDX 6 1 5 2 3 3 4 4 2 6 76 7 96 8 77 9 78 10 1 12 79 16 80 17
REMARK SMILES IDX 81 18 95 19 82 20 94 21 83 22 84 23 85 24 86 25 87 26 88 27
REMARK SMILES IDX 89 28 93 29 90 30 92 31 91 32 7 33 8 34 9 35 10 36 11 37
REMARK SMILES IDX 12 39 13 40 14 41 75 42 15 43 74 44 16 45 17 46 18 47 68 48
REMARK SMILES IDX 19 49 73 50 67 51 69 52 20 53 72 54 66 55 65 56 21 58 53 59
REMARK SMILES IDX 33 60 52 61 34 62 37 63 51 64 70 65 35 66 36 67 50 69 71 70
REMARK SMILES IDX 38 71 22 72 23 73 31 74 24 75 30 76 32 77 29 78 25 79 26 80
REMARK SMILES IDX 27 81 28 82 54 83 55 84 63 85 56 86 62 87 64 88 61 89 57 90
REMARK SMILES IDX 58 91 59 92 60 93 39 94 40 95 48 96 41 97 47 98 49 99 46 100
REMARK SMILES IDX 42 101 43 102 44 103 45 104
REMARK H PARENT 5 5 78 11 1 13 1 14 1 15 10 38 69 57 37 68
REMARK Flexibility Score: inf
ROOT
ATOM      1  C   UNL A   1      31.088  25.926  26.637  1.00  0.00     0.116 C 
ENDROOT
BRANCH   1   2
ATOM      2  N   UNL A   1      30.908  25.216  25.259  1.00  0.00    -0.350 N 
ATOM      3  C   UNL A   1      30.832  23.905  24.909  1.00  0.00     0.287 C 
ATOM      4  O   UNL A   1      30.356  23.695  23.780  1.00  0.00    -0.268 OA
ATOM      5  H   UNL A   1      30.834  25.837  24.497  1.00  0.00     0.163 HD
BRANCH   3   6
ATOM      6  C   UNL A   1      31.359  22.686  25.770  1.00  0.00     0.228 C 
ATOM      7  C   UNL A   1      32.120  23.041  27.043  1.00  0.00     0.146 C 
ATOM      8  C   UNL A   1      32.314  21.760  24.991  1.00  0.00     0.342 C 
ATOM      9  C   UNL A   1      33.557  22.557  26.857  1.00  0.00     0.270 C 
ATOM     10  N   UNL A   1      33.657  21.850  25.583  1.00  0.00    -0.325 N 
ATOM     11  H   UNL A   1      33.975  20.896  25.752  1.00  0.00     0.348 HD
BRANCH   6  12
ATOM     12  N   UNL A   1      30.125  21.949  26.210  1.00  0.00    -0.340 N 
ATOM     13  H   UNL A   1      29.576  21.687  25.392  1.00  0.00     0.345 HD
ATOM     14  H   UNL A   1      29.568  22.551  26.816  1.00  0.00     0.345 HD
ATOM     15  H   UNL A   1      30.395  21.109  26.723  1.00  0.00     0.345 HD
ENDBRANCH   6  12
BRANCH  10  16
ATOM     16  C   UNL A   1      34.740  22.302  24.702  1.00  0.00     0.299 C 
BRANCH  16  17
ATOM     17  C   UNL A   1      34.467  23.625  24.032  1.00  0.00     0.006 A 
ATOM     18  C   UNL A   1      33.632  23.577  22.438  1.00  0.00     0.013 A 
ATOM     19  C   UNL A   1      34.578  25.188  24.966  1.00  0.00     0.013 A 
ATOM     20  C   UNL A   1      32.948  25.087  21.741  1.00  0.00     0.047 A 
ATOM     21  C   UNL A   1      33.862  26.688  24.270  1.00  0.00     0.047 A 
ATOM     22  C   UNL A   1      33.000  26.616  22.679  1.00  0.00     0.120 A 
BRANCH  22  23
ATOM     23  O   UNL A   1      32.383  27.642  22.034  1.00  0.00    -0.484 OA
BRANCH  23  24
ATOM     24  C   UNL A   1      30.976  27.669  22.047  1.00  0.00     0.329 C 
BRANCH  24  25
ATOM     25  C   UNL A   1      30.299  28.559  23.100  1.00  0.00     0.260 C 
ATOM     26  O   UNL A   1      30.243  28.157  24.266  1.00  0.00    -0.271 OA
ATOM     27  N   UNL A   1      29.840  29.821  22.736  1.00  0.00    -0.340 N 
ATOM     28  C   UNL A   1      29.448  30.754  23.788  1.00  0.00     0.119 C 
ATOM     29  C   UNL A   1      29.657  30.341  21.379  1.00  0.00     0.119 C 
ATOM     30  C   UNL A   1      27.970  31.097  23.662  1.00  0.00     0.022 C 
ATOM     31  C   UNL A   1      28.209  30.801  21.155  1.00  0.00     0.022 C 
ATOM     32  C   UNL A   1      27.671  31.683  22.284  1.00  0.00     0.004 C 
ENDBRANCH  24  25
ENDBRANCH  23  24
ENDBRANCH  22  23
ENDBRANCH  16  17
ENDBRANCH  10  16
ENDBRANCH   3   6
ENDBRANCH   1   2
BRANCH   1  33
ATOM     33  C   UNL A   1      31.741  27.913  27.246  1.00  0.00     0.023 C 
BRANCH  33  34
ATOM     34  C   UNL A   1      33.227  28.669  27.684  1.00  0.00     0.023 C 
BRANCH  34  35
ATOM     35  C   UNL A   1      33.687  29.941  26.973  1.00  0.00     0.116 C 
BRANCH  35  36
ATOM     36  N   UNL A   1      33.606  31.159  27.772  1.00  0.00    -0.352 N 
ATOM     37  C   UNL A   1      34.557  31.590  28.674  1.00  0.00     0.251 C 
ATOM     38  H   UNL A   1      32.805  31.720  27.658  1.00  0.00     0.163 HD
ATOM     39  O   UNL A   1      34.397  32.583  29.369  1.00  0.00    -0.269 OA
BRANCH  37  40
ATOM     40  C   UNL A   1      35.771  30.758  28.778  1.00  0.00     0.039 A 
ATOM     41  C   UNL A   1      36.932  31.170  28.124  1.00  0.00     0.014 A 
ATOM     42  C   UNL A   1      35.798  29.741  29.735  1.00  0.00     0.014 A 
ATOM     43  C   UNL A   1      38.152  30.597  28.487  1.00  0.00     0.010 A 
ATOM     44  C   UNL A   1      37.023  29.239  30.153  1.00  0.00     0.010 A 
ATOM     45  C   UNL A   1      38.213  29.658  29.532  1.00  0.00    -0.014 A 
BRANCH  45  46
ATOM     46  C   UNL A   1      39.513  29.079  29.959  1.00  0.00     0.031 A 
ATOM     47  C   UNL A   1      40.226  29.671  31.144  1.00  0.00     0.074 A 
ATOM     48  C   UNL A   1      40.067  28.061  29.269  1.00  0.00     0.049 A 
ATOM     49  N   UNL A   1      41.368  29.326  31.680  1.00  0.00    -0.248 NA
ATOM     50  C   UNL A   1      39.587  30.830  31.785  1.00  0.00     0.031 C 
ATOM     51  C   UNL A   1      39.504  27.445  28.065  1.00  0.00     0.029 A 
ATOM     52  N   UNL A   1      41.226  27.357  29.486  1.00  0.00    -0.354 N 
ATOM     53  C   UNL A   1      41.585  30.234  32.712  1.00  0.00     0.074 A 
ATOM     54  C   UNL A   1      40.505  31.193  32.664  1.00  0.00     0.031 C 
ATOM     55  C   UNL A   1      40.294  26.429  27.677  1.00  0.00     0.029 A 
ATOM     56  C   UNL A   1      41.436  26.337  28.584  1.00  0.00     0.049 A 
ATOM     57  H   UNL A   1      41.850  27.562  30.219  1.00  0.00     0.167 HD
ATOM     58  C   UNL A   1      42.572  30.243  33.641  1.00  0.00     0.034 A 
ATOM     59  C   UNL A   1      42.429  25.428  28.506  1.00  0.00     0.034 A 
ATOM     60  C   UNL A   1      43.626  29.263  33.692  1.00  0.00     0.049 A 
ATOM     61  C   UNL A   1      43.518  25.456  29.552  1.00  0.00     0.074 A 
ATOM     62  C   UNL A   1      44.641  29.134  34.623  1.00  0.00     0.029 A 
ATOM     63  N   UNL A   1      43.801  28.241  32.767  1.00  0.00    -0.354 N 
ATOM     64  N   UNL A   1      43.668  26.275  30.569  1.00  0.00    -0.248 NA
ATOM     65  C   UNL A   1      44.562  24.428  29.449  1.00  0.00     0.031 C 
ATOM     66  C   UNL A   1      45.465  28.076  34.227  1.00  0.00     0.029 A 
ATOM     67  C   UNL A   1      44.924  27.497  33.090  1.00  0.00     0.049 A 
ATOM     68  H   UNL A   1      43.214  28.072  31.996  1.00  0.00     0.167 HD
ATOM     69  C   UNL A   1      44.805  25.836  31.244  1.00  0.00     0.074 A 
ATOM     70  C   UNL A   1      45.290  24.675  30.529  1.00  0.00     0.031 C 
ATOM     71  C   UNL A   1      45.393  26.342  32.358  1.00  0.00     0.034 A 
BRANCH  58  72
ATOM     72  C   UNL A   1      42.548  31.360  34.657  1.00  0.00     0.023 A 
ATOM     73  C   UNL A   1      43.178  32.593  34.411  1.00  0.00     0.031 A 
ATOM     74  C   UNL A   1      41.939  31.171  35.910  1.00  0.00     0.131 A 
ATOM     75  C   UNL A   1      43.270  33.549  35.431  1.00  0.00     0.055 A 
ATOM     76  C   UNL A   1      41.955  32.165  36.891  1.00  0.00     0.041 A 
ATOM     77  F   UNL A   1      41.339  30.009  36.211  1.00  0.00    -0.206 F 
ATOM     78  C   UNL A   1      42.641  33.355  36.662  1.00  0.00     0.022 A 
BRANCH  75  79
ATOM     79  S   UNL A   1      44.365  34.974  35.183  1.00  0.00     0.124 S 
ATOM     80  O   UNL A   1      43.797  35.574  33.977  1.00  0.00    -0.237 OA
ATOM     81  O   UNL A   1      44.185  35.729  36.417  1.00  0.00    -0.237 OA
ATOM     82  O   UNL A   1      45.683  34.368  35.008  1.00  0.00    -0.744 OA
ENDBRANCH  75  79
ENDBRANCH  58  72
BRANCH  59  83
ATOM     83  C   UNL A   1      42.448  24.403  27.421  1.00  0.00     0.023 A 
ATOM     84  C   UNL A   1      41.833  23.152  27.594  1.00  0.00     0.031 A 
ATOM     85  C   UNL A   1      43.131  24.637  26.214  1.00  0.00     0.131 A 
ATOM     86  C   UNL A   1      41.957  22.165  26.604  1.00  0.00     0.055 A 
ATOM     87  C   UNL A   1      43.207  23.670  25.209  1.00  0.00     0.041 A 
ATOM     88  F   UNL A   1      43.732  25.817  25.991  1.00  0.00    -0.206 F 
ATOM     89  C   UNL A   1      42.631  22.420  25.408  1.00  0.00     0.022 A 
BRANCH  86  90
ATOM     90  S   UNL A   1      41.297  20.507  26.938  1.00  0.00     0.124 S 
ATOM     91  O   UNL A   1      42.496  19.683  26.825  1.00  0.00    -0.237 OA
ATOM     92  O   UNL A   1      40.751  20.666  28.281  1.00  0.00    -0.237 OA
ATOM     93  O   UNL A   1      40.307  20.316  25.882  1.00  0.00    -0.744 OA
ENDBRANCH  86  90
ENDBRANCH  59  83
BRANCH  71  94
ATOM     94  C   UNL A   1      46.600  25.612  32.892  1.00  0.00     0.023 A 
ATOM     95  C   UNL A   1      46.479  24.561  33.817  1.00  0.00     0.031 A 
ATOM     96  C   UNL A   1      47.889  25.973  32.463  1.00  0.00     0.131 A 
ATOM     97  C   UNL A   1      47.632  23.942  34.323  1.00  0.00     0.055 A 
ATOM     98  C   UNL A   1      49.029  25.314  32.925  1.00  0.00     0.041 A 
ATOM     99  F   UNL A   1      48.061  26.971  31.581  1.00  0.00    -0.206 F 
ATOM    100  C   UNL A   1      48.904  24.300  33.870  1.00  0.00     0.022 A 
BRANCH  97 101
ATOM    101  S   UNL A   1      47.450  22.717  35.648  1.00  0.00     0.124 S 
ATOM    102  O   UNL A   1      47.843  21.482  34.977  1.00  0.00    -0.237 OA
ATOM    103  O   UNL A   1      48.376  23.214  36.661  1.00  0.00    -0.237 OA
ATOM    104  O   UNL A   1      46.035  22.805  36.007  1.00  0.00    -0.744 OA
ENDBRANCH  97 101
ENDBRANCH  71  94
ENDBRANCH  45  46
ENDBRANCH  37  40
ENDBRANCH  35  36
ENDBRANCH  34  35
ENDBRANCH  33  34
ENDBRANCH   1  33
TORSDOF 20
ENDMDL
MODEL 3
REMARK VINA RESULT:     -12.8      2.463      5.315
REMARK SMILES [NH3+][C@@]1(C(=O)NCCCCNC(=O)c2ccc(-c3c4nc(c(-c5cc(S(=O)(=O)[O-])ccc5F)c5ccc([nH]5)c(-c5cc(S(=O)(=O)[O-])ccc5F)c5nc(c(-c6cc(S(=O)(=O)[O-])ccc6F)c6ccc3[nH]6)C=C5)C=C4)cc2)CC[N@H+](Cc2ccc(OCC(=O)N3CCCCC3)cc2)C1
REMARK SMILES IDX 6 1 5 2 3 3 4 4 2 6 76 7 96 8 77 9 78 10 1 12 79 16 80 17
REMARK SMILES IDX 81 18 95 19 82 20 94 21 83 22 84 23 85 24 86 25 87 26 88 27
REMARK SMILES IDX 89 28 93 29 90 30 92 31 91 32 7 33 8 34 9 35 10 36 11 37
REMARK SMILES IDX 12 39 13 40 14 41 75 42 15 43 74 44 16 45 17 46 18 47 68 48
REMARK SMILES IDX 19 49 73 50 67 51 69 52 20 53 72 54 66 55 65 56 21 58 53 59
REMARK SMILES IDX 33 60 52 61 34 62 37 63 51 64 70 65 35 66 36 67 50 69 71 70
REMARK SMILES IDX 38 71 22 72 23 73 31 74 24 75 30 76 32 77 29 78 25 79 26 80
REMARK SMILES IDX 27 81 28 82 54 83 55 84 63 85 56 86 62 87 64 88 61 89 57 90
REMARK SMILES IDX 58 91 59 92 60 93 39 94 40 95 48 96 41 97 47 98 49 99 46 100
REMARK SMILES IDX 42 101 43 102 44 103 45 104
REMARK H PARENT 5 5 78 11 1 13 1 14 1 15 10 38 69 57 37 68
REMARK Flexibility Score: inf
ROOT
ATOM      1  C   UNL A   1      31.220  25.993  26.519  1.00  0.00     0.116 C 
ENDROOT
BRANCH   1   2
ATOM      2  N   UNL A   1      31.030  25.164  25.211  1.00  0.00    -0.350 N 
ATOM      3  C   UNL A   1      30.812  23.842  24.990  1.00  0.00     0.287 C 
ATOM      4  O   UNL A   1      30.378  23.568  23.857  1.00  0.00    -0.268 OA
ATOM      5  H   UNL A   1      31.078  25.703  24.387  1.00  0.00     0.163 HD
BRANCH   3   6
ATOM      6  C   UNL A   1      31.134  22.669  26.003  1.00  0.00     0.228 C 
ATOM      7  C   UNL A   1      31.917  23.056  27.253  1.00  0.00     0.146 C 
ATOM      8  C   UNL A   1      31.951  21.526  25.370  1.00  0.00     0.342 C 
ATOM      9  C   UNL A   1      33.267  22.346  27.175  1.00  0.00     0.270 C 
ATOM     10  N   UNL A   1      33.282  21.486  25.994  1.00  0.00    -0.325 N 
ATOM     11  H   UNL A   1      33.449  20.522  26.283  1.00  0.00     0.348 HD
BRANCH   6  12
ATOM     12  N   UNL A   1      29.795  22.180  26.482  1.00  0.00    -0.340 N 
ATOM     13  H   UNL A   1      29.095  22.907  26.335  1.00  0.00     0.345 HD
ATOM     14  H   UNL A   1      29.850  21.956  27.476  1.00  0.00     0.345 HD
ATOM     15  H   UNL A   1      29.531  21.343  25.960  1.00  0.00     0.345 HD
ENDBRANCH   6  12
BRANCH  10  16
ATOM     16  C   UNL A   1      34.436  21.665  25.106  1.00  0.00     0.299 C 
BRANCH  16  17
ATOM     17  C   UNL A   1      34.458  22.997  24.398  1.00  0.00     0.006 A 
ATOM     18  C   UNL A   1      33.726  23.061  22.756  1.00  0.00     0.013 A 
ATOM     19  C   UNL A   1      34.806  24.537  25.312  1.00  0.00     0.013 A 
ATOM     20  C   UNL A   1      33.382  24.652  21.991  1.00  0.00     0.047 A 
ATOM     21  C   UNL A   1      34.430  26.124  24.547  1.00  0.00     0.047 A 
ATOM     22  C   UNL A   1      33.666  26.170  22.905  1.00  0.00     0.120 A 
BRANCH  22  23
ATOM     23  O   UNL A   1      33.293  27.275  22.205  1.00  0.00    -0.484 OA
BRANCH  23  24
ATOM     24  C   UNL A   1      32.363  28.144  22.806  1.00  0.00     0.329 C 
BRANCH  24  25
ATOM     25  C   UNL A   1      30.882  27.739  22.748  1.00  0.00     0.260 C 
ATOM     26  O   UNL A   1      30.581  26.680  22.188  1.00  0.00    -0.271 OA
ATOM     27  N   UNL A   1      29.931  28.525  23.390  1.00  0.00    -0.340 N 
ATOM     28  C   UNL A   1      28.581  27.995  23.558  1.00  0.00     0.119 C 
ATOM     29  C   UNL A   1      30.107  29.884  23.908  1.00  0.00     0.119 C 
ATOM     30  C   UNL A   1      27.580  28.866  22.811  1.00  0.00     0.022 C 
ATOM     31  C   UNL A   1      29.089  30.849  23.285  1.00  0.00     0.022 C 
ATOM     32  C   UNL A   1      27.656  30.311  23.300  1.00  0.00     0.004 C 
ENDBRANCH  24  25
ENDBRANCH  23  24
ENDBRANCH  22  23
ENDBRANCH  16  17
ENDBRANCH  10  16
ENDBRANCH   3   6
ENDBRANCH   1   2
BRANCH   1  33
ATOM     33  C   UNL A   1      31.269  28.123  26.973  1.00  0.00     0.023 C 
BRANCH  33  34
ATOM     34  C   UNL A   1      32.463  29.289  27.405  1.00  0.00     0.023 C 
BRANCH  34  35
ATOM     35  C   UNL A   1      32.873  30.379  26.416  1.00  0.00     0.116 C 
BRANCH  35  36
ATOM     36  N   UNL A   1      32.554  31.741  26.830  1.00  0.00    -0.352 N 
ATOM     37  C   UNL A   1      33.380  32.570  27.563  1.00  0.00     0.251 C 
ATOM     38  H   UNL A   1      31.676  32.099  26.564  1.00  0.00     0.163 HD
ATOM     39  O   UNL A   1      33.024  33.677  27.942  1.00  0.00    -0.269 OA
BRANCH  37  40
ATOM     40  C   UNL A   1      34.710  32.026  27.894  1.00  0.00     0.039 A 
ATOM     41  C   UNL A   1      35.792  32.899  27.998  1.00  0.00     0.014 A 
ATOM     42  C   UNL A   1      34.792  30.709  28.354  1.00  0.00     0.014 A 
ATOM     43  C   UNL A   1      36.954  32.463  28.636  1.00  0.00     0.010 A 
ATOM     44  C   UNL A   1      35.916  30.311  29.064  1.00  0.00     0.010 A 
ATOM     45  C   UNL A   1      37.010  31.181  29.211  1.00  0.00    -0.014 A 
BRANCH  45  46
ATOM     46  C   UNL A   1      38.226  30.725  29.935  1.00  0.00     0.031 A 
ATOM     47  C   UNL A   1      39.180  29.786  29.248  1.00  0.00     0.074 A 
ATOM     48  C   UNL A   1      38.450  31.116  31.205  1.00  0.00     0.049 A 
ATOM     49  N   UNL A   1      40.291  29.262  29.695  1.00  0.00    -0.248 NA
ATOM     50  C   UNL A   1      38.813  29.350  27.893  1.00  0.00     0.031 C 
ATOM     51  C   UNL A   1      37.565  31.972  32.000  1.00  0.00     0.029 A 
ATOM     52  N   UNL A   1      39.498  30.851  32.054  1.00  0.00    -0.354 N 
ATOM     53  C   UNL A   1      40.746  28.428  28.680  1.00  0.00     0.074 A 
ATOM     54  C   UNL A   1      39.745  28.448  27.638  1.00  0.00     0.031 C 
ATOM     55  C   UNL A   1      38.128  32.196  33.200  1.00  0.00     0.029 A 
ATOM     56  C   UNL A   1      39.398  31.479  33.276  1.00  0.00     0.049 A 
ATOM     57  H   UNL A   1      40.251  30.267  31.810  1.00  0.00     0.167 HD
ATOM     58  C   UNL A   1      41.912  27.739  28.604  1.00  0.00     0.034 A 
ATOM     59  C   UNL A   1      40.241  31.482  34.329  1.00  0.00     0.034 A 
ATOM     60  C   UNL A   1      42.912  27.752  29.640  1.00  0.00     0.049 A 
ATOM     61  C   UNL A   1      41.534  30.710  34.223  1.00  0.00     0.074 A 
ATOM     62  C   UNL A   1      44.155  27.147  29.646  1.00  0.00     0.029 A 
ATOM     63  N   UNL A   1      42.779  28.405  30.859  1.00  0.00    -0.354 N 
ATOM     64  N   UNL A   1      41.986  29.985  33.223  1.00  0.00    -0.248 NA
ATOM     65  C   UNL A   1      42.438  30.767  35.379  1.00  0.00     0.031 C 
ATOM     66  C   UNL A   1      44.748  27.380  30.891  1.00  0.00     0.029 A 
ATOM     67  C   UNL A   1      43.907  28.193  31.636  1.00  0.00     0.049 A 
ATOM     68  H   UNL A   1      41.999  28.939  31.131  1.00  0.00     0.167 HD
ATOM     69  C   UNL A   1      43.241  29.532  33.621  1.00  0.00     0.074 A 
ATOM     70  C   UNL A   1      43.480  30.075  34.941  1.00  0.00     0.031 C 
ATOM     71  C   UNL A   1      44.122  28.742  32.954  1.00  0.00     0.034 A 
BRANCH  58  72
ATOM     72  C   UNL A   1      42.141  26.913  27.361  1.00  0.00     0.023 A 
ATOM     73  C   UNL A   1      41.796  25.550  27.308  1.00  0.00     0.031 A 
ATOM     74  C   UNL A   1      42.765  27.477  26.235  1.00  0.00     0.131 A 
ATOM     75  C   UNL A   1      42.162  24.776  26.199  1.00  0.00     0.055 A 
ATOM     76  C   UNL A   1      43.046  26.720  25.095  1.00  0.00     0.041 A 
ATOM     77  F   UNL A   1      43.137  28.766  26.233  1.00  0.00    -0.206 F 
ATOM     78  C   UNL A   1      42.762  25.357  25.080  1.00  0.00     0.022 A 
BRANCH  75  79
ATOM     79  S   UNL A   1      41.995  22.973  26.311  1.00  0.00     0.124 S 
ATOM     80  O   UNL A   1      42.613  22.543  25.058  1.00  0.00    -0.237 OA
ATOM     81  O   UNL A   1      42.734  22.663  27.528  1.00  0.00    -0.237 OA
ATOM     82  O   UNL A   1      40.550  22.768  26.388  1.00  0.00    -0.744 OA
ENDBRANCH  75  79
ENDBRANCH  58  72
BRANCH  59  83
ATOM     83  C   UNL A   1      39.915  32.245  35.570  1.00  0.00     0.023 A 
ATOM     84  C   UNL A   1      38.998  31.744  36.508  1.00  0.00     0.031 A 
ATOM     85  C   UNL A   1      40.471  33.514  35.808  1.00  0.00     0.131 A 
ATOM     86  C   UNL A   1      38.624  32.527  37.612  1.00  0.00     0.055 A 
ATOM     87  C   UNL A   1      40.135  34.268  36.935  1.00  0.00     0.041 A 
ATOM     88  F   UNL A   1      41.358  34.040  34.947  1.00  0.00    -0.206 F 
ATOM     89  C   UNL A   1      39.195  33.781  37.837  1.00  0.00     0.022 A 
BRANCH  86  90
ATOM     90  S   UNL A   1      37.310  31.919  38.708  1.00  0.00     0.124 S 
ATOM     91  O   UNL A   1      37.191  30.529  38.282  1.00  0.00    -0.237 OA
ATOM     92  O   UNL A   1      37.892  32.139  40.027  1.00  0.00    -0.237 OA
ATOM     93  O   UNL A   1      36.171  32.773  38.379  1.00  0.00    -0.744 OA
ENDBRANCH  86  90
ENDBRANCH  59  83
BRANCH  71  94
ATOM     94  C   UNL A   1      45.441  28.459  33.630  1.00  0.00     0.023 A 
ATOM     95  C   UNL A   1      45.629  27.327  34.439  1.00  0.00     0.031 A 
ATOM     96  C   UNL A   1      46.525  29.338  33.456  1.00  0.00     0.131 A 
ATOM     97  C   UNL A   1      46.858  27.128  35.087  1.00  0.00     0.055 A 
ATOM     98  C   UNL A   1      47.763  29.105  34.055  1.00  0.00     0.041 A 
ATOM     99  F   UNL A   1      46.399  30.436  32.693  1.00  0.00    -0.206 F 
ATOM    100  C   UNL A   1      47.930  28.001  34.886  1.00  0.00     0.022 A 
BRANCH  97 101
ATOM    101  S   UNL A   1      47.008  25.759  36.266  1.00  0.00     0.124 S 
ATOM    102  O   UNL A   1      45.831  25.949  37.106  1.00  0.00    -0.237 OA
ATOM    103  O   UNL A   1      46.985  24.590  35.391  1.00  0.00    -0.237 OA
ATOM    104  O   UNL A   1      48.288  26.012  36.925  1.00  0.00    -0.744 OA
ENDBRANCH  97 101
ENDBRANCH  71  94
ENDBRANCH  45  46
ENDBRANCH  37  40
ENDBRANCH  35  36
ENDBRANCH  34  35
ENDBRANCH  33  34
ENDBRANCH   1  33
TORSDOF 20
ENDMDL
