MODEL 1
REMARK VINA RESULT:     -11.9      0.000      0.000
REMARK SMILES Cc1[nH]c(=O)sc1S(=O)(=O)NC1(CC(=O)NCCCCNC(=O)c2ccc(-c3c4nc(c(-c5cc(S(=O)(=O)[O-])ccc5F)c5ccc([nH]5)c(-c5cc(S(=O)(=O)[O-])ccc5F)c5nc(c(-c6cc(S(=O)(=O)[O-])ccc6F)c6ccc3[nH]6)C=C5)C=C4)cc2)CCC1
REMARK SMILES IDX 18 1 17 2 16 3 14 4 15 5 13 7 12 8 87 9 89 10 88 11 11 12
REMARK SMILES IDX 8 14 9 15 10 16 7 17 1 18 2 19 3 20 4 21 6 23 5 24 19 25
REMARK SMILES IDX 20 26 21 27 22 28 23 30 24 31 25 32 86 33 26 34 85 35 27 36
REMARK SMILES IDX 28 37 29 38 79 39 30 40 84 41 78 42 80 43 31 44 83 45 77 46
REMARK SMILES IDX 76 47 32 49 64 50 44 51 63 52 45 53 48 54 62 55 81 56 46 57
REMARK SMILES IDX 47 58 61 60 82 61 49 62 33 63 34 64 42 65 35 66 41 67 43 68
REMARK SMILES IDX 40 69 36 70 37 71 38 72 39 73 65 74 66 75 74 76 67 77 73 78
REMARK SMILES IDX 75 79 72 80 68 81 69 82 70 83 71 84 50 85 51 86 59 87 52 88
REMARK SMILES IDX 58 89 60 90 57 91 53 92 54 93 55 94 56 95
REMARK H PARENT 16 6 11 13 3 22 21 29 80 48 48 59
REMARK Flexibility Score: inf
ROOT
ATOM      1  C   UNL A   1      32.834  29.803  26.752  1.00  0.00     0.023 C 
ENDROOT
BRANCH   1   2
ATOM      2  C   UNL A   1      32.195  29.709  25.357  1.00  0.00     0.116 C 
BRANCH   2   3
ATOM      3  N   UNL A   1      33.190  29.435  24.346  1.00  0.00    -0.356 N 
ATOM      4  C   UNL A   1      33.166  28.479  23.382  1.00  0.00     0.221 C 
ATOM      5  O   UNL A   1      34.207  28.227  22.773  1.00  0.00    -0.275 OA
ATOM      6  H   UNL A   1      33.985  30.015  24.357  1.00  0.00     0.163 HD
BRANCH   4   7
ATOM      7  C   UNL A   1      31.902  27.698  23.092  1.00  0.00     0.123 C 
BRANCH   7   8
ATOM      8  C   UNL A   1      31.606  26.492  24.016  1.00  0.00     0.042 C 
ATOM      9  C   UNL A   1      30.629  25.510  23.265  1.00  0.00     0.024 C 
ATOM     10  C   UNL A   1      30.437  26.572  25.066  1.00  0.00     0.024 C 
ATOM     11  C   UNL A   1      29.456  26.216  23.944  1.00  0.00     0.004 C 
BRANCH   8  12
ATOM     12  N   UNL A   1      32.933  25.925  24.466  1.00  0.00    -0.204 NA
ATOM     13  H   UNL A   1      33.547  26.739  24.474  1.00  0.00     0.142 HD
BRANCH  12  14
ATOM     14  S   UNL A   1      33.915  24.703  23.857  1.00  0.00     0.252 S 
ATOM     15  O   UNL A   1      35.220  24.927  24.448  1.00  0.00    -0.206 OA
ATOM     16  O   UNL A   1      33.764  24.801  22.419  1.00  0.00    -0.206 OA
BRANCH  14  17
ATOM     17  C   UNL A   1      33.287  23.176  24.369  1.00  0.00     0.158 A 
ATOM     18  C   UNL A   1      33.844  23.378  26.896  1.00  0.00     0.067 C 
ATOM     19  C   UNL A   1      33.320  22.742  25.645  1.00  0.00     0.046 A 
ATOM     20  N   UNL A   1      32.854  21.449  25.764  1.00  0.00    -0.315 N 
ATOM     21  C   UNL A   1      32.409  20.836  24.617  1.00  0.00     0.305 A 
ATOM     22  H   UNL A   1      32.841  20.986  26.632  1.00  0.00     0.170 HD
ATOM     23  S   UNL A   1      32.569  21.984  23.300  1.00  0.00    -0.061 S 
ATOM     24  O   UNL A   1      31.991  19.704  24.516  1.00  0.00    -0.257 OA
ENDBRANCH  14  17
ENDBRANCH  12  14
ENDBRANCH   8  12
ENDBRANCH   7   8
ENDBRANCH   4   7
ENDBRANCH   2   3
ENDBRANCH   1   2
BRANCH   1  25
ATOM     25  C   UNL A   1      33.879  28.748  27.105  1.00  0.00     0.023 C 
BRANCH  25  26
ATOM     26  C   UNL A   1      35.259  29.328  27.365  1.00  0.00     0.116 C 
BRANCH  26  27
ATOM     27  N   UNL A   1      35.422  29.875  28.718  1.00  0.00    -0.352 N 
ATOM     28  C   UNL A   1      36.413  29.543  29.633  1.00  0.00     0.251 C 
ATOM     29  H   UNL A   1      34.763  30.547  29.007  1.00  0.00     0.163 HD
ATOM     30  O   UNL A   1      36.276  29.734  30.833  1.00  0.00    -0.269 OA
BRANCH  28  31
ATOM     31  C   UNL A   1      37.661  28.999  29.077  1.00  0.00     0.039 A 
ATOM     32  C   UNL A   1      38.351  29.588  28.017  1.00  0.00     0.014 A 
ATOM     33  C   UNL A   1      38.205  27.949  29.807  1.00  0.00     0.014 A 
ATOM     34  C   UNL A   1      39.650  29.153  27.756  1.00  0.00     0.010 A 
ATOM     35  C   UNL A   1      39.541  27.698  29.696  1.00  0.00     0.010 A 
ATOM     36  C   UNL A   1      40.247  28.220  28.622  1.00  0.00    -0.014 A 
BRANCH  36  37
ATOM     37  C   UNL A   1      41.654  27.843  28.534  1.00  0.00     0.031 A 
ATOM     38  C   UNL A   1      41.908  26.616  27.728  1.00  0.00     0.074 A 
ATOM     39  C   UNL A   1      42.645  28.674  28.939  1.00  0.00     0.049 A 
ATOM     40  N   UNL A   1      42.286  25.461  28.161  1.00  0.00    -0.248 NA
ATOM     41  C   UNL A   1      41.531  26.607  26.303  1.00  0.00     0.031 C 
ATOM     42  C   UNL A   1      42.549  30.038  29.482  1.00  0.00     0.029 A 
ATOM     43  N   UNL A   1      43.990  28.500  28.865  1.00  0.00    -0.354 N 
ATOM     44  C   UNL A   1      42.440  24.649  27.042  1.00  0.00     0.074 A 
ATOM     45  C   UNL A   1      41.767  25.334  25.972  1.00  0.00     0.031 C 
ATOM     46  C   UNL A   1      43.764  30.636  29.459  1.00  0.00     0.029 A 
ATOM     47  C   UNL A   1      44.757  29.647  29.086  1.00  0.00     0.049 A 
ATOM     48  H   UNL A   1      44.397  27.626  28.667  1.00  0.00     0.167 HD
ATOM     49  C   UNL A   1      43.308  23.597  27.057  1.00  0.00     0.034 A 
ATOM     50  C   UNL A   1      46.113  29.766  28.989  1.00  0.00     0.034 A 
ATOM     51  C   UNL A   1      43.711  23.297  28.415  1.00  0.00     0.049 A 
ATOM     52  C   UNL A   1      46.647  28.385  29.124  1.00  0.00     0.074 A 
ATOM     53  C   UNL A   1      43.036  22.897  29.552  1.00  0.00     0.029 A 
ATOM     54  N   UNL A   1      44.902  23.829  28.862  1.00  0.00    -0.354 N 
ATOM     55  N   UNL A   1      46.514  27.682  30.218  1.00  0.00    -0.248 NA
ATOM     56  C   UNL A   1      46.814  27.604  27.905  1.00  0.00     0.031 C 
ATOM     57  C   UNL A   1      43.599  23.684  30.601  1.00  0.00     0.029 A 
ATOM     58  C   UNL A   1      44.660  24.429  30.077  1.00  0.00     0.049 A 
ATOM     59  H   UNL A   1      45.769  23.787  28.397  1.00  0.00     0.167 HD
ATOM     60  C   UNL A   1      46.146  26.414  29.794  1.00  0.00     0.074 A 
ATOM     61  C   UNL A   1      46.417  26.408  28.354  1.00  0.00     0.031 C 
ATOM     62  C   UNL A   1      45.377  25.594  30.572  1.00  0.00     0.034 A 
BRANCH  49  63
ATOM     63  C   UNL A   1      44.071  23.057  25.866  1.00  0.00     0.023 A 
ATOM     64  C   UNL A   1      43.913  21.689  25.567  1.00  0.00     0.031 A 
ATOM     65  C   UNL A   1      45.128  23.711  25.197  1.00  0.00     0.131 A 
ATOM     66  C   UNL A   1      44.829  21.015  24.739  1.00  0.00     0.055 A 
ATOM     67  C   UNL A   1      46.001  23.049  24.325  1.00  0.00     0.041 A 
ATOM     68  F   UNL A   1      45.439  24.993  25.409  1.00  0.00    -0.206 F 
ATOM     69  C   UNL A   1      45.876  21.687  24.118  1.00  0.00     0.022 A 
BRANCH  66  70
ATOM     70  S   UNL A   1      44.732  19.208  24.637  1.00  0.00     0.124 S 
ATOM     71  O   UNL A   1      43.499  18.935  25.366  1.00  0.00    -0.237 OA
ATOM     72  O   UNL A   1      44.689  18.992  23.194  1.00  0.00    -0.237 OA
ATOM     73  O   UNL A   1      45.957  18.766  25.297  1.00  0.00    -0.744 OA
ENDBRANCH  66  70
ENDBRANCH  49  63
BRANCH  50  74
ATOM     74  C   UNL A   1      46.885  30.900  28.386  1.00  0.00     0.023 A 
ATOM     75  C   UNL A   1      46.345  31.825  27.460  1.00  0.00     0.031 A 
ATOM     76  C   UNL A   1      48.146  31.230  28.936  1.00  0.00     0.131 A 
ATOM     77  C   UNL A   1      47.058  33.009  27.127  1.00  0.00     0.055 A 
ATOM     78  C   UNL A   1      48.835  32.403  28.614  1.00  0.00     0.041 A 
ATOM     79  F   UNL A   1      48.714  30.458  29.876  1.00  0.00    -0.206 F 
ATOM     80  C   UNL A   1      48.290  33.303  27.714  1.00  0.00     0.022 A 
BRANCH  77  81
ATOM     81  S   UNL A   1      46.367  34.239  25.961  1.00  0.00     0.124 S 
ATOM     82  O   UNL A   1      45.796  35.235  26.861  1.00  0.00    -0.237 OA
ATOM     83  O   UNL A   1      47.542  34.647  25.201  1.00  0.00    -0.237 OA
ATOM     84  O   UNL A   1      45.382  33.472  25.196  1.00  0.00    -0.744 OA
ENDBRANCH  77  81
ENDBRANCH  50  74
BRANCH  62  85
ATOM     85  C   UNL A   1      45.104  26.003  32.013  1.00  0.00     0.023 A 
ATOM     86  C   UNL A   1      43.930  26.642  32.483  1.00  0.00     0.031 A 
ATOM     87  C   UNL A   1      46.043  25.591  32.975  1.00  0.00     0.131 A 
ATOM     88  C   UNL A   1      43.741  26.848  33.869  1.00  0.00     0.055 A 
ATOM     89  C   UNL A   1      45.841  25.772  34.342  1.00  0.00     0.041 A 
ATOM     90  F   UNL A   1      47.168  24.960  32.598  1.00  0.00    -0.206 F 
ATOM     91  C   UNL A   1      44.691  26.405  34.794  1.00  0.00     0.022 A 
BRANCH  88  92
ATOM     92  S   UNL A   1      42.267  27.720  34.502  1.00  0.00     0.124 S 
ATOM     93  O   UNL A   1      42.829  28.803  35.300  1.00  0.00    -0.237 OA
ATOM     94  O   UNL A   1      41.580  28.120  33.277  1.00  0.00    -0.237 OA
ATOM     95  O   UNL A   1      41.570  26.692  35.279  1.00  0.00    -0.744 OA
ENDBRANCH  88  92
ENDBRANCH  62  85
ENDBRANCH  36  37
ENDBRANCH  28  31
ENDBRANCH  26  27
ENDBRANCH  25  26
ENDBRANCH   1  25
TORSDOF 18
ENDMDL
MODEL 2
REMARK VINA RESULT:     -11.4      4.144      6.328
REMARK SMILES Cc1[nH]c(=O)sc1S(=O)(=O)NC1(CC(=O)NCCCCNC(=O)c2ccc(-c3c4nc(c(-c5cc(S(=O)(=O)[O-])ccc5F)c5ccc([nH]5)c(-c5cc(S(=O)(=O)[O-])ccc5F)c5nc(c(-c6cc(S(=O)(=O)[O-])ccc6F)c6ccc3[nH]6)C=C5)C=C4)cc2)CCC1
REMARK SMILES IDX 18 1 17 2 16 3 14 4 15 5 13 7 12 8 87 9 89 10 88 11 11 12
REMARK SMILES IDX 8 14 9 15 10 16 7 17 1 18 2 19 3 20 4 21 6 23 5 24 19 25
REMARK SMILES IDX 20 26 21 27 22 28 23 30 24 31 25 32 86 33 26 34 85 35 27 36
REMARK SMILES IDX 28 37 29 38 79 39 30 40 84 41 78 42 80 43 31 44 83 45 77 46
REMARK SMILES IDX 76 47 32 49 64 50 44 51 63 52 45 53 48 54 62 55 81 56 46 57
REMARK SMILES IDX 47 58 61 60 82 61 49 62 33 63 34 64 42 65 35 66 41 67 43 68
REMARK SMILES IDX 40 69 36 70 37 71 38 72 39 73 65 74 66 75 74 76 67 77 73 78
REMARK SMILES IDX 75 79 72 80 68 81 69 82 70 83 71 84 50 85 51 86 59 87 52 88
REMARK SMILES IDX 58 89 60 90 57 91 53 92 54 93 55 94 56 95
REMARK H PARENT 16 6 11 13 3 22 21 29 80 48 48 59
REMARK Flexibility Score: inf
ROOT
ATOM      1  C   UNL A   1      38.178  30.078  33.684  1.00  0.00     0.023 C 
ENDROOT
BRANCH   1   2
ATOM      2  C   UNL A   1      38.463  31.561  33.970  1.00  0.00     0.116 C 
BRANCH   2   3
ATOM      3  N   UNL A   1      39.709  31.977  33.368  1.00  0.00    -0.356 N 
ATOM      4  C   UNL A   1      39.995  32.128  32.049  1.00  0.00     0.221 C 
ATOM      5  O   UNL A   1      41.174  32.241  31.708  1.00  0.00    -0.275 OA
ATOM      6  H   UNL A   1      40.444  32.176  33.992  1.00  0.00     0.163 HD
BRANCH   4   7
ATOM      7  C   UNL A   1      38.897  32.106  31.008  1.00  0.00     0.123 C 
BRANCH   7   8
ATOM      8  C   UNL A   1      38.058  33.399  30.858  1.00  0.00     0.042 C 
ATOM      9  C   UNL A   1      37.707  33.598  29.335  1.00  0.00     0.024 C 
ATOM     10  C   UNL A   1      38.776  34.789  30.695  1.00  0.00     0.024 C 
ATOM     11  C   UNL A   1      38.947  34.483  29.203  1.00  0.00     0.004 C 
BRANCH   8  12
ATOM     12  N   UNL A   1      36.897  33.303  31.821  1.00  0.00    -0.204 NA
ATOM     13  H   UNL A   1      37.202  32.595  32.489  1.00  0.00     0.142 HD
BRANCH  12  14
ATOM     14  S   UNL A   1      35.265  32.958  31.606  1.00  0.00     0.252 S 
ATOM     15  O   UNL A   1      34.751  32.683  32.934  1.00  0.00    -0.206 OA
ATOM     16  O   UNL A   1      35.247  31.905  30.610  1.00  0.00    -0.206 OA
BRANCH  14  17
ATOM     17  C   UNL A   1      34.482  34.350  30.944  1.00  0.00     0.158 A 
ATOM     18  C   UNL A   1      34.602  35.872  33.043  1.00  0.00     0.067 C 
ATOM     19  C   UNL A   1      34.264  35.487  31.635  1.00  0.00     0.046 A 
ATOM     20  N   UNL A   1      33.527  36.399  30.910  1.00  0.00    -0.315 N 
ATOM     21  C   UNL A   1      33.173  36.044  29.630  1.00  0.00     0.305 A 
ATOM     22  H   UNL A   1      33.266  37.268  31.292  1.00  0.00     0.170 HD
ATOM     23  S   UNL A   1      33.840  34.451  29.314  1.00  0.00    -0.061 S 
ATOM     24  O   UNL A   1      32.510  36.694  28.854  1.00  0.00    -0.257 OA
ENDBRANCH  14  17
ENDBRANCH  12  14
ENDBRANCH   8  12
ENDBRANCH   7   8
ENDBRANCH   4   7
ENDBRANCH   2   3
ENDBRANCH   1   2
BRANCH   1  25
ATOM     25  C   UNL A   1      37.012  29.766  32.750  1.00  0.00     0.023 C 
BRANCH  25  26
ATOM     26  C   UNL A   1      37.444  29.157  31.426  1.00  0.00     0.116 C 
BRANCH  26  27
ATOM     27  N   UNL A   1      36.429  29.263  30.371  1.00  0.00    -0.352 N 
ATOM     28  C   UNL A   1      36.660  29.382  29.007  1.00  0.00     0.251 C 
ATOM     29  H   UNL A   1      35.488  29.246  30.659  1.00  0.00     0.163 HD
ATOM     30  O   UNL A   1      35.819  29.840  28.246  1.00  0.00    -0.269 OA
BRANCH  28  31
ATOM     31  C   UNL A   1      37.952  28.880  28.516  1.00  0.00     0.039 A 
ATOM     32  C   UNL A   1      38.748  29.572  27.602  1.00  0.00     0.014 A 
ATOM     33  C   UNL A   1      38.412  27.744  29.172  1.00  0.00     0.014 A 
ATOM     34  C   UNL A   1      40.064  29.143  27.421  1.00  0.00     0.010 A 
ATOM     35  C   UNL A   1      39.750  27.481  29.163  1.00  0.00     0.010 A 
ATOM     36  C   UNL A   1      40.564  28.107  28.230  1.00  0.00    -0.014 A 
BRANCH  36  37
ATOM     37  C   UNL A   1      41.970  27.715  28.237  1.00  0.00     0.031 A 
ATOM     38  C   UNL A   1      42.262  26.477  27.461  1.00  0.00     0.074 A 
ATOM     39  C   UNL A   1      42.941  28.540  28.697  1.00  0.00     0.049 A 
ATOM     40  N   UNL A   1      42.598  25.323  27.928  1.00  0.00    -0.248 NA
ATOM     41  C   UNL A   1      41.978  26.458  26.015  1.00  0.00     0.031 C 
ATOM     42  C   UNL A   1      42.825  29.910  29.219  1.00  0.00     0.029 A 
ATOM     43  N   UNL A   1      44.286  28.352  28.712  1.00  0.00    -0.354 N 
ATOM     44  C   UNL A   1      42.816  24.499  26.829  1.00  0.00     0.074 A 
ATOM     45  C   UNL A   1      42.221  25.179  25.711  1.00  0.00     0.031 C 
ATOM     46  C   UNL A   1      44.044  30.496  29.270  1.00  0.00     0.029 A 
ATOM     47  C   UNL A   1      45.049  29.493  28.972  1.00  0.00     0.049 A 
ATOM     48  H   UNL A   1      44.696  27.471  28.549  1.00  0.00     0.167 HD
ATOM     49  C   UNL A   1      43.670  23.438  26.910  1.00  0.00     0.034 A 
ATOM     50  C   UNL A   1      46.410  29.598  28.961  1.00  0.00     0.034 A 
ATOM     51  C   UNL A   1      43.981  23.148  28.295  1.00  0.00     0.049 A 
ATOM     52  C   UNL A   1      46.920  28.212  29.144  1.00  0.00     0.074 A 
ATOM     53  C   UNL A   1      43.230  22.766  29.389  1.00  0.00     0.029 A 
ATOM     54  N   UNL A   1      45.146  23.672  28.812  1.00  0.00    -0.354 N 
ATOM     55  N   UNL A   1      46.708  27.523  30.234  1.00  0.00    -0.248 NA
ATOM     56  C   UNL A   1      47.157  27.418  27.946  1.00  0.00     0.031 C 
ATOM     57  C   UNL A   1      43.732  23.558  30.464  1.00  0.00     0.029 A 
ATOM     58  C   UNL A   1      44.833  24.287  30.003  1.00  0.00     0.049 A 
ATOM     59  H   UNL A   1      46.041  23.617  28.405  1.00  0.00     0.167 HD
ATOM     60  C   UNL A   1      46.355  26.254  29.799  1.00  0.00     0.074 A 
ATOM     61  C   UNL A   1      46.719  26.230  28.379  1.00  0.00     0.031 C 
ATOM     62  C   UNL A   1      45.528  25.449  30.533  1.00  0.00     0.034 A 
BRANCH  49  63
ATOM     63  C   UNL A   1      44.503  22.878  25.777  1.00  0.00     0.023 A 
ATOM     64  C   UNL A   1      44.233  21.555  25.372  1.00  0.00     0.031 A 
ATOM     65  C   UNL A   1      45.694  23.441  25.270  1.00  0.00     0.131 A 
ATOM     66  C   UNL A   1      45.161  20.825  24.607  1.00  0.00     0.055 A 
ATOM     67  C   UNL A   1      46.585  22.731  24.457  1.00  0.00     0.041 A 
ATOM     68  F   UNL A   1      46.115  24.666  25.599  1.00  0.00    -0.206 F 
ATOM     69  C   UNL A   1      46.339  21.405  24.148  1.00  0.00     0.022 A 
BRANCH  66  70
ATOM     70  S   UNL A   1      44.882  19.049  24.376  1.00  0.00     0.124 S 
ATOM     71  O   UNL A   1      43.762  18.805  25.279  1.00  0.00    -0.237 OA
ATOM     72  O   UNL A   1      44.587  18.976  22.949  1.00  0.00    -0.237 OA
ATOM     73  O   UNL A   1      46.151  18.453  24.781  1.00  0.00    -0.744 OA
ENDBRANCH  66  70
ENDBRANCH  49  63
BRANCH  50  74
ATOM     74  C   UNL A   1      47.232  30.717  28.399  1.00  0.00     0.023 A 
ATOM     75  C   UNL A   1      46.744  31.674  27.476  1.00  0.00     0.031 A 
ATOM     76  C   UNL A   1      48.487  31.000  28.987  1.00  0.00     0.131 A 
ATOM     77  C   UNL A   1      47.501  32.841  27.183  1.00  0.00     0.055 A 
ATOM     78  C   UNL A   1      49.219  32.156  28.704  1.00  0.00     0.041 A 
ATOM     79  F   UNL A   1      49.006  30.195  29.927  1.00  0.00    -0.206 F 
ATOM     80  C   UNL A   1      48.725  33.087  27.807  1.00  0.00     0.022 A 
BRANCH  77  81
ATOM     81  S   UNL A   1      46.878  34.111  26.021  1.00  0.00     0.124 S 
ATOM     82  O   UNL A   1      46.515  35.203  26.918  1.00  0.00    -0.237 OA
ATOM     83  O   UNL A   1      48.029  34.337  25.155  1.00  0.00    -0.237 OA
ATOM     84  O   UNL A   1      45.744  33.455  25.369  1.00  0.00    -0.744 OA
ENDBRANCH  77  81
ENDBRANCH  50  74
BRANCH  62  85
ATOM     85  C   UNL A   1      45.168  25.875  31.949  1.00  0.00     0.023 A 
ATOM     86  C   UNL A   1      43.988  26.563  32.330  1.00  0.00     0.031 A 
ATOM     87  C   UNL A   1      46.016  25.432  32.978  1.00  0.00     0.131 A 
ATOM     88  C   UNL A   1      43.707  26.783  33.698  1.00  0.00     0.055 A 
ATOM     89  C   UNL A   1      45.722  25.627  34.326  1.00  0.00     0.041 A 
ATOM     90  F   UNL A   1      47.140  24.755  32.686  1.00  0.00    -0.206 F 
ATOM     91  C   UNL A   1      44.568  26.307  34.692  1.00  0.00     0.022 A 
BRANCH  88  92
ATOM     92  S   UNL A   1      42.226  27.715  34.220  1.00  0.00     0.124 S 
ATOM     93  O   UNL A   1      41.337  26.680  34.736  1.00  0.00    -0.237 OA
ATOM     94  O   UNL A   1      42.764  28.645  35.209  1.00  0.00    -0.237 OA
ATOM     95  O   UNL A   1      41.766  28.348  32.982  1.00  0.00    -0.744 OA
ENDBRANCH  88  92
ENDBRANCH  62  85
ENDBRANCH  36  37
ENDBRANCH  28  31
ENDBRANCH  26  27
ENDBRANCH  25  26
ENDBRANCH   1  25
TORSDOF 18
ENDMDL
MODEL 3
REMARK VINA RESULT:     -11.1      2.638      7.181
REMARK SMILES Cc1[nH]c(=O)sc1S(=O)(=O)NC1(CC(=O)NCCCCNC(=O)c2ccc(-c3c4nc(c(-c5cc(S(=O)(=O)[O-])ccc5F)c5ccc([nH]5)c(-c5cc(S(=O)(=O)[O-])ccc5F)c5nc(c(-c6cc(S(=O)(=O)[O-])ccc6F)c6ccc3[nH]6)C=C5)C=C4)cc2)CCC1
REMARK SMILES IDX 18 1 17 2 16 3 14 4 15 5 13 7 12 8 87 9 89 10 88 11 11 12
REMARK SMILES IDX 8 14 9 15 10 16 7 17 1 18 2 19 3 20 4 21 6 23 5 24 19 25
REMARK SMILES IDX 20 26 21 27 22 28 23 30 24 31 25 32 86 33 26 34 85 35 27 36
REMARK SMILES IDX 28 37 29 38 79 39 30 40 84 41 78 42 80 43 31 44 83 45 77 46
REMARK SMILES IDX 76 47 32 49 64 50 44 51 63 52 45 53 48 54 62 55 81 56 46 57
REMARK SMILES IDX 47 58 61 60 82 61 49 62 33 63 34 64 42 65 35 66 41 67 43 68
REMARK SMILES IDX 40 69 36 70 37 71 38 72 39 73 65 74 66 75 74 76 67 77 73 78
REMARK SMILES IDX 75 79 72 80 68 81 69 82 70 83 71 84 50 85 51 86 59 87 52 88
REMARK SMILES IDX 58 89 60 90 57 91 53 92 54 93 55 94 56 95
REMARK H PARENT 16 6 11 13 3 22 21 29 80 48 48 59
REMARK Flexibility Score: inf
ROOT
ATOM      1  C   UNL A   1      33.500  28.880  27.367  1.00  0.00     0.023 C 
ENDROOT
BRANCH   1   2
ATOM      2  C   UNL A   1      34.092  28.240  26.101  1.00  0.00     0.116 C 
BRANCH   2   3
ATOM      3  N   UNL A   1      33.666  28.945  24.914  1.00  0.00    -0.356 N 
ATOM      4  C   UNL A   1      33.563  28.469  23.646  1.00  0.00     0.221 C 
ATOM      5  O   UNL A   1      33.431  29.273  22.721  1.00  0.00    -0.275 OA
ATOM      6  H   UNL A   1      33.419  29.890  25.039  1.00  0.00     0.163 HD
BRANCH   4   7
ATOM      7  C   UNL A   1      33.662  26.986  23.363  1.00  0.00     0.123 C 
BRANCH   7   8
ATOM      8  C   UNL A   1      32.333  26.192  23.354  1.00  0.00     0.042 C 
ATOM      9  C   UNL A   1      31.684  26.310  21.923  1.00  0.00     0.024 C 
ATOM     10  C   UNL A   1      31.000  26.883  23.824  1.00  0.00     0.024 C 
ATOM     11  C   UNL A   1      30.876  27.505  22.428  1.00  0.00     0.004 C 
BRANCH   8  12
ATOM     12  N   UNL A   1      32.630  24.798  23.857  1.00  0.00    -0.204 NA
ATOM     13  H   UNL A   1      32.101  24.200  23.223  1.00  0.00     0.142 HD
BRANCH  12  14
ATOM     14  S   UNL A   1      32.424  24.058  25.353  1.00  0.00     0.252 S 
ATOM     15  O   UNL A   1      31.153  23.365  25.268  1.00  0.00    -0.206 OA
ATOM     16  O   UNL A   1      32.579  25.134  26.312  1.00  0.00    -0.206 OA
BRANCH  14  17
ATOM     17  C   UNL A   1      33.704  22.922  25.596  1.00  0.00     0.158 A 
ATOM     18  C   UNL A   1      33.184  22.303  28.062  1.00  0.00     0.067 C 
ATOM     19  C   UNL A   1      33.916  22.268  26.755  1.00  0.00     0.046 A 
ATOM     20  N   UNL A   1      35.065  21.505  26.717  1.00  0.00    -0.315 N 
ATOM     21  C   UNL A   1      35.772  21.496  25.538  1.00  0.00     0.305 A 
ATOM     22  H   UNL A   1      35.365  20.990  27.500  1.00  0.00     0.170 HD
ATOM     23  S   UNL A   1      34.909  22.505  24.390  1.00  0.00    -0.061 S 
ATOM     24  O   UNL A   1      36.810  20.913  25.320  1.00  0.00    -0.257 OA
ENDBRANCH  14  17
ENDBRANCH  12  14
ENDBRANCH   8  12
ENDBRANCH   7   8
ENDBRANCH   4   7
ENDBRANCH   2   3
ENDBRANCH   1   2
BRANCH   1  25
ATOM     25  C   UNL A   1      33.087  30.346  27.271  1.00  0.00     0.023 C 
BRANCH  25  26
ATOM     26  C   UNL A   1      34.240  31.314  27.480  1.00  0.00     0.116 C 
BRANCH  26  27
ATOM     27  N   UNL A   1      34.184  32.028  28.762  1.00  0.00    -0.352 N 
ATOM     28  C   UNL A   1      35.037  31.856  29.845  1.00  0.00     0.251 C 
ATOM     29  H   UNL A   1      33.471  32.697  28.865  1.00  0.00     0.163 HD
ATOM     30  O   UNL A   1      34.717  32.183  30.978  1.00  0.00    -0.269 OA
BRANCH  28  31
ATOM     31  C   UNL A   1      36.368  31.307  29.548  1.00  0.00     0.039 A 
ATOM     32  C   UNL A   1      37.532  32.076  29.539  1.00  0.00     0.014 A 
ATOM     33  C   UNL A   1      36.410  29.920  29.455  1.00  0.00     0.014 A 
ATOM     34  C   UNL A   1      38.759  31.412  29.521  1.00  0.00     0.010 A 
ATOM     35  C   UNL A   1      37.598  29.286  29.672  1.00  0.00     0.010 A 
ATOM     36  C   UNL A   1      38.780  30.009  29.614  1.00  0.00    -0.014 A 
BRANCH  36  37
ATOM     37  C   UNL A   1      40.011  29.244  29.780  1.00  0.00     0.031 A 
ATOM     38  C   UNL A   1      40.335  28.909  31.196  1.00  0.00     0.074 A 
ATOM     39  C   UNL A   1      40.654  28.683  28.727  1.00  0.00     0.049 A 
ATOM     40  N   UNL A   1      41.293  29.391  31.912  1.00  0.00    -0.248 NA
ATOM     41  C   UNL A   1      39.390  28.083  31.968  1.00  0.00     0.031 C 
ATOM     42  C   UNL A   1      40.281  28.685  27.304  1.00  0.00     0.029 A 
ATOM     43  N   UNL A   1      41.761  27.896  28.722  1.00  0.00    -0.354 N 
ATOM     44  C   UNL A   1      41.230  28.745  33.143  1.00  0.00     0.074 A 
ATOM     45  C   UNL A   1      39.934  28.124  33.188  1.00  0.00     0.031 C 
ATOM     46  C   UNL A   1      41.000  27.756  26.632  1.00  0.00     0.029 A 
ATOM     47  C   UNL A   1      42.015  27.227  27.522  1.00  0.00     0.049 A 
ATOM     48  H   UNL A   1      42.343  27.802  29.510  1.00  0.00     0.167 HD
ATOM     49  C   UNL A   1      42.347  28.597  33.912  1.00  0.00     0.034 A 
ATOM     50  C   UNL A   1      43.004  26.318  27.276  1.00  0.00     0.034 A 
ATOM     51  C   UNL A   1      43.405  29.461  33.432  1.00  0.00     0.049 A 
ATOM     52  C   UNL A   1      44.041  26.564  28.313  1.00  0.00     0.074 A 
ATOM     53  C   UNL A   1      43.544  30.830  33.303  1.00  0.00     0.029 A 
ATOM     54  N   UNL A   1      44.346  28.914  32.586  1.00  0.00    -0.354 N 
ATOM     55  N   UNL A   1      44.712  27.683  28.386  1.00  0.00    -0.248 NA
ATOM     56  C   UNL A   1      43.930  25.827  29.565  1.00  0.00     0.031 C 
ATOM     57  C   UNL A   1      44.156  31.010  32.027  1.00  0.00     0.029 A 
ATOM     58  C   UNL A   1      44.467  29.752  31.501  1.00  0.00     0.049 A 
ATOM     59  H   UNL A   1      44.841  28.075  32.731  1.00  0.00     0.167 HD
ATOM     60  C   UNL A   1      44.731  28.009  29.734  1.00  0.00     0.074 A 
ATOM     61  C   UNL A   1      44.294  26.790  30.421  1.00  0.00     0.031 C 
ATOM     62  C   UNL A   1      44.799  29.308  30.156  1.00  0.00     0.034 A 
BRANCH  49  63
ATOM     63  C   UNL A   1      42.628  27.450  34.859  1.00  0.00     0.023 A 
ATOM     64  C   UNL A   1      43.441  26.403  34.379  1.00  0.00     0.031 A 
ATOM     65  C   UNL A   1      41.943  27.188  36.066  1.00  0.00     0.131 A 
ATOM     66  C   UNL A   1      43.464  25.149  35.017  1.00  0.00     0.055 A 
ATOM     67  C   UNL A   1      42.018  25.958  36.731  1.00  0.00     0.041 A 
ATOM     68  F   UNL A   1      41.097  28.058  36.623  1.00  0.00    -0.206 F 
ATOM     69  C   UNL A   1      42.753  24.919  36.190  1.00  0.00     0.022 A 
BRANCH  66  70
ATOM     70  S   UNL A   1      44.296  23.772  34.183  1.00  0.00     0.124 S 
ATOM     71  O   UNL A   1      45.649  23.874  34.719  1.00  0.00    -0.237 OA
ATOM     72  O   UNL A   1      43.508  22.629  34.633  1.00  0.00    -0.237 OA
ATOM     73  O   UNL A   1      44.160  24.103  32.767  1.00  0.00    -0.744 OA
ENDBRANCH  66  70
ENDBRANCH  49  63
BRANCH  50  74
ATOM     74  C   UNL A   1      42.893  25.042  26.499  1.00  0.00     0.023 A 
ATOM     75  C   UNL A   1      43.928  24.514  25.688  1.00  0.00     0.031 A 
ATOM     76  C   UNL A   1      41.804  24.180  26.761  1.00  0.00     0.131 A 
ATOM     77  C   UNL A   1      43.842  23.187  25.187  1.00  0.00     0.055 A 
ATOM     78  C   UNL A   1      41.732  22.871  26.274  1.00  0.00     0.041 A 
ATOM     79  F   UNL A   1      40.804  24.556  27.575  1.00  0.00    -0.206 F 
ATOM     80  C   UNL A   1      42.756  22.365  25.492  1.00  0.00     0.022 A 
BRANCH  77  81
ATOM     81  S   UNL A   1      45.181  22.467  24.168  1.00  0.00     0.124 S 
ATOM     82  O   UNL A   1      45.833  21.559  25.105  1.00  0.00    -0.237 OA
ATOM     83  O   UNL A   1      44.446  21.851  23.071  1.00  0.00    -0.237 OA
ATOM     84  O   UNL A   1      45.986  23.629  23.786  1.00  0.00    -0.744 OA
ENDBRANCH  77  81
ENDBRANCH  50  74
BRANCH  62  85
ATOM     85  C   UNL A   1      45.075  30.395  29.126  1.00  0.00     0.023 A 
ATOM     86  C   UNL A   1      46.352  30.758  28.631  1.00  0.00     0.031 A 
ATOM     87  C   UNL A   1      43.955  30.993  28.524  1.00  0.00     0.131 A 
ATOM     88  C   UNL A   1      46.463  31.692  27.575  1.00  0.00     0.055 A 
ATOM     89  C   UNL A   1      44.068  31.893  27.465  1.00  0.00     0.041 A 
ATOM     90  F   UNL A   1      42.715  30.677  28.932  1.00  0.00    -0.206 F 
ATOM     91  C   UNL A   1      45.322  32.249  26.989  1.00  0.00     0.022 A 
BRANCH  88  92
ATOM     92  S   UNL A   1      48.095  32.224  26.952  1.00  0.00     0.124 S 
ATOM     93  O   UNL A   1      48.704  30.983  26.489  1.00  0.00    -0.237 OA
ATOM     94  O   UNL A   1      47.743  33.188  25.914  1.00  0.00    -0.237 OA
ATOM     95  O   UNL A   1      48.736  32.811  28.131  1.00  0.00    -0.744 OA
ENDBRANCH  88  92
ENDBRANCH  62  85
ENDBRANCH  36  37
ENDBRANCH  28  31
ENDBRANCH  26  27
ENDBRANCH  25  26
ENDBRANCH   1  25
TORSDOF 18
ENDMDL
