MODEL 1
REMARK VINA RESULT:     -10.5      0.000      0.000
REMARK SMILES O=C(C[C@H](c1ccsc1)n1cccc1)NCCCCNC(=O)c1ccc(-c2c3nc(c(-c4cc(S(=O)(=O)[O-])ccc4F)c4ccc([nH]4)c(-c4cc(S(=O)(=O)[O-])ccc4F)c4nc(c(-c5cc(S(=O)(=O)[O-])ccc5F)c5ccc2[nH]5)C=C4)C=C3)cc1
REMARK SMILES IDX 18 1 17 2 16 3 15 4 1 5 2 6 3 8 4 9 10 10 11 11 14 12 12 13
REMARK SMILES IDX 13 14 5 15 6 16 9 17 7 18 8 19 19 20 20 21 21 22 22 24 23 25
REMARK SMILES IDX 24 26 85 27 25 28 84 29 26 30 27 31 28 32 78 33 29 34 83 35
REMARK SMILES IDX 77 36 79 37 30 38 82 39 76 40 75 41 31 43 63 44 43 45 62 46
REMARK SMILES IDX 44 47 47 48 61 49 80 50 45 51 46 52 60 54 81 55 48 56 32 57
REMARK SMILES IDX 33 58 41 59 34 60 40 61 42 62 39 63 35 64 36 65 37 66 38 67
REMARK SMILES IDX 64 68 65 69 73 70 66 71 72 72 74 73 71 74 67 75 68 76 69 77
REMARK SMILES IDX 70 78 49 79 50 80 58 81 51 82 57 83 59 84 56 85 52 86 53 87
REMARK SMILES IDX 54 88 55 89
REMARK H PARENT 15 7 20 23 79 42 47 53
REMARK Flexibility Score: inf
ROOT
ATOM      1  C   UNL A   1      33.793  28.213  25.663  1.00  0.00     0.023 C 
ENDROOT
BRANCH   1   2
ATOM      2  C   UNL A   1      32.316  27.790  25.673  1.00  0.00     0.023 C 
BRANCH   2   3
ATOM      3  C   UNL A   1      31.872  26.977  24.457  1.00  0.00     0.116 C 
BRANCH   3   4
ATOM      4  N   UNL A   1      32.666  25.770  24.299  1.00  0.00    -0.356 N 
ATOM      5  O   UNL A   1      33.558  26.391  22.288  1.00  0.00    -0.275 OA
ATOM      6  C   UNL A   1      33.471  25.576  23.204  1.00  0.00     0.222 C 
ATOM      7  H   UNL A   1      32.625  25.074  24.994  1.00  0.00     0.163 HD
BRANCH   6   8
ATOM      8  C   UNL A   1      34.175  24.240  23.101  1.00  0.00     0.130 C 
BRANCH   8   9
ATOM      9  C   UNL A   1      34.170  23.404  24.390  1.00  0.00     0.127 C 
BRANCH   9  10
ATOM     10  N   UNL A   1      33.387  22.157  24.328  1.00  0.00    -0.346 N 
ATOM     11  C   UNL A   1      32.845  21.553  23.218  1.00  0.00     0.086 A 
ATOM     12  C   UNL A   1      33.126  21.363  25.424  1.00  0.00     0.086 A 
ATOM     13  C   UNL A   1      32.241  20.378  23.610  1.00  0.00     0.019 A 
ATOM     14  C   UNL A   1      32.428  20.252  25.003  1.00  0.00     0.019 A 
ENDBRANCH   9  10
BRANCH   9  15
ATOM     15  C   UNL A   1      35.583  23.078  24.846  1.00  0.00    -0.014 A 
ATOM     16  C   UNL A   1      36.376  23.875  25.741  1.00  0.00     0.017 A 
ATOM     17  C   UNL A   1      36.280  21.944  24.461  1.00  0.00     0.070 A 
ATOM     18  C   UNL A   1      37.606  23.316  26.003  1.00  0.00     0.065 A 
ATOM     19  S   UNL A   1      37.829  21.841  25.175  1.00  0.00    -0.152 S 
ENDBRANCH   9  15
ENDBRANCH   8   9
ENDBRANCH   6   8
ENDBRANCH   3   4
ENDBRANCH   2   3
ENDBRANCH   1   2
BRANCH   1  20
ATOM     20  C   UNL A   1      34.415  28.331  27.051  1.00  0.00     0.116 C 
BRANCH  20  21
ATOM     21  N   UNL A   1      34.370  29.700  27.538  1.00  0.00    -0.352 N 
ATOM     22  C   UNL A   1      35.265  30.348  28.356  1.00  0.00     0.251 C 
ATOM     23  H   UNL A   1      33.597  30.233  27.243  1.00  0.00     0.163 HD
ATOM     24  O   UNL A   1      34.900  31.327  28.992  1.00  0.00    -0.269 OA
BRANCH  22  25
ATOM     25  C   UNL A   1      36.659  29.868  28.469  1.00  0.00     0.039 A 
ATOM     26  C   UNL A   1      37.084  29.316  29.684  1.00  0.00     0.014 A 
ATOM     27  C   UNL A   1      37.562  30.046  27.415  1.00  0.00     0.014 A 
ATOM     28  C   UNL A   1      38.404  28.899  29.822  1.00  0.00     0.010 A 
ATOM     29  C   UNL A   1      38.869  29.602  27.537  1.00  0.00     0.010 A 
ATOM     30  C   UNL A   1      39.287  29.035  28.742  1.00  0.00    -0.014 A 
BRANCH  30  31
ATOM     31  C   UNL A   1      40.646  28.465  28.840  1.00  0.00     0.031 A 
ATOM     32  C   UNL A   1      41.663  29.575  29.200  1.00  0.00     0.074 A 
ATOM     33  C   UNL A   1      40.759  27.121  28.572  1.00  0.00     0.049 A 
ATOM     34  N   UNL A   1      42.863  29.777  28.753  1.00  0.00    -0.248 NA
ATOM     35  C   UNL A   1      41.243  30.713  30.072  1.00  0.00     0.031 C 
ATOM     36  C   UNL A   1      39.623  26.214  28.252  1.00  0.00     0.029 A 
ATOM     37  N   UNL A   1      41.812  26.231  28.515  1.00  0.00    -0.354 N 
ATOM     38  C   UNL A   1      43.421  30.870  29.466  1.00  0.00     0.074 A 
ATOM     39  C   UNL A   1      42.318  31.510  30.115  1.00  0.00     0.031 C 
ATOM     40  C   UNL A   1      40.052  24.963  27.956  1.00  0.00     0.029 A 
ATOM     41  C   UNL A   1      41.496  24.907  28.067  1.00  0.00     0.049 A 
ATOM     42  H   UNL A   1      42.728  26.490  28.767  1.00  0.00     0.167 HD
ATOM     43  C   UNL A   1      44.773  31.033  29.631  1.00  0.00     0.034 A 
ATOM     44  C   UNL A   1      42.349  23.870  27.766  1.00  0.00     0.034 A 
ATOM     45  C   UNL A   1      45.432  29.907  29.054  1.00  0.00     0.049 A 
ATOM     46  C   UNL A   1      43.664  24.377  28.180  1.00  0.00     0.074 A 
ATOM     47  C   UNL A   1      45.550  29.459  27.765  1.00  0.00     0.029 A 
ATOM     48  N   UNL A   1      45.706  28.871  29.925  1.00  0.00    -0.354 N 
ATOM     49  N   UNL A   1      44.058  24.512  29.409  1.00  0.00    -0.248 NA
ATOM     50  C   UNL A   1      44.589  24.846  27.139  1.00  0.00     0.031 C 
ATOM     51  C   UNL A   1      45.303  28.081  27.916  1.00  0.00     0.029 A 
ATOM     52  C   UNL A   1      45.394  27.716  29.267  1.00  0.00     0.049 A 
ATOM     53  H   UNL A   1      46.058  28.950  30.840  1.00  0.00     0.167 HD
ATOM     54  C   UNL A   1      45.111  25.381  29.283  1.00  0.00     0.074 A 
ATOM     55  C   UNL A   1      45.582  25.272  27.915  1.00  0.00     0.031 C 
ATOM     56  C   UNL A   1      45.107  26.520  30.026  1.00  0.00     0.034 A 
BRANCH  43  57
ATOM     57  C   UNL A   1      45.652  31.894  30.513  1.00  0.00     0.023 A 
ATOM     58  C   UNL A   1      46.927  32.232  29.975  1.00  0.00     0.031 A 
ATOM     59  C   UNL A   1      45.489  32.111  31.883  1.00  0.00     0.131 A 
ATOM     60  C   UNL A   1      48.007  32.585  30.794  1.00  0.00     0.055 A 
ATOM     61  C   UNL A   1      46.554  32.541  32.695  1.00  0.00     0.041 A 
ATOM     62  F   UNL A   1      44.334  31.842  32.505  1.00  0.00    -0.206 F 
ATOM     63  C   UNL A   1      47.828  32.737  32.161  1.00  0.00     0.022 A 
BRANCH  60  64
ATOM     64  S   UNL A   1      49.667  32.642  30.053  1.00  0.00     0.124 S 
ATOM     65  O   UNL A   1      50.517  32.850  31.220  1.00  0.00    -0.237 OA
ATOM     66  O   UNL A   1      49.763  31.330  29.419  1.00  0.00    -0.237 OA
ATOM     67  O   UNL A   1      49.587  33.772  29.131  1.00  0.00    -0.744 OA
ENDBRANCH  60  64
ENDBRANCH  43  57
BRANCH  44  68
ATOM     68  C   UNL A   1      42.389  22.491  27.098  1.00  0.00     0.023 A 
ATOM     69  C   UNL A   1      43.422  21.929  26.327  1.00  0.00     0.031 A 
ATOM     70  C   UNL A   1      41.292  21.593  27.339  1.00  0.00     0.131 A 
ATOM     71  C   UNL A   1      43.364  20.548  25.945  1.00  0.00     0.055 A 
ATOM     72  C   UNL A   1      41.295  20.227  27.067  1.00  0.00     0.041 A 
ATOM     73  F   UNL A   1      40.130  22.004  27.864  1.00  0.00    -0.206 F 
ATOM     74  C   UNL A   1      42.348  19.689  26.378  1.00  0.00     0.022 A 
BRANCH  71  75
ATOM     75  S   UNL A   1      44.614  19.794  24.855  1.00  0.00     0.124 S 
ATOM     76  O   UNL A   1      44.220  18.388  24.874  1.00  0.00    -0.237 OA
ATOM     77  O   UNL A   1      44.417  20.500  23.595  1.00  0.00    -0.237 OA
ATOM     78  O   UNL A   1      45.877  20.090  25.534  1.00  0.00    -0.744 OA
ENDBRANCH  71  75
ENDBRANCH  44  68
BRANCH  56  79
ATOM     79  C   UNL A   1      44.407  26.416  31.379  1.00  0.00     0.023 A 
ATOM     80  C   UNL A   1      43.343  27.293  31.686  1.00  0.00     0.031 A 
ATOM     81  C   UNL A   1      44.798  25.554  32.419  1.00  0.00     0.131 A 
ATOM     82  C   UNL A   1      42.750  27.312  32.964  1.00  0.00     0.055 A 
ATOM     83  C   UNL A   1      44.204  25.562  33.691  1.00  0.00     0.041 A 
ATOM     84  F   UNL A   1      45.784  24.673  32.244  1.00  0.00    -0.206 F 
ATOM     85  C   UNL A   1      43.173  26.448  33.971  1.00  0.00     0.022 A 
BRANCH  82  86
ATOM     86  S   UNL A   1      41.386  28.465  33.292  1.00  0.00     0.124 S 
ATOM     87  O   UNL A   1      42.017  29.767  33.113  1.00  0.00    -0.237 OA
ATOM     88  O   UNL A   1      40.401  28.086  32.283  1.00  0.00    -0.237 OA
ATOM     89  O   UNL A   1      40.999  28.151  34.668  1.00  0.00    -0.744 OA
ENDBRANCH  82  86
ENDBRANCH  56  79
ENDBRANCH  30  31
ENDBRANCH  22  25
ENDBRANCH  20  21
ENDBRANCH   1  20
TORSDOF 17
ENDMDL
MODEL 2
REMARK VINA RESULT:     -10.4      3.506      5.568
REMARK SMILES O=C(C[C@H](c1ccsc1)n1cccc1)NCCCCNC(=O)c1ccc(-c2c3nc(c(-c4cc(S(=O)(=O)[O-])ccc4F)c4ccc([nH]4)c(-c4cc(S(=O)(=O)[O-])ccc4F)c4nc(c(-c5cc(S(=O)(=O)[O-])ccc5F)c5ccc2[nH]5)C=C4)C=C3)cc1
REMARK SMILES IDX 18 1 17 2 16 3 15 4 1 5 2 6 3 8 4 9 10 10 11 11 14 12 12 13
REMARK SMILES IDX 13 14 5 15 6 16 9 17 7 18 8 19 19 20 20 21 21 22 22 24 23 25
REMARK SMILES IDX 24 26 85 27 25 28 84 29 26 30 27 31 28 32 78 33 29 34 83 35
REMARK SMILES IDX 77 36 79 37 30 38 82 39 76 40 75 41 31 43 63 44 43 45 62 46
REMARK SMILES IDX 44 47 47 48 61 49 80 50 45 51 46 52 60 54 81 55 48 56 32 57
REMARK SMILES IDX 33 58 41 59 34 60 40 61 42 62 39 63 35 64 36 65 37 66 38 67
REMARK SMILES IDX 64 68 65 69 73 70 66 71 72 72 74 73 71 74 67 75 68 76 69 77
REMARK SMILES IDX 70 78 49 79 50 80 58 81 51 82 57 83 59 84 56 85 52 86 53 87
REMARK SMILES IDX 54 88 55 89
REMARK H PARENT 15 7 20 23 79 42 47 53
REMARK Flexibility Score: inf
ROOT
ATOM      1  C   UNL A   1      32.972  27.954  27.167  1.00  0.00     0.023 C 
ENDROOT
BRANCH   1   2
ATOM      2  C   UNL A   1      31.484  27.787  26.828  1.00  0.00     0.023 C 
BRANCH   2   3
ATOM      3  C   UNL A   1      31.184  26.748  25.747  1.00  0.00     0.116 C 
BRANCH   3   4
ATOM      4  N   UNL A   1      32.129  25.645  25.785  1.00  0.00    -0.356 N 
ATOM      5  O   UNL A   1      30.830  24.327  27.127  1.00  0.00    -0.275 OA
ATOM      6  C   UNL A   1      31.863  24.492  26.482  1.00  0.00     0.222 C 
ATOM      7  H   UNL A   1      32.982  25.726  25.300  1.00  0.00     0.163 HD
BRANCH   6   8
ATOM      8  C   UNL A   1      32.962  23.453  26.529  1.00  0.00     0.130 C 
BRANCH   8   9
ATOM      9  C   UNL A   1      33.452  22.964  25.158  1.00  0.00     0.127 C 
BRANCH   9  10
ATOM     10  N   UNL A   1      34.892  23.148  24.903  1.00  0.00    -0.346 N 
ATOM     11  C   UNL A   1      35.560  23.033  23.707  1.00  0.00     0.086 A 
ATOM     12  C   UNL A   1      35.797  23.532  25.869  1.00  0.00     0.086 A 
ATOM     13  C   UNL A   1      36.887  23.342  23.916  1.00  0.00     0.019 A 
ATOM     14  C   UNL A   1      37.035  23.669  25.281  1.00  0.00     0.019 A 
ENDBRANCH   9  10
BRANCH   9  15
ATOM     15  C   UNL A   1      33.091  21.507  24.926  1.00  0.00    -0.014 A 
ATOM     16  C   UNL A   1      32.447  20.983  23.752  1.00  0.00     0.017 A 
ATOM     17  C   UNL A   1      33.360  20.487  25.825  1.00  0.00     0.070 A 
ATOM     18  C   UNL A   1      32.274  19.619  23.804  1.00  0.00     0.065 A 
ATOM     19  S   UNL A   1      32.869  18.952  25.258  1.00  0.00    -0.152 S 
ENDBRANCH   9  15
ENDBRANCH   8   9
ENDBRANCH   6   8
ENDBRANCH   3   4
ENDBRANCH   2   3
ENDBRANCH   1   2
BRANCH   1  20
ATOM     20  C   UNL A   1      33.682  29.020  26.338  1.00  0.00     0.116 C 
BRANCH  20  21
ATOM     21  N   UNL A   1      33.215  30.355  26.677  1.00  0.00    -0.352 N 
ATOM     22  C   UNL A   1      33.738  31.240  27.590  1.00  0.00     0.251 C 
ATOM     23  H   UNL A   1      32.420  30.666  26.187  1.00  0.00     0.163 HD
ATOM     24  O   UNL A   1      33.027  32.124  28.047  1.00  0.00    -0.269 OA
BRANCH  22  25
ATOM     25  C   UNL A   1      35.148  31.126  28.017  1.00  0.00     0.039 A 
ATOM     26  C   UNL A   1      35.982  32.244  27.891  1.00  0.00     0.014 A 
ATOM     27  C   UNL A   1      35.666  29.900  28.450  1.00  0.00     0.014 A 
ATOM     28  C   UNL A   1      37.323  32.142  28.247  1.00  0.00     0.010 A 
ATOM     29  C   UNL A   1      36.992  29.803  28.838  1.00  0.00     0.010 A 
ATOM     30  C   UNL A   1      37.819  30.923  28.729  1.00  0.00    -0.014 A 
BRANCH  30  31
ATOM     31  C   UNL A   1      39.203  30.854  29.239  1.00  0.00     0.031 A 
ATOM     32  C   UNL A   1      39.405  31.893  30.369  1.00  0.00     0.074 A 
ATOM     33  C   UNL A   1      40.030  29.946  28.622  1.00  0.00     0.049 A 
ATOM     34  N   UNL A   1      40.416  32.666  30.613  1.00  0.00    -0.248 NA
ATOM     35  C   UNL A   1      38.268  32.234  31.276  1.00  0.00     0.031 C 
ATOM     36  C   UNL A   1      39.620  29.012  27.539  1.00  0.00     0.029 A 
ATOM     37  N   UNL A   1      41.360  29.599  28.759  1.00  0.00    -0.354 N 
ATOM     38  C   UNL A   1      40.154  33.366  31.820  1.00  0.00     0.074 A 
ATOM     39  C   UNL A   1      38.755  33.199  32.067  1.00  0.00     0.031 C 
ATOM     40  C   UNL A   1      40.671  28.294  27.073  1.00  0.00     0.029 A 
ATOM     41  C   UNL A   1      41.868  28.659  27.804  1.00  0.00     0.049 A 
ATOM     42  H   UNL A   1      41.926  29.976  29.470  1.00  0.00     0.167 HD
ATOM     43  C   UNL A   1      41.153  33.850  32.626  1.00  0.00     0.034 A 
ATOM     44  C   UNL A   1      43.167  28.252  27.599  1.00  0.00     0.034 A 
ATOM     45  C   UNL A   1      42.406  33.448  32.075  1.00  0.00     0.049 A 
ATOM     46  C   UNL A   1      43.900  28.876  28.709  1.00  0.00     0.074 A 
ATOM     47  C   UNL A   1      43.058  33.773  30.916  1.00  0.00     0.029 A 
ATOM     48  N   UNL A   1      42.921  32.268  32.574  1.00  0.00    -0.354 N 
ATOM     49  N   UNL A   1      43.842  28.495  29.948  1.00  0.00    -0.248 NA
ATOM     50  C   UNL A   1      44.704  30.073  28.426  1.00  0.00     0.031 C 
ATOM     51  C   UNL A   1      43.496  32.511  30.469  1.00  0.00     0.029 A 
ATOM     52  C   UNL A   1      43.403  31.570  31.505  1.00  0.00     0.049 A 
ATOM     53  H   UNL A   1      42.937  31.986  33.517  1.00  0.00     0.167 HD
ATOM     54  C   UNL A   1      44.319  29.595  30.613  1.00  0.00     0.074 A 
ATOM     55  C   UNL A   1      45.117  30.346  29.661  1.00  0.00     0.031 C 
ATOM     56  C   UNL A   1      43.560  30.136  31.603  1.00  0.00     0.034 A 
BRANCH  43  57
ATOM     57  C   UNL A   1      41.229  34.383  34.041  1.00  0.00     0.023 A 
ATOM     58  C   UNL A   1      40.548  33.613  35.029  1.00  0.00     0.031 A 
ATOM     59  C   UNL A   1      41.600  35.675  34.421  1.00  0.00     0.131 A 
ATOM     60  C   UNL A   1      40.115  34.174  36.236  1.00  0.00     0.055 A 
ATOM     61  C   UNL A   1      41.232  36.213  35.668  1.00  0.00     0.041 A 
ATOM     62  F   UNL A   1      42.253  36.492  33.586  1.00  0.00    -0.206 F 
ATOM     63  C   UNL A   1      40.450  35.481  36.562  1.00  0.00     0.022 A 
BRANCH  60  64
ATOM     64  S   UNL A   1      38.951  33.222  37.259  1.00  0.00     0.124 S 
ATOM     65  O   UNL A   1      38.128  32.560  36.254  1.00  0.00    -0.237 OA
ATOM     66  O   UNL A   1      39.849  32.358  38.019  1.00  0.00    -0.237 OA
ATOM     67  O   UNL A   1      38.271  34.250  38.043  1.00  0.00    -0.744 OA
ENDBRANCH  60  64
ENDBRANCH  43  57
BRANCH  44  68
ATOM     68  C   UNL A   1      44.054  27.493  26.607  1.00  0.00     0.023 A 
ATOM     69  C   UNL A   1      45.185  27.964  25.916  1.00  0.00     0.031 A 
ATOM     70  C   UNL A   1      43.787  26.096  26.395  1.00  0.00     0.131 A 
ATOM     71  C   UNL A   1      46.007  27.052  25.176  1.00  0.00     0.055 A 
ATOM     72  C   UNL A   1      44.651  25.196  25.775  1.00  0.00     0.041 A 
ATOM     73  F   UNL A   1      42.646  25.515  26.789  1.00  0.00    -0.206 F 
ATOM     74  C   UNL A   1      45.784  25.671  25.171  1.00  0.00     0.022 A 
BRANCH  71  75
ATOM     75  S   UNL A   1      47.417  27.619  24.172  1.00  0.00     0.124 S 
ATOM     76  O   UNL A   1      48.309  28.168  25.190  1.00  0.00    -0.237 OA
ATOM     77  O   UNL A   1      47.865  26.396  23.517  1.00  0.00    -0.237 OA
ATOM     78  O   UNL A   1      46.818  28.612  23.278  1.00  0.00    -0.744 OA
ENDBRANCH  71  75
ENDBRANCH  44  68
BRANCH  56  79
ATOM     79  C   UNL A   1      42.680  29.149  32.367  1.00  0.00     0.023 A 
ATOM     80  C   UNL A   1      41.331  28.977  31.990  1.00  0.00     0.031 A 
ATOM     81  C   UNL A   1      43.085  28.435  33.509  1.00  0.00     0.131 A 
ATOM     82  C   UNL A   1      40.454  28.168  32.740  1.00  0.00     0.055 A 
ATOM     83  C   UNL A   1      42.218  27.620  34.255  1.00  0.00     0.041 A 
ATOM     84  F   UNL A   1      44.339  28.509  33.955  1.00  0.00    -0.206 F 
ATOM     85  C   UNL A   1      40.891  27.484  33.873  1.00  0.00     0.022 A 
BRANCH  82  86
ATOM     86  S   UNL A   1      38.730  27.990  32.200  1.00  0.00     0.124 S 
ATOM     87  O   UNL A   1      38.233  26.925  33.063  1.00  0.00    -0.237 OA
ATOM     88  O   UNL A   1      38.182  29.321  32.444  1.00  0.00    -0.237 OA
ATOM     89  O   UNL A   1      38.852  27.632  30.787  1.00  0.00    -0.744 OA
ENDBRANCH  82  86
ENDBRANCH  56  79
ENDBRANCH  30  31
ENDBRANCH  22  25
ENDBRANCH  20  21
ENDBRANCH   1  20
TORSDOF 17
ENDMDL
MODEL 3
REMARK VINA RESULT:     -10.4      4.429     10.605
REMARK SMILES O=C(C[C@H](c1ccsc1)n1cccc1)NCCCCNC(=O)c1ccc(-c2c3nc(c(-c4cc(S(=O)(=O)[O-])ccc4F)c4ccc([nH]4)c(-c4cc(S(=O)(=O)[O-])ccc4F)c4nc(c(-c5cc(S(=O)(=O)[O-])ccc5F)c5ccc2[nH]5)C=C4)C=C3)cc1
REMARK SMILES IDX 18 1 17 2 16 3 15 4 1 5 2 6 3 8 4 9 10 10 11 11 14 12 12 13
REMARK SMILES IDX 13 14 5 15 6 16 9 17 7 18 8 19 19 20 20 21 21 22 22 24 23 25
REMARK SMILES IDX 24 26 85 27 25 28 84 29 26 30 27 31 28 32 78 33 29 34 83 35
REMARK SMILES IDX 77 36 79 37 30 38 82 39 76 40 75 41 31 43 63 44 43 45 62 46
REMARK SMILES IDX 44 47 47 48 61 49 80 50 45 51 46 52 60 54 81 55 48 56 32 57
REMARK SMILES IDX 33 58 41 59 34 60 40 61 42 62 39 63 35 64 36 65 37 66 38 67
REMARK SMILES IDX 64 68 65 69 73 70 66 71 72 72 74 73 71 74 67 75 68 76 69 77
REMARK SMILES IDX 70 78 49 79 50 80 58 81 51 82 57 83 59 84 56 85 52 86 53 87
REMARK SMILES IDX 54 88 55 89
REMARK H PARENT 15 7 20 23 79 42 47 53
REMARK Flexibility Score: inf
ROOT
ATOM      1  C   UNL A   1      36.330  32.352  31.094  1.00  0.00     0.023 C 
ENDROOT
BRANCH   1   2
ATOM      2  C   UNL A   1      34.818  32.521  31.307  1.00  0.00     0.023 C 
BRANCH   2   3
ATOM      3  C   UNL A   1      34.421  33.090  32.669  1.00  0.00     0.116 C 
BRANCH   3   4
ATOM      4  N   UNL A   1      35.499  32.968  33.637  1.00  0.00    -0.356 N 
ATOM      5  O   UNL A   1      35.225  35.070  34.492  1.00  0.00    -0.275 OA
ATOM      6  C   UNL A   1      35.814  33.992  34.497  1.00  0.00     0.222 C 
ATOM      7  H   UNL A   1      36.017  32.132  33.676  1.00  0.00     0.163 HD
BRANCH   6   8
ATOM      8  C   UNL A   1      37.016  33.787  35.392  1.00  0.00     0.130 C 
BRANCH   8   9
ATOM      9  C   UNL A   1      38.264  34.591  34.996  1.00  0.00     0.127 C 
BRANCH   9  10
ATOM     10  N   UNL A   1      39.146  34.974  36.113  1.00  0.00    -0.346 N 
ATOM     11  C   UNL A   1      40.168  35.893  36.107  1.00  0.00     0.086 A 
ATOM     12  C   UNL A   1      39.021  34.474  37.392  1.00  0.00     0.086 A 
ATOM     13  C   UNL A   1      40.691  35.975  37.380  1.00  0.00     0.019 A 
ATOM     14  C   UNL A   1      39.959  35.086  38.194  1.00  0.00     0.019 A 
ENDBRANCH   9  10
BRANCH   9  15
ATOM     15  C   UNL A   1      39.084  33.862  33.945  1.00  0.00    -0.014 A 
ATOM     16  C   UNL A   1      39.903  32.705  34.180  1.00  0.00     0.017 A 
ATOM     17  C   UNL A   1      39.127  34.222  32.607  1.00  0.00     0.070 A 
ATOM     18  C   UNL A   1      40.505  32.238  33.034  1.00  0.00     0.065 A 
ATOM     19  S   UNL A   1      40.107  33.183  31.670  1.00  0.00    -0.152 S 
ENDBRANCH   9  15
ENDBRANCH   8   9
ENDBRANCH   6   8
ENDBRANCH   3   4
ENDBRANCH   2   3
ENDBRANCH   1   2
BRANCH   1  20
ATOM     20  C   UNL A   1      36.746  32.273  29.628  1.00  0.00     0.116 C 
BRANCH  20  21
ATOM     21  N   UNL A   1      35.857  31.408  28.869  1.00  0.00    -0.352 N 
ATOM     22  C   UNL A   1      36.169  30.283  28.144  1.00  0.00     0.251 C 
ATOM     23  H   UNL A   1      34.905  31.661  28.877  1.00  0.00     0.163 HD
ATOM     24  O   UNL A   1      35.415  29.910  27.256  1.00  0.00    -0.269 OA
BRANCH  22  25
ATOM     25  C   UNL A   1      37.407  29.528  28.431  1.00  0.00     0.039 A 
ATOM     26  C   UNL A   1      38.507  29.690  27.580  1.00  0.00     0.014 A 
ATOM     27  C   UNL A   1      37.449  28.598  29.476  1.00  0.00     0.014 A 
ATOM     28  C   UNL A   1      39.665  28.955  27.810  1.00  0.00     0.010 A 
ATOM     29  C   UNL A   1      38.611  27.887  29.729  1.00  0.00     0.010 A 
ATOM     30  C   UNL A   1      39.714  28.063  28.891  1.00  0.00    -0.014 A 
BRANCH  30  31
ATOM     31  C   UNL A   1      40.987  27.390  29.218  1.00  0.00     0.031 A 
ATOM     32  C   UNL A   1      41.292  26.292  28.170  1.00  0.00     0.074 A 
ATOM     33  C   UNL A   1      41.621  27.818  30.361  1.00  0.00     0.049 A 
ATOM     34  N   UNL A   1      41.774  25.101  28.334  1.00  0.00    -0.248 NA
ATOM     35  C   UNL A   1      40.866  26.482  26.750  1.00  0.00     0.031 C 
ATOM     36  C   UNL A   1      41.150  28.924  31.238  1.00  0.00     0.029 A 
ATOM     37  N   UNL A   1      42.771  27.444  31.027  1.00  0.00    -0.354 N 
ATOM     38  C   UNL A   1      41.958  24.520  27.053  1.00  0.00     0.074 A 
ATOM     39  C   UNL A   1      41.210  25.337  26.147  1.00  0.00     0.031 C 
ATOM     40  C   UNL A   1      41.938  29.063  32.332  1.00  0.00     0.029 A 
ATOM     41  C   UNL A   1      43.009  28.088  32.285  1.00  0.00     0.049 A 
ATOM     42  H   UNL A   1      43.391  26.774  30.660  1.00  0.00     0.167 HD
ATOM     43  C   UNL A   1      42.881  23.533  26.812  1.00  0.00     0.034 A 
ATOM     44  C   UNL A   1      43.972  27.812  33.228  1.00  0.00     0.034 A 
ATOM     45  C   UNL A   1      43.615  23.307  28.014  1.00  0.00     0.049 A 
ATOM     46  C   UNL A   1      44.821  26.810  32.568  1.00  0.00     0.074 A 
ATOM     47  C   UNL A   1      43.262  22.805  29.238  1.00  0.00     0.029 A 
ATOM     48  N   UNL A   1      44.788  24.025  28.135  1.00  0.00    -0.354 N 
ATOM     49  N   UNL A   1      45.654  27.057  31.605  1.00  0.00    -0.248 NA
ATOM     50  C   UNL A   1      44.671  25.403  32.962  1.00  0.00     0.031 C 
ATOM     51  C   UNL A   1      43.884  23.717  30.113  1.00  0.00     0.029 A 
ATOM     52  C   UNL A   1      44.833  24.483  29.421  1.00  0.00     0.049 A 
ATOM     53  H   UNL A   1      45.460  24.177  27.433  1.00  0.00     0.167 HD
ATOM     54  C   UNL A   1      45.857  25.812  31.070  1.00  0.00     0.074 A 
ATOM     55  C   UNL A   1      45.528  24.852  32.107  1.00  0.00     0.031 C 
ATOM     56  C   UNL A   1      45.649  25.634  29.738  1.00  0.00     0.034 A 
BRANCH  43  57
ATOM     57  C   UNL A   1      43.491  22.910  25.574  1.00  0.00     0.023 A 
ATOM     58  C   UNL A   1      43.441  21.488  25.508  1.00  0.00     0.031 A 
ATOM     59  C   UNL A   1      44.360  23.535  24.676  1.00  0.00     0.131 A 
ATOM     60  C   UNL A   1      44.338  20.751  24.725  1.00  0.00     0.055 A 
ATOM     61  C   UNL A   1      45.207  22.794  23.832  1.00  0.00     0.041 A 
ATOM     62  F   UNL A   1      44.489  24.867  24.633  1.00  0.00    -0.206 F 
ATOM     63  C   UNL A   1      45.231  21.400  23.884  1.00  0.00     0.022 A 
BRANCH  60  64
ATOM     64  S   UNL A   1      44.433  18.954  24.986  1.00  0.00     0.124 S 
ATOM     65  O   UNL A   1      44.705  18.462  23.640  1.00  0.00    -0.237 OA
ATOM     66  O   UNL A   1      45.533  18.842  25.940  1.00  0.00    -0.237 OA
ATOM     67  O   UNL A   1      43.115  18.619  25.518  1.00  0.00    -0.744 OA
ENDBRANCH  60  64
ENDBRANCH  43  57
BRANCH  44  68
ATOM     68  C   UNL A   1      44.368  28.114  34.678  1.00  0.00     0.023 A 
ATOM     69  C   UNL A   1      44.204  27.299  35.811  1.00  0.00     0.031 A 
ATOM     70  C   UNL A   1      45.080  29.335  34.942  1.00  0.00     0.131 A 
ATOM     71  C   UNL A   1      44.812  27.667  37.056  1.00  0.00     0.055 A 
ATOM     72  C   UNL A   1      45.765  29.630  36.118  1.00  0.00     0.041 A 
ATOM     73  F   UNL A   1      45.150  30.332  34.050  1.00  0.00    -0.206 F 
ATOM     74  C   UNL A   1      45.648  28.781  37.185  1.00  0.00     0.022 A 
BRANCH  71  75
ATOM     75  S   UNL A   1      44.542  26.710  38.583  1.00  0.00     0.124 S 
ATOM     76  O   UNL A   1      45.487  25.609  38.418  1.00  0.00    -0.237 OA
ATOM     77  O   UNL A   1      44.854  27.673  39.631  1.00  0.00    -0.237 OA
ATOM     78  O   UNL A   1      43.131  26.329  38.498  1.00  0.00    -0.744 OA
ENDBRANCH  71  75
ENDBRANCH  44  68
BRANCH  56  79
ATOM     79  C   UNL A   1      45.924  26.856  28.863  1.00  0.00     0.023 A 
ATOM     80  C   UNL A   1      44.853  27.684  28.461  1.00  0.00     0.031 A 
ATOM     81  C   UNL A   1      47.181  27.191  28.331  1.00  0.00     0.131 A 
ATOM     82  C   UNL A   1      45.045  28.749  27.559  1.00  0.00     0.055 A 
ATOM     83  C   UNL A   1      47.380  28.258  27.439  1.00  0.00     0.041 A 
ATOM     84  F   UNL A   1      48.270  26.489  28.647  1.00  0.00    -0.206 F 
ATOM     85  C   UNL A   1      46.306  29.044  27.046  1.00  0.00     0.022 A 
BRANCH  82  86
ATOM     86  S   UNL A   1      43.625  29.775  27.083  1.00  0.00     0.124 S 
ATOM     87  O   UNL A   1      42.838  28.868  26.256  1.00  0.00    -0.237 OA
ATOM     88  O   UNL A   1      43.045  30.133  28.374  1.00  0.00    -0.237 OA
ATOM     89  O   UNL A   1      44.239  30.890  26.361  1.00  0.00    -0.744 OA
ENDBRANCH  82  86
ENDBRANCH  56  79
ENDBRANCH  30  31
ENDBRANCH  22  25
ENDBRANCH  20  21
ENDBRANCH   1  20
TORSDOF 17
ENDMDL
