MODEL 1
REMARK VINA RESULT:     -13.1      0.000      0.000
REMARK SMILES CCc1ccc(-c2cc(Cl)cc3c2O[C@H](C(F)(F)F)C(C(=O)NCCCCNC(=O)c2ccc(-c4c5nc(c(-c6cc(S(=O)(=O)[O-])ccc6F)c6ccc([nH]6)c(-c6cc(S(=O)(=O)[O-])ccc6F)c6nc(c(-c7cc(S(=O)(=O)[O-])ccc7F)c7ccc4[nH]7)C=C6)C=C5)cc2)=C3)cc1
REMARK SMILES IDX 26 1 25 2 24 3 23 4 21 5 22 6 20 8 7 9 8 10 13 11 9 12 12 13
REMARK SMILES IDX 14 14 10 15 11 16 94 17 15 18 6 19 3 20 4 21 96 22 5 23
REMARK SMILES IDX 95 24 2 25 1 26 16 27 17 28 18 29 19 30 27 31 28 32 29 33
REMARK SMILES IDX 30 35 31 36 32 37 93 38 33 39 92 40 34 41 35 42 36 43 86 44
REMARK SMILES IDX 37 45 91 46 85 47 87 48 38 49 90 50 84 51 83 52 39 54 71 55
REMARK SMILES IDX 51 56 70 57 52 58 55 59 69 60 88 61 53 62 54 63 68 65 89 66
REMARK SMILES IDX 56 67 40 68 41 69 49 70 42 71 48 72 50 73 47 74 43 75 44 76
REMARK SMILES IDX 45 77 46 78 72 79 73 80 81 81 74 82 80 83 82 84 79 85 75 86
REMARK SMILES IDX 76 87 77 88 78 89 57 90 58 91 66 92 59 93 65 94 67 95 64 96
REMARK SMILES IDX 60 97 61 98 62 99 63 100
REMARK H PARENT 23 7 28 34 87 53 55 64
REMARK Flexibility Score: inf
ROOT
ATOM      1  C   UNL A   1      31.656  31.566  26.876  1.00  0.00     0.023 C 
ENDROOT
BRANCH   1   2
ATOM      2  C   UNL A   1      31.877  30.374  25.934  1.00  0.00     0.023 C 
BRANCH   2   3
ATOM      3  C   UNL A   1      33.247  29.692  26.054  1.00  0.00     0.116 C 
BRANCH   3   4
ATOM      4  N   UNL A   1      33.086  28.378  26.639  1.00  0.00    -0.352 N 
ATOM      5  C   UNL A   1      32.253  27.375  26.278  1.00  0.00     0.251 C 
ATOM      6  O   UNL A   1      31.822  26.628  27.149  1.00  0.00    -0.270 OA
ATOM      7  H   UNL A   1      33.666  28.187  27.412  1.00  0.00     0.163 HD
BRANCH   5   8
ATOM      8  C   UNL A   1      31.987  27.158  24.823  1.00  0.00     0.067 C 
ATOM      9  C   UNL A   1      32.966  23.209  24.629  1.00  0.00     0.026 A 
ATOM     10  C   UNL A   1      34.210  23.056  25.301  1.00  0.00     0.033 A 
ATOM     11  C   UNL A   1      32.585  24.527  24.318  1.00  0.00     0.135 A 
ATOM     12  C   UNL A   1      35.090  24.116  25.509  1.00  0.00     0.042 A 
ATOM     13  C   UNL A   1      33.544  25.568  24.429  1.00  0.00     0.019 A 
ATOM     14  O   UNL A   1      31.291  24.880  23.961  1.00  0.00    -0.475 OA
ATOM     15  Cl  UNL A   1      36.553  23.852  26.369  1.00  0.00    -0.084 Cl
ATOM     16  C   UNL A   1      34.794  25.367  25.007  1.00  0.00     0.032 A 
ATOM     17  C   UNL A   1      33.112  26.947  24.112  1.00  0.00     0.025 C 
ATOM     18  C   UNL A   1      30.846  26.194  24.520  1.00  0.00     0.314 C 
BRANCH   9  19
ATOM     19  C   UNL A   1      32.347  21.929  24.189  1.00  0.00    -0.015 A 
ATOM     20  C   UNL A   1      32.337  19.298  23.058  1.00  0.00    -0.048 A 
ATOM     21  C   UNL A   1      32.451  19.493  24.441  1.00  0.00     0.004 A 
ATOM     22  C   UNL A   1      32.082  20.424  22.267  1.00  0.00     0.004 A 
ATOM     23  C   UNL A   1      32.437  20.781  24.999  1.00  0.00     0.009 A 
ATOM     24  C   UNL A   1      32.080  21.719  22.825  1.00  0.00     0.009 A 
BRANCH  20  25
ATOM     25  C   UNL A   1      32.526  17.895  22.518  1.00  0.00     0.032 C 
ATOM     26  C   UNL A   1      33.616  17.030  23.143  1.00  0.00     0.009 C 
ENDBRANCH  20  25
ENDBRANCH   9  19
BRANCH  18  27
ATOM     27  C   UNL A   1      29.850  26.907  23.576  1.00  0.00     0.429 C 
ATOM     28  F   UNL A   1      30.287  26.958  22.297  1.00  0.00    -0.167 F 
ATOM     29  F   UNL A   1      28.645  26.286  23.573  1.00  0.00    -0.167 F 
ATOM     30  F   UNL A   1      29.609  28.192  23.950  1.00  0.00    -0.167 F 
ENDBRANCH  18  27
ENDBRANCH   5   8
ENDBRANCH   3   4
ENDBRANCH   2   3
ENDBRANCH   1   2
BRANCH   1  31
ATOM     31  C   UNL A   1      32.923  32.304  27.288  1.00  0.00     0.116 C 
BRANCH  31  32
ATOM     32  N   UNL A   1      32.662  33.705  27.578  1.00  0.00    -0.352 N 
ATOM     33  C   UNL A   1      33.207  34.502  28.554  1.00  0.00     0.251 C 
ATOM     34  H   UNL A   1      32.003  34.142  26.993  1.00  0.00     0.163 HD
ATOM     35  O   UNL A   1      32.707  35.601  28.788  1.00  0.00    -0.269 OA
BRANCH  33  36
ATOM     36  C   UNL A   1      34.370  34.027  29.336  1.00  0.00     0.039 A 
ATOM     37  C   UNL A   1      34.150  33.220  30.455  1.00  0.00     0.014 A 
ATOM     38  C   UNL A   1      35.673  34.368  28.963  1.00  0.00     0.014 A 
ATOM     39  C   UNL A   1      35.239  32.701  31.160  1.00  0.00     0.010 A 
ATOM     40  C   UNL A   1      36.757  33.786  29.619  1.00  0.00     0.010 A 
ATOM     41  C   UNL A   1      36.552  32.947  30.724  1.00  0.00    -0.014 A 
BRANCH  41  42
ATOM     42  C   UNL A   1      37.718  32.328  31.410  1.00  0.00     0.031 A 
ATOM     43  C   UNL A   1      38.466  31.194  30.763  1.00  0.00     0.074 A 
ATOM     44  C   UNL A   1      38.061  32.742  32.647  1.00  0.00     0.049 A 
ATOM     45  N   UNL A   1      39.462  30.484  31.230  1.00  0.00    -0.248 NA
ATOM     46  C   UNL A   1      38.013  30.785  29.426  1.00  0.00     0.031 C 
ATOM     47  C   UNL A   1      37.381  33.798  33.400  1.00  0.00     0.029 A 
ATOM     48  N   UNL A   1      39.055  32.321  33.494  1.00  0.00    -0.354 N 
ATOM     49  C   UNL A   1      39.741  29.533  30.254  1.00  0.00     0.074 A 
ATOM     50  C   UNL A   1      38.768  29.721  29.198  1.00  0.00     0.031 C 
ATOM     51  C   UNL A   1      37.989  33.956  34.586  1.00  0.00     0.029 A 
ATOM     52  C   UNL A   1      39.070  32.982  34.703  1.00  0.00     0.049 A 
ATOM     53  H   UNL A   1      39.698  31.613  33.260  1.00  0.00     0.167 HD
ATOM     54  C   UNL A   1      40.730  28.603  30.232  1.00  0.00     0.034 A 
ATOM     55  C   UNL A   1      39.851  32.812  35.788  1.00  0.00     0.034 A 
ATOM     56  C   UNL A   1      41.696  28.438  31.292  1.00  0.00     0.049 A 
ATOM     57  C   UNL A   1      40.932  31.763  35.751  1.00  0.00     0.074 A 
ATOM     58  C   UNL A   1      42.782  27.581  31.341  1.00  0.00     0.029 A 
ATOM     59  N   UNL A   1      41.683  29.128  32.499  1.00  0.00    -0.354 N 
ATOM     60  N   UNL A   1      41.231  30.919  34.790  1.00  0.00    -0.248 NA
ATOM     61  C   UNL A   1      41.790  31.652  36.936  1.00  0.00     0.031 C 
ATOM     62  C   UNL A   1      43.373  27.693  32.604  1.00  0.00     0.029 A 
ATOM     63  C   UNL A   1      42.715  28.685  33.313  1.00  0.00     0.049 A 
ATOM     64  H   UNL A   1      41.036  29.829  32.741  1.00  0.00     0.167 HD
ATOM     65  C   UNL A   1      42.329  30.195  35.247  1.00  0.00     0.074 A 
ATOM     66  C   UNL A   1      42.648  30.715  36.562  1.00  0.00     0.031 C 
ATOM     67  C   UNL A   1      43.014  29.196  34.633  1.00  0.00     0.034 A 
BRANCH  54  68
ATOM     68  C   UNL A   1      40.785  27.674  29.040  1.00  0.00     0.023 A 
ATOM     69  C   UNL A   1      41.746  27.823  28.024  1.00  0.00     0.031 A 
ATOM     70  C   UNL A   1      39.841  26.640  28.900  1.00  0.00     0.131 A 
ATOM     71  C   UNL A   1      41.685  27.019  26.876  1.00  0.00     0.055 A 
ATOM     72  C   UNL A   1      39.844  25.782  27.799  1.00  0.00     0.041 A 
ATOM     73  F   UNL A   1      38.886  26.456  29.824  1.00  0.00    -0.206 F 
ATOM     74  C   UNL A   1      40.758  25.981  26.767  1.00  0.00     0.022 A 
BRANCH  71  75
ATOM     75  S   UNL A   1      42.724  27.459  25.455  1.00  0.00     0.124 S 
ATOM     76  O   UNL A   1      43.979  27.825  26.111  1.00  0.00    -0.237 OA
ATOM     77  O   UNL A   1      42.743  26.223  24.683  1.00  0.00    -0.237 OA
ATOM     78  O   UNL A   1      42.007  28.573  24.838  1.00  0.00    -0.744 OA
ENDBRANCH  71  75
ENDBRANCH  54  68
BRANCH  55  79
ATOM     79  C   UNL A   1      39.625  33.639  37.010  1.00  0.00     0.023 A 
ATOM     80  C   UNL A   1      38.926  33.131  38.115  1.00  0.00     0.031 A 
ATOM     81  C   UNL A   1      40.094  34.964  37.078  1.00  0.00     0.131 A 
ATOM     82  C   UNL A   1      38.682  33.954  39.226  1.00  0.00     0.055 A 
ATOM     83  C   UNL A   1      39.896  35.761  38.206  1.00  0.00     0.041 A 
ATOM     84  F   UNL A   1      40.773  35.498  36.050  1.00  0.00    -0.206 F 
ATOM     85  C   UNL A   1      39.175  35.259  39.286  1.00  0.00     0.022 A 
BRANCH  82  86
ATOM     86  S   UNL A   1      37.644  33.318  40.571  1.00  0.00     0.124 S 
ATOM     87  O   UNL A   1      37.374  34.528  41.338  1.00  0.00    -0.237 OA
ATOM     88  O   UNL A   1      36.512  32.756  39.840  1.00  0.00    -0.237 OA
ATOM     89  O   UNL A   1      38.504  32.338  41.231  1.00  0.00    -0.744 OA
ENDBRANCH  82  86
ENDBRANCH  55  79
BRANCH  67  90
ATOM     90  C   UNL A   1      44.207  28.627  35.365  1.00  0.00     0.023 A 
ATOM     91  C   UNL A   1      44.098  27.508  36.209  1.00  0.00     0.031 A 
ATOM     92  C   UNL A   1      45.474  29.222  35.219  1.00  0.00     0.131 A 
ATOM     93  C   UNL A   1      45.222  27.054  36.918  1.00  0.00     0.055 A 
ATOM     94  C   UNL A   1      46.601  28.725  35.874  1.00  0.00     0.041 A 
ATOM     95  F   UNL A   1      45.638  30.297  34.432  1.00  0.00    -0.206 F 
ATOM     96  C   UNL A   1      46.476  27.643  36.740  1.00  0.00     0.022 A 
BRANCH  93  97
ATOM     97  S   UNL A   1      45.003  25.747  38.157  1.00  0.00     0.124 S 
ATOM     98  O   UNL A   1      44.905  26.515  39.393  1.00  0.00    -0.237 OA
ATOM     99  O   UNL A   1      43.774  25.098  37.710  1.00  0.00    -0.237 OA
ATOM    100  O   UNL A   1      46.214  24.940  38.022  1.00  0.00    -0.744 OA
ENDBRANCH  93  97
ENDBRANCH  67  90
ENDBRANCH  41  42
ENDBRANCH  33  36
ENDBRANCH  31  32
ENDBRANCH   1  31
TORSDOF 17
ENDMDL
MODEL 2
REMARK VINA RESULT:     -12.6      5.686     11.470
REMARK SMILES CCc1ccc(-c2cc(Cl)cc3c2O[C@H](C(F)(F)F)C(C(=O)NCCCCNC(=O)c2ccc(-c4c5nc(c(-c6cc(S(=O)(=O)[O-])ccc6F)c6ccc([nH]6)c(-c6cc(S(=O)(=O)[O-])ccc6F)c6nc(c(-c7cc(S(=O)(=O)[O-])ccc7F)c7ccc4[nH]7)C=C6)C=C5)cc2)=C3)cc1
REMARK SMILES IDX 26 1 25 2 24 3 23 4 21 5 22 6 20 8 7 9 8 10 13 11 9 12 12 13
REMARK SMILES IDX 14 14 10 15 11 16 94 17 15 18 6 19 3 20 4 21 96 22 5 23
REMARK SMILES IDX 95 24 2 25 1 26 16 27 17 28 18 29 19 30 27 31 28 32 29 33
REMARK SMILES IDX 30 35 31 36 32 37 93 38 33 39 92 40 34 41 35 42 36 43 86 44
REMARK SMILES IDX 37 45 91 46 85 47 87 48 38 49 90 50 84 51 83 52 39 54 71 55
REMARK SMILES IDX 51 56 70 57 52 58 55 59 69 60 88 61 53 62 54 63 68 65 89 66
REMARK SMILES IDX 56 67 40 68 41 69 49 70 42 71 48 72 50 73 47 74 43 75 44 76
REMARK SMILES IDX 45 77 46 78 72 79 73 80 81 81 74 82 80 83 82 84 79 85 75 86
REMARK SMILES IDX 76 87 77 88 78 89 57 90 58 91 66 92 59 93 65 94 67 95 64 96
REMARK SMILES IDX 60 97 61 98 62 99 63 100
REMARK H PARENT 23 7 28 34 87 53 55 64
REMARK Flexibility Score: inf
ROOT
ATOM      1  C   UNL A   1      37.975  19.968  25.018  1.00  0.00     0.023 C 
ENDROOT
BRANCH   1   2
ATOM      2  C   UNL A   1      36.845  21.003  24.923  1.00  0.00     0.023 C 
BRANCH   2   3
ATOM      3  C   UNL A   1      37.074  22.296  25.719  1.00  0.00     0.116 C 
BRANCH   3   4
ATOM      4  N   UNL A   1      36.682  23.436  24.918  1.00  0.00    -0.352 N 
ATOM      5  C   UNL A   1      35.581  23.606  24.150  1.00  0.00     0.251 C 
ATOM      6  O   UNL A   1      35.670  24.298  23.142  1.00  0.00    -0.270 OA
ATOM      7  H   UNL A   1      37.307  24.197  24.934  1.00  0.00     0.163 HD
BRANCH   5   8
ATOM      8  C   UNL A   1      34.284  23.035  24.627  1.00  0.00     0.067 C 
ATOM      9  C   UNL A   1      31.975  26.359  24.167  1.00  0.00     0.026 A 
ATOM     10  C   UNL A   1      32.692  27.445  24.741  1.00  0.00     0.033 A 
ATOM     11  C   UNL A   1      32.449  25.070  24.474  1.00  0.00     0.135 A 
ATOM     12  C   UNL A   1      33.705  27.267  25.680  1.00  0.00     0.042 A 
ATOM     13  C   UNL A   1      33.397  24.913  25.518  1.00  0.00     0.019 A 
ATOM     14  O   UNL A   1      32.080  23.936  23.763  1.00  0.00    -0.475 OA
ATOM     15  Cl  UNL A   1      34.550  28.633  26.290  1.00  0.00    -0.084 Cl
ATOM     16  C   UNL A   1      34.014  26.000  26.130  1.00  0.00     0.032 A 
ATOM     17  C   UNL A   1      33.890  23.548  25.809  1.00  0.00     0.025 C 
ATOM     18  C   UNL A   1      33.193  22.957  23.565  1.00  0.00     0.314 C 
BRANCH   9  19
ATOM     19  C   UNL A   1      30.715  26.752  23.480  1.00  0.00    -0.015 A 
ATOM     20  C   UNL A   1      28.324  28.283  23.108  1.00  0.00    -0.048 A 
ATOM     21  C   UNL A   1      29.520  28.639  22.469  1.00  0.00     0.004 A 
ATOM     22  C   UNL A   1      28.304  27.076  23.814  1.00  0.00     0.004 A 
ATOM     23  C   UNL A   1      30.688  27.879  22.635  1.00  0.00     0.009 A 
ATOM     24  C   UNL A   1      29.480  26.318  23.991  1.00  0.00     0.009 A 
BRANCH  20  25
ATOM     25  C   UNL A   1      27.154  29.242  23.013  1.00  0.00     0.032 C 
ATOM     26  C   UNL A   1      27.456  30.736  22.972  1.00  0.00     0.009 C 
ENDBRANCH  20  25
ENDBRANCH   9  19
BRANCH  18  27
ATOM     27  C   UNL A   1      32.672  21.503  23.516  1.00  0.00     0.429 C 
ATOM     28  F   UNL A   1      32.208  21.155  22.294  1.00  0.00    -0.167 F 
ATOM     29  F   UNL A   1      33.645  20.620  23.850  1.00  0.00    -0.167 F 
ATOM     30  F   UNL A   1      31.653  21.285  24.389  1.00  0.00    -0.167 F 
ENDBRANCH  18  27
ENDBRANCH   5   8
ENDBRANCH   3   4
ENDBRANCH   2   3
ENDBRANCH   1   2
BRANCH   1  31
ATOM     31  C   UNL A   1      39.221  20.443  25.756  1.00  0.00     0.116 C 
BRANCH  31  32
ATOM     32  N   UNL A   1      40.177  19.365  25.950  1.00  0.00    -0.352 N 
ATOM     33  C   UNL A   1      41.530  19.438  26.170  1.00  0.00     0.251 C 
ATOM     34  H   UNL A   1      39.801  18.456  25.920  1.00  0.00     0.163 HD
ATOM     35  O   UNL A   1      42.212  18.417  26.094  1.00  0.00    -0.269 OA
BRANCH  33  36
ATOM     36  C   UNL A   1      42.164  20.742  26.467  1.00  0.00     0.039 A 
ATOM     37  C   UNL A   1      42.587  21.547  25.406  1.00  0.00     0.014 A 
ATOM     38  C   UNL A   1      42.333  21.174  27.786  1.00  0.00     0.014 A 
ATOM     39  C   UNL A   1      43.118  22.812  25.667  1.00  0.00     0.010 A 
ATOM     40  C   UNL A   1      42.789  22.466  28.039  1.00  0.00     0.010 A 
ATOM     41  C   UNL A   1      43.187  23.299  26.983  1.00  0.00    -0.014 A 
BRANCH  41  42
ATOM     42  C   UNL A   1      43.665  24.679  27.269  1.00  0.00     0.031 A 
ATOM     43  C   UNL A   1      42.720  25.712  27.818  1.00  0.00     0.074 A 
ATOM     44  C   UNL A   1      44.935  25.020  26.968  1.00  0.00     0.049 A 
ATOM     45  N   UNL A   1      42.931  26.980  28.068  1.00  0.00    -0.248 NA
ATOM     46  C   UNL A   1      41.346  25.268  28.094  1.00  0.00     0.031 C 
ATOM     47  C   UNL A   1      45.932  24.121  26.383  1.00  0.00     0.029 A 
ATOM     48  N   UNL A   1      45.602  26.212  27.099  1.00  0.00    -0.354 N 
ATOM     49  C   UNL A   1      41.714  27.488  28.511  1.00  0.00     0.074 A 
ATOM     50  C   UNL A   1      40.757  26.403  28.435  1.00  0.00     0.031 C 
ATOM     51  C   UNL A   1      47.088  24.786  26.226  1.00  0.00     0.029 A 
ATOM     52  C   UNL A   1      46.904  26.170  26.650  1.00  0.00     0.049 A 
ATOM     53  H   UNL A   1      45.190  27.021  27.479  1.00  0.00     0.167 HD
ATOM     54  C   UNL A   1      41.427  28.737  28.958  1.00  0.00     0.034 A 
ATOM     55  C   UNL A   1      47.838  27.139  26.569  1.00  0.00     0.034 A 
ATOM     56  C   UNL A   1      42.398  29.803  29.033  1.00  0.00     0.049 A 
ATOM     57  C   UNL A   1      47.494  28.524  27.055  1.00  0.00     0.074 A 
ATOM     58  C   UNL A   1      42.236  31.081  29.538  1.00  0.00     0.029 A 
ATOM     59  N   UNL A   1      43.708  29.723  28.573  1.00  0.00    -0.354 N 
ATOM     60  N   UNL A   1      46.358  28.971  27.539  1.00  0.00    -0.248 NA
ATOM     61  C   UNL A   1      48.560  29.531  26.996  1.00  0.00     0.031 C 
ATOM     62  C   UNL A   1      43.416  31.797  29.308  1.00  0.00     0.029 A 
ATOM     63  C   UNL A   1      44.349  30.941  28.744  1.00  0.00     0.049 A 
ATOM     64  H   UNL A   1      44.121  28.919  28.184  1.00  0.00     0.167 HD
ATOM     65  C   UNL A   1      46.584  30.306  27.867  1.00  0.00     0.074 A 
ATOM     66  C   UNL A   1      47.968  30.583  27.540  1.00  0.00     0.031 C 
ATOM     67  C   UNL A   1      45.726  31.216  28.396  1.00  0.00     0.034 A 
BRANCH  54  68
ATOM     68  C   UNL A   1      39.997  29.021  29.361  1.00  0.00     0.023 A 
ATOM     69  C   UNL A   1      39.627  29.212  30.704  1.00  0.00     0.031 A 
ATOM     70  C   UNL A   1      38.980  29.070  28.389  1.00  0.00     0.131 A 
ATOM     71  C   UNL A   1      38.273  29.348  31.046  1.00  0.00     0.055 A 
ATOM     72  C   UNL A   1      37.645  29.300  28.728  1.00  0.00     0.041 A 
ATOM     73  F   UNL A   1      39.264  28.876  27.092  1.00  0.00    -0.206 F 
ATOM     74  C   UNL A   1      37.281  29.422  30.066  1.00  0.00     0.022 A 
BRANCH  71  75
ATOM     75  S   UNL A   1      37.810  29.258  32.799  1.00  0.00     0.124 S 
ATOM     76  O   UNL A   1      37.525  27.833  32.955  1.00  0.00    -0.237 OA
ATOM     77  O   UNL A   1      39.010  29.747  33.467  1.00  0.00    -0.237 OA
ATOM     78  O   UNL A   1      36.643  30.132  32.890  1.00  0.00    -0.744 OA
ENDBRANCH  71  75
ENDBRANCH  54  68
BRANCH  55  79
ATOM     79  C   UNL A   1      49.179  26.841  25.986  1.00  0.00     0.023 A 
ATOM     80  C   UNL A   1      49.526  27.273  24.698  1.00  0.00     0.031 A 
ATOM     81  C   UNL A   1      50.128  26.096  26.710  1.00  0.00     0.131 A 
ATOM     82  C   UNL A   1      50.775  26.926  24.157  1.00  0.00     0.055 A 
ATOM     83  C   UNL A   1      51.388  25.800  26.191  1.00  0.00     0.041 A 
ATOM     84  F   UNL A   1      49.847  25.661  27.950  1.00  0.00    -0.206 F 
ATOM     85  C   UNL A   1      51.714  26.207  24.900  1.00  0.00     0.022 A 
BRANCH  82  86
ATOM     86  S   UNL A   1      51.132  27.368  22.435  1.00  0.00     0.124 S 
ATOM     87  O   UNL A   1      49.945  26.873  21.748  1.00  0.00    -0.237 OA
ATOM     88  O   UNL A   1      51.269  28.818  22.516  1.00  0.00    -0.237 OA
ATOM     89  O   UNL A   1      52.369  26.644  22.147  1.00  0.00    -0.744 OA
ENDBRANCH  82  86
ENDBRANCH  55  79
BRANCH  67  90
ATOM     90  C   UNL A   1      46.276  32.591  28.693  1.00  0.00     0.023 A 
ATOM     91  C   UNL A   1      46.106  33.669  27.805  1.00  0.00     0.031 A 
ATOM     92  C   UNL A   1      46.990  32.824  29.883  1.00  0.00     0.131 A 
ATOM     93  C   UNL A   1      46.691  34.911  28.093  1.00  0.00     0.055 A 
ATOM     94  C   UNL A   1      47.511  34.080  30.195  1.00  0.00     0.041 A 
ATOM     95  F   UNL A   1      47.190  31.832  30.765  1.00  0.00    -0.206 F 
ATOM     96  C   UNL A   1      47.375  35.130  29.292  1.00  0.00     0.022 A 
BRANCH  93  97
ATOM     97  S   UNL A   1      46.635  36.215  26.833  1.00  0.00     0.124 S 
ATOM     98  O   UNL A   1      47.282  37.328  27.520  1.00  0.00    -0.237 OA
ATOM     99  O   UNL A   1      47.389  35.619  25.734  1.00  0.00    -0.237 OA
ATOM    100  O   UNL A   1      45.206  36.388  26.582  1.00  0.00    -0.744 OA
ENDBRANCH  93  97
ENDBRANCH  67  90
ENDBRANCH  41  42
ENDBRANCH  33  36
ENDBRANCH  31  32
ENDBRANCH   1  31
TORSDOF 17
ENDMDL
MODEL 3
REMARK VINA RESULT:     -12.6      1.763      2.047
REMARK SMILES CCc1ccc(-c2cc(Cl)cc3c2O[C@H](C(F)(F)F)C(C(=O)NCCCCNC(=O)c2ccc(-c4c5nc(c(-c6cc(S(=O)(=O)[O-])ccc6F)c6ccc([nH]6)c(-c6cc(S(=O)(=O)[O-])ccc6F)c6nc(c(-c7cc(S(=O)(=O)[O-])ccc7F)c7ccc4[nH]7)C=C6)C=C5)cc2)=C3)cc1
REMARK SMILES IDX 26 1 25 2 24 3 23 4 21 5 22 6 20 8 7 9 8 10 13 11 9 12 12 13
REMARK SMILES IDX 14 14 10 15 11 16 94 17 15 18 6 19 3 20 4 21 96 22 5 23
REMARK SMILES IDX 95 24 2 25 1 26 16 27 17 28 18 29 19 30 27 31 28 32 29 33
REMARK SMILES IDX 30 35 31 36 32 37 93 38 33 39 92 40 34 41 35 42 36 43 86 44
REMARK SMILES IDX 37 45 91 46 85 47 87 48 38 49 90 50 84 51 83 52 39 54 71 55
REMARK SMILES IDX 51 56 70 57 52 58 55 59 69 60 88 61 53 62 54 63 68 65 89 66
REMARK SMILES IDX 56 67 40 68 41 69 49 70 42 71 48 72 50 73 47 74 43 75 44 76
REMARK SMILES IDX 45 77 46 78 72 79 73 80 81 81 74 82 80 83 82 84 79 85 75 86
REMARK SMILES IDX 76 87 77 88 78 89 57 90 58 91 66 92 59 93 65 94 67 95 64 96
REMARK SMILES IDX 60 97 61 98 62 99 63 100
REMARK H PARENT 23 7 28 34 87 53 55 64
REMARK Flexibility Score: inf
ROOT
ATOM      1  C   UNL A   1      31.727  31.474  26.680  1.00  0.00     0.023 C 
ENDROOT
BRANCH   1   2
ATOM      2  C   UNL A   1      32.044  30.192  25.897  1.00  0.00     0.023 C 
BRANCH   2   3
ATOM      3  C   UNL A   1      33.380  29.524  26.252  1.00  0.00     0.116 C 
BRANCH   3   4
ATOM      4  N   UNL A   1      33.135  28.214  26.816  1.00  0.00    -0.352 N 
ATOM      5  C   UNL A   1      32.240  27.272  26.438  1.00  0.00     0.251 C 
ATOM      6  O   UNL A   1      31.761  26.540  27.296  1.00  0.00    -0.270 OA
ATOM      7  H   UNL A   1      33.701  27.973  27.586  1.00  0.00     0.163 HD
BRANCH   5   8
ATOM      8  C   UNL A   1      31.964  27.096  24.979  1.00  0.00     0.067 C 
ATOM      9  C   UNL A   1      32.958  23.159  24.663  1.00  0.00     0.026 A 
ATOM     10  C   UNL A   1      34.209  22.993  25.320  1.00  0.00     0.033 A 
ATOM     11  C   UNL A   1      32.569  24.484  24.393  1.00  0.00     0.135 A 
ATOM     12  C   UNL A   1      35.085  24.050  25.551  1.00  0.00     0.042 A 
ATOM     13  C   UNL A   1      33.524  25.526  24.527  1.00  0.00     0.019 A 
ATOM     14  O   UNL A   1      31.271  24.841  24.057  1.00  0.00    -0.475 OA
ATOM     15  Cl  UNL A   1      36.557  23.768  26.392  1.00  0.00    -0.084 Cl
ATOM     16  C   UNL A   1      34.780  25.314  25.089  1.00  0.00     0.032 A 
ATOM     17  C   UNL A   1      33.084  26.912  24.253  1.00  0.00     0.025 C 
ATOM     18  C   UNL A   1      30.825  26.136  24.658  1.00  0.00     0.314 C 
BRANCH   9  19
ATOM     19  C   UNL A   1      32.342  21.889  24.191  1.00  0.00    -0.015 A 
ATOM     20  C   UNL A   1      32.345  19.261  23.055  1.00  0.00    -0.048 A 
ATOM     21  C   UNL A   1      32.396  19.452  24.443  1.00  0.00     0.004 A 
ATOM     22  C   UNL A   1      32.146  20.391  22.255  1.00  0.00     0.004 A 
ATOM     23  C   UNL A   1      32.375  20.739  25.002  1.00  0.00     0.009 A 
ATOM     24  C   UNL A   1      32.138  21.686  22.816  1.00  0.00     0.009 A 
BRANCH  20  25
ATOM     25  C   UNL A   1      32.539  17.855  22.523  1.00  0.00     0.032 C 
ATOM     26  C   UNL A   1      33.736  17.057  23.029  1.00  0.00     0.009 C 
ENDBRANCH  20  25
ENDBRANCH   9  19
BRANCH  18  27
ATOM     27  C   UNL A   1      29.818  26.871  23.743  1.00  0.00     0.429 C 
ATOM     28  F   UNL A   1      29.665  28.174  24.075  1.00  0.00    -0.167 F 
ATOM     29  F   UNL A   1      30.206  26.822  22.445  1.00  0.00    -0.167 F 
ATOM     30  F   UNL A   1      28.577  26.317  23.785  1.00  0.00    -0.167 F 
ENDBRANCH  18  27
ENDBRANCH   5   8
ENDBRANCH   3   4
ENDBRANCH   2   3
ENDBRANCH   1   2
BRANCH   1  31
ATOM     31  C   UNL A   1      32.923  32.119  27.369  1.00  0.00     0.116 C 
BRANCH  31  32
ATOM     32  N   UNL A   1      32.719  33.542  27.585  1.00  0.00    -0.352 N 
ATOM     33  C   UNL A   1      33.304  34.369  28.512  1.00  0.00     0.251 C 
ATOM     34  H   UNL A   1      32.070  33.972  26.984  1.00  0.00     0.163 HD
ATOM     35  O   UNL A   1      32.849  35.498  28.690  1.00  0.00    -0.269 OA
BRANCH  33  36
ATOM     36  C   UNL A   1      34.456  33.892  29.308  1.00  0.00     0.039 A 
ATOM     37  C   UNL A   1      34.230  33.001  30.360  1.00  0.00     0.014 A 
ATOM     38  C   UNL A   1      35.756  34.315  29.015  1.00  0.00     0.014 A 
ATOM     39  C   UNL A   1      35.314  32.482  31.073  1.00  0.00     0.010 A 
ATOM     40  C   UNL A   1      36.839  33.737  29.674  1.00  0.00     0.010 A 
ATOM     41  C   UNL A   1      36.630  32.815  30.711  1.00  0.00    -0.014 A 
BRANCH  41  42
ATOM     42  C   UNL A   1      37.797  32.202  31.402  1.00  0.00     0.031 A 
ATOM     43  C   UNL A   1      38.549  31.068  30.760  1.00  0.00     0.074 A 
ATOM     44  C   UNL A   1      38.135  32.620  32.639  1.00  0.00     0.049 A 
ATOM     45  N   UNL A   1      39.546  30.362  31.232  1.00  0.00    -0.248 NA
ATOM     46  C   UNL A   1      38.101  30.653  29.423  1.00  0.00     0.031 C 
ATOM     47  C   UNL A   1      37.449  33.676  33.387  1.00  0.00     0.029 A 
ATOM     48  N   UNL A   1      39.128  32.204  33.490  1.00  0.00    -0.354 N 
ATOM     49  C   UNL A   1      39.830  29.409  30.260  1.00  0.00     0.074 A 
ATOM     50  C   UNL A   1      38.860  29.591  29.201  1.00  0.00     0.031 C 
ATOM     51  C   UNL A   1      38.054  33.840  34.574  1.00  0.00     0.029 A 
ATOM     52  C   UNL A   1      39.137  32.869  34.696  1.00  0.00     0.049 A 
ATOM     53  H   UNL A   1      39.773  31.498  33.260  1.00  0.00     0.167 HD
ATOM     54  C   UNL A   1      40.822  28.482  30.244  1.00  0.00     0.034 A 
ATOM     55  C   UNL A   1      39.915  32.705  35.785  1.00  0.00     0.034 A 
ATOM     56  C   UNL A   1      41.785  28.322  31.307  1.00  0.00     0.049 A 
ATOM     57  C   UNL A   1      41.000  31.658  35.753  1.00  0.00     0.074 A 
ATOM     58  C   UNL A   1      42.874  27.469  31.361  1.00  0.00     0.029 A 
ATOM     59  N   UNL A   1      41.767  29.016  32.512  1.00  0.00    -0.354 N 
ATOM     60  N   UNL A   1      41.304  30.812  34.796  1.00  0.00    -0.248 NA
ATOM     61  C   UNL A   1      41.855  31.554  36.942  1.00  0.00     0.031 C 
ATOM     62  C   UNL A   1      43.461  27.586  32.626  1.00  0.00     0.029 A 
ATOM     63  C   UNL A   1      42.798  28.579  33.330  1.00  0.00     0.049 A 
ATOM     64  H   UNL A   1      41.117  29.716  32.750  1.00  0.00     0.167 HD
ATOM     65  C   UNL A   1      42.402  30.093  35.259  1.00  0.00     0.074 A 
ATOM     66  C   UNL A   1      42.716  30.618  36.572  1.00  0.00     0.031 C 
ATOM     67  C   UNL A   1      43.092  29.094  34.649  1.00  0.00     0.034 A 
BRANCH  54  68
ATOM     68  C   UNL A   1      40.883  27.549  29.055  1.00  0.00     0.023 A 
ATOM     69  C   UNL A   1      41.871  27.674  28.062  1.00  0.00     0.031 A 
ATOM     70  C   UNL A   1      39.918  26.537  28.894  1.00  0.00     0.131 A 
ATOM     71  C   UNL A   1      41.818  26.869  26.913  1.00  0.00     0.055 A 
ATOM     72  C   UNL A   1      39.927  25.677  27.794  1.00  0.00     0.041 A 
ATOM     73  F   UNL A   1      38.938  26.378  29.796  1.00  0.00    -0.206 F 
ATOM     74  C   UNL A   1      40.870  25.852  26.785  1.00  0.00     0.022 A 
BRANCH  71  75
ATOM     75  S   UNL A   1      42.900  27.282  25.517  1.00  0.00     0.124 S 
ATOM     76  O   UNL A   1      44.062  27.847  26.202  1.00  0.00    -0.237 OA
ATOM     77  O   UNL A   1      43.102  25.986  24.880  1.00  0.00    -0.237 OA
ATOM     78  O   UNL A   1      42.114  28.242  24.746  1.00  0.00    -0.744 OA
ENDBRANCH  71  75
ENDBRANCH  54  68
BRANCH  55  79
ATOM     79  C   UNL A   1      39.684  33.534  37.003  1.00  0.00     0.023 A 
ATOM     80  C   UNL A   1      40.485  34.651  37.288  1.00  0.00     0.031 A 
ATOM     81  C   UNL A   1      38.663  33.205  37.914  1.00  0.00     0.131 A 
ATOM     82  C   UNL A   1      40.276  35.376  38.473  1.00  0.00     0.055 A 
ATOM     83  C   UNL A   1      38.425  33.961  39.063  1.00  0.00     0.041 A 
ATOM     84  F   UNL A   1      37.865  32.149  37.687  1.00  0.00    -0.206 F 
ATOM     85  C   UNL A   1      39.242  35.049  39.353  1.00  0.00     0.022 A 
BRANCH  82  86
ATOM     86  S   UNL A   1      41.425  36.717  38.886  1.00  0.00     0.124 S 
ATOM     87  O   UNL A   1      42.255  36.093  39.911  1.00  0.00    -0.237 OA
ATOM     88  O   UNL A   1      42.072  36.970  37.603  1.00  0.00    -0.237 OA
ATOM     89  O   UNL A   1      40.546  37.785  39.359  1.00  0.00    -0.744 OA
ENDBRANCH  82  86
ENDBRANCH  55  79
BRANCH  67  90
ATOM     90  C   UNL A   1      44.285  28.531  35.386  1.00  0.00     0.023 A 
ATOM     91  C   UNL A   1      45.575  29.073  35.238  1.00  0.00     0.031 A 
ATOM     92  C   UNL A   1      44.128  27.429  36.246  1.00  0.00     0.131 A 
ATOM     93  C   UNL A   1      46.663  28.476  35.893  1.00  0.00     0.055 A 
ATOM     94  C   UNL A   1      45.203  26.883  36.947  1.00  0.00     0.041 A 
ATOM     95  F   UNL A   1      42.922  26.866  36.422  1.00  0.00    -0.206 F 
ATOM     96  C   UNL A   1      46.483  27.397  36.763  1.00  0.00     0.022 A 
BRANCH  93  97
ATOM     97  S   UNL A   1      48.338  29.063  35.515  1.00  0.00     0.124 S 
ATOM     98  O   UNL A   1      49.141  28.334  36.491  1.00  0.00    -0.237 OA
ATOM     99  O   UNL A   1      48.503  28.658  34.122  1.00  0.00    -0.237 OA
ATOM    100  O   UNL A   1      48.254  30.505  35.735  1.00  0.00    -0.744 OA
ENDBRANCH  93  97
ENDBRANCH  67  90
ENDBRANCH  41  42
ENDBRANCH  33  36
ENDBRANCH  31  32
ENDBRANCH   1  31
TORSDOF 17
ENDMDL
