MODEL 1
REMARK VINA RESULT:     -11.4      0.000      0.000
REMARK SMILES CC[C@](C)(NC(=O)NC[C@H]1COCCO1)C(=O)NCCCCNC(=O)c1ccc(-c2c3nc(c(-c4cc(S(=O)(=O)[O-])ccc4F)c4ccc([nH]4)c(-c4cc(S(=O)(=O)[O-])ccc4F)c4nc(c(-c5cc(S(=O)(=O)[O-])ccc5F)c5ccc2[nH]5)C=C4)C=C3)cc1
REMARK SMILES IDX 20 1 19 2 18 3 16 4 17 5 3 7 4 8 2 9 1 10 5 11 6 12 7 14
REMARK SMILES IDX 8 15 9 17 10 18 11 19 15 20 12 21 14 22 13 23 21 24 22 25
REMARK SMILES IDX 23 26 24 27 25 29 26 30 27 31 88 32 28 33 87 34 29 35 30 36
REMARK SMILES IDX 31 37 81 38 32 39 86 40 80 41 82 42 33 43 85 44 79 45 78 46
REMARK SMILES IDX 34 48 66 49 46 50 65 51 47 52 50 53 64 54 83 55 48 56 49 57
REMARK SMILES IDX 63 59 84 60 51 61 35 62 36 63 44 64 37 65 43 66 45 67 42 68
REMARK SMILES IDX 38 69 39 70 40 71 41 72 67 73 68 74 76 75 69 76 75 77 77 78
REMARK SMILES IDX 74 79 70 80 71 81 72 82 73 83 52 84 53 85 61 86 54 87 60 88
REMARK SMILES IDX 62 89 59 90 55 91 56 92 57 93 58 94
REMARK H PARENT 18 6 5 13 8 16 23 28 82 47 50 58
REMARK Flexibility Score: inf
ROOT
ATOM      1  C   UNL A   1      31.708  30.566  26.500  1.00  0.00     0.023 C 
ENDROOT
BRANCH   1   2
ATOM      2  C   UNL A   1      32.852  29.543  26.102  1.00  0.00     0.116 C 
BRANCH   2   3
ATOM      3  N   UNL A   1      33.501  29.435  24.780  1.00  0.00    -0.354 N 
ATOM      4  C   UNL A   1      33.599  28.569  23.718  1.00  0.00     0.245 C 
ATOM      5  O   UNL A   1      34.248  28.850  22.707  1.00  0.00    -0.272 OA
ATOM      6  H   UNL A   1      34.035  30.243  24.602  1.00  0.00     0.163 HD
BRANCH   4   7
ATOM      7  C   UNL A   1      32.796  27.316  23.739  1.00  0.00     0.117 C 
ATOM      8  C   UNL A   1      31.312  27.439  24.122  1.00  0.00     0.045 C 
BRANCH   7   9
ATOM      9  C   UNL A   1      33.509  26.454  24.849  1.00  0.00     0.035 C 
ATOM     10  C   UNL A   1      32.590  26.060  26.040  1.00  0.00     0.007 C 
ENDBRANCH   7   9
BRANCH   7  11
ATOM     11  N   UNL A   1      32.887  26.866  22.346  1.00  0.00    -0.324 N 
ATOM     12  C   UNL A   1      32.626  25.688  21.738  1.00  0.00     0.315 C 
ATOM     13  H   UNL A   1      33.204  27.564  21.728  1.00  0.00     0.166 HD
ATOM     14  O   UNL A   1      33.087  25.585  20.592  1.00  0.00    -0.249 OA
ATOM     15  N   UNL A   1      31.841  24.666  22.151  1.00  0.00    -0.335 N 
ATOM     16  H   UNL A   1      31.590  24.154  21.348  1.00  0.00     0.165 HD
BRANCH  15  17
ATOM     17  C   UNL A   1      31.184  23.977  23.344  1.00  0.00     0.152 C 
BRANCH  17  18
ATOM     18  C   UNL A   1      31.689  22.616  24.121  1.00  0.00     0.163 C 
ATOM     19  C   UNL A   1      32.716  21.761  23.329  1.00  0.00     0.194 C 
ATOM     20  O   UNL A   1      32.154  22.777  25.467  1.00  0.00    -0.372 OA
ATOM     21  O   UNL A   1      34.072  21.933  23.771  1.00  0.00    -0.376 OA
ATOM     22  C   UNL A   1      33.048  21.779  25.988  1.00  0.00     0.189 C 
ATOM     23  C   UNL A   1      34.292  21.584  25.133  1.00  0.00     0.188 C 
ENDBRANCH  17  18
ENDBRANCH  15  17
ENDBRANCH   7  11
ENDBRANCH   4   7
ENDBRANCH   2   3
ENDBRANCH   1   2
BRANCH   1  24
ATOM     24  C   UNL A   1      31.668  32.110  26.765  1.00  0.00     0.023 C 
BRANCH  24  25
ATOM     25  C   UNL A   1      32.837  33.032  27.204  1.00  0.00     0.116 C 
BRANCH  25  26
ATOM     26  N   UNL A   1      32.508  34.341  27.719  1.00  0.00    -0.352 N 
ATOM     27  C   UNL A   1      33.082  35.000  28.789  1.00  0.00     0.251 C 
ATOM     28  H   UNL A   1      31.787  34.823  27.250  1.00  0.00     0.163 HD
ATOM     29  O   UNL A   1      32.593  36.069  29.169  1.00  0.00    -0.269 OA
BRANCH  27  30
ATOM     30  C   UNL A   1      34.248  34.437  29.525  1.00  0.00     0.039 A 
ATOM     31  C   UNL A   1      34.036  33.777  30.739  1.00  0.00     0.014 A 
ATOM     32  C   UNL A   1      35.561  34.631  29.088  1.00  0.00     0.014 A 
ATOM     33  C   UNL A   1      35.121  33.249  31.457  1.00  0.00     0.010 A 
ATOM     34  C   UNL A   1      36.643  34.069  29.782  1.00  0.00     0.010 A 
ATOM     35  C   UNL A   1      36.436  33.352  30.968  1.00  0.00    -0.014 A 
BRANCH  35  36
ATOM     36  C   UNL A   1      37.570  32.660  31.654  1.00  0.00     0.031 A 
ATOM     37  C   UNL A   1      38.279  31.488  31.027  1.00  0.00     0.074 A 
ATOM     38  C   UNL A   1      37.940  33.073  32.885  1.00  0.00     0.049 A 
ATOM     39  N   UNL A   1      39.273  30.773  31.495  1.00  0.00    -0.248 NA
ATOM     40  C   UNL A   1      37.796  31.050  29.711  1.00  0.00     0.031 C 
ATOM     41  C   UNL A   1      37.308  34.166  33.626  1.00  0.00     0.029 A 
ATOM     42  N   UNL A   1      38.926  32.628  33.733  1.00  0.00    -0.354 N 
ATOM     43  C   UNL A   1      39.542  29.805  30.530  1.00  0.00     0.074 A 
ATOM     44  C   UNL A   1      38.559  29.990  29.481  1.00  0.00     0.031 C 
ATOM     45  C   UNL A   1      37.939  34.326  34.799  1.00  0.00     0.029 A 
ATOM     46  C   UNL A   1      38.990  33.321  34.921  1.00  0.00     0.049 A 
ATOM     47  H   UNL A   1      39.531  31.884  33.511  1.00  0.00     0.167 HD
ATOM     48  C   UNL A   1      40.526  28.868  30.510  1.00  0.00     0.034 A 
ATOM     49  C   UNL A   1      39.793  33.164  35.995  1.00  0.00     0.034 A 
ATOM     50  C   UNL A   1      41.493  28.686  31.570  1.00  0.00     0.049 A 
ATOM     51  C   UNL A   1      40.850  32.088  35.969  1.00  0.00     0.074 A 
ATOM     52  C   UNL A   1      42.551  27.792  31.628  1.00  0.00     0.029 A 
ATOM     53  N   UNL A   1      41.514  29.395  32.764  1.00  0.00    -0.354 N 
ATOM     54  N   UNL A   1      41.123  31.222  35.021  1.00  0.00    -0.248 NA
ATOM     55  C   UNL A   1      41.714  31.979  37.151  1.00  0.00     0.031 C 
ATOM     56  C   UNL A   1      43.159  27.908  32.883  1.00  0.00     0.029 A 
ATOM     57  C   UNL A   1      42.541  28.934  33.577  1.00  0.00     0.049 A 
ATOM     58  H   UNL A   1      40.891  30.120  33.001  1.00  0.00     0.167 HD
ATOM     59  C   UNL A   1      42.212  30.487  35.483  1.00  0.00     0.074 A 
ATOM     60  C   UNL A   1      42.554  31.023  36.784  1.00  0.00     0.031 C 
ATOM     61  C   UNL A   1      42.871  29.463  34.881  1.00  0.00     0.034 A 
BRANCH  48  62
ATOM     62  C   UNL A   1      40.589  27.950  29.309  1.00  0.00     0.023 A 
ATOM     63  C   UNL A   1      41.521  28.151  28.276  1.00  0.00     0.031 A 
ATOM     64  C   UNL A   1      39.699  26.867  29.184  1.00  0.00     0.131 A 
ATOM     65  C   UNL A   1      41.487  27.342  27.130  1.00  0.00     0.055 A 
ATOM     66  C   UNL A   1      39.729  26.010  28.081  1.00  0.00     0.041 A 
ATOM     67  F   UNL A   1      38.775  26.628  30.127  1.00  0.00    -0.206 F 
ATOM     68  C   UNL A   1      40.616  26.255  27.037  1.00  0.00     0.022 A 
BRANCH  65  69
ATOM     69  S   UNL A   1      42.489  27.828  25.698  1.00  0.00     0.124 S 
ATOM     70  O   UNL A   1      41.841  29.075  25.297  1.00  0.00    -0.237 OA
ATOM     71  O   UNL A   1      43.822  27.957  26.273  1.00  0.00    -0.237 OA
ATOM     72  O   UNL A   1      42.315  26.717  24.764  1.00  0.00    -0.744 OA
ENDBRANCH  65  69
ENDBRANCH  48  62
BRANCH  49  73
ATOM     73  C   UNL A   1      39.622  34.034  37.198  1.00  0.00     0.023 A 
ATOM     74  C   UNL A   1      39.021  33.547  38.370  1.00  0.00     0.031 A 
ATOM     75  C   UNL A   1      40.020  35.383  37.175  1.00  0.00     0.131 A 
ATOM     76  C   UNL A   1      38.790  34.413  39.451  1.00  0.00     0.055 A 
ATOM     77  C   UNL A   1      39.844  36.225  38.275  1.00  0.00     0.041 A 
ATOM     78  F   UNL A   1      40.601  35.901  36.081  1.00  0.00    -0.206 F 
ATOM     79  C   UNL A   1      39.212  35.744  39.417  1.00  0.00     0.022 A 
BRANCH  76  80
ATOM     80  S   UNL A   1      37.841  33.800  40.871  1.00  0.00     0.124 S 
ATOM     81  O   UNL A   1      37.456  35.043  41.529  1.00  0.00    -0.237 OA
ATOM     82  O   UNL A   1      36.768  33.058  40.219  1.00  0.00    -0.237 OA
ATOM     83  O   UNL A   1      38.810  32.981  41.598  1.00  0.00    -0.744 OA
ENDBRANCH  76  80
ENDBRANCH  49  73
BRANCH  61  84
ATOM     84  C   UNL A   1      44.062  28.886  35.611  1.00  0.00     0.023 A 
ATOM     85  C   UNL A   1      43.943  27.784  36.478  1.00  0.00     0.031 A 
ATOM     86  C   UNL A   1      45.338  29.456  35.444  1.00  0.00     0.131 A 
ATOM     87  C   UNL A   1      45.065  27.326  37.188  1.00  0.00     0.055 A 
ATOM     88  C   UNL A   1      46.462  28.953  36.101  1.00  0.00     0.041 A 
ATOM     89  F   UNL A   1      45.514  30.512  34.634  1.00  0.00    -0.206 F 
ATOM     90  C   UNL A   1      46.326  27.891  36.990  1.00  0.00     0.022 A 
BRANCH  87  91
ATOM     91  S   UNL A   1      44.834  26.044  38.452  1.00  0.00     0.124 S 
ATOM     92  O   UNL A   1      43.896  25.139  37.797  1.00  0.00    -0.237 OA
ATOM     93  O   UNL A   1      46.191  25.537  38.632  1.00  0.00    -0.237 OA
ATOM     94  O   UNL A   1      44.291  26.780  39.592  1.00  0.00    -0.744 OA
ENDBRANCH  87  91
ENDBRANCH  61  84
ENDBRANCH  35  36
ENDBRANCH  27  30
ENDBRANCH  25  26
ENDBRANCH  24  25
ENDBRANCH   1  24
TORSDOF 18
ENDMDL
MODEL 2
REMARK VINA RESULT:     -11.3      1.619      7.745
REMARK SMILES CC[C@](C)(NC(=O)NC[C@H]1COCCO1)C(=O)NCCCCNC(=O)c1ccc(-c2c3nc(c(-c4cc(S(=O)(=O)[O-])ccc4F)c4ccc([nH]4)c(-c4cc(S(=O)(=O)[O-])ccc4F)c4nc(c(-c5cc(S(=O)(=O)[O-])ccc5F)c5ccc2[nH]5)C=C4)C=C3)cc1
REMARK SMILES IDX 20 1 19 2 18 3 16 4 17 5 3 7 4 8 2 9 1 10 5 11 6 12 7 14
REMARK SMILES IDX 8 15 9 17 10 18 11 19 15 20 12 21 14 22 13 23 21 24 22 25
REMARK SMILES IDX 23 26 24 27 25 29 26 30 27 31 88 32 28 33 87 34 29 35 30 36
REMARK SMILES IDX 31 37 81 38 32 39 86 40 80 41 82 42 33 43 85 44 79 45 78 46
REMARK SMILES IDX 34 48 66 49 46 50 65 51 47 52 50 53 64 54 83 55 48 56 49 57
REMARK SMILES IDX 63 59 84 60 51 61 35 62 36 63 44 64 37 65 43 66 45 67 42 68
REMARK SMILES IDX 38 69 39 70 40 71 41 72 67 73 68 74 76 75 69 76 75 77 77 78
REMARK SMILES IDX 74 79 70 80 71 81 72 82 73 83 52 84 53 85 61 86 54 87 60 88
REMARK SMILES IDX 62 89 59 90 55 91 56 92 57 93 58 94
REMARK H PARENT 18 6 5 13 8 16 23 28 82 47 50 58
REMARK Flexibility Score: inf
ROOT
ATOM      1  C   UNL A   1      31.190  31.048  25.942  1.00  0.00     0.023 C 
ENDROOT
BRANCH   1   2
ATOM      2  C   UNL A   1      32.124  29.800  25.653  1.00  0.00     0.116 C 
BRANCH   2   3
ATOM      3  N   UNL A   1      32.986  29.614  24.468  1.00  0.00    -0.354 N 
ATOM      4  C   UNL A   1      33.349  28.642  23.568  1.00  0.00     0.245 C 
ATOM      5  O   UNL A   1      34.117  28.878  22.632  1.00  0.00    -0.272 OA
ATOM      6  H   UNL A   1      33.448  30.457  24.255  1.00  0.00     0.163 HD
BRANCH   4   7
ATOM      7  C   UNL A   1      32.698  27.307  23.653  1.00  0.00     0.117 C 
ATOM      8  C   UNL A   1      31.226  27.270  24.091  1.00  0.00     0.045 C 
BRANCH   7   9
ATOM      9  C   UNL A   1      33.546  26.566  24.756  1.00  0.00     0.035 C 
ATOM     10  C   UNL A   1      32.751  26.215  26.045  1.00  0.00     0.007 C 
ENDBRANCH   7   9
BRANCH   7  11
ATOM     11  N   UNL A   1      32.790  26.828  22.270  1.00  0.00    -0.324 N 
ATOM     12  C   UNL A   1      32.718  25.600  21.711  1.00  0.00     0.315 C 
ATOM     13  H   UNL A   1      32.935  27.548  21.614  1.00  0.00     0.166 HD
ATOM     14  O   UNL A   1      33.122  25.539  20.542  1.00  0.00    -0.249 OA
ATOM     15  N   UNL A   1      32.163  24.467  22.201  1.00  0.00    -0.335 N 
ATOM     16  H   UNL A   1      31.965  23.887  21.431  1.00  0.00     0.165 HD
BRANCH  15  17
ATOM     17  C   UNL A   1      31.717  23.715  23.453  1.00  0.00     0.152 C 
BRANCH  17  18
ATOM     18  C   UNL A   1      32.654  22.838  24.485  1.00  0.00     0.163 C 
ATOM     19  C   UNL A   1      31.861  21.960  25.491  1.00  0.00     0.194 C 
ATOM     20  O   UNL A   1      33.698  22.051  23.899  1.00  0.00    -0.372 OA
ATOM     21  O   UNL A   1      31.810  20.571  25.128  1.00  0.00    -0.376 OA
ATOM     22  C   UNL A   1      34.183  20.923  24.645  1.00  0.00     0.189 C 
ATOM     23  C   UNL A   1      33.084  19.944  25.033  1.00  0.00     0.188 C 
ENDBRANCH  17  18
ENDBRANCH  15  17
ENDBRANCH   7  11
ENDBRANCH   4   7
ENDBRANCH   2   3
ENDBRANCH   1   2
BRANCH   1  24
ATOM     24  C   UNL A   1      31.433  32.481  26.529  1.00  0.00     0.023 C 
BRANCH  24  25
ATOM     25  C   UNL A   1      32.678  32.997  27.297  1.00  0.00     0.116 C 
BRANCH  25  26
ATOM     26  N   UNL A   1      32.595  34.299  27.920  1.00  0.00    -0.352 N 
ATOM     27  C   UNL A   1      33.354  34.786  28.965  1.00  0.00     0.251 C 
ATOM     28  H   UNL A   1      31.916  34.912  27.555  1.00  0.00     0.163 HD
ATOM     29  O   UNL A   1      33.067  35.884  29.456  1.00  0.00    -0.269 OA
BRANCH  27  30
ATOM     30  C   UNL A   1      34.484  34.010  29.547  1.00  0.00     0.039 A 
ATOM     31  C   UNL A   1      35.783  34.241  29.084  1.00  0.00     0.014 A 
ATOM     32  C   UNL A   1      34.277  32.988  30.477  1.00  0.00     0.014 A 
ATOM     33  C   UNL A   1      36.863  33.512  29.608  1.00  0.00     0.010 A 
ATOM     34  C   UNL A   1      35.358  32.287  31.033  1.00  0.00     0.010 A 
ATOM     35  C   UNL A   1      36.670  32.554  30.620  1.00  0.00    -0.014 A 
BRANCH  35  36
ATOM     36  C   UNL A   1      37.833  31.888  31.283  1.00  0.00     0.031 A 
ATOM     37  C   UNL A   1      38.318  32.315  32.645  1.00  0.00     0.074 A 
ATOM     38  C   UNL A   1      38.490  30.909  30.626  1.00  0.00     0.049 A 
ATOM     39  N   UNL A   1      39.318  31.847  33.352  1.00  0.00    -0.248 NA
ATOM     40  C   UNL A   1      37.598  33.422  33.286  1.00  0.00     0.031 C 
ATOM     41  C   UNL A   1      38.153  30.432  29.283  1.00  0.00     0.029 A 
ATOM     42  N   UNL A   1      39.572  30.142  30.985  1.00  0.00    -0.354 N 
ATOM     43  C   UNL A   1      39.345  32.595  34.526  1.00  0.00     0.074 A 
ATOM     44  C   UNL A   1      38.298  33.589  34.401  1.00  0.00     0.031 C 
ATOM     45  C   UNL A   1      38.988  29.437  28.947  1.00  0.00     0.029 A 
ATOM     46  C   UNL A   1      39.951  29.232  30.024  1.00  0.00     0.049 A 
ATOM     47  H   UNL A   1      40.033  30.234  31.850  1.00  0.00     0.167 HD
ATOM     48  C   UNL A   1      40.148  32.452  35.613  1.00  0.00     0.034 A 
ATOM     49  C   UNL A   1      40.963  28.340  30.000  1.00  0.00     0.034 A 
ATOM     50  C   UNL A   1      41.198  31.463  35.720  1.00  0.00     0.049 A 
ATOM     51  C   UNL A   1      41.871  28.229  31.200  1.00  0.00     0.074 A 
ATOM     52  C   UNL A   1      42.041  31.212  36.791  1.00  0.00     0.029 A 
ATOM     53  N   UNL A   1      41.562  30.572  34.719  1.00  0.00    -0.354 N 
ATOM     54  N   UNL A   1      41.842  28.909  32.323  1.00  0.00    -0.248 NA
ATOM     55  C   UNL A   1      42.939  27.223  31.133  1.00  0.00     0.031 C 
ATOM     56  C   UNL A   1      42.960  30.229  36.410  1.00  0.00     0.029 A 
ATOM     57  C   UNL A   1      42.638  29.799  35.134  1.00  0.00     0.049 A 
ATOM     58  H   UNL A   1      41.122  30.499  33.841  1.00  0.00     0.167 HD
ATOM     59  C   UNL A   1      42.867  28.388  33.107  1.00  0.00     0.074 A 
ATOM     60  C   UNL A   1      43.484  27.329  32.336  1.00  0.00     0.031 C 
ATOM     61  C   UNL A   1      43.260  28.751  34.356  1.00  0.00     0.034 A 
BRANCH  48  62
ATOM     62  C   UNL A   1      39.937  33.409  36.766  1.00  0.00     0.023 A 
ATOM     63  C   UNL A   1      40.761  34.533  36.951  1.00  0.00     0.031 A 
ATOM     64  C   UNL A   1      38.909  33.191  37.703  1.00  0.00     0.131 A 
ATOM     65  C   UNL A   1      40.600  35.344  38.085  1.00  0.00     0.055 A 
ATOM     66  C   UNL A   1      38.698  34.053  38.782  1.00  0.00     0.041 A 
ATOM     67  F   UNL A   1      38.097  32.128  37.593  1.00  0.00    -0.206 F 
ATOM     68  C   UNL A   1      39.558  35.128  38.988  1.00  0.00     0.022 A 
BRANCH  65  69
ATOM     69  S   UNL A   1      41.872  36.586  38.446  1.00  0.00     0.124 S 
ATOM     70  O   UNL A   1      42.423  36.837  37.116  1.00  0.00    -0.237 OA
ATOM     71  O   UNL A   1      41.096  37.672  39.032  1.00  0.00    -0.237 OA
ATOM     72  O   UNL A   1      42.775  35.896  39.365  1.00  0.00    -0.744 OA
ENDBRANCH  65  69
ENDBRANCH  48  62
BRANCH  49  73
ATOM     73  C   UNL A   1      41.190  27.488  28.794  1.00  0.00     0.023 A 
ATOM     74  C   UNL A   1      42.207  27.784  27.872  1.00  0.00     0.031 A 
ATOM     75  C   UNL A   1      40.360  26.385  28.523  1.00  0.00     0.131 A 
ATOM     76  C   UNL A   1      42.336  27.020  26.701  1.00  0.00     0.055 A 
ATOM     77  C   UNL A   1      40.530  25.591  27.388  1.00  0.00     0.041 A 
ATOM     78  F   UNL A   1      39.372  26.055  29.371  1.00  0.00    -0.206 F 
ATOM     79  C   UNL A   1      41.515  25.916  26.461  1.00  0.00     0.022 A 
BRANCH  76  80
ATOM     80  S   UNL A   1      43.534  27.549  25.444  1.00  0.00     0.124 S 
ATOM     81  O   UNL A   1      44.201  28.657  26.118  1.00  0.00    -0.237 OA
ATOM     82  O   UNL A   1      44.326  26.339  25.256  1.00  0.00    -0.237 OA
ATOM     83  O   UNL A   1      42.691  27.923  24.310  1.00  0.00    -0.744 OA
ENDBRANCH  76  80
ENDBRANCH  49  73
BRANCH  61  84
ATOM     84  C   UNL A   1      44.386  27.962  34.982  1.00  0.00     0.023 A 
ATOM     85  C   UNL A   1      44.150  26.804  35.746  1.00  0.00     0.031 A 
ATOM     86  C   UNL A   1      45.720  28.381  34.820  1.00  0.00     0.131 A 
ATOM     87  C   UNL A   1      45.222  26.142  36.366  1.00  0.00     0.055 A 
ATOM     88  C   UNL A   1      46.787  27.680  35.383  1.00  0.00     0.041 A 
ATOM     89  F   UNL A   1      46.008  29.481  34.106  1.00  0.00    -0.206 F 
ATOM     90  C   UNL A   1      46.540  26.561  36.173  1.00  0.00     0.022 A 
BRANCH  87  91
ATOM     91  S   UNL A   1      44.862  24.782  37.512  1.00  0.00     0.124 S 
ATOM     92  O   UNL A   1      43.618  25.227  38.130  1.00  0.00    -0.237 OA
ATOM     93  O   UNL A   1      44.754  23.637  36.613  1.00  0.00    -0.237 OA
ATOM     94  O   UNL A   1      46.024  24.764  38.399  1.00  0.00    -0.744 OA
ENDBRANCH  87  91
ENDBRANCH  61  84
ENDBRANCH  35  36
ENDBRANCH  27  30
ENDBRANCH  25  26
ENDBRANCH  24  25
ENDBRANCH   1  24
TORSDOF 18
ENDMDL
MODEL 3
REMARK VINA RESULT:     -11.1      6.428      9.896
REMARK SMILES CC[C@](C)(NC(=O)NC[C@H]1COCCO1)C(=O)NCCCCNC(=O)c1ccc(-c2c3nc(c(-c4cc(S(=O)(=O)[O-])ccc4F)c4ccc([nH]4)c(-c4cc(S(=O)(=O)[O-])ccc4F)c4nc(c(-c5cc(S(=O)(=O)[O-])ccc5F)c5ccc2[nH]5)C=C4)C=C3)cc1
REMARK SMILES IDX 20 1 19 2 18 3 16 4 17 5 3 7 4 8 2 9 1 10 5 11 6 12 7 14
REMARK SMILES IDX 8 15 9 17 10 18 11 19 15 20 12 21 14 22 13 23 21 24 22 25
REMARK SMILES IDX 23 26 24 27 25 29 26 30 27 31 88 32 28 33 87 34 29 35 30 36
REMARK SMILES IDX 31 37 81 38 32 39 86 40 80 41 82 42 33 43 85 44 79 45 78 46
REMARK SMILES IDX 34 48 66 49 46 50 65 51 47 52 50 53 64 54 83 55 48 56 49 57
REMARK SMILES IDX 63 59 84 60 51 61 35 62 36 63 44 64 37 65 43 66 45 67 42 68
REMARK SMILES IDX 38 69 39 70 40 71 41 72 67 73 68 74 76 75 69 76 75 77 77 78
REMARK SMILES IDX 74 79 70 80 71 81 72 82 73 83 52 84 53 85 61 86 54 87 60 88
REMARK SMILES IDX 62 89 59 90 55 91 56 92 57 93 58 94
REMARK H PARENT 18 6 5 13 8 16 23 28 82 47 50 58
REMARK Flexibility Score: inf
ROOT
ATOM      1  C   UNL A   1      37.542  20.950  24.746  1.00  0.00     0.023 C 
ENDROOT
BRANCH   1   2
ATOM      2  C   UNL A   1      37.062  22.288  25.448  1.00  0.00     0.116 C 
BRANCH   2   3
ATOM      3  N   UNL A   1      35.970  22.409  26.436  1.00  0.00    -0.354 N 
ATOM      4  C   UNL A   1      34.698  22.914  26.548  1.00  0.00     0.245 C 
ATOM      5  O   UNL A   1      34.039  22.793  27.583  1.00  0.00    -0.272 OA
ATOM      6  H   UNL A   1      36.241  21.994  27.287  1.00  0.00     0.163 HD
BRANCH   4   7
ATOM      7  C   UNL A   1      34.056  23.511  25.345  1.00  0.00     0.117 C 
ATOM      8  C   UNL A   1      34.319  22.826  23.995  1.00  0.00     0.045 C 
BRANCH   7   9
ATOM      9  C   UNL A   1      34.687  24.954  25.283  1.00  0.00     0.035 C 
ATOM     10  C   UNL A   1      33.726  26.091  25.733  1.00  0.00     0.007 C 
ENDBRANCH   7   9
BRANCH   7  11
ATOM     11  N   UNL A   1      32.629  23.391  25.664  1.00  0.00    -0.324 N 
ATOM     12  C   UNL A   1      31.762  22.355  25.645  1.00  0.00     0.315 C 
ATOM     13  H   UNL A   1      32.219  24.240  25.951  1.00  0.00     0.166 HD
ATOM     14  O   UNL A   1      30.568  22.679  25.704  1.00  0.00    -0.249 OA
ATOM     15  N   UNL A   1      32.015  21.027  25.689  1.00  0.00    -0.335 N 
ATOM     16  H   UNL A   1      31.195  20.589  26.015  1.00  0.00     0.165 HD
BRANCH  15  17
ATOM     17  C   UNL A   1      33.041  19.924  25.443  1.00  0.00     0.152 C 
BRANCH  17  18
ATOM     18  C   UNL A   1      32.764  18.398  24.890  1.00  0.00     0.163 C 
ATOM     19  C   UNL A   1      33.934  17.782  24.074  1.00  0.00     0.194 C 
ATOM     20  O   UNL A   1      32.306  17.438  25.849  1.00  0.00    -0.372 OA
ATOM     21  O   UNL A   1      34.727  16.846  24.822  1.00  0.00    -0.376 OA
ATOM     22  C   UNL A   1      32.536  16.048  25.565  1.00  0.00     0.189 C 
ATOM     23  C   UNL A   1      34.001  15.723  25.310  1.00  0.00     0.188 C 
ENDBRANCH  17  18
ENDBRANCH  15  17
ENDBRANCH   7  11
ENDBRANCH   4   7
ENDBRANCH   2   3
ENDBRANCH   1   2
BRANCH   1  24
ATOM     24  C   UNL A   1      38.684  19.916  25.032  1.00  0.00     0.023 C 
BRANCH  24  25
ATOM     25  C   UNL A   1      39.658  19.881  26.240  1.00  0.00     0.116 C 
BRANCH  25  26
ATOM     26  N   UNL A   1      40.947  19.256  26.050  1.00  0.00    -0.352 N 
ATOM     27  C   UNL A   1      42.192  19.851  26.100  1.00  0.00     0.251 C 
ATOM     28  H   UNL A   1      40.937  18.289  25.862  1.00  0.00     0.163 HD
ATOM     29  O   UNL A   1      43.189  19.188  25.792  1.00  0.00    -0.269 OA
BRANCH  27  30
ATOM     30  C   UNL A   1      42.366  21.283  26.474  1.00  0.00     0.039 A 
ATOM     31  C   UNL A   1      42.468  21.629  27.824  1.00  0.00     0.014 A 
ATOM     32  C   UNL A   1      42.336  22.304  25.521  1.00  0.00     0.014 A 
ATOM     33  C   UNL A   1      42.619  22.973  28.202  1.00  0.00     0.010 A 
ATOM     34  C   UNL A   1      42.529  23.643  25.891  1.00  0.00     0.010 A 
ATOM     35  C   UNL A   1      42.693  23.995  27.237  1.00  0.00    -0.014 A 
BRANCH  35  36
ATOM     36  C   UNL A   1      43.007  25.403  27.629  1.00  0.00     0.031 A 
ATOM     37  C   UNL A   1      44.405  25.958  27.542  1.00  0.00     0.074 A 
ATOM     38  C   UNL A   1      42.017  26.184  28.114  1.00  0.00     0.049 A 
ATOM     39  N   UNL A   1      44.843  27.154  27.852  1.00  0.00    -0.248 NA
ATOM     40  C   UNL A   1      45.449  25.045  27.060  1.00  0.00     0.031 C 
ATOM     41  C   UNL A   1      40.628  25.756  28.295  1.00  0.00     0.029 A 
ATOM     42  N   UNL A   1      42.018  27.488  28.545  1.00  0.00    -0.354 N 
ATOM     43  C   UNL A   1      46.212  27.143  27.597  1.00  0.00     0.074 A 
ATOM     44  C   UNL A   1      46.536  25.797  27.167  1.00  0.00     0.031 C 
ATOM     45  C   UNL A   1      39.908  26.786  28.768  1.00  0.00     0.029 A 
ATOM     46  C   UNL A   1      40.787  27.933  28.971  1.00  0.00     0.049 A 
ATOM     47  H   UNL A   1      42.825  28.053  28.548  1.00  0.00     0.167 HD
ATOM     48  C   UNL A   1      47.107  28.161  27.689  1.00  0.00     0.034 A 
ATOM     49  C   UNL A   1      40.403  29.123  29.479  1.00  0.00     0.034 A 
ATOM     50  C   UNL A   1      46.773  29.496  28.132  1.00  0.00     0.049 A 
ATOM     51  C   UNL A   1      41.424  30.226  29.616  1.00  0.00     0.074 A 
ATOM     52  C   UNL A   1      47.597  30.607  28.224  1.00  0.00     0.029 A 
ATOM     53  N   UNL A   1      45.519  29.903  28.571  1.00  0.00    -0.354 N 
ATOM     54  N   UNL A   1      42.701  30.210  29.313  1.00  0.00    -0.248 NA
ATOM     55  C   UNL A   1      40.947  31.509  30.148  1.00  0.00     0.031 C 
ATOM     56  C   UNL A   1      46.865  31.656  28.790  1.00  0.00     0.029 A 
ATOM     57  C   UNL A   1      45.559  31.232  28.970  1.00  0.00     0.049 A 
ATOM     58  H   UNL A   1      44.718  29.331  28.598  1.00  0.00     0.167 HD
ATOM     59  C   UNL A   1      43.172  31.491  29.590  1.00  0.00     0.074 A 
ATOM     60  C   UNL A   1      42.038  32.256  30.066  1.00  0.00     0.031 C 
ATOM     61  C   UNL A   1      44.429  31.990  29.457  1.00  0.00     0.034 A 
BRANCH  48  62
ATOM     62  C   UNL A   1      48.545  27.859  27.326  1.00  0.00     0.023 A 
ATOM     63  C   UNL A   1      49.054  28.132  26.044  1.00  0.00     0.031 A 
ATOM     64  C   UNL A   1      49.418  27.279  28.266  1.00  0.00     0.131 A 
ATOM     65  C   UNL A   1      50.362  27.749  25.710  1.00  0.00     0.055 A 
ATOM     66  C   UNL A   1      50.747  26.982  27.953  1.00  0.00     0.041 A 
ATOM     67  F   UNL A   1      48.992  26.980  29.502  1.00  0.00    -0.206 F 
ATOM     68  C   UNL A   1      51.222  27.200  26.664  1.00  0.00     0.022 A 
BRANCH  65  69
ATOM     69  S   UNL A   1      50.870  27.832  23.970  1.00  0.00     0.124 S 
ATOM     70  O   UNL A   1      51.749  26.670  23.866  1.00  0.00    -0.237 OA
ATOM     71  O   UNL A   1      49.597  27.736  23.265  1.00  0.00    -0.237 OA
ATOM     72  O   UNL A   1      51.544  29.125  23.871  1.00  0.00    -0.744 OA
ENDBRANCH  65  69
ENDBRANCH  48  62
BRANCH  49  73
ATOM     73  C   UNL A   1      38.991  29.337  29.917  1.00  0.00     0.023 A 
ATOM     74  C   UNL A   1      38.094  30.093  29.146  1.00  0.00     0.031 A 
ATOM     75  C   UNL A   1      38.530  28.821  31.142  1.00  0.00     0.131 A 
ATOM     76  C   UNL A   1      36.801  30.354  29.628  1.00  0.00     0.055 A 
ATOM     77  C   UNL A   1      37.224  29.032  31.590  1.00  0.00     0.041 A 
ATOM     78  F   UNL A   1      39.344  28.090  31.920  1.00  0.00    -0.206 F 
ATOM     79  C   UNL A   1      36.356  29.815  30.837  1.00  0.00     0.022 A 
BRANCH  76  80
ATOM     80  S   UNL A   1      35.737  31.491  28.696  1.00  0.00     0.124 S 
ATOM     81  O   UNL A   1      36.705  32.462  28.198  1.00  0.00    -0.237 OA
ATOM     82  O   UNL A   1      35.146  30.604  27.701  1.00  0.00    -0.237 OA
ATOM     83  O   UNL A   1      34.810  31.994  29.709  1.00  0.00    -0.744 OA
ENDBRANCH  76  80
ENDBRANCH  49  73
BRANCH  61  84
ATOM     84  C   UNL A   1      44.630  33.449  29.792  1.00  0.00     0.023 A 
ATOM     85  C   UNL A   1      44.352  34.471  28.866  1.00  0.00     0.031 A 
ATOM     86  C   UNL A   1      45.119  33.824  31.057  1.00  0.00     0.131 A 
ATOM     87  C   UNL A   1      44.620  35.810  29.197  1.00  0.00     0.055 A 
ATOM     88  C   UNL A   1      45.320  35.161  31.404  1.00  0.00     0.041 A 
ATOM     89  F   UNL A   1      45.408  32.893  31.981  1.00  0.00    -0.206 F 
ATOM     90  C   UNL A   1      45.084  36.162  30.467  1.00  0.00     0.022 A 
BRANCH  87  91
ATOM     91  S   UNL A   1      44.450  37.078  27.911  1.00  0.00     0.124 S 
ATOM     92  O   UNL A   1      45.831  37.511  27.728  1.00  0.00    -0.237 OA
ATOM     93  O   UNL A   1      43.867  36.324  26.805  1.00  0.00    -0.237 OA
ATOM     94  O   UNL A   1      43.564  38.069  28.520  1.00  0.00    -0.744 OA
ENDBRANCH  87  91
ENDBRANCH  61  84
ENDBRANCH  35  36
ENDBRANCH  27  30
ENDBRANCH  25  26
ENDBRANCH  24  25
ENDBRANCH   1  24
TORSDOF 18
ENDMDL
