MODEL 1
REMARK VINA RESULT:     -11.7      0.000      0.000
REMARK SMILES [NH3+][C@H](Cc1cc(Br)c(O)c(Br)c1)C(=O)NCCCCNC(=O)c1ccc(-c2c3nc(c(-c4cc(S(=O)(=O)[O-])ccc4F)c4ccc([nH]4)c(-c4cc(S(=O)(=O)[O-])ccc4F)c4nc(c(-c5cc(S(=O)(=O)[O-])ccc5F)c5ccc2[nH]5)C=C4)C=C3)cc1
REMARK SMILES IDX 17 1 16 2 15 3 13 4 14 5 2 7 1 8 3 12 4 13 5 14 12 15 6 16
REMARK SMILES IDX 10 17 7 18 8 19 11 20 9 21 18 23 19 24 20 25 21 26 22 28
REMARK SMILES IDX 23 29 24 30 85 31 25 32 84 33 26 34 27 35 28 36 78 37 29 38
REMARK SMILES IDX 83 39 77 40 79 41 30 42 82 43 76 44 75 45 31 47 63 48 43 49
REMARK SMILES IDX 62 50 44 51 47 52 61 53 80 54 45 55 46 56 60 58 81 59 48 60
REMARK SMILES IDX 32 61 33 62 41 63 34 64 40 65 42 66 39 67 35 68 36 69 37 70
REMARK SMILES IDX 38 71 64 72 65 73 73 74 66 75 72 76 74 77 71 78 67 79 68 80
REMARK SMILES IDX 69 81 70 82 49 83 50 84 58 85 51 86 57 87 59 88 56 89 52 90
REMARK SMILES IDX 53 91 54 92 55 93
REMARK H PARENT 15 6 1 9 1 10 1 11 9 22 20 27 79 46 47 57
REMARK Flexibility Score: inf
ROOT
ATOM      1  C   UNL A   1      33.843  22.518  25.080  1.00  0.00     0.023 C 
ENDROOT
BRANCH   1   2
ATOM      2  C   UNL A   1      33.635  22.834  26.562  1.00  0.00     0.116 C 
BRANCH   2   3
ATOM      3  N   UNL A   1      32.228  22.783  26.914  1.00  0.00    -0.351 N 
ATOM      4  C   UNL A   1      31.232  23.708  26.782  1.00  0.00     0.278 C 
ATOM      5  O   UNL A   1      30.142  23.451  27.299  1.00  0.00    -0.268 OA
ATOM      6  H   UNL A   1      31.942  21.934  27.320  1.00  0.00     0.163 HD
BRANCH   4   7
ATOM      7  C   UNL A   1      31.447  25.024  26.008  1.00  0.00     0.275 C 
BRANCH   7   8
ATOM      8  N   UNL A   1      31.726  26.114  26.970  1.00  0.00    -0.347 N 
ATOM      9  H   UNL A   1      31.601  25.770  27.921  1.00  0.00     0.345 HD
ATOM     10  H   UNL A   1      31.083  26.888  26.801  1.00  0.00     0.345 HD
ATOM     11  H   UNL A   1      32.686  26.439  26.848  1.00  0.00     0.345 HD
ENDBRANCH   7   8
BRANCH   7  12
ATOM     12  C   UNL A   1      30.336  25.261  24.959  1.00  0.00     0.111 C 
BRANCH  12  13
ATOM     13  C   UNL A   1      30.563  26.459  24.064  1.00  0.00    -0.039 A 
ATOM     14  C   UNL A   1      29.474  27.236  23.640  1.00  0.00     0.023 A 
ATOM     15  C   UNL A   1      31.855  26.824  23.667  1.00  0.00     0.023 A 
ATOM     16  C   UNL A   1      29.682  28.393  22.890  1.00  0.00     0.061 A 
ATOM     17  C   UNL A   1      32.058  27.969  22.888  1.00  0.00     0.061 A 
ATOM     18  Br  UNL A   1      28.183  29.453  22.417  1.00  0.00    -0.047 Br
ATOM     19  C   UNL A   1      30.975  28.769  22.516  1.00  0.00     0.143 A 
ATOM     20  Br  UNL A   1      33.832  28.404  22.375  1.00  0.00    -0.047 Br
BRANCH  19  21
ATOM     21  O   UNL A   1      31.191  29.917  21.800  1.00  0.00    -0.506 OA
ATOM     22  H   UNL A   1      31.193  30.747  22.235  1.00  0.00     0.293 HD
ENDBRANCH  19  21
ENDBRANCH  12  13
ENDBRANCH   7  12
ENDBRANCH   4   7
ENDBRANCH   2   3
ENDBRANCH   1   2
BRANCH   1  23
ATOM     23  C   UNL A   1      35.003  21.563  24.794  1.00  0.00     0.023 C 
BRANCH  23  24
ATOM     24  C   UNL A   1      36.328  21.942  25.448  1.00  0.00     0.116 C 
BRANCH  24  25
ATOM     25  N   UNL A   1      37.286  20.846  25.459  1.00  0.00    -0.352 N 
ATOM     26  C   UNL A   1      38.624  20.879  25.768  1.00  0.00     0.251 C 
ATOM     27  H   UNL A   1      36.926  19.964  25.212  1.00  0.00     0.163 HD
ATOM     28  O   UNL A   1      39.316  19.882  25.590  1.00  0.00    -0.269 OA
BRANCH  26  29
ATOM     29  C   UNL A   1      39.223  22.132  26.277  1.00  0.00     0.039 A 
ATOM     30  C   UNL A   1      40.305  22.055  27.156  1.00  0.00     0.014 A 
ATOM     31  C   UNL A   1      38.740  23.375  25.859  1.00  0.00     0.014 A 
ATOM     32  C   UNL A   1      40.948  23.226  27.563  1.00  0.00     0.010 A 
ATOM     33  C   UNL A   1      39.425  24.535  26.211  1.00  0.00     0.010 A 
ATOM     34  C   UNL A   1      40.538  24.473  27.063  1.00  0.00    -0.014 A 
BRANCH  34  35
ATOM     35  C   UNL A   1      41.259  25.722  27.419  1.00  0.00     0.031 A 
ATOM     36  C   UNL A   1      40.569  26.783  28.231  1.00  0.00     0.074 A 
ATOM     37  C   UNL A   1      42.506  25.929  26.954  1.00  0.00     0.049 A 
ATOM     38  N   UNL A   1      40.990  27.975  28.568  1.00  0.00    -0.248 NA
ATOM     39  C   UNL A   1      39.210  26.471  28.700  1.00  0.00     0.031 C 
ATOM     40  C   UNL A   1      43.264  24.992  26.120  1.00  0.00     0.029 A 
ATOM     41  N   UNL A   1      43.355  26.997  27.102  1.00  0.00    -0.354 N 
ATOM     42  C   UNL A   1      39.948  28.561  29.277  1.00  0.00     0.074 A 
ATOM     43  C   UNL A   1      38.851  27.614  29.264  1.00  0.00     0.031 C 
ATOM     44  C   UNL A   1      44.468  25.520  25.847  1.00  0.00     0.029 A 
ATOM     45  C   UNL A   1      44.555  26.848  26.446  1.00  0.00     0.049 A 
ATOM     46  H   UNL A   1      43.126  27.797  27.630  1.00  0.00     0.167 HD
ATOM     47  C   UNL A   1      39.915  29.764  29.902  1.00  0.00     0.034 A 
ATOM     48  C   UNL A   1      45.601  27.691  26.327  1.00  0.00     0.034 A 
ATOM     49  C   UNL A   1      41.021  30.691  29.913  1.00  0.00     0.049 A 
ATOM     50  C   UNL A   1      45.536  29.031  27.014  1.00  0.00     0.074 A 
ATOM     51  C   UNL A   1      41.114  31.916  30.552  1.00  0.00     0.029 A 
ATOM     52  N   UNL A   1      42.226  30.500  29.248  1.00  0.00    -0.354 N 
ATOM     53  N   UNL A   1      44.559  29.551  27.721  1.00  0.00    -0.248 NA
ATOM     54  C   UNL A   1      46.720  29.892  26.898  1.00  0.00     0.031 C 
ATOM     55  C   UNL A   1      42.347  32.491  30.223  1.00  0.00     0.029 A 
ATOM     56  C   UNL A   1      43.057  31.594  29.440  1.00  0.00     0.049 A 
ATOM     57  H   UNL A   1      42.457  29.703  28.718  1.00  0.00     0.167 HD
ATOM     58  C   UNL A   1      45.024  30.789  28.158  1.00  0.00     0.074 A 
ATOM     59  C   UNL A   1      46.373  30.928  27.649  1.00  0.00     0.031 C 
ATOM     60  C   UNL A   1      44.396  31.723  28.916  1.00  0.00     0.034 A 
BRANCH  47  61
ATOM     61  C   UNL A   1      38.633  30.146  30.603  1.00  0.00     0.023 A 
ATOM     62  C   UNL A   1      37.606  30.837  29.935  1.00  0.00     0.031 A 
ATOM     63  C   UNL A   1      38.444  29.845  31.963  1.00  0.00     0.131 A 
ATOM     64  C   UNL A   1      36.478  31.274  30.644  1.00  0.00     0.055 A 
ATOM     65  C   UNL A   1      37.281  30.209  32.644  1.00  0.00     0.041 A 
ATOM     66  F   UNL A   1      39.397  29.205  32.660  1.00  0.00    -0.206 F 
ATOM     67  C   UNL A   1      36.295  30.943  31.988  1.00  0.00     0.022 A 
BRANCH  64  68
ATOM     68  S   UNL A   1      35.327  32.408  29.822  1.00  0.00     0.124 S 
ATOM     69  O   UNL A   1      34.842  31.585  28.715  1.00  0.00    -0.237 OA
ATOM     70  O   UNL A   1      34.360  32.696  30.875  1.00  0.00    -0.237 OA
ATOM     71  O   UNL A   1      36.173  33.532  29.428  1.00  0.00    -0.744 OA
ENDBRANCH  64  68
ENDBRANCH  47  61
BRANCH  48  72
ATOM     72  C   UNL A   1      46.793  27.307  25.519  1.00  0.00     0.023 A 
ATOM     73  C   UNL A   1      46.971  27.794  24.215  1.00  0.00     0.031 A 
ATOM     74  C   UNL A   1      47.753  26.412  26.027  1.00  0.00     0.131 A 
ATOM     75  C   UNL A   1      48.056  27.347  23.443  1.00  0.00     0.055 A 
ATOM     76  C   UNL A   1      48.858  26.011  25.274  1.00  0.00     0.041 A 
ATOM     77  F   UNL A   1      47.635  25.923  27.271  1.00  0.00    -0.206 F 
ATOM     78  C   UNL A   1      49.006  26.468  23.968  1.00  0.00     0.022 A 
BRANCH  75  79
ATOM     79  S   UNL A   1      48.159  27.866  21.708  1.00  0.00     0.124 S 
ATOM     80  O   UNL A   1      46.834  28.435  21.489  1.00  0.00    -0.237 OA
ATOM     81  O   UNL A   1      49.267  28.815  21.743  1.00  0.00    -0.237 OA
ATOM     82  O   UNL A   1      48.431  26.620  20.996  1.00  0.00    -0.744 OA
ENDBRANCH  75  79
ENDBRANCH  48  72
BRANCH  60  83
ATOM     83  C   UNL A   1      45.186  32.958  29.275  1.00  0.00     0.023 A 
ATOM     84  C   UNL A   1      45.129  34.127  28.497  1.00  0.00     0.031 A 
ATOM     85  C   UNL A   1      46.020  32.957  30.408  1.00  0.00     0.131 A 
ATOM     86  C   UNL A   1      45.931  35.228  28.831  1.00  0.00     0.055 A 
ATOM     87  C   UNL A   1      46.771  34.076  30.768  1.00  0.00     0.041 A 
ATOM     88  F   UNL A   1      46.115  31.866  31.186  1.00  0.00    -0.206 F 
ATOM     89  C   UNL A   1      46.738  35.216  29.970  1.00  0.00     0.022 A 
BRANCH  86  90
ATOM     90  S   UNL A   1      45.972  36.649  27.703  1.00  0.00     0.124 S 
ATOM     91  O   UNL A   1      44.627  36.631  27.142  1.00  0.00    -0.237 OA
ATOM     92  O   UNL A   1      46.272  37.755  28.606  1.00  0.00    -0.237 OA
ATOM     93  O   UNL A   1      47.041  36.310  26.764  1.00  0.00    -0.744 OA
ENDBRANCH  86  90
ENDBRANCH  60  83
ENDBRANCH  34  35
ENDBRANCH  26  29
ENDBRANCH  24  25
ENDBRANCH  23  24
ENDBRANCH   1  23
TORSDOF 18
ENDMDL
MODEL 2
REMARK VINA RESULT:     -11.6      5.650     10.618
REMARK SMILES [NH3+][C@H](Cc1cc(Br)c(O)c(Br)c1)C(=O)NCCCCNC(=O)c1ccc(-c2c3nc(c(-c4cc(S(=O)(=O)[O-])ccc4F)c4ccc([nH]4)c(-c4cc(S(=O)(=O)[O-])ccc4F)c4nc(c(-c5cc(S(=O)(=O)[O-])ccc5F)c5ccc2[nH]5)C=C4)C=C3)cc1
REMARK SMILES IDX 17 1 16 2 15 3 13 4 14 5 2 7 1 8 3 12 4 13 5 14 12 15 6 16
REMARK SMILES IDX 10 17 7 18 8 19 11 20 9 21 18 23 19 24 20 25 21 26 22 28
REMARK SMILES IDX 23 29 24 30 85 31 25 32 84 33 26 34 27 35 28 36 78 37 29 38
REMARK SMILES IDX 83 39 77 40 79 41 30 42 82 43 76 44 75 45 31 47 63 48 43 49
REMARK SMILES IDX 62 50 44 51 47 52 61 53 80 54 45 55 46 56 60 58 81 59 48 60
REMARK SMILES IDX 32 61 33 62 41 63 34 64 40 65 42 66 39 67 35 68 36 69 37 70
REMARK SMILES IDX 38 71 64 72 65 73 73 74 66 75 72 76 74 77 71 78 67 79 68 80
REMARK SMILES IDX 69 81 70 82 49 83 50 84 58 85 51 86 57 87 59 88 56 89 52 90
REMARK SMILES IDX 53 91 54 92 55 93
REMARK H PARENT 15 6 1 9 1 10 1 11 9 22 20 27 79 46 47 57
REMARK Flexibility Score: inf
ROOT
ATOM      1  C   UNL A   1      32.129  29.070  26.385  1.00  0.00     0.023 C 
ENDROOT
BRANCH   1   2
ATOM      2  C   UNL A   1      31.415  28.005  27.219  1.00  0.00     0.116 C 
BRANCH   2   3
ATOM      3  N   UNL A   1      32.006  26.696  27.008  1.00  0.00    -0.351 N 
ATOM      4  C   UNL A   1      31.462  25.521  26.575  1.00  0.00     0.278 C 
ATOM      5  O   UNL A   1      32.171  24.512  26.622  1.00  0.00    -0.268 OA
ATOM      6  H   UNL A   1      32.966  26.646  27.215  1.00  0.00     0.163 HD
BRANCH   4   7
ATOM      7  C   UNL A   1      30.020  25.448  26.034  1.00  0.00     0.275 C 
BRANCH   7   8
ATOM      8  N   UNL A   1      29.266  24.427  26.796  1.00  0.00    -0.347 N 
ATOM      9  H   UNL A   1      29.913  23.734  27.170  1.00  0.00     0.345 HD
ATOM     10  H   UNL A   1      28.596  23.968  26.178  1.00  0.00     0.345 HD
ATOM     11  H   UNL A   1      28.766  24.875  27.564  1.00  0.00     0.345 HD
ENDBRANCH   7   8
BRANCH   7  12
ATOM     12  C   UNL A   1      29.989  25.356  24.491  1.00  0.00     0.111 C 
BRANCH  12  13
ATOM     13  C   UNL A   1      30.305  26.652  23.779  1.00  0.00    -0.039 A 
ATOM     14  C   UNL A   1      31.638  26.993  23.499  1.00  0.00     0.023 A 
ATOM     15  C   UNL A   1      29.281  27.514  23.368  1.00  0.00     0.023 A 
ATOM     16  C   UNL A   1      31.933  28.141  22.763  1.00  0.00     0.061 A 
ATOM     17  C   UNL A   1      29.583  28.681  22.655  1.00  0.00     0.061 A 
ATOM     18  Br  UNL A   1      33.744  28.508  22.338  1.00  0.00    -0.047 Br
ATOM     19  C   UNL A   1      30.907  28.986  22.332  1.00  0.00     0.143 A 
ATOM     20  Br  UNL A   1      28.151  29.811  22.135  1.00  0.00    -0.047 Br
BRANCH  19  21
ATOM     21  O   UNL A   1      31.186  30.102  21.588  1.00  0.00    -0.506 OA
ATOM     22  H   UNL A   1      31.496  30.013  20.708  1.00  0.00     0.293 HD
ENDBRANCH  19  21
ENDBRANCH  12  13
ENDBRANCH   7  12
ENDBRANCH   4   7
ENDBRANCH   2   3
ENDBRANCH   1   2
BRANCH   1  23
ATOM     23  C   UNL A   1      31.804  30.510  26.788  1.00  0.00     0.023 C 
BRANCH  23  24
ATOM     24  C   UNL A   1      33.005  31.348  27.216  1.00  0.00     0.116 C 
BRANCH  24  25
ATOM     25  N   UNL A   1      32.690  32.762  27.344  1.00  0.00    -0.352 N 
ATOM     26  C   UNL A   1      33.266  33.699  28.168  1.00  0.00     0.251 C 
ATOM     27  H   UNL A   1      31.967  33.092  26.762  1.00  0.00     0.163 HD
ATOM     28  O   UNL A   1      32.780  34.823  28.246  1.00  0.00    -0.269 OA
BRANCH  26  29
ATOM     29  C   UNL A   1      34.444  33.327  28.980  1.00  0.00     0.039 A 
ATOM     30  C   UNL A   1      34.245  32.693  30.208  1.00  0.00     0.014 A 
ATOM     31  C   UNL A   1      35.739  33.573  28.514  1.00  0.00     0.014 A 
ATOM     32  C   UNL A   1      35.346  32.241  30.938  1.00  0.00     0.010 A 
ATOM     33  C   UNL A   1      36.831  33.060  29.210  1.00  0.00     0.010 A 
ATOM     34  C   UNL A   1      36.646  32.387  30.427  1.00  0.00    -0.014 A 
BRANCH  34  35
ATOM     35  C   UNL A   1      37.825  31.841  31.150  1.00  0.00     0.031 A 
ATOM     36  C   UNL A   1      38.635  30.732  30.538  1.00  0.00     0.074 A 
ATOM     37  C   UNL A   1      38.122  32.297  32.382  1.00  0.00     0.049 A 
ATOM     38  N   UNL A   1      39.638  30.061  31.043  1.00  0.00    -0.248 NA
ATOM     39  C   UNL A   1      38.241  30.299  29.188  1.00  0.00     0.031 C 
ATOM     40  C   UNL A   1      37.383  33.340  33.099  1.00  0.00     0.029 A 
ATOM     41  N   UNL A   1      39.114  31.934  33.259  1.00  0.00    -0.354 N 
ATOM     42  C   UNL A   1      39.989  29.121  30.081  1.00  0.00     0.074 A 
ATOM     43  C   UNL A   1      39.048  29.268  28.990  1.00  0.00     0.031 C 
ATOM     44  C   UNL A   1      37.959  33.544  34.295  1.00  0.00     0.029 A 
ATOM     45  C   UNL A   1      39.076  32.620  34.452  1.00  0.00     0.049 A 
ATOM     46  H   UNL A   1      39.789  31.248  33.053  1.00  0.00     0.167 HD
ATOM     47  C   UNL A   1      41.016  28.234  30.094  1.00  0.00     0.034 A 
ATOM     48  C   UNL A   1      39.847  32.506  35.553  1.00  0.00     0.034 A 
ATOM     49  C   UNL A   1      41.951  28.108  31.186  1.00  0.00     0.049 A 
ATOM     50  C   UNL A   1      40.970  31.501  35.553  1.00  0.00     0.074 A 
ATOM     51  C   UNL A   1      43.054  27.277  31.286  1.00  0.00     0.029 A 
ATOM     52  N   UNL A   1      41.890  28.828  32.373  1.00  0.00    -0.354 N 
ATOM     53  N   UNL A   1      41.319  30.650  34.616  1.00  0.00    -0.248 NA
ATOM     54  C   UNL A   1      41.813  31.450  36.756  1.00  0.00     0.031 C 
ATOM     55  C   UNL A   1      43.622  27.450  32.554  1.00  0.00     0.029 A 
ATOM     56  C   UNL A   1      42.919  28.443  33.219  1.00  0.00     0.049 A 
ATOM     57  H   UNL A   1      41.215  29.513  32.583  1.00  0.00     0.167 HD
ATOM     58  C   UNL A   1      42.440  29.984  35.105  1.00  0.00     0.074 A 
ATOM     59  C   UNL A   1      42.716  30.544  36.412  1.00  0.00     0.031 C 
ATOM     60  C   UNL A   1      43.176  29.003  34.525  1.00  0.00     0.034 A 
BRANCH  47  61
ATOM     61  C   UNL A   1      41.159  27.323  28.899  1.00  0.00     0.023 A 
ATOM     62  C   UNL A   1      42.167  27.522  27.938  1.00  0.00     0.031 A 
ATOM     63  C   UNL A   1      40.261  26.260  28.698  1.00  0.00     0.131 A 
ATOM     64  C   UNL A   1      42.202  26.726  26.784  1.00  0.00     0.055 A 
ATOM     65  C   UNL A   1      40.353  25.417  27.588  1.00  0.00     0.041 A 
ATOM     66  F   UNL A   1      39.266  26.032  29.570  1.00  0.00    -0.206 F 
ATOM     67  C   UNL A   1      41.318  25.658  26.613  1.00  0.00     0.022 A 
BRANCH  64  68
ATOM     68  S   UNL A   1      43.323  27.201  25.440  1.00  0.00     0.124 S 
ATOM     69  O   UNL A   1      44.334  27.974  26.160  1.00  0.00    -0.237 OA
ATOM     70  O   UNL A   1      43.756  25.911  24.918  1.00  0.00    -0.237 OA
ATOM     71  O   UNL A   1      42.473  27.984  24.544  1.00  0.00    -0.744 OA
ENDBRANCH  64  68
ENDBRANCH  47  61
BRANCH  48  72
ATOM     72  C   UNL A   1      39.581  33.350  36.752  1.00  0.00     0.023 A 
ATOM     73  C   UNL A   1      38.928  32.825  37.877  1.00  0.00     0.031 A 
ATOM     74  C   UNL A   1      39.941  34.710  36.773  1.00  0.00     0.131 A 
ATOM     75  C   UNL A   1      38.609  33.664  38.957  1.00  0.00     0.055 A 
ATOM     76  C   UNL A   1      39.669  35.528  37.871  1.00  0.00     0.041 A 
ATOM     77  F   UNL A   1      40.575  35.261  35.726  1.00  0.00    -0.206 F 
ATOM     78  C   UNL A   1      38.986  35.008  38.967  1.00  0.00     0.022 A 
BRANCH  75  79
ATOM     79  S   UNL A   1      37.617  32.990  40.318  1.00  0.00     0.124 S 
ATOM     80  O   UNL A   1      36.275  33.012  39.746  1.00  0.00    -0.237 OA
ATOM     81  O   UNL A   1      38.214  31.671  40.502  1.00  0.00    -0.237 OA
ATOM     82  O   UNL A   1      37.848  33.934  41.408  1.00  0.00    -0.744 OA
ENDBRANCH  75  79
ENDBRANCH  48  72
BRANCH  60  83
ATOM     83  C   UNL A   1      44.380  28.509  35.289  1.00  0.00     0.023 A 
ATOM     84  C   UNL A   1      44.277  27.507  36.270  1.00  0.00     0.031 A 
ATOM     85  C   UNL A   1      45.650  29.059  35.037  1.00  0.00     0.131 A 
ATOM     86  C   UNL A   1      45.411  27.126  37.001  1.00  0.00     0.055 A 
ATOM     87  C   UNL A   1      46.786  28.634  35.727  1.00  0.00     0.041 A 
ATOM     88  F   UNL A   1      45.806  30.020  34.112  1.00  0.00    -0.206 F 
ATOM     89  C   UNL A   1      46.667  27.671  36.725  1.00  0.00     0.022 A 
BRANCH  86  90
ATOM     90  S   UNL A   1      45.208  25.969  38.384  1.00  0.00     0.124 S 
ATOM     91  O   UNL A   1      44.517  26.791  39.370  1.00  0.00    -0.237 OA
ATOM     92  O   UNL A   1      44.422  24.898  37.782  1.00  0.00    -0.237 OA
ATOM     93  O   UNL A   1      46.582  25.607  38.732  1.00  0.00    -0.744 OA
ENDBRANCH  86  90
ENDBRANCH  60  83
ENDBRANCH  34  35
ENDBRANCH  26  29
ENDBRANCH  24  25
ENDBRANCH  23  24
ENDBRANCH   1  23
TORSDOF 18
ENDMDL
MODEL 3
REMARK VINA RESULT:     -11.5      5.328      7.974
REMARK SMILES [NH3+][C@H](Cc1cc(Br)c(O)c(Br)c1)C(=O)NCCCCNC(=O)c1ccc(-c2c3nc(c(-c4cc(S(=O)(=O)[O-])ccc4F)c4ccc([nH]4)c(-c4cc(S(=O)(=O)[O-])ccc4F)c4nc(c(-c5cc(S(=O)(=O)[O-])ccc5F)c5ccc2[nH]5)C=C4)C=C3)cc1
REMARK SMILES IDX 17 1 16 2 15 3 13 4 14 5 2 7 1 8 3 12 4 13 5 14 12 15 6 16
REMARK SMILES IDX 10 17 7 18 8 19 11 20 9 21 18 23 19 24 20 25 21 26 22 28
REMARK SMILES IDX 23 29 24 30 85 31 25 32 84 33 26 34 27 35 28 36 78 37 29 38
REMARK SMILES IDX 83 39 77 40 79 41 30 42 82 43 76 44 75 45 31 47 63 48 43 49
REMARK SMILES IDX 62 50 44 51 47 52 61 53 80 54 45 55 46 56 60 58 81 59 48 60
REMARK SMILES IDX 32 61 33 62 41 63 34 64 40 65 42 66 39 67 35 68 36 69 37 70
REMARK SMILES IDX 38 71 64 72 65 73 73 74 66 75 72 76 74 77 71 78 67 79 68 80
REMARK SMILES IDX 69 81 70 82 49 83 50 84 58 85 51 86 57 87 59 88 56 89 52 90
REMARK SMILES IDX 53 91 54 92 55 93
REMARK H PARENT 15 6 1 9 1 10 1 11 9 22 20 27 79 46 47 57
REMARK Flexibility Score: inf
ROOT
ATOM      1  C   UNL A   1      31.525  27.956  26.596  1.00  0.00     0.023 C 
ENDROOT
BRANCH   1   2
ATOM      2  C   UNL A   1      31.563  26.607  25.877  1.00  0.00     0.116 C 
BRANCH   2   3
ATOM      3  N   UNL A   1      30.961  25.567  26.689  1.00  0.00    -0.351 N 
ATOM      4  C   UNL A   1      30.651  24.267  26.406  1.00  0.00     0.278 C 
ATOM      5  O   UNL A   1      30.009  23.636  27.250  1.00  0.00    -0.268 OA
ATOM      6  H   UNL A   1      30.735  25.847  27.605  1.00  0.00     0.163 HD
BRANCH   4   7
ATOM      7  C   UNL A   1      31.092  23.600  25.088  1.00  0.00     0.275 C 
BRANCH   7   8
ATOM      8  N   UNL A   1      30.292  24.150  23.972  1.00  0.00    -0.347 N 
ATOM      9  H   UNL A   1      29.840  23.388  23.468  1.00  0.00     0.345 HD
ATOM     10  H   UNL A   1      30.903  24.664  23.336  1.00  0.00     0.345 HD
ATOM     11  H   UNL A   1      29.581  24.782  24.341  1.00  0.00     0.345 HD
ENDBRANCH   7   8
BRANCH   7  12
ATOM     12  C   UNL A   1      31.169  22.061  25.222  1.00  0.00     0.111 C 
BRANCH  12  13
ATOM     13  C   UNL A   1      32.564  21.489  25.098  1.00  0.00    -0.039 A 
ATOM     14  C   UNL A   1      33.681  22.301  25.345  1.00  0.00     0.023 A 
ATOM     15  C   UNL A   1      32.761  20.144  24.763  1.00  0.00     0.023 A 
ATOM     16  C   UNL A   1      34.966  21.760  25.322  1.00  0.00     0.061 A 
ATOM     17  C   UNL A   1      34.054  19.611  24.711  1.00  0.00     0.061 A 
ATOM     18  Br  UNL A   1      36.434  22.882  25.748  1.00  0.00    -0.047 Br
ATOM     19  C   UNL A   1      35.158  20.411  25.011  1.00  0.00     0.143 A 
ATOM     20  Br  UNL A   1      34.254  17.784  24.241  1.00  0.00    -0.047 Br
BRANCH  19  21
ATOM     21  O   UNL A   1      36.415  19.865  25.011  1.00  0.00    -0.506 OA
ATOM     22  H   UNL A   1      36.663  19.261  24.339  1.00  0.00     0.293 HD
ENDBRANCH  19  21
ENDBRANCH  12  13
ENDBRANCH   7  12
ENDBRANCH   4   7
ENDBRANCH   2   3
ENDBRANCH   1   2
BRANCH   1  23
ATOM     23  C   UNL A   1      31.627  29.169  25.668  1.00  0.00     0.023 C 
BRANCH  23  24
ATOM     24  C   UNL A   1      32.900  29.995  25.822  1.00  0.00     0.116 C 
BRANCH  24  25
ATOM     25  N   UNL A   1      32.643  31.344  26.303  1.00  0.00    -0.352 N 
ATOM     26  C   UNL A   1      33.330  32.064  27.250  1.00  0.00     0.251 C 
ATOM     27  H   UNL A   1      31.873  31.803  25.894  1.00  0.00     0.163 HD
ATOM     28  O   UNL A   1      32.890  33.142  27.636  1.00  0.00    -0.269 OA
BRANCH  26  29
ATOM     29  C   UNL A   1      34.576  31.509  27.823  1.00  0.00     0.039 A 
ATOM     30  C   UNL A   1      35.655  32.366  28.048  1.00  0.00     0.014 A 
ATOM     31  C   UNL A   1      34.663  30.157  28.167  1.00  0.00     0.014 A 
ATOM     32  C   UNL A   1      36.800  31.880  28.685  1.00  0.00     0.010 A 
ATOM     33  C   UNL A   1      35.776  29.693  28.863  1.00  0.00     0.010 A 
ATOM     34  C   UNL A   1      36.855  30.550  29.132  1.00  0.00    -0.014 A 
BRANCH  34  35
ATOM     35  C   UNL A   1      38.030  30.036  29.883  1.00  0.00     0.031 A 
ATOM     36  C   UNL A   1      38.298  30.518  31.282  1.00  0.00     0.074 A 
ATOM     37  C   UNL A   1      38.890  29.193  29.280  1.00  0.00     0.049 A 
ATOM     38  N   UNL A   1      39.313  30.262  32.066  1.00  0.00    -0.248 NA
ATOM     39  C   UNL A   1      37.305  31.435  31.862  1.00  0.00     0.031 C 
ATOM     40  C   UNL A   1      38.760  28.688  27.910  1.00  0.00     0.029 A 
ATOM     41  N   UNL A   1      40.051  28.618  29.733  1.00  0.00    -0.354 N 
ATOM     42  C   UNL A   1      39.089  30.994  33.228  1.00  0.00     0.074 A 
ATOM     43  C   UNL A   1      37.874  31.753  33.015  1.00  0.00     0.031 C 
ATOM     44  C   UNL A   1      39.789  27.868  27.643  1.00  0.00     0.029 A 
ATOM     45  C   UNL A   1      40.676  27.821  28.801  1.00  0.00     0.049 A 
ATOM     46  H   UNL A   1      40.404  28.763  30.641  1.00  0.00     0.167 HD
ATOM     47  C   UNL A   1      39.814  31.012  34.374  1.00  0.00     0.034 A 
ATOM     48  C   UNL A   1      41.838  27.141  28.867  1.00  0.00     0.034 A 
ATOM     49  C   UNL A   1      41.018  30.242  34.572  1.00  0.00     0.049 A 
ATOM     50  C   UNL A   1      42.638  27.191  30.144  1.00  0.00     0.074 A 
ATOM     51  C   UNL A   1      41.807  30.149  35.707  1.00  0.00     0.029 A 
ATOM     52  N   UNL A   1      41.614  29.435  33.611  1.00  0.00    -0.354 N 
ATOM     53  N   UNL A   1      42.388  27.852  31.251  1.00  0.00    -0.248 NA
ATOM     54  C   UNL A   1      43.871  26.393  30.184  1.00  0.00     0.031 C 
ATOM     55  C   UNL A   1      42.908  29.338  35.412  1.00  0.00     0.029 A 
ATOM     56  C   UNL A   1      42.771  28.863  34.117  1.00  0.00     0.049 A 
ATOM     57  H   UNL A   1      41.265  29.290  32.701  1.00  0.00     0.167 HD
ATOM     58  C   UNL A   1      43.418  27.524  32.130  1.00  0.00     0.074 A 
ATOM     59  C   UNL A   1      44.281  26.596  31.428  1.00  0.00     0.031 C 
ATOM     60  C   UNL A   1      43.628  27.947  33.401  1.00  0.00     0.034 A 
BRANCH  47  61
ATOM     61  C   UNL A   1      39.330  31.912  35.486  1.00  0.00     0.023 A 
ATOM     62  C   UNL A   1      39.762  33.246  35.595  1.00  0.00     0.031 A 
ATOM     63  C   UNL A   1      38.450  31.426  36.468  1.00  0.00     0.131 A 
ATOM     64  C   UNL A   1      39.381  34.019  36.700  1.00  0.00     0.055 A 
ATOM     65  C   UNL A   1      38.006  32.227  37.522  1.00  0.00     0.041 A 
ATOM     66  F   UNL A   1      38.017  30.155  36.429  1.00  0.00    -0.206 F 
ATOM     67  C   UNL A   1      38.485  33.528  37.653  1.00  0.00     0.022 A 
BRANCH  64  68
ATOM     68  S   UNL A   1      40.190  35.621  36.956  1.00  0.00     0.124 S 
ATOM     69  O   UNL A   1      39.719  35.979  38.293  1.00  0.00    -0.237 OA
ATOM     70  O   UNL A   1      41.604  35.283  36.845  1.00  0.00    -0.237 OA
ATOM     71  O   UNL A   1      39.660  36.450  35.875  1.00  0.00    -0.744 OA
ENDBRANCH  64  68
ENDBRANCH  47  61
BRANCH  48  72
ATOM     72  C   UNL A   1      42.328  26.366  27.692  1.00  0.00     0.023 A 
ATOM     73  C   UNL A   1      41.932  25.035  27.487  1.00  0.00     0.031 A 
ATOM     74  C   UNL A   1      43.232  26.934  26.777  1.00  0.00     0.131 A 
ATOM     75  C   UNL A   1      42.477  24.299  26.423  1.00  0.00     0.055 A 
ATOM     76  C   UNL A   1      43.732  26.214  25.690  1.00  0.00     0.041 A 
ATOM     77  F   UNL A   1      43.637  28.206  26.922  1.00  0.00    -0.206 F 
ATOM     78  C   UNL A   1      43.364  24.883  25.516  1.00  0.00     0.022 A 
BRANCH  75  79
ATOM     79  S   UNL A   1      42.074  22.536  26.290  1.00  0.00     0.124 S 
ATOM     80  O   UNL A   1      40.616  22.560  26.340  1.00  0.00    -0.237 OA
ATOM     81  O   UNL A   1      42.666  22.187  25.002  1.00  0.00    -0.237 OA
ATOM     82  O   UNL A   1      42.731  21.947  27.454  1.00  0.00    -0.744 OA
ENDBRANCH  75  79
ENDBRANCH  48  72
BRANCH  60  83
ATOM     83  C   UNL A   1      44.818  27.369  34.127  1.00  0.00     0.023 A 
ATOM     84  C   UNL A   1      44.712  26.215  34.924  1.00  0.00     0.031 A 
ATOM     85  C   UNL A   1      46.076  27.991  34.028  1.00  0.00     0.131 A 
ATOM     86  C   UNL A   1      45.830  25.751  35.633  1.00  0.00     0.055 A 
ATOM     87  C   UNL A   1      47.198  27.490  34.689  1.00  0.00     0.041 A 
ATOM     88  F   UNL A   1      46.234  29.096  33.282  1.00  0.00    -0.206 F 
ATOM     89  C   UNL A   1      47.075  26.371  35.508  1.00  0.00     0.022 A 
BRANCH  86  90
ATOM     90  S   UNL A   1      45.614  24.374  36.795  1.00  0.00     0.124 S 
ATOM     91  O   UNL A   1      45.407  25.073  38.058  1.00  0.00    -0.237 OA
ATOM     92  O   UNL A   1      44.450  23.685  36.249  1.00  0.00    -0.237 OA
ATOM     93  O   UNL A   1      46.873  23.639  36.692  1.00  0.00    -0.744 OA
ENDBRANCH  86  90
ENDBRANCH  60  83
ENDBRANCH  34  35
ENDBRANCH  26  29
ENDBRANCH  24  25
ENDBRANCH  23  24
ENDBRANCH   1  23
TORSDOF 18
ENDMDL
