MODEL 1
REMARK VINA RESULT:     -11.1      0.000      0.000
REMARK SMILES C[C@@H]1CC(=O)N([C@@H]2C=C[C@@H](C(=O)NCCCCNC(=O)c3ccc(-c4c5nc(c(-c6cc(S(=O)(=O)[O-])ccc6F)c6ccc([nH]6)c(-c6cc(S(=O)(=O)[O-])ccc6F)c6nc(c(-c7cc(S(=O)(=O)[O-])ccc7F)c7ccc4[nH]7)C=C6)C=C5)cc3)C2)C1=O
REMARK SMILES IDX 16 1 15 2 14 3 13 4 11 5 12 6 10 8 7 9 8 10 84 11 9 12 6 13
REMARK SMILES IDX 1 14 2 15 3 16 85 17 4 18 86 19 5 20 17 21 18 22 19 23 20 25
REMARK SMILES IDX 21 26 22 27 83 28 23 29 82 30 24 31 25 32 26 33 76 34 27 35
REMARK SMILES IDX 81 36 75 37 77 38 28 39 80 40 74 41 73 42 29 44 61 45 41 46
REMARK SMILES IDX 60 47 42 48 45 49 59 50 78 51 43 52 44 53 58 55 79 56 46 57
REMARK SMILES IDX 30 58 31 59 39 60 32 61 38 62 40 63 37 64 33 65 34 66 35 67
REMARK SMILES IDX 36 68 62 69 63 70 71 71 64 72 70 73 72 74 69 75 65 76 66 77
REMARK SMILES IDX 67 78 68 79 47 80 48 81 56 82 49 83 55 84 57 85 54 86 50 87
REMARK SMILES IDX 51 88 52 89 53 90
REMARK H PARENT 13 7 18 24 77 43 45 54
REMARK Flexibility Score: inf
ROOT
ATOM      1  C   UNL A   1      34.919  34.727  28.342  1.00  0.00     0.023 C 
ENDROOT
BRANCH   1   2
ATOM      2  C   UNL A   1      33.489  35.097  28.731  1.00  0.00     0.023 C 
BRANCH   2   3
ATOM      3  C   UNL A   1      33.320  36.530  29.230  1.00  0.00     0.116 C 
BRANCH   3   4
ATOM      4  N   UNL A   1      32.570  36.588  30.469  1.00  0.00    -0.356 N 
ATOM      5  C   UNL A   1      32.867  36.130  31.716  1.00  0.00     0.227 C 
ATOM      6  O   UNL A   1      32.047  36.351  32.611  1.00  0.00    -0.274 OA
ATOM      7  H   UNL A   1      31.696  37.036  30.397  1.00  0.00     0.163 HD
BRANCH   5   8
ATOM      8  C   UNL A   1      34.158  35.369  32.026  1.00  0.00     0.103 C 
ATOM      9  C   UNL A   1      35.104  34.319  34.036  1.00  0.00     0.117 C 
ATOM     10  C   UNL A   1      34.553  33.305  33.083  1.00  0.00    -0.005 C 
ATOM     11  C   UNL A   1      34.759  35.677  33.401  1.00  0.00     0.047 C 
ATOM     12  C   UNL A   1      34.011  33.877  32.002  1.00  0.00    -0.016 C 
BRANCH   9  13
ATOM     13  N   UNL A   1      36.528  34.136  34.239  1.00  0.00    -0.275 N 
ATOM     14  C   UNL A   1      39.012  35.061  36.274  1.00  0.00     0.018 C 
ATOM     15  C   UNL A   1      38.550  33.908  35.393  1.00  0.00     0.085 C 
ATOM     16  C   UNL A   1      38.840  34.149  33.920  1.00  0.00     0.114 C 
ATOM     17  C   UNL A   1      37.050  33.801  35.455  1.00  0.00     0.233 C 
ATOM     18  C   UNL A   1      37.493  34.362  33.299  1.00  0.00     0.230 C 
ATOM     19  O   UNL A   1      36.426  33.515  36.466  1.00  0.00    -0.274 OA
ATOM     20  O   UNL A   1      37.341  34.691  32.134  1.00  0.00    -0.274 OA
ENDBRANCH   9  13
ENDBRANCH   5   8
ENDBRANCH   3   4
ENDBRANCH   2   3
ENDBRANCH   1   2
BRANCH   1  21
ATOM     21  C   UNL A   1      35.281  33.264  28.560  1.00  0.00     0.116 C 
BRANCH  21  22
ATOM     22  N   UNL A   1      34.277  32.351  28.036  1.00  0.00    -0.352 N 
ATOM     23  C   UNL A   1      34.387  31.002  27.793  1.00  0.00     0.251 C 
ATOM     24  H   UNL A   1      33.403  32.752  27.827  1.00  0.00     0.163 HD
ATOM     25  O   UNL A   1      33.492  30.411  27.199  1.00  0.00    -0.269 OA
BRANCH  23  26
ATOM     26  C   UNL A   1      35.609  30.291  28.224  1.00  0.00     0.039 A 
ATOM     27  C   UNL A   1      36.711  30.259  27.369  1.00  0.00     0.014 A 
ATOM     28  C   UNL A   1      35.678  29.704  29.490  1.00  0.00     0.014 A 
ATOM     29  C   UNL A   1      37.910  29.701  27.814  1.00  0.00     0.010 A 
ATOM     30  C   UNL A   1      36.897  29.231  29.963  1.00  0.00     0.010 A 
ATOM     31  C   UNL A   1      38.025  29.220  29.130  1.00  0.00    -0.014 A 
BRANCH  31  32
ATOM     32  C   UNL A   1      39.317  28.702  29.652  1.00  0.00     0.031 A 
ATOM     33  C   UNL A   1      39.939  29.325  30.871  1.00  0.00     0.074 A 
ATOM     34  C   UNL A   1      39.955  27.714  28.996  1.00  0.00     0.049 A 
ATOM     35  N   UNL A   1      41.085  29.060  31.444  1.00  0.00    -0.248 NA
ATOM     36  C   UNL A   1      39.185  30.414  31.509  1.00  0.00     0.031 C 
ATOM     37  C   UNL A   1      39.471  27.057  27.779  1.00  0.00     0.029 A 
ATOM     38  N   UNL A   1      41.150  27.091  29.254  1.00  0.00    -0.354 N 
ATOM     39  C   UNL A   1      41.195  29.955  32.503  1.00  0.00     0.074 A 
ATOM     40  C   UNL A   1      40.034  30.819  32.440  1.00  0.00     0.031 C 
ATOM     41  C   UNL A   1      40.341  26.100  27.421  1.00  0.00     0.029 A 
ATOM     42  C   UNL A   1      41.470  26.109  28.345  1.00  0.00     0.049 A 
ATOM     43  H   UNL A   1      41.726  27.325  30.019  1.00  0.00     0.167 HD
ATOM     44  C   UNL A   1      42.158  30.032  33.455  1.00  0.00     0.034 A 
ATOM     45  C   UNL A   1      42.555  25.312  28.260  1.00  0.00     0.034 A 
ATOM     46  C   UNL A   1      43.308  29.163  33.498  1.00  0.00     0.049 A 
ATOM     47  C   UNL A   1      43.639  25.448  29.298  1.00  0.00     0.074 A 
ATOM     48  C   UNL A   1      44.320  29.117  34.441  1.00  0.00     0.029 A 
ATOM     49  N   UNL A   1      43.611  28.194  32.547  1.00  0.00    -0.354 N 
ATOM     50  N   UNL A   1      43.704  26.263  30.326  1.00  0.00    -0.248 NA
ATOM     51  C   UNL A   1      44.792  24.548  29.169  1.00  0.00     0.031 C 
ATOM     52  C   UNL A   1      45.273  28.184  34.018  1.00  0.00     0.029 A 
ATOM     53  C   UNL A   1      44.813  27.576  32.860  1.00  0.00     0.049 A 
ATOM     54  H   UNL A   1      43.054  27.977  31.766  1.00  0.00     0.167 HD
ATOM     55  C   UNL A   1      44.890  25.951  30.984  1.00  0.00     0.074 A 
ATOM     56  C   UNL A   1      45.500  24.865  30.243  1.00  0.00     0.031 C 
ATOM     57  C   UNL A   1      45.423  26.505  32.104  1.00  0.00     0.034 A 
BRANCH  44  58
ATOM     58  C   UNL A   1      42.012  31.117  34.499  1.00  0.00     0.023 A 
ATOM     59  C   UNL A   1      42.377  32.450  34.236  1.00  0.00     0.031 A 
ATOM     60  C   UNL A   1      41.553  30.808  35.792  1.00  0.00     0.131 A 
ATOM     61  C   UNL A   1      42.377  33.395  35.272  1.00  0.00     0.055 A 
ATOM     62  C   UNL A   1      41.459  31.777  36.792  1.00  0.00     0.041 A 
ATOM     63  F   UNL A   1      41.209  29.551  36.114  1.00  0.00    -0.206 F 
ATOM     64  C   UNL A   1      41.893  33.076  36.543  1.00  0.00     0.022 A 
BRANCH  61  65
ATOM     65  S   UNL A   1      43.194  34.989  34.985  1.00  0.00     0.124 S 
ATOM     66  O   UNL A   1      43.155  35.585  36.318  1.00  0.00    -0.237 OA
ATOM     67  O   UNL A   1      44.511  34.587  34.503  1.00  0.00    -0.237 OA
ATOM     68  O   UNL A   1      42.338  35.640  33.995  1.00  0.00    -0.744 OA
ENDBRANCH  61  65
ENDBRANCH  44  58
BRANCH  45  69
ATOM     69  C   UNL A   1      42.673  24.319  27.154  1.00  0.00     0.023 A 
ATOM     70  C   UNL A   1      42.058  23.061  27.245  1.00  0.00     0.031 A 
ATOM     71  C   UNL A   1      43.422  24.604  25.999  1.00  0.00     0.131 A 
ATOM     72  C   UNL A   1      42.235  22.119  26.219  1.00  0.00     0.055 A 
ATOM     73  C   UNL A   1      43.550  23.685  24.956  1.00  0.00     0.041 A 
ATOM     74  F   UNL A   1      44.028  25.795  25.859  1.00  0.00    -0.206 F 
ATOM     75  C   UNL A   1      42.964  22.429  25.068  1.00  0.00     0.022 A 
BRANCH  72  76
ATOM     76  S   UNL A   1      41.558  20.451  26.444  1.00  0.00     0.124 S 
ATOM     77  O   UNL A   1      42.233  19.713  25.383  1.00  0.00    -0.237 OA
ATOM     78  O   UNL A   1      41.969  20.137  27.807  1.00  0.00    -0.237 OA
ATOM     79  O   UNL A   1      40.121  20.641  26.256  1.00  0.00    -0.744 OA
ENDBRANCH  72  76
ENDBRANCH  45  69
BRANCH  57  80
ATOM     80  C   UNL A   1      46.712  25.910  32.621  1.00  0.00     0.023 A 
ATOM     81  C   UNL A   1      46.726  24.874  33.571  1.00  0.00     0.031 A 
ATOM     82  C   UNL A   1      47.949  26.396  32.159  1.00  0.00     0.131 A 
ATOM     83  C   UNL A   1      47.948  24.398  34.070  1.00  0.00     0.055 A 
ATOM     84  C   UNL A   1      49.162  25.872  32.607  1.00  0.00     0.041 A 
ATOM     85  F   UNL A   1      47.999  27.390  31.256  1.00  0.00    -0.206 F 
ATOM     86  C   UNL A   1      49.166  24.877  33.579  1.00  0.00     0.022 A 
BRANCH  83  87
ATOM     87  S   UNL A   1      47.927  23.219  35.449  1.00  0.00     0.124 S 
ATOM     88  O   UNL A   1      46.586  22.653  35.342  1.00  0.00    -0.237 OA
ATOM     89  O   UNL A   1      49.027  22.323  35.110  1.00  0.00    -0.237 OA
ATOM     90  O   UNL A   1      48.152  24.060  36.623  1.00  0.00    -0.744 OA
ENDBRANCH  83  87
ENDBRANCH  57  80
ENDBRANCH  31  32
ENDBRANCH  23  26
ENDBRANCH  21  22
ENDBRANCH   1  21
TORSDOF 15
ENDMDL
MODEL 2
REMARK VINA RESULT:     -11.0      5.662     10.050
REMARK SMILES C[C@@H]1CC(=O)N([C@@H]2C=C[C@@H](C(=O)NCCCCNC(=O)c3ccc(-c4c5nc(c(-c6cc(S(=O)(=O)[O-])ccc6F)c6ccc([nH]6)c(-c6cc(S(=O)(=O)[O-])ccc6F)c6nc(c(-c7cc(S(=O)(=O)[O-])ccc7F)c7ccc4[nH]7)C=C6)C=C5)cc3)C2)C1=O
REMARK SMILES IDX 16 1 15 2 14 3 13 4 11 5 12 6 10 8 7 9 8 10 84 11 9 12 6 13
REMARK SMILES IDX 1 14 2 15 3 16 85 17 4 18 86 19 5 20 17 21 18 22 19 23 20 25
REMARK SMILES IDX 21 26 22 27 83 28 23 29 82 30 24 31 25 32 26 33 76 34 27 35
REMARK SMILES IDX 81 36 75 37 77 38 28 39 80 40 74 41 73 42 29 44 61 45 41 46
REMARK SMILES IDX 60 47 42 48 45 49 59 50 78 51 43 52 44 53 58 55 79 56 46 57
REMARK SMILES IDX 30 58 31 59 39 60 32 61 38 62 40 63 37 64 33 65 34 66 35 67
REMARK SMILES IDX 36 68 62 69 63 70 71 71 64 72 70 73 72 74 69 75 65 76 66 77
REMARK SMILES IDX 67 78 68 79 47 80 48 81 56 82 49 83 55 84 57 85 54 86 50 87
REMARK SMILES IDX 51 88 52 89 53 90
REMARK H PARENT 13 7 18 24 77 43 45 54
REMARK Flexibility Score: inf
ROOT
ATOM      1  C   UNL A   1      35.654  21.221  25.698  1.00  0.00     0.023 C 
ENDROOT
BRANCH   1   2
ATOM      2  C   UNL A   1      34.712  20.251  24.987  1.00  0.00     0.023 C 
BRANCH   2   3
ATOM      3  C   UNL A   1      33.228  20.562  25.168  1.00  0.00     0.116 C 
BRANCH   3   4
ATOM      4  N   UNL A   1      32.964  21.237  26.423  1.00  0.00    -0.356 N 
ATOM      5  C   UNL A   1      32.721  22.547  26.699  1.00  0.00     0.227 C 
ATOM      6  O   UNL A   1      32.489  22.845  27.874  1.00  0.00    -0.274 OA
ATOM      7  H   UNL A   1      32.959  20.646  27.211  1.00  0.00     0.163 HD
BRANCH   5   8
ATOM      8  C   UNL A   1      32.726  23.631  25.619  1.00  0.00     0.103 C 
ATOM      9  C   UNL A   1      32.223  26.035  25.579  1.00  0.00     0.117 C 
ATOM     10  C   UNL A   1      33.696  25.772  25.543  1.00  0.00    -0.005 C 
ATOM     11  C   UNL A   1      31.583  24.644  25.732  1.00  0.00     0.047 C 
ATOM     12  C   UNL A   1      33.972  24.464  25.593  1.00  0.00    -0.016 C 
BRANCH   9  13
ATOM     13  N   UNL A   1      31.779  26.732  24.388  1.00  0.00    -0.275 N 
ATOM     14  C   UNL A   1      29.175  28.450  23.191  1.00  0.00     0.018 C 
ATOM     15  C   UNL A   1      30.691  28.345  23.090  1.00  0.00     0.085 C 
ATOM     16  C   UNL A   1      31.137  27.200  22.194  1.00  0.00     0.114 C 
ATOM     17  C   UNL A   1      31.259  27.994  24.438  1.00  0.00     0.233 C 
ATOM     18  C   UNL A   1      31.738  26.198  23.132  1.00  0.00     0.230 C 
ATOM     19  O   UNL A   1      31.195  28.721  25.418  1.00  0.00    -0.274 OA
ATOM     20  O   UNL A   1      32.111  25.092  22.776  1.00  0.00    -0.274 OA
ENDBRANCH   9  13
ENDBRANCH   5   8
ENDBRANCH   3   4
ENDBRANCH   2   3
ENDBRANCH   1   2
BRANCH   1  21
ATOM     21  C   UNL A   1      37.005  21.409  25.022  1.00  0.00     0.116 C 
BRANCH  21  22
ATOM     22  N   UNL A   1      37.933  20.324  25.308  1.00  0.00    -0.352 N 
ATOM     23  C   UNL A   1      39.201  20.396  25.833  1.00  0.00     0.251 C 
ATOM     24  H   UNL A   1      37.610  19.419  25.095  1.00  0.00     0.163 HD
ATOM     25  O   UNL A   1      39.911  19.397  25.861  1.00  0.00    -0.269 OA
BRANCH  23  26
ATOM     26  C   UNL A   1      39.704  21.696  26.325  1.00  0.00     0.039 A 
ATOM     27  C   UNL A   1      40.785  21.714  27.207  1.00  0.00     0.014 A 
ATOM     28  C   UNL A   1      39.140  22.891  25.872  1.00  0.00     0.014 A 
ATOM     29  C   UNL A   1      41.347  22.936  27.579  1.00  0.00     0.010 A 
ATOM     30  C   UNL A   1      39.757  24.100  26.172  1.00  0.00     0.010 A 
ATOM     31  C   UNL A   1      40.865  24.137  27.031  1.00  0.00    -0.014 A 
BRANCH  31  32
ATOM     32  C   UNL A   1      41.505  25.441  27.345  1.00  0.00     0.031 A 
ATOM     33  C   UNL A   1      40.762  26.467  28.155  1.00  0.00     0.074 A 
ATOM     34  C   UNL A   1      42.727  25.722  26.853  1.00  0.00     0.049 A 
ATOM     35  N   UNL A   1      41.119  27.683  28.482  1.00  0.00    -0.248 NA
ATOM     36  C   UNL A   1      39.424  26.085  28.630  1.00  0.00     0.031 C 
ATOM     37  C   UNL A   1      43.531  24.822  26.021  1.00  0.00     0.029 A 
ATOM     38  N   UNL A   1      43.507  26.844  26.975  1.00  0.00    -0.354 N 
ATOM     39  C   UNL A   1      40.048  28.214  29.192  1.00  0.00     0.074 A 
ATOM     40  C   UNL A   1      39.001  27.213  29.177  1.00  0.00     0.031 C 
ATOM     41  C   UNL A   1      44.703  25.413  25.742  1.00  0.00     0.029 A 
ATOM     42  C   UNL A   1      44.716  26.751  26.324  1.00  0.00     0.049 A 
ATOM     43  H   UNL A   1      43.228  27.642  27.481  1.00  0.00     0.167 HD
ATOM     44  C   UNL A   1      39.955  29.412  29.822  1.00  0.00     0.034 A 
ATOM     45  C   UNL A   1      45.717  27.646  26.200  1.00  0.00     0.034 A 
ATOM     46  C   UNL A   1      41.011  30.396  29.822  1.00  0.00     0.049 A 
ATOM     47  C   UNL A   1      45.574  28.992  26.864  1.00  0.00     0.074 A 
ATOM     48  C   UNL A   1      41.047  31.621  30.466  1.00  0.00     0.029 A 
ATOM     49  N   UNL A   1      42.213  30.277  29.133  1.00  0.00    -0.354 N 
ATOM     50  N   UNL A   1      44.577  29.461  27.579  1.00  0.00    -0.248 NA
ATOM     51  C   UNL A   1      46.698  29.925  26.712  1.00  0.00     0.031 C 
ATOM     52  C   UNL A   1      42.228  32.275  30.098  1.00  0.00     0.029 A 
ATOM     53  C   UNL A   1      42.976  31.423  29.302  1.00  0.00     0.049 A 
ATOM     54  H   UNL A   1      42.482  29.494  28.601  1.00  0.00     0.167 HD
ATOM     55  C   UNL A   1      44.969  30.733  27.988  1.00  0.00     0.074 A 
ATOM     56  C   UNL A   1      46.297  30.949  27.451  1.00  0.00     0.031 C 
ATOM     57  C   UNL A   1      44.295  31.636  28.746  1.00  0.00     0.034 A 
BRANCH  44  58
ATOM     58  C   UNL A   1      38.655  29.723  30.527  1.00  0.00     0.023 A 
ATOM     59  C   UNL A   1      37.644  30.485  29.913  1.00  0.00     0.031 A 
ATOM     60  C   UNL A   1      38.441  29.300  31.851  1.00  0.00     0.131 A 
ATOM     61  C   UNL A   1      36.521  30.886  30.652  1.00  0.00     0.055 A 
ATOM     62  C   UNL A   1      37.273  29.617  32.548  1.00  0.00     0.041 A 
ATOM     63  F   UNL A   1      39.375  28.587  32.502  1.00  0.00    -0.206 F 
ATOM     64  C   UNL A   1      36.313  30.434  31.956  1.00  0.00     0.022 A 
BRANCH  61  65
ATOM     65  S   UNL A   1      35.435  32.157  29.946  1.00  0.00     0.124 S 
ATOM     66  O   UNL A   1      36.387  33.224  29.646  1.00  0.00    -0.237 OA
ATOM     67  O   UNL A   1      34.856  31.474  28.795  1.00  0.00    -0.237 OA
ATOM     68  O   UNL A   1      34.503  32.452  31.032  1.00  0.00    -0.744 OA
ENDBRANCH  61  65
ENDBRANCH  44  58
BRANCH  45  69
ATOM     69  C   UNL A   1      46.939  27.304  25.419  1.00  0.00     0.023 A 
ATOM     70  C   UNL A   1      47.091  27.732  24.090  1.00  0.00     0.031 A 
ATOM     71  C   UNL A   1      47.966  26.522  25.980  1.00  0.00     0.131 A 
ATOM     72  C   UNL A   1      48.222  27.344  23.355  1.00  0.00     0.055 A 
ATOM     73  C   UNL A   1      49.114  26.185  25.262  1.00  0.00     0.041 A 
ATOM     74  F   UNL A   1      47.873  26.090  27.248  1.00  0.00    -0.206 F 
ATOM     75  C   UNL A   1      49.242  26.588  23.937  1.00  0.00     0.022 A 
BRANCH  72  76
ATOM     76  S   UNL A   1      48.307  27.783  21.596  1.00  0.00     0.124 S 
ATOM     77  O   UNL A   1      48.576  26.488  20.982  1.00  0.00    -0.237 OA
ATOM     78  O   UNL A   1      46.982  28.344  21.358  1.00  0.00    -0.237 OA
ATOM     79  O   UNL A   1      49.408  28.742  21.540  1.00  0.00    -0.744 OA
ENDBRANCH  72  76
ENDBRANCH  45  69
BRANCH  57  80
ATOM     80  C   UNL A   1      45.008  32.926  29.078  1.00  0.00     0.023 A 
ATOM     81  C   UNL A   1      44.904  34.066  28.262  1.00  0.00     0.031 A 
ATOM     82  C   UNL A   1      45.814  33.011  30.228  1.00  0.00     0.131 A 
ATOM     83  C   UNL A   1      45.637  35.220  28.574  1.00  0.00     0.055 A 
ATOM     84  C   UNL A   1      46.486  34.185  30.573  1.00  0.00     0.041 A 
ATOM     85  F   UNL A   1      45.957  31.953  31.042  1.00  0.00    -0.206 F 
ATOM     86  C   UNL A   1      46.411  35.293  29.736  1.00  0.00     0.022 A 
BRANCH  83  87
ATOM     87  S   UNL A   1      45.652  36.593  27.388  1.00  0.00     0.124 S 
ATOM     88  O   UNL A   1      46.205  35.956  26.197  1.00  0.00    -0.237 OA
ATOM     89  O   UNL A   1      44.242  36.961  27.318  1.00  0.00    -0.237 OA
ATOM     90  O   UNL A   1      46.520  37.584  28.020  1.00  0.00    -0.744 OA
ENDBRANCH  83  87
ENDBRANCH  57  80
ENDBRANCH  31  32
ENDBRANCH  23  26
ENDBRANCH  21  22
ENDBRANCH   1  21
TORSDOF 15
ENDMDL
MODEL 3
REMARK VINA RESULT:     -11.0      5.501     11.507
REMARK SMILES C[C@@H]1CC(=O)N([C@@H]2C=C[C@@H](C(=O)NCCCCNC(=O)c3ccc(-c4c5nc(c(-c6cc(S(=O)(=O)[O-])ccc6F)c6ccc([nH]6)c(-c6cc(S(=O)(=O)[O-])ccc6F)c6nc(c(-c7cc(S(=O)(=O)[O-])ccc7F)c7ccc4[nH]7)C=C6)C=C5)cc3)C2)C1=O
REMARK SMILES IDX 16 1 15 2 14 3 13 4 11 5 12 6 10 8 7 9 8 10 84 11 9 12 6 13
REMARK SMILES IDX 1 14 2 15 3 16 85 17 4 18 86 19 5 20 17 21 18 22 19 23 20 25
REMARK SMILES IDX 21 26 22 27 83 28 23 29 82 30 24 31 25 32 26 33 76 34 27 35
REMARK SMILES IDX 81 36 75 37 77 38 28 39 80 40 74 41 73 42 29 44 61 45 41 46
REMARK SMILES IDX 60 47 42 48 45 49 59 50 78 51 43 52 44 53 58 55 79 56 46 57
REMARK SMILES IDX 30 58 31 59 39 60 32 61 38 62 40 63 37 64 33 65 34 66 35 67
REMARK SMILES IDX 36 68 62 69 63 70 71 71 64 72 70 73 72 74 69 75 65 76 66 77
REMARK SMILES IDX 67 78 68 79 47 80 48 81 56 82 49 83 55 84 57 85 54 86 50 87
REMARK SMILES IDX 51 88 52 89 53 90
REMARK H PARENT 13 7 18 24 77 43 45 54
REMARK Flexibility Score: inf
ROOT
ATOM      1  C   UNL A   1      35.748  21.596  25.910  1.00  0.00     0.023 C 
ENDROOT
BRANCH   1   2
ATOM      2  C   UNL A   1      34.661  20.691  25.333  1.00  0.00     0.023 C 
BRANCH   2   3
ATOM      3  C   UNL A   1      33.270  21.321  25.291  1.00  0.00     0.116 C 
BRANCH   3   4
ATOM      4  N   UNL A   1      32.547  20.961  24.088  1.00  0.00    -0.356 N 
ATOM      5  C   UNL A   1      32.364  21.636  22.920  1.00  0.00     0.227 C 
ATOM      6  O   UNL A   1      31.723  21.067  22.032  1.00  0.00    -0.274 OA
ATOM      7  H   UNL A   1      32.115  20.077  24.121  1.00  0.00     0.163 HD
BRANCH   5   8
ATOM      8  C   UNL A   1      32.920  23.041  22.686  1.00  0.00     0.103 C 
ATOM      9  C   UNL A   1      33.713  24.852  24.145  1.00  0.00     0.117 C 
ATOM     10  C   UNL A   1      34.846  24.126  23.491  1.00  0.00    -0.005 C 
ATOM     11  C   UNL A   1      32.454  24.085  23.706  1.00  0.00     0.047 C 
ATOM     12  C   UNL A   1      34.417  23.121  22.718  1.00  0.00    -0.016 C 
BRANCH   9  13
ATOM     13  N   UNL A   1      33.685  26.249  23.761  1.00  0.00    -0.275 N 
ATOM     14  C   UNL A   1      32.034  29.090  24.372  1.00  0.00     0.018 C 
ATOM     15  C   UNL A   1      33.408  28.562  23.981  1.00  0.00     0.085 C 
ATOM     16  C   UNL A   1      33.498  28.208  22.505  1.00  0.00     0.114 C 
ATOM     17  C   UNL A   1      33.660  27.255  24.684  1.00  0.00     0.233 C 
ATOM     18  C   UNL A   1      33.587  26.712  22.479  1.00  0.00     0.230 C 
ATOM     19  O   UNL A   1      33.761  27.139  25.897  1.00  0.00    -0.274 OA
ATOM     20  O   UNL A   1      33.566  26.060  21.448  1.00  0.00    -0.274 OA
ENDBRANCH   9  13
ENDBRANCH   5   8
ENDBRANCH   3   4
ENDBRANCH   2   3
ENDBRANCH   1   2
BRANCH   1  21
ATOM     21  C   UNL A   1      37.033  21.648  25.096  1.00  0.00     0.116 C 
BRANCH  21  22
ATOM     22  N   UNL A   1      37.961  20.580  25.437  1.00  0.00    -0.352 N 
ATOM     23  C   UNL A   1      39.202  20.674  26.021  1.00  0.00     0.251 C 
ATOM     24  H   UNL A   1      37.659  19.668  25.221  1.00  0.00     0.163 HD
ATOM     25  O   UNL A   1      39.922  19.685  26.094  1.00  0.00    -0.269 OA
BRANCH  23  26
ATOM     26  C   UNL A   1      39.663  21.987  26.520  1.00  0.00     0.039 A 
ATOM     27  C   UNL A   1      40.696  22.029  27.458  1.00  0.00     0.014 A 
ATOM     28  C   UNL A   1      39.111  23.169  26.021  1.00  0.00     0.014 A 
ATOM     29  C   UNL A   1      41.225  23.263  27.841  1.00  0.00     0.010 A 
ATOM     30  C   UNL A   1      39.699  24.389  26.336  1.00  0.00     0.010 A 
ATOM     31  C   UNL A   1      40.759  24.451  27.252  1.00  0.00    -0.014 A 
BRANCH  31  32
ATOM     32  C   UNL A   1      41.368  25.766  27.581  1.00  0.00     0.031 A 
ATOM     33  C   UNL A   1      42.778  26.069  27.157  1.00  0.00     0.074 A 
ATOM     34  C   UNL A   1      40.673  26.660  28.311  1.00  0.00     0.049 A 
ATOM     35  N   UNL A   1      43.507  27.128  27.400  1.00  0.00    -0.248 NA
ATOM     36  C   UNL A   1      43.470  25.026  26.385  1.00  0.00     0.031 C 
ATOM     37  C   UNL A   1      39.311  26.464  28.815  1.00  0.00     0.029 A 
ATOM     38  N   UNL A   1      41.015  27.910  28.762  1.00  0.00    -0.354 N 
ATOM     39  C   UNL A   1      44.746  26.875  26.820  1.00  0.00     0.074 A 
ATOM     40  C   UNL A   1      44.689  25.530  26.285  1.00  0.00     0.031 C 
ATOM     41  C   UNL A   1      38.922  27.569  29.470  1.00  0.00     0.029 A 
ATOM     42  C   UNL A   1      40.021  28.530  29.483  1.00  0.00     0.049 A 
ATOM     43  H   UNL A   1      41.891  28.325  28.585  1.00  0.00     0.167 HD
ATOM     44  C   UNL A   1      45.821  27.696  26.719  1.00  0.00     0.034 A 
ATOM     45  C   UNL A   1      39.999  29.731  30.095  1.00  0.00     0.034 A 
ATOM     46  C   UNL A   1      45.857  29.032  27.262  1.00  0.00     0.049 A 
ATOM     47  C   UNL A   1      41.223  30.609  30.015  1.00  0.00     0.074 A 
ATOM     48  C   UNL A   1      46.872  29.970  27.177  1.00  0.00     0.029 A 
ATOM     49  N   UNL A   1      44.840  29.619  28.007  1.00  0.00    -0.354 N 
ATOM     50  N   UNL A   1      42.369  30.379  29.417  1.00  0.00    -0.248 NA
ATOM     51  C   UNL A   1      41.144  31.913  30.685  1.00  0.00     0.031 C 
ATOM     52  C   UNL A   1      46.504  31.085  27.938  1.00  0.00     0.029 A 
ATOM     53  C   UNL A   1      45.220  30.887  28.421  1.00  0.00     0.049 A 
ATOM     54  H   UNL A   1      43.975  29.195  28.211  1.00  0.00     0.167 HD
ATOM     55  C   UNL A   1      43.136  31.524  29.613  1.00  0.00     0.074 A 
ATOM     56  C   UNL A   1      42.315  32.446  30.372  1.00  0.00     0.031 C 
ATOM     57  C   UNL A   1      44.400  31.793  29.195  1.00  0.00     0.034 A 
BRANCH  44  58
ATOM     58  C   UNL A   1      47.046  27.148  26.023  1.00  0.00     0.023 A 
ATOM     59  C   UNL A   1      48.014  26.395  26.712  1.00  0.00     0.031 A 
ATOM     60  C   UNL A   1      47.280  27.424  24.664  1.00  0.00     0.131 A 
ATOM     61  C   UNL A   1      49.211  26.038  26.075  1.00  0.00     0.055 A 
ATOM     62  C   UNL A   1      48.428  26.977  24.007  1.00  0.00     0.041 A 
ATOM     63  F   UNL A   1      46.406  28.155  23.953  1.00  0.00    -0.206 F 
ATOM     64  C   UNL A   1      49.414  26.298  24.718  1.00  0.00     0.022 A 
BRANCH  61  65
ATOM     65  S   UNL A   1      50.571  25.398  27.091  1.00  0.00     0.124 S 
ATOM     66  O   UNL A   1      51.523  24.966  26.070  1.00  0.00    -0.237 OA
ATOM     67  O   UNL A   1      50.959  26.567  27.872  1.00  0.00    -0.237 OA
ATOM     68  O   UNL A   1      49.952  24.315  27.851  1.00  0.00    -0.744 OA
ENDBRANCH  61  65
ENDBRANCH  44  58
BRANCH  45  69
ATOM     69  C   UNL A   1      38.785  30.176  30.836  1.00  0.00     0.023 A 
ATOM     70  C   UNL A   1      37.754  30.870  30.184  1.00  0.00     0.031 A 
ATOM     71  C   UNL A   1      38.646  29.934  32.215  1.00  0.00     0.131 A 
ATOM     72  C   UNL A   1      36.649  31.332  30.915  1.00  0.00     0.055 A 
ATOM     73  C   UNL A   1      37.520  30.349  32.928  1.00  0.00     0.041 A 
ATOM     74  F   UNL A   1      39.602  29.271  32.887  1.00  0.00    -0.206 F 
ATOM     75  C   UNL A   1      36.518  31.063  32.280  1.00  0.00     0.022 A 
BRANCH  72  76
ATOM     76  S   UNL A   1      35.416  32.361  30.071  1.00  0.00     0.124 S 
ATOM     77  O   UNL A   1      35.058  31.520  28.934  1.00  0.00    -0.237 OA
ATOM     78  O   UNL A   1      34.394  32.518  31.100  1.00  0.00    -0.237 OA
ATOM     79  O   UNL A   1      36.157  33.576  29.740  1.00  0.00    -0.744 OA
ENDBRANCH  72  76
ENDBRANCH  45  69
BRANCH  57  80
ATOM     80  C   UNL A   1      44.955  33.162  29.514  1.00  0.00     0.023 A 
ATOM     81  C   UNL A   1      44.791  34.252  28.642  1.00  0.00     0.031 A 
ATOM     82  C   UNL A   1      45.666  33.374  30.708  1.00  0.00     0.131 A 
ATOM     83  C   UNL A   1      45.381  35.488  28.950  1.00  0.00     0.055 A 
ATOM     84  C   UNL A   1      46.190  34.623  31.043  1.00  0.00     0.041 A 
ATOM     85  F   UNL A   1      45.860  32.368  31.577  1.00  0.00    -0.206 F 
ATOM     86  C   UNL A   1      46.062  35.685  30.154  1.00  0.00     0.022 A 
BRANCH  83  87
ATOM     87  S   UNL A   1      45.338  36.809  27.706  1.00  0.00     0.124 S 
ATOM     88  O   UNL A   1      45.454  38.006  28.533  1.00  0.00    -0.237 OA
ATOM     89  O   UNL A   1      46.493  36.493  26.874  1.00  0.00    -0.237 OA
ATOM     90  O   UNL A   1      44.040  36.628  27.059  1.00  0.00    -0.744 OA
ENDBRANCH  83  87
ENDBRANCH  57  80
ENDBRANCH  31  32
ENDBRANCH  23  26
ENDBRANCH  21  22
ENDBRANCH   1  21
TORSDOF 15
ENDMDL
