MODEL 1
REMARK VINA RESULT:     -10.9      0.000      0.000
REMARK SMILES CC(C)C[N@H+](CC[NH+](C)C)[C@@H]1CCC[C@]([NH3+])(C(=O)NCCCCNC(=O)c2ccc(-c3c4nc(c(-c5cc(S(=O)(=O)[O-])ccc5F)c5ccc([nH]5)c(-c5cc(S(=O)(=O)[O-])ccc5F)c5nc(c(-c6cc(S(=O)(=O)[O-])ccc6F)c6ccc3[nH]6)C=C5)C=C4)cc2)C1
REMARK SMILES IDX 21 1 20 2 19 3 17 4 18 5 15 7 11 8 12 9 90 10 13 11 14 12
REMARK SMILES IDX 5 13 4 15 2 16 1 17 3 18 6 19 7 20 8 21 9 22 10 23 16 25
REMARK SMILES IDX 22 29 23 30 24 31 25 32 26 34 27 35 28 36 89 37 29 38 88 39
REMARK SMILES IDX 30 40 31 41 32 42 82 43 33 44 87 45 81 46 83 47 34 48 86 49
REMARK SMILES IDX 80 50 79 51 35 53 67 54 47 55 66 56 48 57 51 58 65 59 84 60
REMARK SMILES IDX 49 61 50 62 64 64 85 65 52 66 36 67 37 68 45 69 38 70 44 71
REMARK SMILES IDX 46 72 43 73 39 74 40 75 41 76 42 77 68 78 69 79 77 80 70 81
REMARK SMILES IDX 76 82 78 83 75 84 71 85 72 86 73 87 74 88 53 89 54 90 62 91
REMARK SMILES IDX 55 92 61 93 63 94 60 95 56 96 57 97 58 98 59 99
REMARK H PARENT 19 6 5 14 8 24 16 26 16 27 16 28 24 33 83 52 51 63
REMARK Flexibility Score: inf
ROOT
ATOM      1  C   UNL A   1      31.806  27.425  26.404  1.00  0.00     0.023 C 
ENDROOT
BRANCH   1   2
ATOM      2  C   UNL A   1      30.701  26.403  26.156  1.00  0.00     0.116 C 
BRANCH   2   3
ATOM      3  N   UNL A   1      31.203  25.058  26.341  1.00  0.00    -0.351 N 
ATOM      4  C   UNL A   1      31.251  24.007  25.478  1.00  0.00     0.281 C 
ATOM      5  O   UNL A   1      31.181  22.888  25.992  1.00  0.00    -0.268 OA
ATOM      6  H   UNL A   1      31.569  24.874  27.237  1.00  0.00     0.163 HD
BRANCH   4   7
ATOM      7  C   UNL A   1      31.262  24.223  23.933  1.00  0.00     0.179 C 
ATOM      8  C   UNL A   1      32.890  22.280  23.149  1.00  0.00     0.191 C 
ATOM      9  C   UNL A   1      33.880  23.384  22.746  1.00  0.00     0.065 C 
ATOM     10  C   UNL A   1      31.438  22.862  23.213  1.00  0.00     0.144 C 
ATOM     11  C   UNL A   1      33.747  24.626  23.607  1.00  0.00     0.013 C 
ATOM     12  C   UNL A   1      32.346  25.198  23.434  1.00  0.00     0.079 C 
BRANCH   8  13
ATOM     13  N   UNL A   1      33.293  21.413  24.263  1.00  0.00    -0.327 N 
ATOM     14  H   UNL A   1      33.035  22.168  24.899  1.00  0.00     0.348 HD
BRANCH  13  15
ATOM     15  C   UNL A   1      34.664  21.330  24.790  1.00  0.00     0.265 C 
BRANCH  15  16
ATOM     16  C   UNL A   1      35.088  21.850  26.208  1.00  0.00     0.038 C 
ATOM     17  C   UNL A   1      35.266  23.365  26.359  1.00  0.00     0.013 C 
ATOM     18  C   UNL A   1      33.999  21.452  27.224  1.00  0.00     0.013 C 
ENDBRANCH  15  16
ENDBRANCH  13  15
BRANCH  13  19
ATOM     19  C   UNL A   1      32.466  20.225  24.510  1.00  0.00     0.324 C 
BRANCH  19  20
ATOM     20  C   UNL A   1      32.523  19.049  23.490  1.00  0.00     0.323 C 
BRANCH  20  21
ATOM     21  N   UNL A   1      32.634  17.721  24.100  1.00  0.00    -0.335 N 
ATOM     22  C   UNL A   1      33.606  16.824  23.505  1.00  0.00     0.332 C 
ATOM     23  C   UNL A   1      32.666  17.705  25.558  1.00  0.00     0.332 C 
ATOM     24  H   UNL A   1      31.733  17.315  23.848  1.00  0.00     0.347 HD
ENDBRANCH  20  21
ENDBRANCH  19  20
ENDBRANCH  13  19
ENDBRANCH   8  13
BRANCH   7  25
ATOM     25  N   UNL A   1      29.914  24.735  23.536  1.00  0.00    -0.345 N 
ATOM     26  H   UNL A   1      30.022  25.596  23.000  1.00  0.00     0.345 HD
ATOM     27  H   UNL A   1      29.363  24.923  24.374  1.00  0.00     0.345 HD
ATOM     28  H   UNL A   1      29.440  24.035  22.965  1.00  0.00     0.345 HD
ENDBRANCH   7  25
ENDBRANCH   4   7
ENDBRANCH   2   3
ENDBRANCH   1   2
BRANCH   1  29
ATOM     29  C   UNL A   1      32.077  28.349  25.217  1.00  0.00     0.023 C 
BRANCH  29  30
ATOM     30  C   UNL A   1      33.220  29.330  25.434  1.00  0.00     0.116 C 
BRANCH  30  31
ATOM     31  N   UNL A   1      32.754  30.621  25.918  1.00  0.00    -0.352 N 
ATOM     32  C   UNL A   1      33.228  31.373  26.957  1.00  0.00     0.251 C 
ATOM     33  H   UNL A   1      31.991  31.007  25.428  1.00  0.00     0.163 HD
ATOM     34  O   UNL A   1      32.591  32.355  27.342  1.00  0.00    -0.269 OA
BRANCH  32  35
ATOM     35  C   UNL A   1      34.482  30.976  27.622  1.00  0.00     0.039 A 
ATOM     36  C   UNL A   1      35.486  31.929  27.787  1.00  0.00     0.014 A 
ATOM     37  C   UNL A   1      34.650  29.674  28.103  1.00  0.00     0.014 A 
ATOM     38  C   UNL A   1      36.648  31.581  28.472  1.00  0.00     0.010 A 
ATOM     39  C   UNL A   1      35.763  29.362  28.872  1.00  0.00     0.010 A 
ATOM     40  C   UNL A   1      36.787  30.304  29.042  1.00  0.00    -0.014 A 
BRANCH  40  41
ATOM     41  C   UNL A   1      38.023  29.936  29.776  1.00  0.00     0.031 A 
ATOM     42  C   UNL A   1      38.263  30.478  31.160  1.00  0.00     0.074 A 
ATOM     43  C   UNL A   1      38.925  29.123  29.192  1.00  0.00     0.049 A 
ATOM     44  N   UNL A   1      39.264  30.254  31.972  1.00  0.00    -0.248 NA
ATOM     45  C   UNL A   1      37.262  31.418  31.690  1.00  0.00     0.031 C 
ATOM     46  C   UNL A   1      38.820  28.583  27.833  1.00  0.00     0.029 A 
ATOM     47  N   UNL A   1      40.100  28.599  29.666  1.00  0.00    -0.354 N 
ATOM     48  C   UNL A   1      39.014  31.026  33.102  1.00  0.00     0.074 A 
ATOM     49  C   UNL A   1      37.812  31.785  32.835  1.00  0.00     0.031 C 
ATOM     50  C   UNL A   1      39.860  27.765  27.604  1.00  0.00     0.029 A 
ATOM     51  C   UNL A   1      40.729  27.758  28.777  1.00  0.00     0.049 A 
ATOM     52  H   UNL A   1      40.459  28.805  30.559  1.00  0.00     0.167 HD
ATOM     53  C   UNL A   1      39.704  31.072  34.268  1.00  0.00     0.034 A 
ATOM     54  C   UNL A   1      41.875  27.061  28.897  1.00  0.00     0.034 A 
ATOM     55  C   UNL A   1      40.896  30.300  34.516  1.00  0.00     0.049 A 
ATOM     56  C   UNL A   1      42.635  27.143  30.198  1.00  0.00     0.074 A 
ATOM     57  C   UNL A   1      41.651  30.230  35.673  1.00  0.00     0.029 A 
ATOM     58  N   UNL A   1      41.513  29.469  33.590  1.00  0.00    -0.354 N 
ATOM     59  N   UNL A   1      42.349  27.827  31.283  1.00  0.00    -0.248 NA
ATOM     60  C   UNL A   1      43.859  26.341  30.295  1.00  0.00     0.031 C 
ATOM     61  C   UNL A   1      42.766  29.422  35.421  1.00  0.00     0.029 A 
ATOM     62  C   UNL A   1      42.658  28.910  34.137  1.00  0.00     0.049 A 
ATOM     63  H   UNL A   1      41.186  29.300  32.677  1.00  0.00     0.167 HD
ATOM     64  C   UNL A   1      43.345  27.511  32.203  1.00  0.00     0.074 A 
ATOM     65  C   UNL A   1      44.216  26.552  31.552  1.00  0.00     0.031 C 
ATOM     66  C   UNL A   1      43.528  27.970  33.469  1.00  0.00     0.034 A 
BRANCH  53  67
ATOM     67  C   UNL A   1      39.196  32.005  35.342  1.00  0.00     0.023 A 
ATOM     68  C   UNL A   1      39.623  33.344  35.425  1.00  0.00     0.031 A 
ATOM     69  C   UNL A   1      38.290  31.547  36.315  1.00  0.00     0.131 A 
ATOM     70  C   UNL A   1      39.207  34.150  36.496  1.00  0.00     0.055 A 
ATOM     71  C   UNL A   1      37.810  32.380  37.328  1.00  0.00     0.041 A 
ATOM     72  F   UNL A   1      37.864  30.274  36.306  1.00  0.00    -0.206 F 
ATOM     73  C   UNL A   1      38.281  33.686  37.431  1.00  0.00     0.022 A 
BRANCH  70  74
ATOM     74  S   UNL A   1      40.012  35.758  36.735  1.00  0.00     0.124 S 
ATOM     75  O   UNL A   1      39.655  36.452  35.500  1.00  0.00    -0.237 OA
ATOM     76  O   UNL A   1      39.378  36.250  37.952  1.00  0.00    -0.237 OA
ATOM     77  O   UNL A   1      41.427  35.416  36.862  1.00  0.00    -0.744 OA
ENDBRANCH  70  74
ENDBRANCH  53  67
BRANCH  54  78
ATOM     78  C   UNL A   1      42.382  26.228  27.766  1.00  0.00     0.023 A 
ATOM     79  C   UNL A   1      41.926  24.914  27.568  1.00  0.00     0.031 A 
ATOM     80  C   UNL A   1      43.376  26.717  26.898  1.00  0.00     0.131 A 
ATOM     81  C   UNL A   1      42.504  24.115  26.569  1.00  0.00     0.055 A 
ATOM     82  C   UNL A   1      43.903  25.939  25.865  1.00  0.00     0.041 A 
ATOM     83  F   UNL A   1      43.847  27.966  27.038  1.00  0.00    -0.206 F 
ATOM     84  C   UNL A   1      43.479  24.623  25.708  1.00  0.00     0.022 A 
BRANCH  81  85
ATOM     85  S   UNL A   1      42.042  22.363  26.482  1.00  0.00     0.124 S 
ATOM     86  O   UNL A   1      40.586  22.439  26.500  1.00  0.00    -0.237 OA
ATOM     87  O   UNL A   1      42.648  21.953  25.221  1.00  0.00    -0.237 OA
ATOM     88  O   UNL A   1      42.653  21.790  27.680  1.00  0.00    -0.744 OA
ENDBRANCH  81  85
ENDBRANCH  54  78
BRANCH  66  89
ATOM     89  C   UNL A   1      44.698  27.399  34.237  1.00  0.00     0.023 A 
ATOM     90  C   UNL A   1      44.576  26.233  35.012  1.00  0.00     0.031 A 
ATOM     91  C   UNL A   1      45.941  28.058  34.228  1.00  0.00     0.131 A 
ATOM     92  C   UNL A   1      45.646  25.814  35.817  1.00  0.00     0.055 A 
ATOM     93  C   UNL A   1      47.029  27.586  34.965  1.00  0.00     0.041 A 
ATOM     94  F   UNL A   1      46.118  29.177  33.509  1.00  0.00    -0.206 F 
ATOM     95  C   UNL A   1      46.877  26.471  35.784  1.00  0.00     0.022 A 
BRANCH  92  96
ATOM     96  S   UNL A   1      45.355  24.489  37.021  1.00  0.00     0.124 S 
ATOM     97  O   UNL A   1      44.528  23.561  36.255  1.00  0.00    -0.237 OA
ATOM     98  O   UNL A   1      46.709  24.038  37.322  1.00  0.00    -0.237 OA
ATOM     99  O   UNL A   1      44.668  25.169  38.119  1.00  0.00    -0.744 OA
ENDBRANCH  92  96
ENDBRANCH  66  89
ENDBRANCH  40  41
ENDBRANCH  32  35
ENDBRANCH  30  31
ENDBRANCH  29  30
ENDBRANCH   1  29
TORSDOF 21
ENDMDL
MODEL 2
REMARK VINA RESULT:     -10.7      4.928     10.263
REMARK SMILES CC(C)C[N@H+](CC[NH+](C)C)[C@@H]1CCC[C@]([NH3+])(C(=O)NCCCCNC(=O)c2ccc(-c3c4nc(c(-c5cc(S(=O)(=O)[O-])ccc5F)c5ccc([nH]5)c(-c5cc(S(=O)(=O)[O-])ccc5F)c5nc(c(-c6cc(S(=O)(=O)[O-])ccc6F)c6ccc3[nH]6)C=C5)C=C4)cc2)C1
REMARK SMILES IDX 21 1 20 2 19 3 17 4 18 5 15 7 11 8 12 9 90 10 13 11 14 12
REMARK SMILES IDX 5 13 4 15 2 16 1 17 3 18 6 19 7 20 8 21 9 22 10 23 16 25
REMARK SMILES IDX 22 29 23 30 24 31 25 32 26 34 27 35 28 36 89 37 29 38 88 39
REMARK SMILES IDX 30 40 31 41 32 42 82 43 33 44 87 45 81 46 83 47 34 48 86 49
REMARK SMILES IDX 80 50 79 51 35 53 67 54 47 55 66 56 48 57 51 58 65 59 84 60
REMARK SMILES IDX 49 61 50 62 64 64 85 65 52 66 36 67 37 68 45 69 38 70 44 71
REMARK SMILES IDX 46 72 43 73 39 74 40 75 41 76 42 77 68 78 69 79 77 80 70 81
REMARK SMILES IDX 76 82 78 83 75 84 71 85 72 86 73 87 74 88 53 89 54 90 62 91
REMARK SMILES IDX 55 92 61 93 63 94 60 95 56 96 57 97 58 98 59 99
REMARK H PARENT 19 6 5 14 8 24 16 26 16 27 16 28 24 33 83 52 51 63
REMARK Flexibility Score: inf
ROOT
ATOM      1  C   UNL A   1      36.153  23.115  23.582  1.00  0.00     0.023 C 
ENDROOT
BRANCH   1   2
ATOM      2  C   UNL A   1      34.628  23.165  23.589  1.00  0.00     0.116 C 
BRANCH   2   3
ATOM      3  N   UNL A   1      34.162  24.483  23.213  1.00  0.00    -0.351 N 
ATOM      4  C   UNL A   1      32.907  24.927  22.933  1.00  0.00     0.281 C 
ATOM      5  O   UNL A   1      32.837  25.862  22.130  1.00  0.00    -0.268 OA
ATOM      6  H   UNL A   1      34.867  25.167  23.150  1.00  0.00     0.163 HD
BRANCH   4   7
ATOM      7  C   UNL A   1      31.644  24.207  23.496  1.00  0.00     0.179 C 
ATOM      8  C   UNL A   1      30.096  26.275  24.106  1.00  0.00     0.191 C 
ATOM      9  C   UNL A   1      30.289  25.880  25.578  1.00  0.00     0.065 C 
ATOM     10  C   UNL A   1      30.377  25.044  23.180  1.00  0.00     0.144 C 
ATOM     11  C   UNL A   1      31.625  25.207  25.829  1.00  0.00     0.013 C 
ATOM     12  C   UNL A   1      31.694  23.925  25.010  1.00  0.00     0.079 C 
BRANCH   8  13
ATOM     13  N   UNL A   1      30.689  27.551  23.688  1.00  0.00    -0.327 N 
ATOM     14  H   UNL A   1      31.579  27.064  23.578  1.00  0.00     0.348 HD
BRANCH  13  15
ATOM     15  C   UNL A   1      31.255  28.542  24.616  1.00  0.00     0.265 C 
BRANCH  15  16
ATOM     16  C   UNL A   1      32.762  28.569  25.052  1.00  0.00     0.038 C 
ATOM     17  C   UNL A   1      33.799  28.698  23.931  1.00  0.00     0.013 C 
ATOM     18  C   UNL A   1      32.985  29.784  25.974  1.00  0.00     0.013 C 
ENDBRANCH  15  16
ENDBRANCH  13  15
BRANCH  13  19
ATOM     19  C   UNL A   1      30.240  28.099  22.400  1.00  0.00     0.324 C 
BRANCH  19  20
ATOM     20  C   UNL A   1      29.766  29.582  22.344  1.00  0.00     0.323 C 
BRANCH  20  21
ATOM     21  N   UNL A   1      28.354  29.755  21.991  1.00  0.00    -0.335 N 
ATOM     22  C   UNL A   1      27.405  29.645  23.082  1.00  0.00     0.332 C 
ATOM     23  C   UNL A   1      28.066  30.873  21.100  1.00  0.00     0.332 C 
ATOM     24  H   UNL A   1      28.189  28.918  21.432  1.00  0.00     0.347 HD
ENDBRANCH  20  21
ENDBRANCH  19  20
ENDBRANCH  13  19
ENDBRANCH   8  13
BRANCH   7  25
ATOM     25  N   UNL A   1      31.487  22.917  22.756  1.00  0.00    -0.345 N 
ATOM     26  H   UNL A   1      31.551  22.139  23.413  1.00  0.00     0.345 HD
ATOM     27  H   UNL A   1      32.228  22.835  22.059  1.00  0.00     0.345 HD
ATOM     28  H   UNL A   1      30.579  22.899  22.293  1.00  0.00     0.345 HD
ENDBRANCH   7  25
ENDBRANCH   4   7
ENDBRANCH   2   3
ENDBRANCH   1   2
BRANCH   1  29
ATOM     29  C   UNL A   1      36.738  21.869  24.243  1.00  0.00     0.023 C 
BRANCH  29  30
ATOM     30  C   UNL A   1      37.326  22.110  25.627  1.00  0.00     0.116 C 
BRANCH  30  31
ATOM     31  N   UNL A   1      38.309  21.100  25.992  1.00  0.00    -0.352 N 
ATOM     32  C   UNL A   1      39.567  21.268  26.500  1.00  0.00     0.251 C 
ATOM     33  H   UNL A   1      38.028  20.166  25.853  1.00  0.00     0.163 HD
ATOM     34  O   UNL A   1      40.331  20.305  26.574  1.00  0.00    -0.269 OA
BRANCH  32  35
ATOM     35  C   UNL A   1      40.002  22.611  26.921  1.00  0.00     0.039 A 
ATOM     36  C   UNL A   1      40.905  22.725  27.978  1.00  0.00     0.014 A 
ATOM     37  C   UNL A   1      39.537  23.750  26.257  1.00  0.00     0.014 A 
ATOM     38  C   UNL A   1      41.371  23.987  28.341  1.00  0.00     0.010 A 
ATOM     39  C   UNL A   1      40.081  24.993  26.555  1.00  0.00     0.010 A 
ATOM     40  C   UNL A   1      40.984  25.128  27.618  1.00  0.00    -0.014 A 
BRANCH  40  41
ATOM     41  C   UNL A   1      41.485  26.470  28.003  1.00  0.00     0.031 A 
ATOM     42  C   UNL A   1      42.885  26.884  27.631  1.00  0.00     0.074 A 
ATOM     43  C   UNL A   1      40.683  27.307  28.690  1.00  0.00     0.049 A 
ATOM     44  N   UNL A   1      43.497  28.019  27.851  1.00  0.00    -0.248 NA
ATOM     45  C   UNL A   1      43.716  25.880  26.947  1.00  0.00     0.031 C 
ATOM     46  C   UNL A   1      39.328  26.991  29.150  1.00  0.00     0.029 A 
ATOM     47  N   UNL A   1      40.882  28.596  29.112  1.00  0.00    -0.354 N 
ATOM     48  C   UNL A   1      44.780  27.862  27.338  1.00  0.00     0.074 A 
ATOM     49  C   UNL A   1      44.883  26.498  26.872  1.00  0.00     0.031 C 
ATOM     50  C   UNL A   1      38.801  28.074  29.744  1.00  0.00     0.029 A 
ATOM     51  C   UNL A   1      39.793  29.144  29.750  1.00  0.00     0.049 A 
ATOM     52  H   UNL A   1      41.726  29.084  28.971  1.00  0.00     0.167 HD
ATOM     53  C   UNL A   1      45.770  28.782  27.235  1.00  0.00     0.034 A 
ATOM     54  C   UNL A   1      39.617  30.370  30.280  1.00  0.00     0.034 A 
ATOM     55  C   UNL A   1      45.644  30.141  27.699  1.00  0.00     0.049 A 
ATOM     56  C   UNL A   1      40.741  31.370  30.168  1.00  0.00     0.074 A 
ATOM     57  C   UNL A   1      46.561  31.172  27.606  1.00  0.00     0.029 A 
ATOM     58  N   UNL A   1      44.533  30.658  28.354  1.00  0.00    -0.354 N 
ATOM     59  N   UNL A   1      41.927  31.226  29.620  1.00  0.00    -0.248 NA
ATOM     60  C   UNL A   1      40.492  32.703  30.728  1.00  0.00     0.031 C 
ATOM     61  C   UNL A   1      46.039  32.286  28.273  1.00  0.00     0.029 A 
ATOM     62  C   UNL A   1      44.756  31.982  28.701  1.00  0.00     0.049 A 
ATOM     63  H   UNL A   1      43.706  30.158  28.544  1.00  0.00     0.167 HD
ATOM     64  C   UNL A   1      42.553  32.464  29.743  1.00  0.00     0.074 A 
ATOM     65  C   UNL A   1      41.599  33.345  30.388  1.00  0.00     0.031 C 
ATOM     66  C   UNL A   1      43.801  32.842  29.361  1.00  0.00     0.034 A 
BRANCH  53  67
ATOM     67  C   UNL A   1      47.076  28.333  26.621  1.00  0.00     0.023 A 
ATOM     68  C   UNL A   1      47.259  28.276  25.226  1.00  0.00     0.031 A 
ATOM     69  C   UNL A   1      48.147  27.931  27.438  1.00  0.00     0.131 A 
ATOM     70  C   UNL A   1      48.450  27.757  24.694  1.00  0.00     0.055 A 
ATOM     71  C   UNL A   1      49.362  27.499  26.903  1.00  0.00     0.041 A 
ATOM     72  F   UNL A   1      48.026  27.937  28.775  1.00  0.00    -0.206 F 
ATOM     73  C   UNL A   1      49.514  27.395  25.522  1.00  0.00     0.022 A 
BRANCH  70  74
ATOM     74  S   UNL A   1      48.528  27.418  22.914  1.00  0.00     0.124 S 
ATOM     75  O   UNL A   1      48.408  25.962  22.886  1.00  0.00    -0.237 OA
ATOM     76  O   UNL A   1      47.387  28.165  22.400  1.00  0.00    -0.237 OA
ATOM     77  O   UNL A   1      49.839  27.935  22.525  1.00  0.00    -0.744 OA
ENDBRANCH  70  74
ENDBRANCH  53  67
BRANCH  54  78
ATOM     78  C   UNL A   1      38.339  30.728  30.962  1.00  0.00     0.023 A 
ATOM     79  C   UNL A   1      37.308  31.392  30.276  1.00  0.00     0.031 A 
ATOM     80  C   UNL A   1      38.152  30.462  32.331  1.00  0.00     0.131 A 
ATOM     81  C   UNL A   1      36.167  31.821  30.971  1.00  0.00     0.055 A 
ATOM     82  C   UNL A   1      36.986  30.834  33.003  1.00  0.00     0.041 A 
ATOM     83  F   UNL A   1      39.101  29.828  33.036  1.00  0.00    -0.206 F 
ATOM     84  C   UNL A   1      35.992  31.533  32.326  1.00  0.00     0.022 A 
BRANCH  81  85
ATOM     85  S   UNL A   1      34.959  32.858  30.101  1.00  0.00     0.124 S 
ATOM     86  O   UNL A   1      35.803  33.928  29.586  1.00  0.00    -0.237 OA
ATOM     87  O   UNL A   1      34.421  31.930  29.111  1.00  0.00    -0.237 OA
ATOM     88  O   UNL A   1      34.025  33.250  31.155  1.00  0.00    -0.744 OA
ENDBRANCH  81  85
ENDBRANCH  54  78
BRANCH  66  89
ATOM     89  C   UNL A   1      44.179  34.286  29.602  1.00  0.00     0.023 A 
ATOM     90  C   UNL A   1      43.748  35.316  28.746  1.00  0.00     0.031 A 
ATOM     91  C   UNL A   1      45.017  34.630  30.677  1.00  0.00     0.131 A 
ATOM     92  C   UNL A   1      44.231  36.620  28.925  1.00  0.00     0.055 A 
ATOM     93  C   UNL A   1      45.426  35.947  30.900  1.00  0.00     0.041 A 
ATOM     94  F   UNL A   1      45.462  33.691  31.527  1.00  0.00    -0.206 F 
ATOM     95  C   UNL A   1      45.051  36.946  30.007  1.00  0.00     0.022 A 
BRANCH  92  96
ATOM     96  S   UNL A   1      43.895  37.851  27.636  1.00  0.00     0.124 S 
ATOM     97  O   UNL A   1      43.224  38.904  28.391  1.00  0.00    -0.237 OA
ATOM     98  O   UNL A   1      45.234  38.168  27.151  1.00  0.00    -0.237 OA
ATOM     99  O   UNL A   1      43.045  37.131  26.688  1.00  0.00    -0.744 OA
ENDBRANCH  92  96
ENDBRANCH  66  89
ENDBRANCH  40  41
ENDBRANCH  32  35
ENDBRANCH  30  31
ENDBRANCH  29  30
ENDBRANCH   1  29
TORSDOF 21
ENDMDL
MODEL 3
REMARK VINA RESULT:     -10.7      4.965     10.048
REMARK SMILES CC(C)C[N@H+](CC[NH+](C)C)[C@@H]1CCC[C@]([NH3+])(C(=O)NCCCCNC(=O)c2ccc(-c3c4nc(c(-c5cc(S(=O)(=O)[O-])ccc5F)c5ccc([nH]5)c(-c5cc(S(=O)(=O)[O-])ccc5F)c5nc(c(-c6cc(S(=O)(=O)[O-])ccc6F)c6ccc3[nH]6)C=C5)C=C4)cc2)C1
REMARK SMILES IDX 21 1 20 2 19 3 17 4 18 5 15 7 11 8 12 9 90 10 13 11 14 12
REMARK SMILES IDX 5 13 4 15 2 16 1 17 3 18 6 19 7 20 8 21 9 22 10 23 16 25
REMARK SMILES IDX 22 29 23 30 24 31 25 32 26 34 27 35 28 36 89 37 29 38 88 39
REMARK SMILES IDX 30 40 31 41 32 42 82 43 33 44 87 45 81 46 83 47 34 48 86 49
REMARK SMILES IDX 80 50 79 51 35 53 67 54 47 55 66 56 48 57 51 58 65 59 84 60
REMARK SMILES IDX 49 61 50 62 64 64 85 65 52 66 36 67 37 68 45 69 38 70 44 71
REMARK SMILES IDX 46 72 43 73 39 74 40 75 41 76 42 77 68 78 69 79 77 80 70 81
REMARK SMILES IDX 76 82 78 83 75 84 71 85 72 86 73 87 74 88 53 89 54 90 62 91
REMARK SMILES IDX 55 92 61 93 63 94 60 95 56 96 57 97 58 98 59 99
REMARK H PARENT 19 6 5 14 8 24 16 26 16 27 16 28 24 33 83 52 51 63
REMARK Flexibility Score: inf
ROOT
ATOM      1  C   UNL A   1      35.420  23.194  23.663  1.00  0.00     0.023 C 
ENDROOT
BRANCH   1   2
ATOM      2  C   UNL A   1      34.072  23.405  22.980  1.00  0.00     0.116 C 
BRANCH   2   3
ATOM      3  N   UNL A   1      33.802  24.818  22.817  1.00  0.00    -0.351 N 
ATOM      4  C   UNL A   1      32.624  25.499  22.844  1.00  0.00     0.281 C 
ATOM      5  O   UNL A   1      32.580  26.519  22.151  1.00  0.00    -0.268 OA
ATOM      6  H   UNL A   1      34.598  25.375  22.660  1.00  0.00     0.163 HD
BRANCH   4   7
ATOM      7  C   UNL A   1      31.380  24.944  23.604  1.00  0.00     0.179 C 
ATOM      8  C   UNL A   1      30.530  27.118  24.866  1.00  0.00     0.191 C 
ATOM      9  C   UNL A   1      30.939  26.419  26.172  1.00  0.00     0.065 C 
ATOM     10  C   UNL A   1      30.308  26.054  23.738  1.00  0.00     0.144 C 
ATOM     11  C   UNL A   1      32.102  25.465  25.981  1.00  0.00     0.013 C 
ATOM     12  C   UNL A   1      31.690  24.374  25.001  1.00  0.00     0.079 C 
BRANCH   8  13
ATOM     13  N   UNL A   1      31.300  28.310  24.493  1.00  0.00    -0.327 N 
ATOM     14  H   UNL A   1      31.692  27.774  23.719  1.00  0.00     0.348 HD
BRANCH  13  15
ATOM     15  C   UNL A   1      32.624  28.642  25.039  1.00  0.00     0.265 C 
BRANCH  15  16
ATOM     16  C   UNL A   1      32.915  28.834  26.569  1.00  0.00     0.038 C 
ATOM     17  C   UNL A   1      34.387  28.952  26.979  1.00  0.00     0.013 C 
ATOM     18  C   UNL A   1      32.243  30.140  27.037  1.00  0.00     0.013 C 
ENDBRANCH  15  16
ENDBRANCH  13  15
BRANCH  13  19
ATOM     19  C   UNL A   1      30.536  29.460  23.989  1.00  0.00     0.324 C 
BRANCH  19  20
ATOM     20  C   UNL A   1      29.869  29.357  22.585  1.00  0.00     0.323 C 
BRANCH  20  21
ATOM     21  N   UNL A   1      28.460  29.757  22.551  1.00  0.00    -0.335 N 
ATOM     22  C   UNL A   1      28.004  30.390  21.329  1.00  0.00     0.332 C 
ATOM     23  C   UNL A   1      27.519  28.767  23.062  1.00  0.00     0.332 C 
ATOM     24  H   UNL A   1      28.455  30.511  23.239  1.00  0.00     0.347 HD
ENDBRANCH  20  21
ENDBRANCH  19  20
ENDBRANCH  13  19
ENDBRANCH   8  13
BRANCH   7  25
ATOM     25  N   UNL A   1      30.770  23.874  22.756  1.00  0.00    -0.345 N 
ATOM     26  H   UNL A   1      31.212  22.980  22.968  1.00  0.00     0.345 HD
ATOM     27  H   UNL A   1      30.914  24.099  21.771  1.00  0.00     0.345 HD
ATOM     28  H   UNL A   1      29.771  23.815  22.950  1.00  0.00     0.345 HD
ENDBRANCH   7  25
ENDBRANCH   4   7
ENDBRANCH   2   3
ENDBRANCH   1   2
BRANCH   1  29
ATOM     29  C   UNL A   1      35.340  23.123  25.187  1.00  0.00     0.023 C 
BRANCH  29  30
ATOM     30  C   UNL A   1      36.588  23.619  25.904  1.00  0.00     0.116 C 
BRANCH  30  31
ATOM     31  N   UNL A   1      37.578  22.566  26.079  1.00  0.00    -0.352 N 
ATOM     32  C   UNL A   1      38.886  22.671  26.464  1.00  0.00     0.251 C 
ATOM     33  H   UNL A   1      37.261  21.651  25.895  1.00  0.00     0.163 HD
ATOM     34  O   UNL A   1      39.629  21.692  26.378  1.00  0.00    -0.269 OA
BRANCH  32  35
ATOM     35  C   UNL A   1      39.395  23.966  26.947  1.00  0.00     0.039 A 
ATOM     36  C   UNL A   1      39.965  24.849  26.030  1.00  0.00     0.014 A 
ATOM     37  C   UNL A   1      39.284  24.315  28.297  1.00  0.00     0.014 A 
ATOM     38  C   UNL A   1      40.389  26.102  26.466  1.00  0.00     0.010 A 
ATOM     39  C   UNL A   1      39.614  25.602  28.706  1.00  0.00     0.010 A 
ATOM     40  C   UNL A   1      40.194  26.500  27.800  1.00  0.00    -0.014 A 
BRANCH  40  41
ATOM     41  C   UNL A   1      40.643  27.837  28.261  1.00  0.00     0.031 A 
ATOM     42  C   UNL A   1      42.101  28.206  28.185  1.00  0.00     0.074 A 
ATOM     43  C   UNL A   1      39.739  28.708  28.750  1.00  0.00     0.049 A 
ATOM     44  N   UNL A   1      42.686  29.330  28.511  1.00  0.00    -0.248 NA
ATOM     45  C   UNL A   1      43.027  27.167  27.709  1.00  0.00     0.031 C 
ATOM     46  C   UNL A   1      38.309  28.437  28.919  1.00  0.00     0.029 A 
ATOM     47  N   UNL A   1      39.883  30.001  29.184  1.00  0.00    -0.354 N 
ATOM     48  C   UNL A   1      44.043  29.129  28.283  1.00  0.00     0.074 A 
ATOM     49  C   UNL A   1      44.202  27.753  27.871  1.00  0.00     0.031 C 
ATOM     50  C   UNL A   1      37.701  29.545  29.372  1.00  0.00     0.029 A 
ATOM     51  C   UNL A   1      38.701  30.590  29.570  1.00  0.00     0.049 A 
ATOM     52  H   UNL A   1      40.751  30.464  29.215  1.00  0.00     0.167 HD
ATOM     53  C   UNL A   1      45.060  30.021  28.376  1.00  0.00     0.034 A 
ATOM     54  C   UNL A   1      38.454  31.832  30.030  1.00  0.00     0.034 A 
ATOM     55  C   UNL A   1      44.879  31.393  28.781  1.00  0.00     0.049 A 
ATOM     56  C   UNL A   1      39.605  32.800  30.141  1.00  0.00     0.074 A 
ATOM     57  C   UNL A   1      45.825  32.398  28.867  1.00  0.00     0.029 A 
ATOM     58  N   UNL A   1      43.671  31.952  29.179  1.00  0.00    -0.354 N 
ATOM     59  N   UNL A   1      40.875  32.614  29.857  1.00  0.00    -0.248 NA
ATOM     60  C   UNL A   1      39.283  34.150  30.615  1.00  0.00     0.031 C 
ATOM     61  C   UNL A   1      45.207  33.539  29.391  1.00  0.00     0.029 A 
ATOM     62  C   UNL A   1      43.855  33.277  29.543  1.00  0.00     0.049 A 
ATOM     63  H   UNL A   1      42.808  31.478  29.199  1.00  0.00     0.167 HD
ATOM     64  C   UNL A   1      41.497  33.838  30.090  1.00  0.00     0.074 A 
ATOM     65  C   UNL A   1      40.456  34.757  30.505  1.00  0.00     0.031 C 
ATOM     66  C   UNL A   1      42.809  34.176  29.973  1.00  0.00     0.034 A 
BRANCH  53  67
ATOM     67  C   UNL A   1      46.452  29.526  28.057  1.00  0.00     0.023 A 
ATOM     68  C   UNL A   1      46.814  29.113  26.762  1.00  0.00     0.031 A 
ATOM     69  C   UNL A   1      47.426  29.440  29.068  1.00  0.00     0.131 A 
ATOM     70  C   UNL A   1      48.084  28.563  26.529  1.00  0.00     0.055 A 
ATOM     71  C   UNL A   1      48.717  28.975  28.811  1.00  0.00     0.041 A 
ATOM     72  F   UNL A   1      47.135  29.794  30.330  1.00  0.00    -0.206 F 
ATOM     73  C   UNL A   1      49.048  28.519  27.537  1.00  0.00     0.022 A 
BRANCH  70  74
ATOM     74  S   UNL A   1      48.405  27.768  24.930  1.00  0.00     0.124 S 
ATOM     75  O   UNL A   1      47.319  28.302  24.112  1.00  0.00    -0.237 OA
ATOM     76  O   UNL A   1      49.744  28.243  24.605  1.00  0.00    -0.237 OA
ATOM     77  O   UNL A   1      48.304  26.342  25.232  1.00  0.00    -0.744 OA
ENDBRANCH  70  74
ENDBRANCH  53  67
BRANCH  54  78
ATOM     78  C   UNL A   1      37.072  32.237  30.422  1.00  0.00     0.023 A 
ATOM     79  C   UNL A   1      36.193  32.821  29.494  1.00  0.00     0.031 A 
ATOM     80  C   UNL A   1      36.628  32.099  31.750  1.00  0.00     0.131 A 
ATOM     81  C   UNL A   1      34.943  33.299  29.917  1.00  0.00     0.055 A 
ATOM     82  C   UNL A   1      35.358  32.518  32.152  1.00  0.00     0.041 A 
ATOM     83  F   UNL A   1      37.423  31.545  32.678  1.00  0.00    -0.206 F 
ATOM     84  C   UNL A   1      34.514  33.139  31.236  1.00  0.00     0.022 A 
BRANCH  81  85
ATOM     85  S   UNL A   1      33.928  34.235  28.741  1.00  0.00     0.124 S 
ATOM     86  O   UNL A   1      33.624  33.221  27.738  1.00  0.00    -0.237 OA
ATOM     87  O   UNL A   1      32.813  34.663  29.578  1.00  0.00    -0.237 OA
ATOM     88  O   UNL A   1      34.819  35.305  28.298  1.00  0.00    -0.744 OA
ENDBRANCH  81  85
ENDBRANCH  54  78
BRANCH  66  89
ATOM     89  C   UNL A   1      43.169  35.614  30.265  1.00  0.00     0.023 A 
ATOM     90  C   UNL A   1      43.104  36.609  29.273  1.00  0.00     0.031 A 
ATOM     91  C   UNL A   1      43.627  35.987  31.542  1.00  0.00     0.131 A 
ATOM     92  C   UNL A   1      43.576  37.901  29.547  1.00  0.00     0.055 A 
ATOM     93  C   UNL A   1      44.015  37.296  31.832  1.00  0.00     0.041 A 
ATOM     94  F   UNL A   1      43.713  35.082  32.529  1.00  0.00    -0.206 F 
ATOM     95  C   UNL A   1      44.013  38.256  30.825  1.00  0.00     0.022 A 
BRANCH  92  96
ATOM     96  S   UNL A   1      43.754  39.067  28.169  1.00  0.00     0.124 S 
ATOM     97  O   UNL A   1      42.569  39.905  28.328  1.00  0.00    -0.237 OA
ATOM     98  O   UNL A   1      45.032  39.707  28.464  1.00  0.00    -0.237 OA
ATOM     99  O   UNL A   1      43.749  38.204  26.988  1.00  0.00    -0.744 OA
ENDBRANCH  92  96
ENDBRANCH  66  89
ENDBRANCH  40  41
ENDBRANCH  32  35
ENDBRANCH  30  31
ENDBRANCH  29  30
ENDBRANCH   1  29
TORSDOF 21
ENDMDL
