MODEL 1
REMARK VINA RESULT:     -12.6      0.000      0.000
REMARK SMILES C[C@@H]1[C@H](C(=O)NCCCCNC(=O)c2ccc(-c3c4nc(c(-c5cc(S(=O)(=O)[O-])ccc5F)c5ccc([nH]5)c(-c5cc(S(=O)(=O)[O-])ccc5F)c5nc(c(-c6cc(S(=O)(=O)[O-])ccc6F)c6ccc3[nH]6)C=C5)C=C4)cc2)CCN1S(=O)(=O)c1ccc(F)c(Cl)c1
REMARK SMILES IDX 9 1 8 2 7 3 6 4 4 5 5 6 3 8 1 9 2 10 79 11 77 12 78 13 80 14
REMARK SMILES IDX 81 15 82 16 83 17 84 18 90 19 85 20 88 21 86 22 89 23 87 24
REMARK SMILES IDX 10 25 11 26 12 27 13 29 14 30 15 31 76 32 16 33 75 34 17 35
REMARK SMILES IDX 18 36 19 37 69 38 20 39 74 40 68 41 70 42 21 43 73 44 67 45
REMARK SMILES IDX 66 46 22 48 54 49 34 50 53 51 35 52 38 53 52 54 71 55 36 56
REMARK SMILES IDX 37 57 51 59 72 60 39 61 23 62 24 63 32 64 25 65 31 66 33 67
REMARK SMILES IDX 30 68 26 69 27 70 28 71 29 72 55 73 56 74 64 75 57 76 63 77
REMARK SMILES IDX 65 78 62 79 58 80 59 81 60 82 61 83 40 84 41 85 49 86 42 87
REMARK SMILES IDX 48 88 50 89 47 90 43 91 44 92 45 93 46 94
REMARK H PARENT 6 7 11 28 70 47 38 58
REMARK Flexibility Score: inf
ROOT
ATOM      1  C   UNL A   1      35.648  21.749  25.699  1.00  0.00     0.023 C 
ENDROOT
BRANCH   1   2
ATOM      2  C   UNL A   1      35.176  20.492  24.998  1.00  0.00     0.023 C 
BRANCH   2   3
ATOM      3  C   UNL A   1      33.704  20.103  25.185  1.00  0.00     0.116 C 
BRANCH   3   4
ATOM      4  N   UNL A   1      32.942  20.187  23.947  1.00  0.00    -0.356 N 
ATOM      5  C   UNL A   1      32.313  21.186  23.279  1.00  0.00     0.224 C 
ATOM      6  O   UNL A   1      31.730  20.845  22.241  1.00  0.00    -0.275 OA
ATOM      7  H   UNL A   1      32.866  19.319  23.489  1.00  0.00     0.163 HD
BRANCH   5   8
ATOM      8  C   UNL A   1      32.230  22.656  23.696  1.00  0.00     0.098 C 
ATOM      9  C   UNL A   1      33.520  23.388  21.625  1.00  0.00     0.026 C 
ATOM     10  C   UNL A   1      33.224  23.657  23.073  1.00  0.00     0.082 C 
ATOM     11  N   UNL A   1      32.652  25.024  23.365  1.00  0.00    -0.194 NA
ATOM     12  C   UNL A   1      30.900  23.369  23.644  1.00  0.00     0.032 C 
ATOM     13  C   UNL A   1      31.297  24.797  23.994  1.00  0.00     0.104 C 
BRANCH  11  14
ATOM     14  S   UNL A   1      32.608  26.317  22.256  1.00  0.00     0.243 S 
ATOM     15  O   UNL A   1      33.962  26.514  21.783  1.00  0.00    -0.207 OA
ATOM     16  O   UNL A   1      31.545  26.011  21.319  1.00  0.00    -0.207 OA
BRANCH  14  17
ATOM     17  C   UNL A   1      32.121  27.843  23.034  1.00  0.00     0.084 A 
ATOM     18  C   UNL A   1      32.986  28.317  24.036  1.00  0.00     0.025 A 
ATOM     19  C   UNL A   1      30.912  28.496  22.794  1.00  0.00     0.045 A 
ATOM     20  C   UNL A   1      32.606  29.385  24.849  1.00  0.00     0.042 A 
ATOM     21  C   UNL A   1      30.506  29.515  23.662  1.00  0.00     0.078 A 
ATOM     22  C   UNL A   1      31.349  29.954  24.682  1.00  0.00     0.141 A 
ATOM     23  Cl  UNL A   1      28.920  30.170  23.502  1.00  0.00    -0.081 Cl
ATOM     24  F   UNL A   1      30.963  30.922  25.525  1.00  0.00    -0.205 F 
ENDBRANCH  14  17
ENDBRANCH  11  14
ENDBRANCH   5   8
ENDBRANCH   3   4
ENDBRANCH   2   3
ENDBRANCH   1   2
BRANCH   1  25
ATOM     25  C   UNL A   1      37.046  22.186  25.324  1.00  0.00     0.116 C 
BRANCH  25  26
ATOM     26  N   UNL A   1      38.065  21.162  25.512  1.00  0.00    -0.352 N 
ATOM     27  C   UNL A   1      39.292  21.285  26.137  1.00  0.00     0.251 C 
ATOM     28  H   UNL A   1      37.853  20.271  25.150  1.00  0.00     0.163 HD
ATOM     29  O   UNL A   1      40.077  20.358  26.161  1.00  0.00    -0.269 OA
BRANCH  27  30
ATOM     30  C   UNL A   1      39.637  22.601  26.718  1.00  0.00     0.039 A 
ATOM     31  C   UNL A   1      40.637  22.674  27.688  1.00  0.00     0.014 A 
ATOM     32  C   UNL A   1      39.068  23.761  26.190  1.00  0.00     0.014 A 
ATOM     33  C   UNL A   1      41.131  23.925  28.064  1.00  0.00     0.010 A 
ATOM     34  C   UNL A   1      39.650  24.987  26.467  1.00  0.00     0.010 A 
ATOM     35  C   UNL A   1      40.676  25.086  27.419  1.00  0.00    -0.014 A 
BRANCH  35  36
ATOM     36  C   UNL A   1      41.203  26.431  27.755  1.00  0.00     0.031 A 
ATOM     37  C   UNL A   1      42.615  26.777  27.361  1.00  0.00     0.074 A 
ATOM     38  C   UNL A   1      40.464  27.292  28.482  1.00  0.00     0.049 A 
ATOM     39  N   UNL A   1      43.336  27.820  27.678  1.00  0.00    -0.248 NA
ATOM     40  C   UNL A   1      43.330  25.778  26.551  1.00  0.00     0.031 C 
ATOM     41  C   UNL A   1      39.108  27.041  28.978  1.00  0.00     0.029 A 
ATOM     42  N   UNL A   1      40.755  28.551  28.941  1.00  0.00    -0.354 N 
ATOM     43  C   UNL A   1      44.598  27.579  27.144  1.00  0.00     0.074 A 
ATOM     44  C   UNL A   1      44.562  26.255  26.561  1.00  0.00     0.031 C 
ATOM     45  C   UNL A   1      38.673  28.127  29.640  1.00  0.00     0.029 A 
ATOM     46  C   UNL A   1      39.731  29.133  29.651  1.00  0.00     0.049 A 
ATOM     47  H   UNL A   1      41.617  28.997  28.778  1.00  0.00     0.167 HD
ATOM     48  C   UNL A   1      45.676  28.399  27.107  1.00  0.00     0.034 A 
ATOM     49  C   UNL A   1      39.658  30.342  30.242  1.00  0.00     0.034 A 
ATOM     50  C   UNL A   1      45.669  29.735  27.646  1.00  0.00     0.049 A 
ATOM     51  C   UNL A   1      40.848  31.263  30.145  1.00  0.00     0.074 A 
ATOM     52  C   UNL A   1      46.672  30.686  27.619  1.00  0.00     0.029 A 
ATOM     53  N   UNL A   1      44.589  30.314  28.302  1.00  0.00    -0.354 N 
ATOM     54  N   UNL A   1      42.023  31.040  29.601  1.00  0.00    -0.248 NA
ATOM     55  C   UNL A   1      40.697  32.602  30.725  1.00  0.00     0.031 C 
ATOM     56  C   UNL A   1      46.216  31.824  28.293  1.00  0.00     0.029 A 
ATOM     57  C   UNL A   1      44.905  31.606  28.690  1.00  0.00     0.049 A 
ATOM     58  H   UNL A   1      43.726  29.872  28.468  1.00  0.00     0.167 HD
ATOM     59  C   UNL A   1      42.739  32.224  29.746  1.00  0.00     0.074 A 
ATOM     60  C   UNL A   1      41.859  33.160  30.417  1.00  0.00     0.031 C 
ATOM     61  C   UNL A   1      44.006  32.518  29.357  1.00  0.00     0.034 A 
BRANCH  48  62
ATOM     62  C   UNL A   1      46.934  27.854  26.473  1.00  0.00     0.023 A 
ATOM     63  C   UNL A   1      47.247  28.104  25.124  1.00  0.00     0.031 A 
ATOM     64  C   UNL A   1      47.793  27.011  27.199  1.00  0.00     0.131 A 
ATOM     65  C   UNL A   1      48.316  27.433  24.516  1.00  0.00     0.055 A 
ATOM     66  C   UNL A   1      48.916  26.423  26.612  1.00  0.00     0.041 A 
ATOM     67  F   UNL A   1      47.539  26.717  28.484  1.00  0.00    -0.206 F 
ATOM     68  C   UNL A   1      49.171  26.614  25.256  1.00  0.00     0.022 A 
BRANCH  65  69
ATOM     69  S   UNL A   1      48.461  27.503  22.709  1.00  0.00     0.124 S 
ATOM     70  O   UNL A   1      48.459  26.084  22.360  1.00  0.00    -0.237 OA
ATOM     71  O   UNL A   1      47.274  28.256  22.325  1.00  0.00    -0.237 OA
ATOM     72  O   UNL A   1      49.734  28.188  22.494  1.00  0.00    -0.744 OA
ENDBRANCH  65  69
ENDBRANCH  48  62
BRANCH  49  73
ATOM     73  C   UNL A   1      38.420  30.766  30.953  1.00  0.00     0.023 A 
ATOM     74  C   UNL A   1      37.401  31.455  30.275  1.00  0.00     0.031 A 
ATOM     75  C   UNL A   1      38.248  30.517  32.325  1.00  0.00     0.131 A 
ATOM     76  C   UNL A   1      36.276  31.911  30.978  1.00  0.00     0.055 A 
ATOM     77  C   UNL A   1      37.106  30.934  33.012  1.00  0.00     0.041 A 
ATOM     78  F   UNL A   1      39.186  29.851  33.017  1.00  0.00    -0.206 F 
ATOM     79  C   UNL A   1      36.117  31.647  32.341  1.00  0.00     0.022 A 
BRANCH  76  80
ATOM     80  S   UNL A   1      35.051  32.918  30.097  1.00  0.00     0.124 S 
ATOM     81  O   UNL A   1      34.494  31.953  29.156  1.00  0.00    -0.237 OA
ATOM     82  O   UNL A   1      34.171  33.341  31.181  1.00  0.00    -0.237 OA
ATOM     83  O   UNL A   1      35.854  33.983  29.498  1.00  0.00    -0.744 OA
ENDBRANCH  76  80
ENDBRANCH  49  73
BRANCH  61  84
ATOM     84  C   UNL A   1      44.483  33.925  29.600  1.00  0.00     0.023 A 
ATOM     85  C   UNL A   1      44.183  34.971  28.712  1.00  0.00     0.031 A 
ATOM     86  C   UNL A   1      45.253  34.218  30.740  1.00  0.00     0.131 A 
ATOM     87  C   UNL A   1      44.697  36.254  28.950  1.00  0.00     0.055 A 
ATOM     88  C   UNL A   1      45.718  35.507  30.998  1.00  0.00     0.041 A 
ATOM     89  F   UNL A   1      45.566  33.252  31.620  1.00  0.00    -0.206 F 
ATOM     90  C   UNL A   1      45.450  36.532  30.094  1.00  0.00     0.022 A 
BRANCH  87  91
ATOM     91  S   UNL A   1      44.437  37.541  27.698  1.00  0.00     0.124 S 
ATOM     92  O   UNL A   1      43.544  36.872  26.757  1.00  0.00    -0.237 OA
ATOM     93  O   UNL A   1      43.846  38.621  28.481  1.00  0.00    -0.237 OA
ATOM     94  O   UNL A   1      45.783  37.806  27.194  1.00  0.00    -0.744 OA
ENDBRANCH  87  91
ENDBRANCH  61  84
ENDBRANCH  35  36
ENDBRANCH  27  30
ENDBRANCH  25  26
ENDBRANCH   1  25
TORSDOF 16
ENDMDL
MODEL 2
REMARK VINA RESULT:     -12.6      1.467      7.627
REMARK SMILES C[C@@H]1[C@H](C(=O)NCCCCNC(=O)c2ccc(-c3c4nc(c(-c5cc(S(=O)(=O)[O-])ccc5F)c5ccc([nH]5)c(-c5cc(S(=O)(=O)[O-])ccc5F)c5nc(c(-c6cc(S(=O)(=O)[O-])ccc6F)c6ccc3[nH]6)C=C5)C=C4)cc2)CCN1S(=O)(=O)c1ccc(F)c(Cl)c1
REMARK SMILES IDX 9 1 8 2 7 3 6 4 4 5 5 6 3 8 1 9 2 10 79 11 77 12 78 13 80 14
REMARK SMILES IDX 81 15 82 16 83 17 84 18 90 19 85 20 88 21 86 22 89 23 87 24
REMARK SMILES IDX 10 25 11 26 12 27 13 29 14 30 15 31 76 32 16 33 75 34 17 35
REMARK SMILES IDX 18 36 19 37 69 38 20 39 74 40 68 41 70 42 21 43 73 44 67 45
REMARK SMILES IDX 66 46 22 48 54 49 34 50 53 51 35 52 38 53 52 54 71 55 36 56
REMARK SMILES IDX 37 57 51 59 72 60 39 61 23 62 24 63 32 64 25 65 31 66 33 67
REMARK SMILES IDX 30 68 26 69 27 70 28 71 29 72 55 73 56 74 64 75 57 76 63 77
REMARK SMILES IDX 65 78 62 79 58 80 59 81 60 82 61 83 40 84 41 85 49 86 42 87
REMARK SMILES IDX 48 88 50 89 47 90 43 91 44 92 45 93 46 94
REMARK H PARENT 6 7 11 28 70 47 38 58
REMARK Flexibility Score: inf
ROOT
ATOM      1  C   UNL A   1      35.481  21.554  24.791  1.00  0.00     0.023 C 
ENDROOT
BRANCH   1   2
ATOM      2  C   UNL A   1      34.630  21.198  25.992  1.00  0.00     0.023 C 
BRANCH   2   3
ATOM      3  C   UNL A   1      33.119  21.074  25.761  1.00  0.00     0.116 C 
BRANCH   3   4
ATOM      4  N   UNL A   1      32.352  22.018  26.561  1.00  0.00    -0.356 N 
ATOM      5  C   UNL A   1      32.251  23.370  26.606  1.00  0.00     0.224 C 
ATOM      6  O   UNL A   1      31.488  23.818  27.472  1.00  0.00    -0.275 OA
ATOM      7  H   UNL A   1      31.772  21.574  27.220  1.00  0.00     0.163 HD
BRANCH   5   8
ATOM      8  C   UNL A   1      33.001  24.374  25.728  1.00  0.00     0.098 C 
ATOM      9  C   UNL A   1      31.640  23.708  23.681  1.00  0.00     0.026 C 
ATOM     10  C   UNL A   1      32.966  24.188  24.197  1.00  0.00     0.082 C 
ATOM     11  N   UNL A   1      33.439  25.502  23.622  1.00  0.00    -0.194 NA
ATOM     12  C   UNL A   1      32.774  25.853  25.929  1.00  0.00     0.032 C 
ATOM     13  C   UNL A   1      33.584  26.454  24.787  1.00  0.00     0.104 C 
BRANCH  11  14
ATOM     14  S   UNL A   1      32.744  26.280  22.275  1.00  0.00     0.243 S 
ATOM     15  O   UNL A   1      33.714  27.243  21.797  1.00  0.00    -0.207 OA
ATOM     16  O   UNL A   1      32.270  25.227  21.399  1.00  0.00    -0.207 OA
BRANCH  14  17
ATOM     17  C   UNL A   1      31.291  27.209  22.719  1.00  0.00     0.084 A 
ATOM     18  C   UNL A   1      30.293  26.487  23.398  1.00  0.00     0.025 A 
ATOM     19  C   UNL A   1      31.054  28.528  22.335  1.00  0.00     0.045 A 
ATOM     20  C   UNL A   1      29.037  27.053  23.613  1.00  0.00     0.042 A 
ATOM     21  C   UNL A   1      29.769  29.060  22.486  1.00  0.00     0.078 A 
ATOM     22  C   UNL A   1      28.769  28.324  23.121  1.00  0.00     0.141 A 
ATOM     23  Cl  UNL A   1      29.416  30.605  21.810  1.00  0.00    -0.081 Cl
ATOM     24  F   UNL A   1      27.532  28.822  23.260  1.00  0.00    -0.205 F 
ENDBRANCH  14  17
ENDBRANCH  11  14
ENDBRANCH   5   8
ENDBRANCH   3   4
ENDBRANCH   2   3
ENDBRANCH   1   2
BRANCH   1  25
ATOM     25  C   UNL A   1      36.915  21.900  25.121  1.00  0.00     0.116 C 
BRANCH  25  26
ATOM     26  N   UNL A   1      37.786  20.746  25.294  1.00  0.00    -0.352 N 
ATOM     27  C   UNL A   1      39.025  20.696  25.906  1.00  0.00     0.251 C 
ATOM     28  H   UNL A   1      37.451  19.893  24.932  1.00  0.00     0.163 HD
ATOM     29  O   UNL A   1      39.676  19.671  25.919  1.00  0.00    -0.269 OA
BRANCH  27  30
ATOM     30  C   UNL A   1      39.553  21.950  26.488  1.00  0.00     0.039 A 
ATOM     31  C   UNL A   1      40.674  21.895  27.317  1.00  0.00     0.014 A 
ATOM     32  C   UNL A   1      39.021  23.176  26.087  1.00  0.00     0.014 A 
ATOM     33  C   UNL A   1      41.316  23.082  27.673  1.00  0.00     0.010 A 
ATOM     34  C   UNL A   1      39.735  24.337  26.332  1.00  0.00     0.010 A 
ATOM     35  C   UNL A   1      40.881  24.307  27.142  1.00  0.00    -0.014 A 
BRANCH  35  36
ATOM     36  C   UNL A   1      41.559  25.588  27.457  1.00  0.00     0.031 A 
ATOM     37  C   UNL A   1      40.824  26.617  28.276  1.00  0.00     0.074 A 
ATOM     38  C   UNL A   1      42.774  25.863  26.941  1.00  0.00     0.049 A 
ATOM     39  N   UNL A   1      41.148  27.853  28.544  1.00  0.00    -0.248 NA
ATOM     40  C   UNL A   1      39.514  26.211  28.809  1.00  0.00     0.031 C 
ATOM     41  C   UNL A   1      43.554  24.971  26.079  1.00  0.00     0.029 A 
ATOM     42  N   UNL A   1      43.560  26.979  27.058  1.00  0.00    -0.354 N 
ATOM     43  C   UNL A   1      40.064  28.382  29.238  1.00  0.00     0.074 A 
ATOM     44  C   UNL A   1      39.044  27.357  29.269  1.00  0.00     0.031 C 
ATOM     45  C   UNL A   1      44.723  25.562  25.777  1.00  0.00     0.029 A 
ATOM     46  C   UNL A   1      44.758  26.887  26.388  1.00  0.00     0.049 A 
ATOM     47  H   UNL A   1      43.294  27.774  27.575  1.00  0.00     0.167 HD
ATOM     48  C   UNL A   1      39.944  29.596  29.829  1.00  0.00     0.034 A 
ATOM     49  C   UNL A   1      45.767  27.774  26.281  1.00  0.00     0.034 A 
ATOM     50  C   UNL A   1      40.996  30.580  29.831  1.00  0.00     0.049 A 
ATOM     51  C   UNL A   1      45.639  29.098  26.990  1.00  0.00     0.074 A 
ATOM     52  C   UNL A   1      41.023  31.820  30.443  1.00  0.00     0.029 A 
ATOM     53  N   UNL A   1      42.222  30.424  29.194  1.00  0.00    -0.354 N 
ATOM     54  N   UNL A   1      44.625  29.572  27.678  1.00  0.00    -0.248 NA
ATOM     55  C   UNL A   1      46.795  29.999  26.922  1.00  0.00     0.031 C 
ATOM     56  C   UNL A   1      42.246  32.429  30.144  1.00  0.00     0.029 A 
ATOM     57  C   UNL A   1      43.008  31.546  29.393  1.00  0.00     0.049 A 
ATOM     58  H   UNL A   1      42.493  29.632  28.677  1.00  0.00     0.167 HD
ATOM     59  C   UNL A   1      45.036  30.814  28.152  1.00  0.00     0.074 A 
ATOM     60  C   UNL A   1      46.392  31.008  27.680  1.00  0.00     0.031 C 
ATOM     61  C   UNL A   1      44.359  31.713  28.912  1.00  0.00     0.034 A 
BRANCH  48  62
ATOM     62  C   UNL A   1      38.627  29.907  30.500  1.00  0.00     0.023 A 
ATOM     63  C   UNL A   1      37.595  30.578  29.820  1.00  0.00     0.031 A 
ATOM     64  C   UNL A   1      38.427  29.603  31.857  1.00  0.00     0.131 A 
ATOM     65  C   UNL A   1      36.464  31.020  30.520  1.00  0.00     0.055 A 
ATOM     66  C   UNL A   1      37.253  29.958  32.526  1.00  0.00     0.041 A 
ATOM     67  F   UNL A   1      39.381  28.982  32.568  1.00  0.00    -0.206 F 
ATOM     68  C   UNL A   1      36.271  30.691  31.863  1.00  0.00     0.022 A 
BRANCH  65  69
ATOM     69  S   UNL A   1      35.340  32.182  29.697  1.00  0.00     0.124 S 
ATOM     70  O   UNL A   1      36.254  33.264  29.333  1.00  0.00    -0.237 OA
ATOM     71  O   UNL A   1      34.818  31.389  28.592  1.00  0.00    -0.237 OA
ATOM     72  O   UNL A   1      34.372  32.519  30.739  1.00  0.00    -0.744 OA
ENDBRANCH  65  69
ENDBRANCH  48  62
BRANCH  49  73
ATOM     73  C   UNL A   1      46.991  27.440  25.500  1.00  0.00     0.023 A 
ATOM     74  C   UNL A   1      47.104  27.805  24.149  1.00  0.00     0.031 A 
ATOM     75  C   UNL A   1      48.053  26.727  26.083  1.00  0.00     0.131 A 
ATOM     76  C   UNL A   1      48.232  27.417  23.411  1.00  0.00     0.055 A 
ATOM     77  C   UNL A   1      49.193  26.381  25.355  1.00  0.00     0.041 A 
ATOM     78  F   UNL A   1      48.001  26.365  27.374  1.00  0.00    -0.206 F 
ATOM     79  C   UNL A   1      49.282  26.716  24.007  1.00  0.00     0.022 A 
BRANCH  76  80
ATOM     80  S   UNL A   1      48.276  27.786  21.635  1.00  0.00     0.124 S 
ATOM     81  O   UNL A   1      48.554  26.474  21.065  1.00  0.00    -0.237 OA
ATOM     82  O   UNL A   1      46.937  28.317  21.404  1.00  0.00    -0.237 OA
ATOM     83  O   UNL A   1      49.359  28.762  21.518  1.00  0.00    -0.744 OA
ENDBRANCH  76  80
ENDBRANCH  49  73
BRANCH  61  84
ATOM     84  C   UNL A   1      45.105  32.955  29.322  1.00  0.00     0.023 A 
ATOM     85  C   UNL A   1      45.073  34.125  28.546  1.00  0.00     0.031 A 
ATOM     86  C   UNL A   1      45.863  32.960  30.506  1.00  0.00     0.131 A 
ATOM     87  C   UNL A   1      45.830  35.239  28.936  1.00  0.00     0.055 A 
ATOM     88  C   UNL A   1      46.573  34.089  30.916  1.00  0.00     0.041 A 
ATOM     89  F   UNL A   1      45.925  31.866  31.282  1.00  0.00    -0.206 F 
ATOM     90  C   UNL A   1      46.568  35.234  30.123  1.00  0.00     0.022 A 
BRANCH  87  91
ATOM     91  S   UNL A   1      45.904  36.672  27.827  1.00  0.00     0.124 S 
ATOM     92  O   UNL A   1      45.547  37.768  28.722  1.00  0.00    -0.237 OA
ATOM     93  O   UNL A   1      47.292  36.644  27.375  1.00  0.00    -0.237 OA
ATOM     94  O   UNL A   1      44.913  36.362  26.799  1.00  0.00    -0.744 OA
ENDBRANCH  87  91
ENDBRANCH  61  84
ENDBRANCH  35  36
ENDBRANCH  27  30
ENDBRANCH  25  26
ENDBRANCH   1  25
TORSDOF 16
ENDMDL
MODEL 3
REMARK VINA RESULT:     -12.6      2.504      3.046
REMARK SMILES C[C@@H]1[C@H](C(=O)NCCCCNC(=O)c2ccc(-c3c4nc(c(-c5cc(S(=O)(=O)[O-])ccc5F)c5ccc([nH]5)c(-c5cc(S(=O)(=O)[O-])ccc5F)c5nc(c(-c6cc(S(=O)(=O)[O-])ccc6F)c6ccc3[nH]6)C=C5)C=C4)cc2)CCN1S(=O)(=O)c1ccc(F)c(Cl)c1
REMARK SMILES IDX 9 1 8 2 7 3 6 4 4 5 5 6 3 8 1 9 2 10 79 11 77 12 78 13 80 14
REMARK SMILES IDX 81 15 82 16 83 17 84 18 90 19 85 20 88 21 86 22 89 23 87 24
REMARK SMILES IDX 10 25 11 26 12 27 13 29 14 30 15 31 76 32 16 33 75 34 17 35
REMARK SMILES IDX 18 36 19 37 69 38 20 39 74 40 68 41 70 42 21 43 73 44 67 45
REMARK SMILES IDX 66 46 22 48 54 49 34 50 53 51 35 52 38 53 52 54 71 55 36 56
REMARK SMILES IDX 37 57 51 59 72 60 39 61 23 62 24 63 32 64 25 65 31 66 33 67
REMARK SMILES IDX 30 68 26 69 27 70 28 71 29 72 55 73 56 74 64 75 57 76 63 77
REMARK SMILES IDX 65 78 62 79 58 80 59 81 60 82 61 83 40 84 41 85 49 86 42 87
REMARK SMILES IDX 48 88 50 89 47 90 43 91 44 92 45 93 46 94
REMARK H PARENT 6 7 11 28 70 47 38 58
REMARK Flexibility Score: inf
ROOT
ATOM      1  C   UNL A   1      36.065  23.071  25.795  1.00  0.00     0.023 C 
ENDROOT
BRANCH   1   2
ATOM      2  C   UNL A   1      35.585  21.679  26.146  1.00  0.00     0.023 C 
BRANCH   2   3
ATOM      3  C   UNL A   1      35.313  20.721  24.980  1.00  0.00     0.116 C 
BRANCH   3   4
ATOM      4  N   UNL A   1      34.163  19.861  25.219  1.00  0.00    -0.356 N 
ATOM      5  C   UNL A   1      32.822  19.992  25.058  1.00  0.00     0.224 C 
ATOM      6  O   UNL A   1      32.146  19.017  25.415  1.00  0.00    -0.275 OA
ATOM      7  H   UNL A   1      34.416  18.981  25.580  1.00  0.00     0.163 HD
BRANCH   5   8
ATOM      8  C   UNL A   1      32.080  21.217  24.520  1.00  0.00     0.098 C 
ATOM      9  C   UNL A   1      32.269  22.404  26.766  1.00  0.00     0.026 C 
ATOM     10  C   UNL A   1      31.444  22.196  25.528  1.00  0.00     0.082 C 
ATOM     11  N   UNL A   1      31.150  23.450  24.738  1.00  0.00    -0.194 NA
ATOM     12  C   UNL A   1      32.756  22.110  23.508  1.00  0.00     0.032 C 
ATOM     13  C   UNL A   1      31.747  23.242  23.365  1.00  0.00     0.104 C 
BRANCH  11  14
ATOM     14  S   UNL A   1      31.423  25.037  25.295  1.00  0.00     0.243 S 
ATOM     15  O   UNL A   1      30.604  25.217  26.475  1.00  0.00    -0.207 OA
ATOM     16  O   UNL A   1      32.861  25.197  25.373  1.00  0.00    -0.207 OA
BRANCH  14  17
ATOM     17  C   UNL A   1      30.880  26.257  24.117  1.00  0.00     0.084 A 
ATOM     18  C   UNL A   1      31.903  26.962  23.458  1.00  0.00     0.025 A 
ATOM     19  C   UNL A   1      29.548  26.617  23.916  1.00  0.00     0.045 A 
ATOM     20  C   UNL A   1      31.600  28.074  22.672  1.00  0.00     0.042 A 
ATOM     21  C   UNL A   1      29.259  27.776  23.189  1.00  0.00     0.078 A 
ATOM     22  C   UNL A   1      30.280  28.498  22.573  1.00  0.00     0.141 A 
ATOM     23  Cl  UNL A   1      27.633  28.345  23.128  1.00  0.00    -0.081 Cl
ATOM     24  F   UNL A   1      30.013  29.617  21.884  1.00  0.00    -0.205 F 
ENDBRANCH  14  17
ENDBRANCH  11  14
ENDBRANCH   5   8
ENDBRANCH   3   4
ENDBRANCH   2   3
ENDBRANCH   1   2
BRANCH   1  25
ATOM     25  C   UNL A   1      37.368  23.110  25.031  1.00  0.00     0.116 C 
BRANCH  25  26
ATOM     26  N   UNL A   1      38.404  22.239  25.570  1.00  0.00    -0.352 N 
ATOM     27  C   UNL A   1      39.465  22.581  26.389  1.00  0.00     0.251 C 
ATOM     28  H   UNL A   1      38.342  21.288  25.321  1.00  0.00     0.163 HD
ATOM     29  O   UNL A   1      40.298  21.757  26.709  1.00  0.00    -0.269 OA
BRANCH  27  30
ATOM     30  C   UNL A   1      39.579  23.995  26.808  1.00  0.00     0.039 A 
ATOM     31  C   UNL A   1      39.282  24.338  28.127  1.00  0.00     0.014 A 
ATOM     32  C   UNL A   1      40.119  24.935  25.929  1.00  0.00     0.014 A 
ATOM     33  C   UNL A   1      39.614  25.613  28.590  1.00  0.00     0.010 A 
ATOM     34  C   UNL A   1      40.566  26.148  26.426  1.00  0.00     0.010 A 
ATOM     35  C   UNL A   1      40.304  26.509  27.757  1.00  0.00    -0.014 A 
BRANCH  35  36
ATOM     36  C   UNL A   1      40.715  27.857  28.220  1.00  0.00     0.031 A 
ATOM     37  C   UNL A   1      42.184  28.176  28.313  1.00  0.00     0.074 A 
ATOM     38  C   UNL A   1      39.793  28.746  28.639  1.00  0.00     0.049 A 
ATOM     39  N   UNL A   1      42.778  29.219  28.829  1.00  0.00    -0.248 NA
ATOM     40  C   UNL A   1      43.108  27.147  27.811  1.00  0.00     0.031 C 
ATOM     41  C   UNL A   1      38.344  28.524  28.659  1.00  0.00     0.029 A 
ATOM     42  N   UNL A   1      39.939  30.013  29.141  1.00  0.00    -0.354 N 
ATOM     43  C   UNL A   1      44.141  28.949  28.753  1.00  0.00     0.074 A 
ATOM     44  C   UNL A   1      44.275  27.610  28.222  1.00  0.00     0.031 C 
ATOM     45  C   UNL A   1      37.735  29.632  29.113  1.00  0.00     0.029 A 
ATOM     46  C   UNL A   1      38.748  30.626  29.454  1.00  0.00     0.049 A 
ATOM     47  H   UNL A   1      40.815  30.445  29.265  1.00  0.00     0.167 HD
ATOM     48  C   UNL A   1      45.185  29.756  29.060  1.00  0.00     0.034 A 
ATOM     49  C   UNL A   1      38.506  31.852  29.960  1.00  0.00     0.034 A 
ATOM     50  C   UNL A   1      45.026  31.106  29.536  1.00  0.00     0.049 A 
ATOM     51  C   UNL A   1      39.678  32.756  30.245  1.00  0.00     0.074 A 
ATOM     52  C   UNL A   1      45.999  32.045  29.824  1.00  0.00     0.029 A 
ATOM     53  N   UNL A   1      43.800  31.716  29.780  1.00  0.00    -0.354 N 
ATOM     54  N   UNL A   1      40.963  32.505  30.131  1.00  0.00    -0.248 NA
ATOM     55  C   UNL A   1      39.369  34.113  30.712  1.00  0.00     0.031 C 
ATOM     56  C   UNL A   1      45.366  33.206  30.282  1.00  0.00     0.029 A 
ATOM     57  C   UNL A   1      43.994  33.014  30.222  1.00  0.00     0.049 A 
ATOM     58  H   UNL A   1      42.923  31.287  29.658  1.00  0.00     0.167 HD
ATOM     59  C   UNL A   1      41.612  33.685  30.480  1.00  0.00     0.074 A 
ATOM     60  C   UNL A   1      40.577  34.648  30.798  1.00  0.00     0.031 C 
ATOM     61  C   UNL A   1      42.943  33.953  30.530  1.00  0.00     0.034 A 
BRANCH  48  62
ATOM     62  C   UNL A   1      46.572  29.180  28.896  1.00  0.00     0.023 A 
ATOM     63  C   UNL A   1      47.188  29.093  27.634  1.00  0.00     0.031 A 
ATOM     64  C   UNL A   1      47.257  28.639  29.997  1.00  0.00     0.131 A 
ATOM     65  C   UNL A   1      48.389  28.385  27.486  1.00  0.00     0.055 A 
ATOM     66  C   UNL A   1      48.503  28.021  29.859  1.00  0.00     0.041 A 
ATOM     67  F   UNL A   1      46.714  28.672  31.224  1.00  0.00    -0.206 F 
ATOM     68  C   UNL A   1      49.066  27.871  28.594  1.00  0.00     0.022 A 
BRANCH  65  69
ATOM     69  S   UNL A   1      48.956  27.990  25.809  1.00  0.00     0.124 S 
ATOM     70  O   UNL A   1      50.078  28.913  25.654  1.00  0.00    -0.237 OA
ATOM     71  O   UNL A   1      49.301  26.578  25.916  1.00  0.00    -0.237 OA
ATOM     72  O   UNL A   1      47.793  28.288  24.976  1.00  0.00    -0.744 OA
ENDBRANCH  65  69
ENDBRANCH  48  62
BRANCH  49  73
ATOM     73  C   UNL A   1      37.110  32.309  30.207  1.00  0.00     0.023 A 
ATOM     74  C   UNL A   1      36.372  32.946  29.196  1.00  0.00     0.031 A 
ATOM     75  C   UNL A   1      36.503  32.144  31.463  1.00  0.00     0.131 A 
ATOM     76  C   UNL A   1      35.086  33.436  29.469  1.00  0.00     0.055 A 
ATOM     77  C   UNL A   1      35.206  32.595  31.718  1.00  0.00     0.041 A 
ATOM     78  F   UNL A   1      37.160  31.532  32.460  1.00  0.00    -0.206 F 
ATOM     79  C   UNL A   1      34.494  33.256  30.721  1.00  0.00     0.022 A 
BRANCH  76  80
ATOM     80  S   UNL A   1      34.223  34.375  28.180  1.00  0.00     0.124 S 
ATOM     81  O   UNL A   1      35.225  34.419  27.122  1.00  0.00    -0.237 OA
ATOM     82  O   UNL A   1      33.057  33.536  27.925  1.00  0.00    -0.237 OA
ATOM     83  O   UNL A   1      33.937  35.655  28.826  1.00  0.00    -0.744 OA
ENDBRANCH  76  80
ENDBRANCH  49  73
BRANCH  61  84
ATOM     84  C   UNL A   1      43.338  35.362  30.888  1.00  0.00     0.023 A 
ATOM     85  C   UNL A   1      43.482  35.772  32.223  1.00  0.00     0.031 A 
ATOM     86  C   UNL A   1      43.570  36.306  29.872  1.00  0.00     0.131 A 
ATOM     87  C   UNL A   1      43.795  37.108  32.511  1.00  0.00     0.055 A 
ATOM     88  C   UNL A   1      43.933  37.620  30.162  1.00  0.00     0.041 A 
ATOM     89  F   UNL A   1      43.446  35.962  28.579  1.00  0.00    -0.206 F 
ATOM     90  C   UNL A   1      44.036  38.031  31.489  1.00  0.00     0.022 A 
BRANCH  87  91
ATOM     91  S   UNL A   1      43.804  37.647  34.243  1.00  0.00     0.124 S 
ATOM     92  O   UNL A   1      45.161  38.161  34.393  1.00  0.00    -0.237 OA
ATOM     93  O   UNL A   1      42.738  38.643  34.264  1.00  0.00    -0.237 OA
ATOM     94  O   UNL A   1      43.520  36.420  34.984  1.00  0.00    -0.744 OA
ENDBRANCH  87  91
ENDBRANCH  61  84
ENDBRANCH  35  36
ENDBRANCH  27  30
ENDBRANCH  25  26
ENDBRANCH   1  25
TORSDOF 16
ENDMDL
