MODEL 1
REMARK VINA RESULT:     -11.4      0.000      0.000
REMARK SMILES COCc1cccc(O[C@@H](C)c2ccc(C(=O)NCCCCNC(=O)c3ccc(-c4c5nc(c(-c6cc(S(=O)(=O)[O-])ccc6F)c6ccc([nH]6)c(-c6cc(S(=O)(=O)[O-])ccc6F)c6nc(c(-c7cc(S(=O)(=O)[O-])ccc7F)c7ccc4[nH]7)C=C6)C=C5)cc3)o2)c1
REMARK SMILES IDX 19 1 18 2 16 3 17 4 15 6 12 7 13 8 89 9 14 10 10 11 11 12
REMARK SMILES IDX 9 13 8 14 4 15 5 16 90 17 6 18 7 19 3 20 2 21 1 22 20 23
REMARK SMILES IDX 21 24 22 25 23 26 24 27 25 29 26 30 27 31 88 32 28 33 87 34
REMARK SMILES IDX 29 35 30 36 31 37 81 38 32 39 86 40 80 41 82 42 33 43 85 44
REMARK SMILES IDX 79 45 78 46 34 48 66 49 46 50 65 51 47 52 50 53 64 54 83 55
REMARK SMILES IDX 48 56 49 57 63 59 84 60 51 61 35 62 36 63 44 64 37 65 43 66
REMARK SMILES IDX 45 67 42 68 38 69 39 70 40 71 41 72 67 73 68 74 76 75 69 76
REMARK SMILES IDX 75 77 77 78 74 79 70 80 71 81 72 82 73 83 52 84 53 85 61 86
REMARK SMILES IDX 54 87 60 88 62 89 59 90 55 91 56 92 57 93 58 94
REMARK H PARENT 18 5 23 28 82 47 50 58
REMARK Flexibility Score: inf
ROOT
ATOM      1  C   UNL A   1      31.611  29.788  25.228  1.00  0.00     0.116 C 
ENDROOT
BRANCH   1   2
ATOM      2  N   UNL A   1      31.039  29.774  23.895  1.00  0.00    -0.349 N 
ATOM      3  C   UNL A   1      31.038  28.763  22.956  1.00  0.00     0.286 C 
ATOM      4  O   UNL A   1      30.220  28.866  22.036  1.00  0.00    -0.266 OA
ATOM      5  H   UNL A   1      30.585  30.605  23.621  1.00  0.00     0.163 HD
BRANCH   3   6
ATOM      6  C   UNL A   1      31.974  27.657  23.053  1.00  0.00     0.191 A 
ATOM      7  C   UNL A   1      32.643  25.658  23.790  1.00  0.00     0.145 A 
ATOM      8  C   UNL A   1      33.515  26.042  22.793  1.00  0.00     0.050 A 
ATOM      9  O   UNL A   1      31.689  26.635  23.932  1.00  0.00    -0.452 OA
ATOM     10  C   UNL A   1      33.128  27.328  22.370  1.00  0.00     0.057 A 
BRANCH   7  11
ATOM     11  C   UNL A   1      32.474  24.440  24.661  1.00  0.00     0.236 C 
ATOM     12  C   UNL A   1      32.408  24.731  26.157  1.00  0.00     0.062 C 
BRANCH  11  13
ATOM     13  O   UNL A   1      33.379  23.344  24.370  1.00  0.00    -0.483 OA
BRANCH  13  14
ATOM     14  C   UNL A   1      32.923  22.115  23.992  1.00  0.00     0.120 A 
ATOM     15  C   UNL A   1      32.894  19.685  24.079  1.00  0.00    -0.019 A 
ATOM     16  C   UNL A   1      32.261  19.667  22.826  1.00  0.00     0.006 A 
ATOM     17  C   UNL A   1      33.166  20.925  24.675  1.00  0.00     0.052 A 
ATOM     18  C   UNL A   1      31.911  20.859  22.189  1.00  0.00     0.004 A 
ATOM     19  C   UNL A   1      32.247  22.080  22.771  1.00  0.00     0.046 A 
BRANCH  15  20
ATOM     20  C   UNL A   1      33.389  18.385  24.675  1.00  0.00     0.195 C 
BRANCH  20  21
ATOM     21  O   UNL A   1      32.371  17.401  24.860  1.00  0.00    -0.380 OA
ATOM     22  C   UNL A   1      32.740  16.359  25.757  1.00  0.00     0.195 C 
ENDBRANCH  20  21
ENDBRANCH  15  20
ENDBRANCH  13  14
ENDBRANCH  11  13
ENDBRANCH   7  11
ENDBRANCH   3   6
ENDBRANCH   1   2
BRANCH   1  23
ATOM     23  C   UNL A   1      31.351  31.090  25.988  1.00  0.00     0.023 C 
BRANCH  23  24
ATOM     24  C   UNL A   1      32.157  31.294  27.270  1.00  0.00     0.023 C 
BRANCH  24  25
ATOM     25  C   UNL A   1      33.226  32.379  27.223  1.00  0.00     0.116 C 
BRANCH  25  26
ATOM     26  N   UNL A   1      32.737  33.705  27.565  1.00  0.00    -0.352 N 
ATOM     27  C   UNL A   1      33.189  34.555  28.551  1.00  0.00     0.251 C 
ATOM     28  H   UNL A   1      31.987  34.039  27.023  1.00  0.00     0.163 HD
ATOM     29  O   UNL A   1      32.604  35.616  28.755  1.00  0.00    -0.269 OA
BRANCH  27  30
ATOM     30  C   UNL A   1      34.341  34.158  29.391  1.00  0.00     0.039 A 
ATOM     31  C   UNL A   1      34.119  33.315  30.484  1.00  0.00     0.014 A 
ATOM     32  C   UNL A   1      35.637  34.574  29.079  1.00  0.00     0.014 A 
ATOM     33  C   UNL A   1      35.206  32.822  31.211  1.00  0.00     0.010 A 
ATOM     34  C   UNL A   1      36.723  34.031  29.762  1.00  0.00     0.010 A 
ATOM     35  C   UNL A   1      36.519  33.140  30.827  1.00  0.00    -0.014 A 
BRANCH  35  36
ATOM     36  C   UNL A   1      37.695  32.544  31.513  1.00  0.00     0.031 A 
ATOM     37  C   UNL A   1      38.433  31.398  30.880  1.00  0.00     0.074 A 
ATOM     38  C   UNL A   1      38.040  32.979  32.741  1.00  0.00     0.049 A 
ATOM     39  N   UNL A   1      39.403  30.668  31.366  1.00  0.00    -0.248 NA
ATOM     40  C   UNL A   1      37.997  31.002  29.532  1.00  0.00     0.031 C 
ATOM     41  C   UNL A   1      37.373  34.055  33.478  1.00  0.00     0.029 A 
ATOM     42  N   UNL A   1      39.030  32.560  33.594  1.00  0.00    -0.354 N 
ATOM     43  C   UNL A   1      39.684  29.715  30.394  1.00  0.00     0.074 A 
ATOM     44  C   UNL A   1      38.745  29.930  29.313  1.00  0.00     0.031 C 
ATOM     45  C   UNL A   1      37.978  34.217  34.666  1.00  0.00     0.029 A 
ATOM     46  C   UNL A   1      39.050  33.235  34.793  1.00  0.00     0.049 A 
ATOM     47  H   UNL A   1      39.666  31.843  33.370  1.00  0.00     0.167 HD
ATOM     48  C   UNL A   1      40.648  28.760  30.395  1.00  0.00     0.034 A 
ATOM     49  C   UNL A   1      39.833  33.072  35.877  1.00  0.00     0.034 A 
ATOM     50  C   UNL A   1      41.589  28.568  31.471  1.00  0.00     0.049 A 
ATOM     51  C   UNL A   1      40.900  32.006  35.853  1.00  0.00     0.074 A 
ATOM     52  C   UNL A   1      42.635  27.665  31.552  1.00  0.00     0.029 A 
ATOM     53  N   UNL A   1      41.599  29.293  32.656  1.00  0.00    -0.354 N 
ATOM     54  N   UNL A   1      41.177  31.138  34.908  1.00  0.00    -0.248 NA
ATOM     55  C   UNL A   1      41.765  31.909  37.036  1.00  0.00     0.031 C 
ATOM     56  C   UNL A   1      43.247  27.810  32.804  1.00  0.00     0.029 A 
ATOM     57  C   UNL A   1      42.621  28.845  33.480  1.00  0.00     0.049 A 
ATOM     58  H   UNL A   1      40.972  30.019  32.878  1.00  0.00     0.167 HD
ATOM     59  C   UNL A   1      42.268  30.410  35.373  1.00  0.00     0.074 A 
ATOM     60  C   UNL A   1      42.604  30.948  36.675  1.00  0.00     0.031 C 
ATOM     61  C   UNL A   1      42.937  29.391  34.778  1.00  0.00     0.034 A 
BRANCH  48  62
ATOM     62  C   UNL A   1      40.710  27.842  29.200  1.00  0.00     0.023 A 
ATOM     63  C   UNL A   1      41.645  28.039  28.169  1.00  0.00     0.031 A 
ATOM     64  C   UNL A   1      39.804  26.774  29.073  1.00  0.00     0.131 A 
ATOM     65  C   UNL A   1      41.606  27.230  27.024  1.00  0.00     0.055 A 
ATOM     66  C   UNL A   1      39.821  25.923  27.965  1.00  0.00     0.041 A 
ATOM     67  F   UNL A   1      38.877  26.548  30.017  1.00  0.00    -0.206 F 
ATOM     68  C   UNL A   1      40.716  26.159  26.925  1.00  0.00     0.022 A 
BRANCH  65  69
ATOM     69  S   UNL A   1      42.645  27.683  25.609  1.00  0.00     0.124 S 
ATOM     70  O   UNL A   1      42.579  26.471  24.796  1.00  0.00    -0.237 OA
ATOM     71  O   UNL A   1      41.956  28.851  25.072  1.00  0.00    -0.237 OA
ATOM     72  O   UNL A   1      43.949  27.950  26.213  1.00  0.00    -0.744 OA
ENDBRANCH  65  69
ENDBRANCH  48  62
BRANCH  49  73
ATOM     73  C   UNL A   1      39.642  33.923  37.085  1.00  0.00     0.023 A 
ATOM     74  C   UNL A   1      38.993  33.421  38.224  1.00  0.00     0.031 A 
ATOM     75  C   UNL A   1      40.065  35.263  37.100  1.00  0.00     0.131 A 
ATOM     76  C   UNL A   1      38.739  34.269  39.313  1.00  0.00     0.055 A 
ATOM     77  C   UNL A   1      39.852  36.089  38.204  1.00  0.00     0.041 A 
ATOM     78  F   UNL A   1      40.699  35.786  36.039  1.00  0.00    -0.206 F 
ATOM     79  C   UNL A   1      39.173  35.597  39.315  1.00  0.00     0.022 A 
BRANCH  76  80
ATOM     80  S   UNL A   1      37.759  33.630  40.699  1.00  0.00     0.124 S 
ATOM     81  O   UNL A   1      36.624  33.028  40.009  1.00  0.00    -0.237 OA
ATOM     82  O   UNL A   1      38.694  32.702  41.327  1.00  0.00    -0.237 OA
ATOM     83  O   UNL A   1      37.453  34.827  41.479  1.00  0.00    -0.744 OA
ENDBRANCH  76  80
ENDBRANCH  49  73
BRANCH  61  84
ATOM     84  C   UNL A   1      44.126  28.834  35.514  1.00  0.00     0.023 A 
ATOM     85  C   UNL A   1      44.002  27.763  36.415  1.00  0.00     0.031 A 
ATOM     86  C   UNL A   1      45.400  29.398  35.323  1.00  0.00     0.131 A 
ATOM     87  C   UNL A   1      45.124  27.320  37.131  1.00  0.00     0.055 A 
ATOM     88  C   UNL A   1      46.522  28.920  36.000  1.00  0.00     0.041 A 
ATOM     89  F   UNL A   1      45.572  30.424  34.475  1.00  0.00    -0.206 F 
ATOM     90  C   UNL A   1      46.386  27.884  36.919  1.00  0.00     0.022 A 
BRANCH  87  91
ATOM     91  S   UNL A   1      44.901  26.044  38.400  1.00  0.00     0.124 S 
ATOM     92  O   UNL A   1      46.251  25.505  38.531  1.00  0.00    -0.237 OA
ATOM     93  O   UNL A   1      44.410  26.816  39.537  1.00  0.00    -0.237 OA
ATOM     94  O   UNL A   1      43.924  25.134  37.804  1.00  0.00    -0.744 OA
ENDBRANCH  87  91
ENDBRANCH  61  84
ENDBRANCH  35  36
ENDBRANCH  27  30
ENDBRANCH  25  26
ENDBRANCH  24  25
ENDBRANCH  23  24
ENDBRANCH   1  23
TORSDOF 19
ENDMDL
MODEL 2
REMARK VINA RESULT:     -11.4      3.526      8.695
REMARK SMILES COCc1cccc(O[C@@H](C)c2ccc(C(=O)NCCCCNC(=O)c3ccc(-c4c5nc(c(-c6cc(S(=O)(=O)[O-])ccc6F)c6ccc([nH]6)c(-c6cc(S(=O)(=O)[O-])ccc6F)c6nc(c(-c7cc(S(=O)(=O)[O-])ccc7F)c7ccc4[nH]7)C=C6)C=C5)cc3)o2)c1
REMARK SMILES IDX 19 1 18 2 16 3 17 4 15 6 12 7 13 8 89 9 14 10 10 11 11 12
REMARK SMILES IDX 9 13 8 14 4 15 5 16 90 17 6 18 7 19 3 20 2 21 1 22 20 23
REMARK SMILES IDX 21 24 22 25 23 26 24 27 25 29 26 30 27 31 88 32 28 33 87 34
REMARK SMILES IDX 29 35 30 36 31 37 81 38 32 39 86 40 80 41 82 42 33 43 85 44
REMARK SMILES IDX 79 45 78 46 34 48 66 49 46 50 65 51 47 52 50 53 64 54 83 55
REMARK SMILES IDX 48 56 49 57 63 59 84 60 51 61 35 62 36 63 44 64 37 65 43 66
REMARK SMILES IDX 45 67 42 68 38 69 39 70 40 71 41 72 67 73 68 74 76 75 69 76
REMARK SMILES IDX 75 77 77 78 74 79 70 80 71 81 72 82 73 83 52 84 53 85 61 86
REMARK SMILES IDX 54 87 60 88 62 89 59 90 55 91 56 92 57 93 58 94
REMARK H PARENT 18 5 23 28 82 47 50 58
REMARK Flexibility Score: inf
ROOT
ATOM      1  C   UNL A   1      33.255  28.932  23.249  1.00  0.00     0.116 C 
ENDROOT
BRANCH   1   2
ATOM      2  N   UNL A   1      32.105  29.255  22.425  1.00  0.00    -0.349 N 
ATOM      3  C   UNL A   1      30.863  28.655  22.386  1.00  0.00     0.286 C 
ATOM      4  O   UNL A   1      29.957  29.300  21.848  1.00  0.00    -0.266 OA
ATOM      5  H   UNL A   1      32.228  30.010  21.805  1.00  0.00     0.163 HD
BRANCH   3   6
ATOM      6  C   UNL A   1      30.662  27.326  22.935  1.00  0.00     0.191 A 
ATOM      7  C   UNL A   1      31.117  25.148  23.126  1.00  0.00     0.145 A 
ATOM      8  C   UNL A   1      30.253  25.478  24.149  1.00  0.00     0.050 A 
ATOM      9  O   UNL A   1      31.384  26.282  22.400  1.00  0.00    -0.452 OA
ATOM     10  C   UNL A   1      29.920  26.838  23.993  1.00  0.00     0.057 A 
BRANCH   7  11
ATOM     11  C   UNL A   1      31.848  23.902  22.696  1.00  0.00     0.236 C 
ATOM     12  C   UNL A   1      31.551  22.667  23.540  1.00  0.00     0.062 C 
BRANCH  11  13
ATOM     13  O   UNL A   1      33.272  24.068  22.476  1.00  0.00    -0.483 OA
BRANCH  13  14
ATOM     14  C   UNL A   1      34.178  23.918  23.485  1.00  0.00     0.120 A 
ATOM     15  C   UNL A   1      35.619  22.601  24.935  1.00  0.00    -0.019 A 
ATOM     16  C   UNL A   1      35.652  23.672  25.842  1.00  0.00     0.006 A 
ATOM     17  C   UNL A   1      34.921  22.764  23.730  1.00  0.00     0.052 A 
ATOM     18  C   UNL A   1      35.004  24.872  25.548  1.00  0.00     0.004 A 
ATOM     19  C   UNL A   1      34.264  24.991  24.373  1.00  0.00     0.046 A 
BRANCH  15  20
ATOM     20  C   UNL A   1      36.207  21.268  25.344  1.00  0.00     0.195 C 
BRANCH  20  21
ATOM     21  O   UNL A   1      37.549  21.059  24.899  1.00  0.00    -0.380 OA
ATOM     22  C   UNL A   1      37.953  19.695  24.922  1.00  0.00     0.195 C 
ENDBRANCH  20  21
ENDBRANCH  15  20
ENDBRANCH  13  14
ENDBRANCH  11  13
ENDBRANCH   7  11
ENDBRANCH   3   6
ENDBRANCH   1   2
BRANCH   1  23
ATOM     23  C   UNL A   1      33.126  29.421  24.692  1.00  0.00     0.023 C 
BRANCH  23  24
ATOM     24  C   UNL A   1      33.417  28.390  25.781  1.00  0.00     0.023 C 
BRANCH  24  25
ATOM     25  C   UNL A   1      33.202  28.853  27.217  1.00  0.00     0.116 C 
BRANCH  25  26
ATOM     26  N   UNL A   1      33.330  30.291  27.399  1.00  0.00    -0.352 N 
ATOM     27  C   UNL A   1      34.401  30.996  27.903  1.00  0.00     0.251 C 
ATOM     28  H   UNL A   1      32.553  30.829  27.127  1.00  0.00     0.163 HD
ATOM     29  O   UNL A   1      34.309  32.210  28.061  1.00  0.00    -0.269 OA
BRANCH  27  30
ATOM     30  C   UNL A   1      35.632  30.277  28.299  1.00  0.00     0.039 A 
ATOM     31  C   UNL A   1      36.714  30.253  27.413  1.00  0.00     0.014 A 
ATOM     32  C   UNL A   1      35.740  29.668  29.552  1.00  0.00     0.014 A 
ATOM     33  C   UNL A   1      37.929  29.696  27.817  1.00  0.00     0.010 A 
ATOM     34  C   UNL A   1      36.970  29.173  29.978  1.00  0.00     0.010 A 
ATOM     35  C   UNL A   1      38.080  29.192  29.119  1.00  0.00    -0.014 A 
BRANCH  35  36
ATOM     36  C   UNL A   1      39.390  28.692  29.612  1.00  0.00     0.031 A 
ATOM     37  C   UNL A   1      40.100  29.415  30.723  1.00  0.00     0.074 A 
ATOM     38  C   UNL A   1      39.975  27.644  29.002  1.00  0.00     0.049 A 
ATOM     39  N   UNL A   1      41.295  29.210  31.212  1.00  0.00    -0.248 NA
ATOM     40  C   UNL A   1      39.379  30.538  31.341  1.00  0.00     0.031 C 
ATOM     41  C   UNL A   1      39.406  26.887  27.884  1.00  0.00     0.029 A 
ATOM     42  N   UNL A   1      41.188  27.039  29.224  1.00  0.00    -0.354 N 
ATOM     43  C   UNL A   1      41.479  30.188  32.184  1.00  0.00     0.074 A 
ATOM     44  C   UNL A   1      40.290  31.015  32.176  1.00  0.00     0.031 C 
ATOM     45  C   UNL A   1      40.261  25.916  27.526  1.00  0.00     0.029 A 
ATOM     46  C   UNL A   1      41.456  26.002  28.360  1.00  0.00     0.049 A 
ATOM     47  H   UNL A   1      41.807  27.322  29.934  1.00  0.00     0.167 HD
ATOM     48  C   UNL A   1      42.533  30.368  33.018  1.00  0.00     0.034 A 
ATOM     49  C   UNL A   1      42.546  25.218  28.245  1.00  0.00     0.034 A 
ATOM     50  C   UNL A   1      43.704  29.525  33.029  1.00  0.00     0.049 A 
ATOM     51  C   UNL A   1      43.704  25.435  29.186  1.00  0.00     0.074 A 
ATOM     52  C   UNL A   1      44.806  29.589  33.864  1.00  0.00     0.029 A 
ATOM     53  N   UNL A   1      43.925  28.464  32.161  1.00  0.00    -0.354 N 
ATOM     54  N   UNL A   1      43.844  26.341  30.126  1.00  0.00    -0.248 NA
ATOM     55  C   UNL A   1      44.842  24.516  29.057  1.00  0.00     0.031 C 
ATOM     56  C   UNL A   1      45.714  28.597  33.471  1.00  0.00     0.029 A 
ATOM     57  C   UNL A   1      45.153  27.877  32.429  1.00  0.00     0.049 A 
ATOM     58  H   UNL A   1      43.302  28.171  31.458  1.00  0.00     0.167 HD
ATOM     59  C   UNL A   1      45.075  26.081  30.719  1.00  0.00     0.074 A 
ATOM     60  C   UNL A   1      45.631  24.929  30.039  1.00  0.00     0.031 C 
ATOM     61  C   UNL A   1      45.692  26.731  31.737  1.00  0.00     0.034 A 
BRANCH  48  62
ATOM     62  C   UNL A   1      42.467  31.536  33.970  1.00  0.00     0.023 A 
ATOM     63  C   UNL A   1      41.722  31.473  35.161  1.00  0.00     0.031 A 
ATOM     64  C   UNL A   1      43.132  32.738  33.672  1.00  0.00     0.131 A 
ATOM     65  C   UNL A   1      41.598  32.611  35.970  1.00  0.00     0.055 A 
ATOM     66  C   UNL A   1      43.068  33.845  34.522  1.00  0.00     0.041 A 
ATOM     67  F   UNL A   1      43.843  32.863  32.540  1.00  0.00    -0.206 F 
ATOM     68  C   UNL A   1      42.284  33.790  35.671  1.00  0.00     0.022 A 
BRANCH  65  69
ATOM     69  S   UNL A   1      40.418  32.569  37.347  1.00  0.00     0.124 S 
ATOM     70  O   UNL A   1      39.888  33.930  37.320  1.00  0.00    -0.237 OA
ATOM     71  O   UNL A   1      39.495  31.516  36.940  1.00  0.00    -0.237 OA
ATOM     72  O   UNL A   1      41.254  32.256  38.504  1.00  0.00    -0.744 OA
ENDBRANCH  65  69
ENDBRANCH  48  62
BRANCH  49  73
ATOM     73  C   UNL A   1      42.611  24.161  27.197  1.00  0.00     0.023 A 
ATOM     74  C   UNL A   1      42.026  22.902  27.406  1.00  0.00     0.031 A 
ATOM     75  C   UNL A   1      43.300  24.379  25.991  1.00  0.00     0.131 A 
ATOM     76  C   UNL A   1      42.182  21.891  26.445  1.00  0.00     0.055 A 
ATOM     77  C   UNL A   1      43.412  23.385  25.018  1.00  0.00     0.041 A 
ATOM     78  F   UNL A   1      43.868  25.570  25.740  1.00  0.00    -0.206 F 
ATOM     79  C   UNL A   1      42.863  22.127  25.249  1.00  0.00     0.022 A 
BRANCH  76  80
ATOM     80  S   UNL A   1      41.550  20.234  26.821  1.00  0.00     0.124 S 
ATOM     81  O   UNL A   1      42.606  19.697  27.670  1.00  0.00    -0.237 OA
ATOM     82  O   UNL A   1      40.285  20.537  27.484  1.00  0.00    -0.237 OA
ATOM     83  O   UNL A   1      41.427  19.611  25.505  1.00  0.00    -0.744 OA
ENDBRANCH  76  80
ENDBRANCH  49  73
BRANCH  61  84
ATOM     84  C   UNL A   1      47.012  26.174  32.201  1.00  0.00     0.023 A 
ATOM     85  C   UNL A   1      47.089  25.213  33.223  1.00  0.00     0.031 A 
ATOM     86  C   UNL A   1      48.210  26.627  31.622  1.00  0.00     0.131 A 
ATOM     87  C   UNL A   1      48.343  24.771  33.671  1.00  0.00     0.055 A 
ATOM     88  C   UNL A   1      49.452  26.146  32.037  1.00  0.00     0.041 A 
ATOM     89  F   UNL A   1      48.191  27.545  30.643  1.00  0.00    -0.206 F 
ATOM     90  C   UNL A   1      49.524  25.222  33.075  1.00  0.00     0.022 A 
BRANCH  87  91
ATOM     91  S   UNL A   1      48.415  23.651  35.096  1.00  0.00     0.124 S 
ATOM     92  O   UNL A   1      49.771  23.120  34.997  1.00  0.00    -0.237 OA
ATOM     93  O   UNL A   1      48.164  24.553  36.215  1.00  0.00    -0.237 OA
ATOM     94  O   UNL A   1      47.350  22.686  34.828  1.00  0.00    -0.744 OA
ENDBRANCH  87  91
ENDBRANCH  61  84
ENDBRANCH  35  36
ENDBRANCH  27  30
ENDBRANCH  25  26
ENDBRANCH  24  25
ENDBRANCH  23  24
ENDBRANCH   1  23
TORSDOF 19
ENDMDL
MODEL 3
REMARK VINA RESULT:     -11.3      3.610      8.445
REMARK SMILES COCc1cccc(O[C@@H](C)c2ccc(C(=O)NCCCCNC(=O)c3ccc(-c4c5nc(c(-c6cc(S(=O)(=O)[O-])ccc6F)c6ccc([nH]6)c(-c6cc(S(=O)(=O)[O-])ccc6F)c6nc(c(-c7cc(S(=O)(=O)[O-])ccc7F)c7ccc4[nH]7)C=C6)C=C5)cc3)o2)c1
REMARK SMILES IDX 19 1 18 2 16 3 17 4 15 6 12 7 13 8 89 9 14 10 10 11 11 12
REMARK SMILES IDX 9 13 8 14 4 15 5 16 90 17 6 18 7 19 3 20 2 21 1 22 20 23
REMARK SMILES IDX 21 24 22 25 23 26 24 27 25 29 26 30 27 31 88 32 28 33 87 34
REMARK SMILES IDX 29 35 30 36 31 37 81 38 32 39 86 40 80 41 82 42 33 43 85 44
REMARK SMILES IDX 79 45 78 46 34 48 66 49 46 50 65 51 47 52 50 53 64 54 83 55
REMARK SMILES IDX 48 56 49 57 63 59 84 60 51 61 35 62 36 63 44 64 37 65 43 66
REMARK SMILES IDX 45 67 42 68 38 69 39 70 40 71 41 72 67 73 68 74 76 75 69 76
REMARK SMILES IDX 75 77 77 78 74 79 70 80 71 81 72 82 73 83 52 84 53 85 61 86
REMARK SMILES IDX 54 87 60 88 62 89 59 90 55 91 56 92 57 93 58 94
REMARK H PARENT 18 5 23 28 82 47 50 58
REMARK Flexibility Score: inf
ROOT
ATOM      1  C   UNL A   1      33.352  28.262  23.167  1.00  0.00     0.116 C 
ENDROOT
BRANCH   1   2
ATOM      2  N   UNL A   1      32.133  28.316  22.382  1.00  0.00    -0.349 N 
ATOM      3  C   UNL A   1      30.872  27.851  22.695  1.00  0.00     0.286 C 
ATOM      4  O   UNL A   1      29.938  28.294  22.019  1.00  0.00    -0.266 OA
ATOM      5  H   UNL A   1      32.217  28.746  21.500  1.00  0.00     0.163 HD
BRANCH   3   6
ATOM      6  C   UNL A   1      30.681  26.874  23.753  1.00  0.00     0.191 A 
ATOM      7  C   UNL A   1      30.830  24.832  24.643  1.00  0.00     0.145 A 
ATOM      8  C   UNL A   1      30.462  25.695  25.654  1.00  0.00     0.050 A 
ATOM      9  O   UNL A   1      30.987  25.557  23.488  1.00  0.00    -0.452 OA
ATOM     10  C   UNL A   1      30.310  26.972  25.079  1.00  0.00     0.057 A 
BRANCH   7  11
ATOM     11  C   UNL A   1      31.150  23.362  24.548  1.00  0.00     0.236 C 
ATOM     12  C   UNL A   1      31.157  22.624  25.882  1.00  0.00     0.062 C 
BRANCH  11  13
ATOM     13  O   UNL A   1      32.319  23.036  23.752  1.00  0.00    -0.483 OA
BRANCH  13  14
ATOM     14  C   UNL A   1      32.984  21.855  23.903  1.00  0.00     0.120 A 
ATOM     15  C   UNL A   1      33.103  19.430  24.051  1.00  0.00    -0.019 A 
ATOM     16  C   UNL A   1      34.353  19.550  24.679  1.00  0.00     0.006 A 
ATOM     17  C   UNL A   1      32.457  20.597  23.616  1.00  0.00     0.052 A 
ATOM     18  C   UNL A   1      34.938  20.803  24.865  1.00  0.00     0.004 A 
ATOM     19  C   UNL A   1      34.251  21.953  24.481  1.00  0.00     0.046 A 
BRANCH  15  20
ATOM     20  C   UNL A   1      32.432  18.075  23.993  1.00  0.00     0.195 C 
BRANCH  20  21
ATOM     21  O   UNL A   1      31.964  17.599  25.256  1.00  0.00    -0.380 OA
ATOM     22  C   UNL A   1      32.631  16.425  25.706  1.00  0.00     0.195 C 
ENDBRANCH  20  21
ENDBRANCH  15  20
ENDBRANCH  13  14
ENDBRANCH  11  13
ENDBRANCH   7  11
ENDBRANCH   3   6
ENDBRANCH   1   2
BRANCH   1  23
ATOM     23  C   UNL A   1      33.305  29.131  24.424  1.00  0.00     0.023 C 
BRANCH  23  24
ATOM     24  C   UNL A   1      33.680  28.441  25.735  1.00  0.00     0.023 C 
BRANCH  24  25
ATOM     25  C   UNL A   1      33.102  29.054  27.004  1.00  0.00     0.116 C 
BRANCH  25  26
ATOM     26  N   UNL A   1      33.319  30.488  27.118  1.00  0.00    -0.352 N 
ATOM     27  C   UNL A   1      34.417  31.149  27.622  1.00  0.00     0.251 C 
ATOM     28  H   UNL A   1      32.586  31.060  26.794  1.00  0.00     0.163 HD
ATOM     29  O   UNL A   1      34.400  32.374  27.716  1.00  0.00    -0.269 OA
BRANCH  27  30
ATOM     30  C   UNL A   1      35.587  30.375  28.095  1.00  0.00     0.039 A 
ATOM     31  C   UNL A   1      36.713  30.284  27.270  1.00  0.00     0.014 A 
ATOM     32  C   UNL A   1      35.594  29.780  29.358  1.00  0.00     0.014 A 
ATOM     33  C   UNL A   1      37.874  29.673  27.748  1.00  0.00     0.010 A 
ATOM     34  C   UNL A   1      36.771  29.229  29.858  1.00  0.00     0.010 A 
ATOM     35  C   UNL A   1      37.927  29.180  29.062  1.00  0.00    -0.014 A 
BRANCH  35  36
ATOM     36  C   UNL A   1      39.180  28.622  29.633  1.00  0.00     0.031 A 
ATOM     37  C   UNL A   1      39.810  29.267  30.837  1.00  0.00     0.074 A 
ATOM     38  C   UNL A   1      39.793  27.593  29.016  1.00  0.00     0.049 A 
ATOM     39  N   UNL A   1      40.956  29.007  31.411  1.00  0.00    -0.248 NA
ATOM     40  C   UNL A   1      39.062  30.373  31.455  1.00  0.00     0.031 C 
ATOM     41  C   UNL A   1      39.304  26.912  27.815  1.00  0.00     0.029 A 
ATOM     42  N   UNL A   1      40.970  26.948  29.304  1.00  0.00    -0.354 N 
ATOM     43  C   UNL A   1      41.077  29.926  32.447  1.00  0.00     0.074 A 
ATOM     44  C   UNL A   1      39.910  30.782  32.387  1.00  0.00     0.031 C 
ATOM     45  C   UNL A   1      40.166  25.940  27.476  1.00  0.00     0.029 A 
ATOM     46  C   UNL A   1      41.288  25.951  28.410  1.00  0.00     0.049 A 
ATOM     47  H   UNL A   1      41.534  27.177  30.077  1.00  0.00     0.167 HD
ATOM     48  C   UNL A   1      42.061  30.035  33.375  1.00  0.00     0.034 A 
ATOM     49  C   UNL A   1      42.368  25.148  28.341  1.00  0.00     0.034 A 
ATOM     50  C   UNL A   1      43.210  29.164  33.435  1.00  0.00     0.049 A 
ATOM     51  C   UNL A   1      43.447  25.285  29.385  1.00  0.00     0.074 A 
ATOM     52  C   UNL A   1      44.239  29.155  34.360  1.00  0.00     0.029 A 
ATOM     53  N   UNL A   1      43.481  28.145  32.531  1.00  0.00    -0.354 N 
ATOM     54  N   UNL A   1      43.527  26.136  30.382  1.00  0.00    -0.248 NA
ATOM     55  C   UNL A   1      44.573  24.347  29.300  1.00  0.00     0.031 C 
ATOM     56  C   UNL A   1      45.156  28.164  33.990  1.00  0.00     0.029 A 
ATOM     57  C   UNL A   1      44.670  27.514  32.867  1.00  0.00     0.049 A 
ATOM     58  H   UNL A   1      42.913  27.905  31.764  1.00  0.00     0.167 HD
ATOM     59  C   UNL A   1      44.699  25.814  31.059  1.00  0.00     0.074 A 
ATOM     60  C   UNL A   1      45.286  24.686  30.365  1.00  0.00     0.031 C 
ATOM     61  C   UNL A   1      45.241  26.394  32.159  1.00  0.00     0.034 A 
BRANCH  48  62
ATOM     62  C   UNL A   1      41.940  31.152  34.381  1.00  0.00     0.023 A 
ATOM     63  C   UNL A   1      42.477  32.427  34.131  1.00  0.00     0.031 A 
ATOM     64  C   UNL A   1      41.307  30.933  35.617  1.00  0.00     0.131 A 
ATOM     65  C   UNL A   1      42.438  33.411  35.130  1.00  0.00     0.055 A 
ATOM     66  C   UNL A   1      41.204  31.941  36.578  1.00  0.00     0.041 A 
ATOM     67  F   UNL A   1      40.793  29.731  35.919  1.00  0.00    -0.206 F 
ATOM     68  C   UNL A   1      41.785  33.184  36.343  1.00  0.00     0.022 A 
BRANCH  65  69
ATOM     69  S   UNL A   1      43.372  34.944  34.871  1.00  0.00     0.124 S 
ATOM     70  O   UNL A   1      44.639  34.629  35.527  1.00  0.00    -0.237 OA
ATOM     71  O   UNL A   1      43.412  35.047  33.418  1.00  0.00    -0.237 OA
ATOM     72  O   UNL A   1      42.562  35.956  35.548  1.00  0.00    -0.744 OA
ENDBRANCH  65  69
ENDBRANCH  48  62
BRANCH  49  73
ATOM     73  C   UNL A   1      42.499  24.147  27.246  1.00  0.00     0.023 A 
ATOM     74  C   UNL A   1      41.922  22.873  27.362  1.00  0.00     0.031 A 
ATOM     75  C   UNL A   1      43.243  24.435  26.088  1.00  0.00     0.131 A 
ATOM     76  C   UNL A   1      42.139  21.914  26.360  1.00  0.00     0.055 A 
ATOM     77  C   UNL A   1      43.416  23.493  25.073  1.00  0.00     0.041 A 
ATOM     78  F   UNL A   1      43.805  25.643  25.926  1.00  0.00    -0.206 F 
ATOM     79  C   UNL A   1      42.875  22.218  25.212  1.00  0.00     0.022 A 
BRANCH  76  80
ATOM     80  S   UNL A   1      41.513  20.232  26.620  1.00  0.00     0.124 S 
ATOM     81  O   UNL A   1      42.268  19.810  27.793  1.00  0.00    -0.237 OA
ATOM     82  O   UNL A   1      40.088  20.470  26.825  1.00  0.00    -0.237 OA
ATOM     83  O   UNL A   1      41.856  19.547  25.376  1.00  0.00    -0.744 OA
ENDBRANCH  76  80
ENDBRANCH  49  73
BRANCH  61  84
ATOM     84  C   UNL A   1      46.506  25.780  32.699  1.00  0.00     0.023 A 
ATOM     85  C   UNL A   1      46.477  24.752  33.657  1.00  0.00     0.031 A 
ATOM     86  C   UNL A   1      47.758  26.245  32.260  1.00  0.00     0.131 A 
ATOM     87  C   UNL A   1      47.680  24.256  34.182  1.00  0.00     0.055 A 
ATOM     88  C   UNL A   1      48.951  25.712  32.749  1.00  0.00     0.041 A 
ATOM     89  F   UNL A   1      47.839  27.226  31.347  1.00  0.00    -0.206 F 
ATOM     90  C   UNL A   1      48.916  24.720  33.725  1.00  0.00     0.022 A 
BRANCH  87  91
ATOM     91  S   UNL A   1      47.607  23.043  35.529  1.00  0.00     0.124 S 
ATOM     92  O   UNL A   1      46.190  23.063  35.881  1.00  0.00    -0.237 OA
ATOM     93  O   UNL A   1      48.086  21.826  34.881  1.00  0.00    -0.237 OA
ATOM     94  O   UNL A   1      48.504  23.599  36.541  1.00  0.00    -0.744 OA
ENDBRANCH  87  91
ENDBRANCH  61  84
ENDBRANCH  35  36
ENDBRANCH  27  30
ENDBRANCH  25  26
ENDBRANCH  24  25
ENDBRANCH  23  24
ENDBRANCH   1  23
TORSDOF 19
ENDMDL
