MODEL 1
REMARK VINA RESULT:     -10.9      0.000      0.000
REMARK SMILES C=CCCC[C@@]1(C(=O)NCCCCNC(=O)c2ccc(-c3c4nc(c(-c5cc(S(=O)(=O)[O-])ccc5F)c5ccc([nH]5)c(-c5cc(S(=O)(=O)[O-])ccc5F)c5nc(c(-c6cc(S(=O)(=O)[O-])ccc6F)c6ccc3[nH]6)C=C5)C=C4)cc2)CCCN(C(=O)OC(C)(C)C)C1
REMARK SMILES IDX 11 1 10 2 9 3 7 4 8 5 6 7 80 8 91 9 81 10 83 11 82 12 5 13
REMARK SMILES IDX 4 14 3 15 2 16 1 17 84 18 85 19 86 20 87 21 88 22 89 23
REMARK SMILES IDX 90 24 12 25 13 26 14 27 15 28 16 30 17 31 18 32 79 33 19 34
REMARK SMILES IDX 78 35 20 36 21 37 22 38 72 39 23 40 77 41 71 42 73 43 24 44
REMARK SMILES IDX 76 45 70 46 69 47 25 49 57 50 37 51 56 52 38 53 41 54 55 55
REMARK SMILES IDX 74 56 39 57 40 58 54 60 75 61 42 62 26 63 27 64 35 65 28 66
REMARK SMILES IDX 34 67 36 68 33 69 29 70 30 71 31 72 32 73 58 74 59 75 67 76
REMARK SMILES IDX 60 77 66 78 68 79 65 80 61 81 62 82 63 83 64 84 43 85 44 86
REMARK SMILES IDX 52 87 45 88 51 89 53 90 50 91 46 92 47 93 48 94 49 95
REMARK H PARENT 9 6 14 29 73 48 41 59
REMARK Flexibility Score: inf
ROOT
ATOM      1  C   UNL A   1      31.779  29.064  27.230  1.00  0.00     0.023 C 
ENDROOT
BRANCH   1   2
ATOM      2  C   UNL A   1      31.421  27.816  26.440  1.00  0.00     0.116 C 
BRANCH   2   3
ATOM      3  N   UNL A   1      32.471  27.210  25.659  1.00  0.00    -0.356 N 
ATOM      4  C   UNL A   1      32.524  27.059  24.300  1.00  0.00     0.228 C 
ATOM      5  O   UNL A   1      33.661  27.120  23.815  1.00  0.00    -0.274 OA
ATOM      6  H   UNL A   1      33.242  26.864  26.163  1.00  0.00     0.163 HD
BRANCH   4   7
ATOM      7  C   UNL A   1      31.307  26.651  23.408  1.00  0.00     0.067 C 
ATOM      8  C   UNL A   1      30.260  25.895  24.291  1.00  0.00     0.020 C 
ATOM      9  C   UNL A   1      31.592  25.667  22.241  1.00  0.00     0.140 C 
ATOM     10  C   UNL A   1      30.761  24.514  24.751  1.00  0.00     0.023 C 
ATOM     11  N   UNL A   1      32.128  24.395  22.703  1.00  0.00    -0.307 N 
ATOM     12  C   UNL A   1      31.263  23.644  23.601  1.00  0.00     0.123 C 
BRANCH   7  13
ATOM     13  C   UNL A   1      30.712  27.966  22.802  1.00  0.00     0.019 C 
BRANCH  13  14
ATOM     14  C   UNL A   1      29.266  28.375  23.156  1.00  0.00     0.005 C 
BRANCH  14  15
ATOM     15  C   UNL A   1      28.612  29.518  22.372  1.00  0.00     0.027 C 
BRANCH  15  16
ATOM     16  C   UNL A   1      27.536  30.251  23.120  1.00  0.00    -0.035 C 
ATOM     17  C   UNL A   1      27.611  31.545  23.459  1.00  0.00     0.004 C 
ENDBRANCH  15  16
ENDBRANCH  14  15
ENDBRANCH  13  14
ENDBRANCH   7  13
BRANCH  11  18
ATOM     18  C   UNL A   1      33.365  23.953  22.252  1.00  0.00     0.410 C 
ATOM     19  O   UNL A   1      33.509  23.316  21.224  1.00  0.00    -0.224 OA
BRANCH  18  20
ATOM     20  O   UNL A   1      34.387  24.366  23.046  1.00  0.00    -0.444 OA
BRANCH  20  21
ATOM     21  C   UNL A   1      35.020  23.453  23.987  1.00  0.00     0.106 C 
ATOM     22  C   UNL A   1      34.304  22.104  24.115  1.00  0.00     0.056 C 
ATOM     23  C   UNL A   1      36.493  23.267  23.609  1.00  0.00     0.056 C 
ATOM     24  C   UNL A   1      34.953  24.175  25.339  1.00  0.00     0.056 C 
ENDBRANCH  20  21
ENDBRANCH  18  20
ENDBRANCH  11  18
ENDBRANCH   4   7
ENDBRANCH   2   3
ENDBRANCH   1   2
BRANCH   1  25
ATOM     25  C   UNL A   1      31.989  30.350  26.443  1.00  0.00     0.023 C 
BRANCH  25  26
ATOM     26  C   UNL A   1      33.078  31.299  26.936  1.00  0.00     0.116 C 
BRANCH  26  27
ATOM     27  N   UNL A   1      32.638  32.660  27.209  1.00  0.00    -0.352 N 
ATOM     28  C   UNL A   1      33.240  33.609  28.011  1.00  0.00     0.251 C 
ATOM     29  H   UNL A   1      31.806  32.938  26.766  1.00  0.00     0.163 HD
ATOM     30  O   UNL A   1      32.757  34.731  28.116  1.00  0.00    -0.269 OA
BRANCH  28  31
ATOM     31  C   UNL A   1      34.443  33.237  28.788  1.00  0.00     0.039 A 
ATOM     32  C   UNL A   1      34.277  32.623  30.032  1.00  0.00     0.014 A 
ATOM     33  C   UNL A   1      35.721  33.411  28.251  1.00  0.00     0.014 A 
ATOM     34  C   UNL A   1      35.386  32.085  30.688  1.00  0.00     0.010 A 
ATOM     35  C   UNL A   1      36.814  32.810  28.870  1.00  0.00     0.010 A 
ATOM     36  C   UNL A   1      36.655  32.123  30.085  1.00  0.00    -0.014 A 
BRANCH  36  37
ATOM     37  C   UNL A   1      37.818  31.426  30.695  1.00  0.00     0.031 A 
ATOM     38  C   UNL A   1      38.275  31.785  32.080  1.00  0.00     0.074 A 
ATOM     39  C   UNL A   1      38.507  30.520  29.971  1.00  0.00     0.049 A 
ATOM     40  N   UNL A   1      39.300  31.337  32.759  1.00  0.00    -0.248 NA
ATOM     41  C   UNL A   1      37.491  32.812  32.778  1.00  0.00     0.031 C 
ATOM     42  C   UNL A   1      38.192  30.118  28.599  1.00  0.00     0.029 A 
ATOM     43  N   UNL A   1      39.617  29.778  30.285  1.00  0.00    -0.354 N 
ATOM     44  C   UNL A   1      39.289  32.032  33.963  1.00  0.00     0.074 A 
ATOM     45  C   UNL A   1      38.200  32.984  33.881  1.00  0.00     0.031 C 
ATOM     46  C   UNL A   1      39.065  29.177  28.204  1.00  0.00     0.029 A 
ATOM     47  C   UNL A   1      40.028  28.940  29.274  1.00  0.00     0.049 A 
ATOM     48  H   UNL A   1      40.077  29.838  31.154  1.00  0.00     0.167 HD
ATOM     49  C   UNL A   1      40.090  31.870  35.047  1.00  0.00     0.034 A 
ATOM     50  C   UNL A   1      41.063  28.079  29.215  1.00  0.00     0.034 A 
ATOM     51  C   UNL A   1      41.175  30.920  35.107  1.00  0.00     0.049 A 
ATOM     52  C   UNL A   1      41.970  27.946  30.410  1.00  0.00     0.074 A 
ATOM     53  C   UNL A   1      42.024  30.641  36.164  1.00  0.00     0.029 A 
ATOM     54  N   UNL A   1      41.571  30.099  34.057  1.00  0.00    -0.354 N 
ATOM     55  N   UNL A   1      41.918  28.572  31.563  1.00  0.00    -0.248 NA
ATOM     56  C   UNL A   1      43.072  26.981  30.298  1.00  0.00     0.031 C 
ATOM     57  C   UNL A   1      42.972  29.705  35.733  1.00  0.00     0.029 A 
ATOM     58  C   UNL A   1      42.671  29.341  34.430  1.00  0.00     0.049 A 
ATOM     59  H   UNL A   1      41.136  30.063  33.175  1.00  0.00     0.167 HD
ATOM     60  C   UNL A   1      42.960  28.052  32.326  1.00  0.00     0.074 A 
ATOM     61  C   UNL A   1      43.618  27.057  31.503  1.00  0.00     0.031 C 
ATOM     62  C   UNL A   1      43.331  28.363  33.594  1.00  0.00     0.034 A 
BRANCH  49  63
ATOM     63  C   UNL A   1      39.824  32.771  36.233  1.00  0.00     0.023 A 
ATOM     64  C   UNL A   1      40.559  33.954  36.435  1.00  0.00     0.031 A 
ATOM     65  C   UNL A   1      38.884  32.410  37.214  1.00  0.00     0.131 A 
ATOM     66  C   UNL A   1      40.426  34.668  37.634  1.00  0.00     0.055 A 
ATOM     67  C   UNL A   1      38.684  33.182  38.361  1.00  0.00     0.041 A 
ATOM     68  F   UNL A   1      38.163  31.285  37.091  1.00  0.00    -0.206 F 
ATOM     69  C   UNL A   1      39.474  34.305  38.590  1.00  0.00     0.022 A 
BRANCH  66  70
ATOM     70  S   UNL A   1      41.649  35.954  38.012  1.00  0.00     0.124 S 
ATOM     71  O   UNL A   1      42.441  35.307  39.058  1.00  0.00    -0.237 OA
ATOM     72  O   UNL A   1      42.317  36.140  36.730  1.00  0.00    -0.237 OA
ATOM     73  O   UNL A   1      40.836  37.080  38.466  1.00  0.00    -0.744 OA
ENDBRANCH  66  70
ENDBRANCH  49  63
BRANCH  50  74
ATOM     74  C   UNL A   1      41.295  27.266  27.987  1.00  0.00     0.023 A 
ATOM     75  C   UNL A   1      40.987  25.898  27.965  1.00  0.00     0.031 A 
ATOM     76  C   UNL A   1      41.845  27.840  26.827  1.00  0.00     0.131 A 
ATOM     77  C   UNL A   1      41.259  25.137  26.817  1.00  0.00     0.055 A 
ATOM     78  C   UNL A   1      42.073  27.089  25.673  1.00  0.00     0.041 A 
ATOM     79  F   UNL A   1      42.150  29.147  26.795  1.00  0.00    -0.206 F 
ATOM     80  C   UNL A   1      41.788  25.727  25.666  1.00  0.00     0.022 A 
BRANCH  77  81
ATOM     81  S   UNL A   1      40.959  23.350  26.866  1.00  0.00     0.124 S 
ATOM     82  O   UNL A   1      41.845  22.871  25.810  1.00  0.00    -0.237 OA
ATOM     83  O   UNL A   1      41.347  23.014  28.231  1.00  0.00    -0.237 OA
ATOM     84  O   UNL A   1      39.530  23.236  26.582  1.00  0.00    -0.744 OA
ENDBRANCH  77  81
ENDBRANCH  50  74
BRANCH  62  85
ATOM     85  C   UNL A   1      44.481  27.579  34.181  1.00  0.00     0.023 A 
ATOM     86  C   UNL A   1      44.280  26.378  34.883  1.00  0.00     0.031 A 
ATOM     87  C   UNL A   1      45.798  28.055  34.047  1.00  0.00     0.131 A 
ATOM     88  C   UNL A   1      45.373  25.721  35.471  1.00  0.00     0.055 A 
ATOM     89  C   UNL A   1      46.887  27.365  34.583  1.00  0.00     0.041 A 
ATOM     90  F   UNL A   1      46.049  29.198  33.390  1.00  0.00    -0.206 F 
ATOM     91  C   UNL A   1      46.676  26.198  35.312  1.00  0.00     0.022 A 
BRANCH  88  92
ATOM     92  S   UNL A   1      45.058  24.281  36.528  1.00  0.00     0.124 S 
ATOM     93  O   UNL A   1      46.405  23.926  36.968  1.00  0.00    -0.237 OA
ATOM     94  O   UNL A   1      44.178  24.832  37.554  1.00  0.00    -0.237 OA
ATOM     95  O   UNL A   1      44.429  23.321  35.623  1.00  0.00    -0.744 OA
ENDBRANCH  88  92
ENDBRANCH  62  85
ENDBRANCH  36  37
ENDBRANCH  28  31
ENDBRANCH  26  27
ENDBRANCH  25  26
ENDBRANCH   1  25
TORSDOF 21
ENDMDL
MODEL 2
REMARK VINA RESULT:     -10.9      1.906      7.681
REMARK SMILES C=CCCC[C@@]1(C(=O)NCCCCNC(=O)c2ccc(-c3c4nc(c(-c5cc(S(=O)(=O)[O-])ccc5F)c5ccc([nH]5)c(-c5cc(S(=O)(=O)[O-])ccc5F)c5nc(c(-c6cc(S(=O)(=O)[O-])ccc6F)c6ccc3[nH]6)C=C5)C=C4)cc2)CCCN(C(=O)OC(C)(C)C)C1
REMARK SMILES IDX 11 1 10 2 9 3 7 4 8 5 6 7 80 8 91 9 81 10 83 11 82 12 5 13
REMARK SMILES IDX 4 14 3 15 2 16 1 17 84 18 85 19 86 20 87 21 88 22 89 23
REMARK SMILES IDX 90 24 12 25 13 26 14 27 15 28 16 30 17 31 18 32 79 33 19 34
REMARK SMILES IDX 78 35 20 36 21 37 22 38 72 39 23 40 77 41 71 42 73 43 24 44
REMARK SMILES IDX 76 45 70 46 69 47 25 49 57 50 37 51 56 52 38 53 41 54 55 55
REMARK SMILES IDX 74 56 39 57 40 58 54 60 75 61 42 62 26 63 27 64 35 65 28 66
REMARK SMILES IDX 34 67 36 68 33 69 29 70 30 71 31 72 32 73 58 74 59 75 67 76
REMARK SMILES IDX 60 77 66 78 68 79 65 80 61 81 62 82 63 83 64 84 43 85 44 86
REMARK SMILES IDX 52 87 45 88 51 89 53 90 50 91 46 92 47 93 48 94 49 95
REMARK H PARENT 9 6 14 29 73 48 41 59
REMARK Flexibility Score: inf
ROOT
ATOM      1  C   UNL A   1      31.655  28.671  27.537  1.00  0.00     0.023 C 
ENDROOT
BRANCH   1   2
ATOM      2  C   UNL A   1      31.967  27.339  26.875  1.00  0.00     0.116 C 
BRANCH   2   3
ATOM      3  N   UNL A   1      30.966  26.795  25.990  1.00  0.00    -0.356 N 
ATOM      4  C   UNL A   1      31.156  26.222  24.763  1.00  0.00     0.228 C 
ATOM      5  O   UNL A   1      30.358  25.316  24.485  1.00  0.00    -0.274 OA
ATOM      6  H   UNL A   1      30.035  26.843  26.306  1.00  0.00     0.163 HD
BRANCH   4   7
ATOM      7  C   UNL A   1      32.156  26.749  23.685  1.00  0.00     0.067 C 
ATOM      8  C   UNL A   1      31.866  26.030  22.327  1.00  0.00     0.020 C 
ATOM      9  C   UNL A   1      33.665  26.480  23.935  1.00  0.00     0.140 C 
ATOM     10  C   UNL A   1      32.234  24.535  22.359  1.00  0.00     0.023 C 
ATOM     11  N   UNL A   1      33.969  25.060  24.030  1.00  0.00    -0.307 N 
ATOM     12  C   UNL A   1      33.660  24.277  22.842  1.00  0.00     0.123 C 
BRANCH   7  13
ATOM     13  C   UNL A   1      31.949  28.298  23.574  1.00  0.00     0.019 C 
BRANCH  13  14
ATOM     14  C   UNL A   1      30.548  28.851  23.238  1.00  0.00     0.005 C 
BRANCH  14  15
ATOM     15  C   UNL A   1      30.356  29.621  21.926  1.00  0.00     0.027 C 
BRANCH  15  16
ATOM     16  C   UNL A   1      29.253  30.639  21.957  1.00  0.00    -0.035 C 
ATOM     17  C   UNL A   1      28.120  30.533  21.251  1.00  0.00     0.004 C 
ENDBRANCH  15  16
ENDBRANCH  14  15
ENDBRANCH  13  14
ENDBRANCH   7  13
BRANCH  11  18
ATOM     18  C   UNL A   1      34.557  24.546  25.178  1.00  0.00     0.410 C 
ATOM     19  O   UNL A   1      35.756  24.364  25.287  1.00  0.00    -0.224 OA
BRANCH  18  20
ATOM     20  O   UNL A   1      33.657  24.336  26.174  1.00  0.00    -0.444 OA
BRANCH  20  21
ATOM     21  C   UNL A   1      33.227  22.989  26.521  1.00  0.00     0.106 C 
ATOM     22  C   UNL A   1      33.269  22.005  25.346  1.00  0.00     0.056 C 
ATOM     23  C   UNL A   1      34.052  22.477  27.706  1.00  0.00     0.056 C 
ATOM     24  C   UNL A   1      31.770  23.149  26.977  1.00  0.00     0.056 C 
ENDBRANCH  20  21
ENDBRANCH  18  20
ENDBRANCH  11  18
ENDBRANCH   4   7
ENDBRANCH   2   3
ENDBRANCH   1   2
BRANCH   1  25
ATOM     25  C   UNL A   1      31.394  29.859  26.620  1.00  0.00     0.023 C 
BRANCH  25  26
ATOM     26  C   UNL A   1      32.562  30.804  26.355  1.00  0.00     0.116 C 
BRANCH  26  27
ATOM     27  N   UNL A   1      32.399  32.154  26.874  1.00  0.00    -0.352 N 
ATOM     28  C   UNL A   1      33.302  32.909  27.595  1.00  0.00     0.251 C 
ATOM     29  H   UNL A   1      31.533  32.583  26.687  1.00  0.00     0.163 HD
ATOM     30  O   UNL A   1      33.022  34.053  27.938  1.00  0.00    -0.269 OA
BRANCH  28  31
ATOM     31  C   UNL A   1      34.588  32.302  27.999  1.00  0.00     0.039 A 
ATOM     32  C   UNL A   1      35.714  33.122  28.111  1.00  0.00     0.014 A 
ATOM     33  C   UNL A   1      34.660  30.952  28.353  1.00  0.00     0.014 A 
ATOM     34  C   UNL A   1      36.883  32.614  28.682  1.00  0.00     0.010 A 
ATOM     35  C   UNL A   1      35.801  30.468  28.988  1.00  0.00     0.010 A 
ATOM     36  C   UNL A   1      36.917  31.300  29.176  1.00  0.00    -0.014 A 
BRANCH  36  37
ATOM     37  C   UNL A   1      38.099  30.788  29.920  1.00  0.00     0.031 A 
ATOM     38  C   UNL A   1      39.025  29.794  29.280  1.00  0.00     0.074 A 
ATOM     39  C   UNL A   1      38.296  31.165  31.200  1.00  0.00     0.049 A 
ATOM     40  N   UNL A   1      40.070  29.187  29.783  1.00  0.00    -0.248 NA
ATOM     41  C   UNL A   1      38.711  29.408  27.897  1.00  0.00     0.031 C 
ATOM     42  C   UNL A   1      37.442  32.089  31.950  1.00  0.00     0.029 A 
ATOM     43  N   UNL A   1      39.272  30.816  32.099  1.00  0.00    -0.354 N 
ATOM     44  C   UNL A   1      40.534  28.341  28.782  1.00  0.00     0.074 A 
ATOM     45  C   UNL A   1      39.606  28.461  27.675  1.00  0.00     0.031 C 
ATOM     46  C   UNL A   1      37.953  32.260  33.180  1.00  0.00     0.029 A 
ATOM     47  C   UNL A   1      39.142  31.427  33.325  1.00  0.00     0.049 A 
ATOM     48  H   UNL A   1      39.999  30.186  31.886  1.00  0.00     0.167 HD
ATOM     49  C   UNL A   1      41.645  27.562  28.774  1.00  0.00     0.034 A 
ATOM     50  C   UNL A   1      39.894  31.327  34.438  1.00  0.00     0.034 A 
ATOM     51  C   UNL A   1      42.554  27.450  29.889  1.00  0.00     0.049 A 
ATOM     52  C   UNL A   1      41.098  30.422  34.427  1.00  0.00     0.074 A 
ATOM     53  C   UNL A   1      43.730  26.725  29.979  1.00  0.00     0.029 A 
ATOM     54  N   UNL A   1      42.380  28.071  31.121  1.00  0.00    -0.354 N 
ATOM     55  N   UNL A   1      41.556  29.666  33.456  1.00  0.00    -0.248 NA
ATOM     56  C   UNL A   1      41.892  30.364  35.661  1.00  0.00     0.031 C 
ATOM     57  C   UNL A   1      44.230  26.853  31.281  1.00  0.00     0.029 A 
ATOM     58  C   UNL A   1      43.408  27.720  31.985  1.00  0.00     0.049 A 
ATOM     59  H   UNL A   1      41.635  28.672  31.348  1.00  0.00     0.167 HD
ATOM     60  C   UNL A   1      42.711  29.068  33.952  1.00  0.00     0.074 A 
ATOM     61  C   UNL A   1      42.881  29.558  35.305  1.00  0.00     0.031 C 
ATOM     62  C   UNL A   1      43.558  28.201  33.340  1.00  0.00     0.034 A 
BRANCH  49  63
ATOM     63  C   UNL A   1      41.904  26.755  27.520  1.00  0.00     0.023 A 
ATOM     64  C   UNL A   1      41.525  25.402  27.427  1.00  0.00     0.031 A 
ATOM     65  C   UNL A   1      42.602  27.313  26.436  1.00  0.00     0.131 A 
ATOM     66  C   UNL A   1      41.944  24.629  26.335  1.00  0.00     0.055 A 
ATOM     67  C   UNL A   1      42.929  26.562  25.304  1.00  0.00     0.041 A 
ATOM     68  F   UNL A   1      43.008  28.593  26.469  1.00  0.00    -0.206 F 
ATOM     69  C   UNL A   1      42.622  25.205  25.259  1.00  0.00     0.022 A 
BRANCH  66  70
ATOM     70  S   UNL A   1      41.764  22.826  26.437  1.00  0.00     0.124 S 
ATOM     71  O   UNL A   1      42.570  22.386  25.299  1.00  0.00    -0.237 OA
ATOM     72  O   UNL A   1      42.307  22.529  27.756  1.00  0.00    -0.237 OA
ATOM     73  O   UNL A   1      40.326  22.615  26.288  1.00  0.00    -0.744 OA
ENDBRANCH  66  70
ENDBRANCH  49  63
BRANCH  50  74
ATOM     74  C   UNL A   1      39.542  32.112  35.656  1.00  0.00     0.023 A 
ATOM     75  C   UNL A   1      38.696  31.572  36.637  1.00  0.00     0.031 A 
ATOM     76  C   UNL A   1      40.030  33.417  35.846  1.00  0.00     0.131 A 
ATOM     77  C   UNL A   1      38.336  32.345  37.752  1.00  0.00     0.055 A 
ATOM     78  C   UNL A   1      39.703  34.165  36.978  1.00  0.00     0.041 A 
ATOM     79  F   UNL A   1      40.848  33.975  34.941  1.00  0.00    -0.206 F 
ATOM     80  C   UNL A   1      38.843  33.633  37.935  1.00  0.00     0.022 A 
BRANCH  77  81
ATOM     81  S   UNL A   1      37.147  31.660  38.937  1.00  0.00     0.124 S 
ATOM     82  O   UNL A   1      36.015  32.567  38.781  1.00  0.00    -0.237 OA
ATOM     83  O   UNL A   1      36.958  30.305  38.430  1.00  0.00    -0.237 OA
ATOM     84  O   UNL A   1      37.849  31.751  40.215  1.00  0.00    -0.744 OA
ENDBRANCH  77  81
ENDBRANCH  50  74
BRANCH  62  85
ATOM     85  C   UNL A   1      44.773  27.764  34.124  1.00  0.00     0.023 A 
ATOM     86  C   UNL A   1      44.760  26.617  34.936  1.00  0.00     0.031 A 
ATOM     87  C   UNL A   1      45.957  28.522  34.067  1.00  0.00     0.131 A 
ATOM     88  C   UNL A   1      45.891  26.290  35.702  1.00  0.00     0.055 A 
ATOM     89  C   UNL A   1      47.098  28.158  34.784  1.00  0.00     0.041 A 
ATOM     90  F   UNL A   1      46.024  29.629  33.311  1.00  0.00    -0.206 F 
ATOM     91  C   UNL A   1      47.065  27.044  35.618  1.00  0.00     0.022 A 
BRANCH  88  92
ATOM     92  S   UNL A   1      45.779  24.917  36.882  1.00  0.00     0.124 S 
ATOM     93  O   UNL A   1      44.342  24.850  37.134  1.00  0.00    -0.237 OA
ATOM     94  O   UNL A   1      46.345  23.806  36.124  1.00  0.00    -0.237 OA
ATOM     95  O   UNL A   1      46.586  25.370  38.014  1.00  0.00    -0.744 OA
ENDBRANCH  88  92
ENDBRANCH  62  85
ENDBRANCH  36  37
ENDBRANCH  28  31
ENDBRANCH  26  27
ENDBRANCH  25  26
ENDBRANCH   1  25
TORSDOF 21
ENDMDL
MODEL 3
REMARK VINA RESULT:     -10.8      5.176      8.572
REMARK SMILES C=CCCC[C@@]1(C(=O)NCCCCNC(=O)c2ccc(-c3c4nc(c(-c5cc(S(=O)(=O)[O-])ccc5F)c5ccc([nH]5)c(-c5cc(S(=O)(=O)[O-])ccc5F)c5nc(c(-c6cc(S(=O)(=O)[O-])ccc6F)c6ccc3[nH]6)C=C5)C=C4)cc2)CCCN(C(=O)OC(C)(C)C)C1
REMARK SMILES IDX 11 1 10 2 9 3 7 4 8 5 6 7 80 8 91 9 81 10 83 11 82 12 5 13
REMARK SMILES IDX 4 14 3 15 2 16 1 17 84 18 85 19 86 20 87 21 88 22 89 23
REMARK SMILES IDX 90 24 12 25 13 26 14 27 15 28 16 30 17 31 18 32 79 33 19 34
REMARK SMILES IDX 78 35 20 36 21 37 22 38 72 39 23 40 77 41 71 42 73 43 24 44
REMARK SMILES IDX 76 45 70 46 69 47 25 49 57 50 37 51 56 52 38 53 41 54 55 55
REMARK SMILES IDX 74 56 39 57 40 58 54 60 75 61 42 62 26 63 27 64 35 65 28 66
REMARK SMILES IDX 34 67 36 68 33 69 29 70 30 71 31 72 32 73 58 74 59 75 67 76
REMARK SMILES IDX 60 77 66 78 68 79 65 80 61 81 62 82 63 83 64 84 43 85 44 86
REMARK SMILES IDX 52 87 45 88 51 89 53 90 50 91 46 92 47 93 48 94 49 95
REMARK H PARENT 9 6 14 29 73 48 41 59
REMARK Flexibility Score: inf
ROOT
ATOM      1  C   UNL A   1      36.628  22.501  23.455  1.00  0.00     0.023 C 
ENDROOT
BRANCH   1   2
ATOM      2  C   UNL A   1      35.888  23.799  23.179  1.00  0.00     0.116 C 
BRANCH   2   3
ATOM      3  N   UNL A   1      34.974  24.262  24.195  1.00  0.00    -0.356 N 
ATOM      4  C   UNL A   1      33.686  23.855  24.411  1.00  0.00     0.228 C 
ATOM      5  O   UNL A   1      33.330  23.869  25.597  1.00  0.00    -0.274 OA
ATOM      6  H   UNL A   1      35.318  24.953  24.806  1.00  0.00     0.163 HD
BRANCH   4   7
ATOM      7  C   UNL A   1      32.648  23.567  23.279  1.00  0.00     0.067 C 
ATOM      8  C   UNL A   1      33.073  24.345  21.990  1.00  0.00     0.020 C 
ATOM      9  C   UNL A   1      31.188  24.032  23.531  1.00  0.00     0.140 C 
ATOM     10  C   UNL A   1      32.923  25.870  22.143  1.00  0.00     0.023 C 
ATOM     11  N   UNL A   1      31.088  25.469  23.740  1.00  0.00    -0.307 N 
ATOM     12  C   UNL A   1      31.537  26.292  22.627  1.00  0.00     0.123 C 
BRANCH   7  13
ATOM     13  C   UNL A   1      32.634  22.020  23.041  1.00  0.00     0.019 C 
BRANCH  13  14
ATOM     14  C   UNL A   1      31.963  21.100  24.084  1.00  0.00     0.005 C 
BRANCH  14  15
ATOM     15  C   UNL A   1      32.800  19.994  24.737  1.00  0.00     0.027 C 
BRANCH  15  16
ATOM     16  C   UNL A   1      32.551  18.619  24.189  1.00  0.00    -0.035 C 
ATOM     17  C   UNL A   1      32.386  18.353  22.887  1.00  0.00     0.004 C 
ENDBRANCH  15  16
ENDBRANCH  14  15
ENDBRANCH  13  14
ENDBRANCH   7  13
BRANCH  11  18
ATOM     18  C   UNL A   1      30.552  25.968  24.920  1.00  0.00     0.410 C 
ATOM     19  O   UNL A   1      29.354  26.075  25.112  1.00  0.00    -0.224 OA
BRANCH  18  20
ATOM     20  O   UNL A   1      31.505  26.255  25.845  1.00  0.00    -0.444 OA
BRANCH  20  21
ATOM     21  C   UNL A   1      31.933  27.627  26.076  1.00  0.00     0.106 C 
ATOM     22  C   UNL A   1      31.362  28.631  25.068  1.00  0.00     0.056 C 
ATOM     23  C   UNL A   1      31.599  28.032  27.515  1.00  0.00     0.056 C 
ATOM     24  C   UNL A   1      33.459  27.591  25.924  1.00  0.00     0.056 C 
ENDBRANCH  20  21
ENDBRANCH  18  20
ENDBRANCH  11  18
ENDBRANCH   4   7
ENDBRANCH   2   3
ENDBRANCH   1   2
BRANCH   1  25
ATOM     25  C   UNL A   1      36.092  21.618  24.575  1.00  0.00     0.023 C 
BRANCH  25  26
ATOM     26  C   UNL A   1      36.950  21.487  25.830  1.00  0.00     0.116 C 
BRANCH  26  27
ATOM     27  N   UNL A   1      38.071  20.565  25.721  1.00  0.00    -0.352 N 
ATOM     28  C   UNL A   1      39.380  20.758  26.116  1.00  0.00     0.251 C 
ATOM     29  H   UNL A   1      37.870  19.692  25.314  1.00  0.00     0.163 HD
ATOM     30  O   UNL A   1      40.209  19.864  25.982  1.00  0.00    -0.269 OA
BRANCH  28  31
ATOM     31  C   UNL A   1      39.784  22.077  26.649  1.00  0.00     0.039 A 
ATOM     32  C   UNL A   1      40.742  22.128  27.664  1.00  0.00     0.014 A 
ATOM     33  C   UNL A   1      39.287  23.257  26.087  1.00  0.00     0.014 A 
ATOM     34  C   UNL A   1      41.284  23.359  28.040  1.00  0.00     0.010 A 
ATOM     35  C   UNL A   1      39.880  24.474  26.411  1.00  0.00     0.010 A 
ATOM     36  C   UNL A   1      40.898  24.536  27.376  1.00  0.00    -0.014 A 
BRANCH  36  37
ATOM     37  C   UNL A   1      41.569  25.833  27.657  1.00  0.00     0.031 A 
ATOM     38  C   UNL A   1      40.857  26.901  28.436  1.00  0.00     0.074 A 
ATOM     39  C   UNL A   1      42.794  26.074  27.146  1.00  0.00     0.049 A 
ATOM     40  N   UNL A   1      41.248  28.115  28.731  1.00  0.00    -0.248 NA
ATOM     41  C   UNL A   1      39.510  26.567  28.918  1.00  0.00     0.031 C 
ATOM     42  C   UNL A   1      43.572  25.135  26.335  1.00  0.00     0.029 A 
ATOM     43  N   UNL A   1      43.598  27.183  27.229  1.00  0.00    -0.354 N 
ATOM     44  C   UNL A   1      40.192  28.693  29.427  1.00  0.00     0.074 A 
ATOM     45  C   UNL A   1      39.120  27.718  29.437  1.00  0.00     0.031 C 
ATOM     46  C   UNL A   1      44.753  25.694  26.027  1.00  0.00     0.029 A 
ATOM     47  C   UNL A   1      44.802  27.044  26.577  1.00  0.00     0.049 A 
ATOM     48  H   UNL A   1      43.338  28.001  27.712  1.00  0.00     0.167 HD
ATOM     49  C   UNL A   1      40.133  29.909  30.028  1.00  0.00     0.034 A 
ATOM     50  C   UNL A   1      45.828  27.907  26.438  1.00  0.00     0.034 A 
ATOM     51  C   UNL A   1      41.209  30.870  30.000  1.00  0.00     0.049 A 
ATOM     52  C   UNL A   1      45.727  29.269  27.072  1.00  0.00     0.074 A 
ATOM     53  C   UNL A   1      41.276  32.112  30.606  1.00  0.00     0.029 A 
ATOM     54  N   UNL A   1      42.408  30.701  29.315  1.00  0.00    -0.354 N 
ATOM     55  N   UNL A   1      44.743  29.785  27.773  1.00  0.00    -0.248 NA
ATOM     56  C   UNL A   1      46.880  30.163  26.904  1.00  0.00     0.031 C 
ATOM     57  C   UNL A   1      42.482  32.720  30.234  1.00  0.00     0.029 A 
ATOM     58  C   UNL A   1      43.204  31.828  29.457  1.00  0.00     0.049 A 
ATOM     59  H   UNL A   1      42.655  29.898  28.803  1.00  0.00     0.167 HD
ATOM     60  C   UNL A   1      45.173  31.053  28.156  1.00  0.00     0.074 A 
ATOM     61  C   UNL A   1      46.508  31.217  27.615  1.00  0.00     0.031 C 
ATOM     62  C   UNL A   1      44.527  31.989  28.897  1.00  0.00     0.034 A 
BRANCH  49  63
ATOM     63  C   UNL A   1      38.841  30.259  30.734  1.00  0.00     0.023 A 
ATOM     64  C   UNL A   1      37.890  31.113  30.143  1.00  0.00     0.031 A 
ATOM     65  C   UNL A   1      38.587  29.802  32.038  1.00  0.00     0.131 A 
ATOM     66  C   UNL A   1      36.797  31.572  30.892  1.00  0.00     0.055 A 
ATOM     67  C   UNL A   1      37.443  30.184  32.743  1.00  0.00     0.041 A 
ATOM     68  F   UNL A   1      39.462  29.000  32.665  1.00  0.00    -0.206 F 
ATOM     69  C   UNL A   1      36.552  31.093  32.181  1.00  0.00     0.022 A 
BRANCH  66  70
ATOM     70  S   UNL A   1      35.818  32.950  30.232  1.00  0.00     0.124 S 
ATOM     71  O   UNL A   1      34.505  32.328  30.074  1.00  0.00    -0.237 OA
ATOM     72  O   UNL A   1      35.929  33.949  31.287  1.00  0.00    -0.237 OA
ATOM     73  O   UNL A   1      36.494  33.283  28.980  1.00  0.00    -0.744 OA
ENDBRANCH  66  70
ENDBRANCH  49  63
BRANCH  50  74
ATOM     74  C   UNL A   1      47.047  27.509  25.678  1.00  0.00     0.023 A 
ATOM     75  C   UNL A   1      47.173  27.816  24.314  1.00  0.00     0.031 A 
ATOM     76  C   UNL A   1      48.092  26.801  26.297  1.00  0.00     0.131 A 
ATOM     77  C   UNL A   1      48.305  27.389  23.603  1.00  0.00     0.055 A 
ATOM     78  C   UNL A   1      49.236  26.416  25.595  1.00  0.00     0.041 A 
ATOM     79  F   UNL A   1      48.022  26.489  27.601  1.00  0.00    -0.206 F 
ATOM     80  C   UNL A   1      49.343  26.702  24.237  1.00  0.00     0.022 A 
BRANCH  77  81
ATOM     81  S   UNL A   1      48.379  27.698  21.818  1.00  0.00     0.124 S 
ATOM     82  O   UNL A   1      48.616  26.358  21.293  1.00  0.00    -0.237 OA
ATOM     83  O   UNL A   1      47.062  28.267  21.554  1.00  0.00    -0.237 OA
ATOM     84  O   UNL A   1      49.496  28.631  21.680  1.00  0.00    -0.744 OA
ENDBRANCH  77  81
ENDBRANCH  50  74
BRANCH  62  85
ATOM     85  C   UNL A   1      45.283  33.261  29.201  1.00  0.00     0.023 A 
ATOM     86  C   UNL A   1      45.247  34.370  28.338  1.00  0.00     0.031 A 
ATOM     87  C   UNL A   1      46.065  33.354  30.366  1.00  0.00     0.131 A 
ATOM     88  C   UNL A   1      46.023  35.505  28.626  1.00  0.00     0.055 A 
ATOM     89  C   UNL A   1      46.786  34.508  30.678  1.00  0.00     0.041 A 
ATOM     90  F   UNL A   1      46.138  32.324  31.224  1.00  0.00    -0.206 F 
ATOM     91  C   UNL A   1      46.779  35.587  29.798  1.00  0.00     0.022 A 
BRANCH  88  92
ATOM     92  S   UNL A   1      46.104  36.840  27.401  1.00  0.00     0.124 S 
ATOM     93  O   UNL A   1      47.352  37.508  27.761  1.00  0.00    -0.237 OA
ATOM     94  O   UNL A   1      46.116  36.106  26.139  1.00  0.00    -0.237 OA
ATOM     95  O   UNL A   1      44.891  37.614  27.655  1.00  0.00    -0.744 OA
ENDBRANCH  88  92
ENDBRANCH  62  85
ENDBRANCH  36  37
ENDBRANCH  28  31
ENDBRANCH  26  27
ENDBRANCH  25  26
ENDBRANCH   1  25
TORSDOF 21
ENDMDL
