MODEL 1
REMARK VINA RESULT:     -12.4      0.000      0.000
REMARK SMILES O=C(NCCCCNC(=O)[C@H]1CC[C@H](CN2C(=O)c3cccnc3C2=O)O1)c1ccc(-c2c3nc(c(-c4cc(S(=O)(=O)[O-])ccc4F)c4ccc([nH]4)c(-c4cc(S(=O)(=O)[O-])ccc4F)c4nc(c(-c5cc(S(=O)(=O)[O-])ccc5F)c5ccc2[nH]5)C=C4)C=C3)cc1
REMARK SMILES IDX 5 1 4 2 3 3 1 4 2 5 28 7 29 8 90 9 30 10 89 11 31 12 32 13
REMARK SMILES IDX 33 14 83 15 34 16 88 17 82 18 84 19 35 20 87 21 81 22 80 23
REMARK SMILES IDX 36 25 68 26 48 27 67 28 49 29 52 30 66 31 85 32 50 33 51 34
REMARK SMILES IDX 65 36 86 37 53 38 37 39 38 40 46 41 39 42 45 43 47 44 44 45
REMARK SMILES IDX 40 46 41 47 42 48 43 49 69 50 70 51 78 52 71 53 77 54 79 55
REMARK SMILES IDX 76 56 72 57 73 58 74 59 75 60 54 61 55 62 63 63 56 64 62 65
REMARK SMILES IDX 64 66 61 67 57 68 58 69 59 70 60 71 6 72 7 73 8 74 9 75
REMARK SMILES IDX 10 77 11 78 12 79 27 80 13 81 14 82 15 83 16 84 17 85 25 86
REMARK SMILES IDX 18 87 19 88 24 89 26 90 20 91 23 92 21 93 22 94
REMARK H PARENT 3 6 84 24 52 35 8 76
REMARK Flexibility Score: inf
ROOT
ATOM      1  C   UNL A   1      32.436  28.002  25.358  1.00  0.00     0.023 C 
ENDROOT
BRANCH   1   2
ATOM      2  C   UNL A   1      33.212  29.297  25.183  1.00  0.00     0.116 C 
BRANCH   2   3
ATOM      3  N   UNL A   1      32.542  30.467  25.738  1.00  0.00    -0.352 N 
ATOM      4  O   UNL A   1      32.262  32.129  27.261  1.00  0.00    -0.269 OA
ATOM      5  C   UNL A   1      32.955  31.225  26.813  1.00  0.00     0.251 C 
ATOM      6  H   UNL A   1      31.707  30.746  25.299  1.00  0.00     0.163 HD
BRANCH   5   7
ATOM      7  C   UNL A   1      34.251  30.884  27.430  1.00  0.00     0.039 A 
ATOM      8  C   UNL A   1      34.472  29.578  27.872  1.00  0.00     0.014 A 
ATOM      9  C   UNL A   1      35.179  31.894  27.688  1.00  0.00     0.014 A 
ATOM     10  C   UNL A   1      35.535  29.321  28.722  1.00  0.00     0.010 A 
ATOM     11  C   UNL A   1      36.317  31.598  28.441  1.00  0.00     0.010 A 
ATOM     12  C   UNL A   1      36.490  30.316  28.988  1.00  0.00    -0.014 A 
BRANCH  12  13
ATOM     13  C   UNL A   1      37.703  29.953  29.764  1.00  0.00     0.031 A 
ATOM     14  C   UNL A   1      37.900  30.413  31.182  1.00  0.00     0.074 A 
ATOM     15  C   UNL A   1      38.622  29.170  29.163  1.00  0.00     0.049 A 
ATOM     16  N   UNL A   1      38.918  30.201  31.978  1.00  0.00    -0.248 NA
ATOM     17  C   UNL A   1      36.828  31.220  31.783  1.00  0.00     0.031 C 
ATOM     18  C   UNL A   1      38.524  28.665  27.789  1.00  0.00     0.029 A 
ATOM     19  N   UNL A   1      39.802  28.648  29.621  1.00  0.00    -0.354 N 
ATOM     20  C   UNL A   1      38.622  30.861  33.165  1.00  0.00     0.074 A 
ATOM     21  C   UNL A   1      37.338  31.505  32.975  1.00  0.00     0.031 C 
ATOM     22  C   UNL A   1      39.565  27.863  27.538  1.00  0.00     0.029 A 
ATOM     23  C   UNL A   1      40.460  27.881  28.685  1.00  0.00     0.049 A 
ATOM     24  H   UNL A   1      40.147  28.805  30.529  1.00  0.00     0.167 HD
ATOM     25  C   UNL A   1      39.359  30.919  34.304  1.00  0.00     0.034 A 
ATOM     26  C   UNL A   1      41.669  27.293  28.726  1.00  0.00     0.034 A 
ATOM     27  C   UNL A   1      40.638  30.266  34.465  1.00  0.00     0.049 A 
ATOM     28  C   UNL A   1      42.489  27.432  29.978  1.00  0.00     0.074 A 
ATOM     29  C   UNL A   1      41.452  30.234  35.585  1.00  0.00     0.029 A 
ATOM     30  N   UNL A   1      41.298  29.541  33.479  1.00  0.00    -0.354 N 
ATOM     31  N   UNL A   1      42.186  28.049  31.097  1.00  0.00    -0.248 NA
ATOM     32  C   UNL A   1      43.809  26.793  29.976  1.00  0.00     0.031 C 
ATOM     33  C   UNL A   1      42.636  29.569  35.251  1.00  0.00     0.029 A 
ATOM     34  C   UNL A   1      42.524  29.096  33.953  1.00  0.00     0.049 A 
ATOM     35  H   UNL A   1      40.946  29.369  32.576  1.00  0.00     0.167 HD
ATOM     36  C   UNL A   1      43.272  27.845  31.943  1.00  0.00     0.074 A 
ATOM     37  C   UNL A   1      44.220  27.030  31.212  1.00  0.00     0.031 C 
ATOM     38  C   UNL A   1      43.466  28.291  33.210  1.00  0.00     0.034 A 
BRANCH  25  39
ATOM     39  C   UNL A   1      38.831  31.754  35.449  1.00  0.00     0.023 A 
ATOM     40  C   UNL A   1      38.249  31.174  36.589  1.00  0.00     0.031 A 
ATOM     41  C   UNL A   1      38.933  33.156  35.405  1.00  0.00     0.131 A 
ATOM     42  C   UNL A   1      37.747  31.994  37.613  1.00  0.00     0.055 A 
ATOM     43  C   UNL A   1      38.503  33.963  36.460  1.00  0.00     0.041 A 
ATOM     44  F   UNL A   1      39.458  33.770  34.332  1.00  0.00    -0.206 F 
ATOM     45  C   UNL A   1      37.896  33.382  37.569  1.00  0.00     0.022 A 
BRANCH  42  46
ATOM     46  S   UNL A   1      36.789  31.228  38.950  1.00  0.00     0.124 S 
ATOM     47  O   UNL A   1      35.669  32.157  39.079  1.00  0.00    -0.237 OA
ATOM     48  O   UNL A   1      36.469  29.917  38.398  1.00  0.00    -0.237 OA
ATOM     49  O   UNL A   1      37.717  31.221  40.078  1.00  0.00    -0.744 OA
ENDBRANCH  42  46
ENDBRANCH  25  39
BRANCH  26  50
ATOM     50  C   UNL A   1      42.197  26.573  27.531  1.00  0.00     0.023 A 
ATOM     51  C   UNL A   1      41.930  25.211  27.334  1.00  0.00     0.031 A 
ATOM     52  C   UNL A   1      43.020  27.226  26.596  1.00  0.00     0.131 A 
ATOM     53  C   UNL A   1      42.531  24.531  26.264  1.00  0.00     0.055 A 
ATOM     54  C   UNL A   1      43.553  26.564  25.490  1.00  0.00     0.041 A 
ATOM     55  F   UNL A   1      43.309  28.531  26.735  1.00  0.00    -0.206 F 
ATOM     56  C   UNL A   1      43.325  25.202  25.331  1.00  0.00     0.022 A 
BRANCH  53  57
ATOM     57  S   UNL A   1      42.363  22.728  26.185  1.00  0.00     0.124 S 
ATOM     58  O   UNL A   1      40.918  22.562  26.283  1.00  0.00    -0.237 OA
ATOM     59  O   UNL A   1      42.958  22.426  24.888  1.00  0.00    -0.237 OA
ATOM     60  O   UNL A   1      43.125  22.266  27.343  1.00  0.00    -0.744 OA
ENDBRANCH  53  57
ENDBRANCH  26  50
BRANCH  38  61
ATOM     61  C   UNL A   1      44.735  27.853  33.899  1.00  0.00     0.023 A 
ATOM     62  C   UNL A   1      44.803  26.662  34.643  1.00  0.00     0.031 A 
ATOM     63  C   UNL A   1      45.887  28.657  33.832  1.00  0.00     0.131 A 
ATOM     64  C   UNL A   1      45.976  26.341  35.342  1.00  0.00     0.055 A 
ATOM     65  C   UNL A   1      47.074  28.295  34.469  1.00  0.00     0.041 A 
ATOM     66  F   UNL A   1      45.878  29.810  33.143  1.00  0.00    -0.206 F 
ATOM     67  C   UNL A   1      47.119  27.140  35.243  1.00  0.00     0.022 A 
BRANCH  64  68
ATOM     68  S   UNL A   1      45.954  24.926  36.475  1.00  0.00     0.124 S 
ATOM     69  O   UNL A   1      45.179  23.946  35.721  1.00  0.00    -0.237 OA
ATOM     70  O   UNL A   1      47.374  24.630  36.634  1.00  0.00    -0.237 OA
ATOM     71  O   UNL A   1      45.294  25.452  37.669  1.00  0.00    -0.744 OA
ENDBRANCH  64  68
ENDBRANCH  38  61
ENDBRANCH  12  13
ENDBRANCH   5   7
ENDBRANCH   2   3
ENDBRANCH   1   2
BRANCH   1  72
ATOM     72  C   UNL A   1      31.092  27.974  24.638  1.00  0.00     0.023 C 
BRANCH  72  73
ATOM     73  C   UNL A   1      30.943  26.791  23.683  1.00  0.00     0.116 C 
BRANCH  73  74
ATOM     74  N   UNL A   1      32.052  26.699  22.761  1.00  0.00    -0.354 N 
ATOM     75  C   UNL A   1      32.889  25.665  22.487  1.00  0.00     0.249 C 
ATOM     76  H   UNL A   1      32.229  27.521  22.249  1.00  0.00     0.163 HD
ATOM     77  O   UNL A   1      33.708  25.830  21.575  1.00  0.00    -0.272 OA
BRANCH  75  78
ATOM     78  C   UNL A   1      32.923  24.354  23.320  1.00  0.00     0.207 C 
ATOM     79  C   UNL A   1      33.753  23.293  22.617  1.00  0.00     0.045 C 
ATOM     80  O   UNL A   1      33.335  24.351  24.683  1.00  0.00    -0.363 OA
ATOM     81  C   UNL A   1      35.024  23.236  23.419  1.00  0.00     0.037 C 
ATOM     82  C   UNL A   1      34.616  23.712  24.805  1.00  0.00     0.139 C 
BRANCH  82  83
ATOM     83  C   UNL A   1      34.582  22.632  25.894  1.00  0.00     0.161 C 
BRANCH  83  84
ATOM     84  N   UNL A   1      34.272  21.329  25.328  1.00  0.00    -0.270 N 
ATOM     85  C   UNL A   1      35.211  20.387  25.020  1.00  0.00     0.263 C 
ATOM     86  C   UNL A   1      32.995  20.841  25.194  1.00  0.00     0.280 C 
ATOM     87  O   UNL A   1      36.422  20.463  25.058  1.00  0.00    -0.269 OA
ATOM     88  C   UNL A   1      34.484  19.174  24.676  1.00  0.00     0.071 A 
ATOM     89  C   UNL A   1      33.142  19.441  24.777  1.00  0.00     0.141 A 
ATOM     90  O   UNL A   1      31.949  21.418  25.428  1.00  0.00    -0.267 OA
ATOM     91  C   UNL A   1      34.917  17.901  24.377  1.00  0.00     0.018 A 
ATOM     92  N   UNL A   1      32.151  18.548  24.618  1.00  0.00    -0.250 NA
ATOM     93  C   UNL A   1      33.926  16.933  24.198  1.00  0.00     0.021 A 
ATOM     94  C   UNL A   1      32.578  17.296  24.329  1.00  0.00     0.112 A 
ENDBRANCH  83  84
ENDBRANCH  82  83
ENDBRANCH  75  78
ENDBRANCH  73  74
ENDBRANCH  72  73
ENDBRANCH   1  72
TORSDOF 16
ENDMDL
MODEL 2
REMARK VINA RESULT:     -12.4      2.462      8.177
REMARK SMILES O=C(NCCCCNC(=O)[C@H]1CC[C@H](CN2C(=O)c3cccnc3C2=O)O1)c1ccc(-c2c3nc(c(-c4cc(S(=O)(=O)[O-])ccc4F)c4ccc([nH]4)c(-c4cc(S(=O)(=O)[O-])ccc4F)c4nc(c(-c5cc(S(=O)(=O)[O-])ccc5F)c5ccc2[nH]5)C=C4)C=C3)cc1
REMARK SMILES IDX 5 1 4 2 3 3 1 4 2 5 28 7 29 8 90 9 30 10 89 11 31 12 32 13
REMARK SMILES IDX 33 14 83 15 34 16 88 17 82 18 84 19 35 20 87 21 81 22 80 23
REMARK SMILES IDX 36 25 68 26 48 27 67 28 49 29 52 30 66 31 85 32 50 33 51 34
REMARK SMILES IDX 65 36 86 37 53 38 37 39 38 40 46 41 39 42 45 43 47 44 44 45
REMARK SMILES IDX 40 46 41 47 42 48 43 49 69 50 70 51 78 52 71 53 77 54 79 55
REMARK SMILES IDX 76 56 72 57 73 58 74 59 75 60 54 61 55 62 63 63 56 64 62 65
REMARK SMILES IDX 64 66 61 67 57 68 58 69 59 70 60 71 6 72 7 73 8 74 9 75
REMARK SMILES IDX 10 77 11 78 12 79 27 80 13 81 14 82 15 83 16 84 17 85 25 86
REMARK SMILES IDX 18 87 19 88 24 89 26 90 20 91 23 92 21 93 22 94
REMARK H PARENT 3 6 84 24 52 35 8 76
REMARK Flexibility Score: inf
ROOT
ATOM      1  C   UNL A   1      31.812  31.676  26.812  1.00  0.00     0.023 C 
ENDROOT
BRANCH   1   2
ATOM      2  C   UNL A   1      32.958  32.501  27.373  1.00  0.00     0.116 C 
BRANCH   2   3
ATOM      3  N   UNL A   1      32.608  33.890  27.646  1.00  0.00    -0.352 N 
ATOM      4  O   UNL A   1      32.727  35.834  28.816  1.00  0.00    -0.269 OA
ATOM      5  C   UNL A   1      33.167  34.711  28.602  1.00  0.00     0.251 C 
ATOM      6  H   UNL A   1      31.899  34.283  27.089  1.00  0.00     0.163 HD
BRANCH   5   7
ATOM      7  C   UNL A   1      34.295  34.175  29.387  1.00  0.00     0.039 A 
ATOM      8  C   UNL A   1      35.601  34.462  28.987  1.00  0.00     0.014 A 
ATOM      9  C   UNL A   1      34.046  33.282  30.431  1.00  0.00     0.014 A 
ATOM     10  C   UNL A   1      36.650  33.725  29.512  1.00  0.00     0.010 A 
ATOM     11  C   UNL A   1      35.120  32.634  31.045  1.00  0.00     0.010 A 
ATOM     12  C   UNL A   1      36.428  32.828  30.570  1.00  0.00    -0.014 A 
BRANCH  12  13
ATOM     13  C   UNL A   1      37.600  32.185  31.218  1.00  0.00     0.031 A 
ATOM     14  C   UNL A   1      38.359  31.073  30.550  1.00  0.00     0.074 A 
ATOM     15  C   UNL A   1      37.982  32.647  32.426  1.00  0.00     0.049 A 
ATOM     16  N   UNL A   1      39.384  30.394  31.001  1.00  0.00    -0.248 NA
ATOM     17  C   UNL A   1      37.910  30.661  29.212  1.00  0.00     0.031 C 
ATOM     18  C   UNL A   1      37.315  33.728  33.160  1.00  0.00     0.029 A 
ATOM     19  N   UNL A   1      39.022  32.291  33.242  1.00  0.00    -0.354 N 
ATOM     20  C   UNL A   1      39.693  29.463  30.016  1.00  0.00     0.074 A 
ATOM     21  C   UNL A   1      38.727  29.647  28.952  1.00  0.00     0.031 C 
ATOM     22  C   UNL A   1      37.993  33.984  34.284  1.00  0.00     0.029 A 
ATOM     23  C   UNL A   1      39.075  33.019  34.409  1.00  0.00     0.049 A 
ATOM     24  H   UNL A   1      39.669  31.584  33.017  1.00  0.00     0.167 HD
ATOM     25  C   UNL A   1      40.691  28.544  30.008  1.00  0.00     0.034 A 
ATOM     26  C   UNL A   1      39.877  32.898  35.483  1.00  0.00     0.034 A 
ATOM     27  C   UNL A   1      41.641  28.382  31.085  1.00  0.00     0.049 A 
ATOM     28  C   UNL A   1      40.930  31.826  35.470  1.00  0.00     0.074 A 
ATOM     29  C   UNL A   1      42.709  27.505  31.166  1.00  0.00     0.029 A 
ATOM     30  N   UNL A   1      41.633  29.102  32.275  1.00  0.00    -0.354 N 
ATOM     31  N   UNL A   1      41.218  30.963  34.523  1.00  0.00    -0.248 NA
ATOM     32  C   UNL A   1      41.771  31.713  36.667  1.00  0.00     0.031 C 
ATOM     33  C   UNL A   1      43.290  27.632  32.432  1.00  0.00     0.029 A 
ATOM     34  C   UNL A   1      42.650  28.658  33.108  1.00  0.00     0.049 A 
ATOM     35  H   UNL A   1      40.998  29.821  32.495  1.00  0.00     0.167 HD
ATOM     36  C   UNL A   1      42.294  30.224  35.002  1.00  0.00     0.074 A 
ATOM     37  C   UNL A   1      42.616  30.760  36.309  1.00  0.00     0.031 C 
ATOM     38  C   UNL A   1      42.956  29.196  34.414  1.00  0.00     0.034 A 
BRANCH  25  39
ATOM     39  C   UNL A   1      40.784  27.606  28.826  1.00  0.00     0.023 A 
ATOM     40  C   UNL A   1      41.766  27.752  27.831  1.00  0.00     0.031 A 
ATOM     41  C   UNL A   1      39.881  26.533  28.704  1.00  0.00     0.131 A 
ATOM     42  C   UNL A   1      41.791  26.872  26.737  1.00  0.00     0.055 A 
ATOM     43  C   UNL A   1      39.960  25.615  27.655  1.00  0.00     0.041 A 
ATOM     44  F   UNL A   1      38.906  26.354  29.610  1.00  0.00    -0.206 F 
ATOM     45  C   UNL A   1      40.913  25.788  26.657  1.00  0.00     0.022 A 
BRANCH  42  46
ATOM     46  S   UNL A   1      42.911  27.233  25.356  1.00  0.00     0.124 S 
ATOM     47  O   UNL A   1      42.964  25.943  24.673  1.00  0.00    -0.237 OA
ATOM     48  O   UNL A   1      42.209  28.299  24.652  1.00  0.00    -0.237 OA
ATOM     49  O   UNL A   1      44.152  27.632  26.015  1.00  0.00    -0.744 OA
ENDBRANCH  42  46
ENDBRANCH  25  39
BRANCH  26  50
ATOM     50  C   UNL A   1      39.677  33.773  36.674  1.00  0.00     0.023 A 
ATOM     51  C   UNL A   1      39.106  33.269  37.852  1.00  0.00     0.031 A 
ATOM     52  C   UNL A   1      40.006  35.140  36.634  1.00  0.00     0.131 A 
ATOM     53  C   UNL A   1      38.826  34.137  38.917  1.00  0.00     0.055 A 
ATOM     54  C   UNL A   1      39.796  35.984  37.724  1.00  0.00     0.041 A 
ATOM     55  F   UNL A   1      40.555  35.677  35.531  1.00  0.00    -0.206 F 
ATOM     56  C   UNL A   1      39.184  35.487  38.868  1.00  0.00     0.022 A 
BRANCH  53  57
ATOM     57  S   UNL A   1      37.867  33.501  40.317  1.00  0.00     0.124 S 
ATOM     58  O   UNL A   1      36.661  33.019  39.654  1.00  0.00    -0.237 OA
ATOM     59  O   UNL A   1      38.758  32.478  40.853  1.00  0.00    -0.237 OA
ATOM     60  O   UNL A   1      37.686  34.676  41.166  1.00  0.00    -0.744 OA
ENDBRANCH  53  57
ENDBRANCH  26  50
BRANCH  38  61
ATOM     61  C   UNL A   1      44.133  28.625  35.167  1.00  0.00     0.023 A 
ATOM     62  C   UNL A   1      43.975  27.636  36.154  1.00  0.00     0.031 A 
ATOM     63  C   UNL A   1      45.432  29.099  34.909  1.00  0.00     0.131 A 
ATOM     64  C   UNL A   1      45.087  27.202  36.892  1.00  0.00     0.055 A 
ATOM     65  C   UNL A   1      46.543  28.610  35.596  1.00  0.00     0.041 A 
ATOM     66  F   UNL A   1      45.642  30.050  33.984  1.00  0.00    -0.206 F 
ATOM     67  C   UNL A   1      46.373  27.667  36.604  1.00  0.00     0.022 A 
BRANCH  64  68
ATOM     68  S   UNL A   1      44.815  26.104  38.309  1.00  0.00     0.124 S 
ATOM     69  O   UNL A   1      44.763  24.793  37.671  1.00  0.00    -0.237 OA
ATOM     70  O   UNL A   1      45.988  26.365  39.137  1.00  0.00    -0.237 OA
ATOM     71  O   UNL A   1      43.547  26.572  38.867  1.00  0.00    -0.744 OA
ENDBRANCH  64  68
ENDBRANCH  38  61
ENDBRANCH  12  13
ENDBRANCH   5   7
ENDBRANCH   2   3
ENDBRANCH   1   2
BRANCH   1  72
ATOM     72  C   UNL A   1      32.042  30.169  26.857  1.00  0.00     0.023 C 
BRANCH  72  73
ATOM     73  C   UNL A   1      33.354  29.739  26.204  1.00  0.00     0.116 C 
BRANCH  73  74
ATOM     74  N   UNL A   1      33.265  29.742  24.762  1.00  0.00    -0.354 N 
ATOM     75  C   UNL A   1      32.818  28.789  23.902  1.00  0.00     0.249 C 
ATOM     76  H   UNL A   1      33.580  30.570  24.333  1.00  0.00     0.163 HD
ATOM     77  O   UNL A   1      32.766  29.091  22.705  1.00  0.00    -0.272 OA
BRANCH  75  78
ATOM     78  C   UNL A   1      32.474  27.340  24.344  1.00  0.00     0.207 C 
ATOM     79  C   UNL A   1      31.024  27.246  24.791  1.00  0.00     0.045 C 
ATOM     80  O   UNL A   1      32.705  26.228  23.486  1.00  0.00    -0.363 OA
ATOM     81  C   UNL A   1      30.343  26.521  23.663  1.00  0.00     0.037 C 
ATOM     82  C   UNL A   1      31.452  25.704  23.017  1.00  0.00     0.139 C 
BRANCH  82  83
ATOM     83  C   UNL A   1      31.377  24.188  23.243  1.00  0.00     0.161 C 
BRANCH  83  84
ATOM     84  N   UNL A   1      32.668  23.658  23.652  1.00  0.00    -0.270 N 
ATOM     85  C   UNL A   1      33.688  23.381  22.787  1.00  0.00     0.263 C 
ATOM     86  C   UNL A   1      33.060  23.531  24.962  1.00  0.00     0.280 C 
ATOM     87  O   UNL A   1      33.705  23.424  21.574  1.00  0.00    -0.269 OA
ATOM     88  C   UNL A   1      34.851  23.069  23.605  1.00  0.00     0.071 A 
ATOM     89  C   UNL A   1      34.478  23.156  24.923  1.00  0.00     0.141 A 
ATOM     90  O   UNL A   1      32.398  23.744  25.962  1.00  0.00    -0.267 OA
ATOM     91  C   UNL A   1      36.162  22.810  23.271  1.00  0.00     0.018 A 
ATOM     92  N   UNL A   1      35.297  23.017  25.980  1.00  0.00    -0.250 NA
ATOM     93  C   UNL A   1      37.055  22.652  24.333  1.00  0.00     0.021 A 
ATOM     94  C   UNL A   1      36.586  22.766  25.650  1.00  0.00     0.112 A 
ENDBRANCH  83  84
ENDBRANCH  82  83
ENDBRANCH  75  78
ENDBRANCH  73  74
ENDBRANCH  72  73
ENDBRANCH   1  72
TORSDOF 16
ENDMDL
MODEL 3
REMARK VINA RESULT:     -12.3      2.564      8.057
REMARK SMILES O=C(NCCCCNC(=O)[C@H]1CC[C@H](CN2C(=O)c3cccnc3C2=O)O1)c1ccc(-c2c3nc(c(-c4cc(S(=O)(=O)[O-])ccc4F)c4ccc([nH]4)c(-c4cc(S(=O)(=O)[O-])ccc4F)c4nc(c(-c5cc(S(=O)(=O)[O-])ccc5F)c5ccc2[nH]5)C=C4)C=C3)cc1
REMARK SMILES IDX 5 1 4 2 3 3 1 4 2 5 28 7 29 8 90 9 30 10 89 11 31 12 32 13
REMARK SMILES IDX 33 14 83 15 34 16 88 17 82 18 84 19 35 20 87 21 81 22 80 23
REMARK SMILES IDX 36 25 68 26 48 27 67 28 49 29 52 30 66 31 85 32 50 33 51 34
REMARK SMILES IDX 65 36 86 37 53 38 37 39 38 40 46 41 39 42 45 43 47 44 44 45
REMARK SMILES IDX 40 46 41 47 42 48 43 49 69 50 70 51 78 52 71 53 77 54 79 55
REMARK SMILES IDX 76 56 72 57 73 58 74 59 75 60 54 61 55 62 63 63 56 64 62 65
REMARK SMILES IDX 64 66 61 67 57 68 58 69 59 70 60 71 6 72 7 73 8 74 9 75
REMARK SMILES IDX 10 77 11 78 12 79 27 80 13 81 14 82 15 83 16 84 17 85 25 86
REMARK SMILES IDX 18 87 19 88 24 89 26 90 20 91 23 92 21 93 22 94
REMARK H PARENT 3 6 84 24 52 35 8 76
REMARK Flexibility Score: inf
ROOT
ATOM      1  C   UNL A   1      31.426  31.800  26.684  1.00  0.00     0.023 C 
ENDROOT
BRANCH   1   2
ATOM      2  C   UNL A   1      32.696  32.479  27.169  1.00  0.00     0.116 C 
BRANCH   2   3
ATOM      3  N   UNL A   1      32.483  33.821  27.699  1.00  0.00    -0.352 N 
ATOM      4  O   UNL A   1      32.896  35.545  29.119  1.00  0.00    -0.269 OA
ATOM      5  C   UNL A   1      33.224  34.452  28.675  1.00  0.00     0.251 C 
ATOM      6  H   UNL A   1      31.732  34.330  27.319  1.00  0.00     0.163 HD
BRANCH   5   7
ATOM      7  C   UNL A   1      34.411  33.746  29.194  1.00  0.00     0.039 A 
ATOM      8  C   UNL A   1      34.238  32.691  30.092  1.00  0.00     0.014 A 
ATOM      9  C   UNL A   1      35.686  34.226  28.891  1.00  0.00     0.014 A 
ATOM     10  C   UNL A   1      35.324  32.233  30.819  1.00  0.00     0.010 A 
ATOM     11  C   UNL A   1      36.795  33.673  29.537  1.00  0.00     0.010 A 
ATOM     12  C   UNL A   1      36.619  32.692  30.527  1.00  0.00    -0.014 A 
BRANCH  12  13
ATOM     13  C   UNL A   1      37.773  32.054  31.210  1.00  0.00     0.031 A 
ATOM     14  C   UNL A   1      38.584  30.974  30.548  1.00  0.00     0.074 A 
ATOM     15  C   UNL A   1      38.093  32.491  32.445  1.00  0.00     0.049 A 
ATOM     16  N   UNL A   1      39.601  30.303  31.026  1.00  0.00    -0.248 NA
ATOM     17  C   UNL A   1      38.203  30.590  29.180  1.00  0.00     0.031 C 
ATOM     18  C   UNL A   1      37.372  33.539  33.177  1.00  0.00     0.029 A 
ATOM     19  N   UNL A   1      39.103  32.132  33.297  1.00  0.00    -0.354 N 
ATOM     20  C   UNL A   1      39.972  29.405  30.032  1.00  0.00     0.074 A 
ATOM     21  C   UNL A   1      39.051  29.600  28.931  1.00  0.00     0.031 C 
ATOM     22  C   UNL A   1      37.995  33.777  34.336  1.00  0.00     0.029 A 
ATOM     23  C   UNL A   1      39.089  32.829  34.484  1.00  0.00     0.049 A 
ATOM     24  H   UNL A   1      39.773  31.444  33.083  1.00  0.00     0.167 HD
ATOM     25  C   UNL A   1      40.988  28.506  30.045  1.00  0.00     0.034 A 
ATOM     26  C   UNL A   1      39.845  32.695  35.590  1.00  0.00     0.034 A 
ATOM     27  C   UNL A   1      41.892  28.333  31.159  1.00  0.00     0.049 A 
ATOM     28  C   UNL A   1      40.919  31.644  35.596  1.00  0.00     0.074 A 
ATOM     29  C   UNL A   1      42.973  27.474  31.265  1.00  0.00     0.029 A 
ATOM     30  N   UNL A   1      41.817  29.020  32.366  1.00  0.00    -0.354 N 
ATOM     31  N   UNL A   1      41.265  30.812  34.641  1.00  0.00    -0.248 NA
ATOM     32  C   UNL A   1      41.708  31.515  36.826  1.00  0.00     0.031 C 
ATOM     33  C   UNL A   1      43.495  27.578  32.559  1.00  0.00     0.029 A 
ATOM     34  C   UNL A   1      42.805  28.574  33.232  1.00  0.00     0.049 A 
ATOM     35  H   UNL A   1      41.159  29.721  32.575  1.00  0.00     0.167 HD
ATOM     36  C   UNL A   1      42.334  30.081  35.148  1.00  0.00     0.074 A 
ATOM     37  C   UNL A   1      42.587  30.588  36.481  1.00  0.00     0.031 C 
ATOM     38  C   UNL A   1      43.042  29.081  34.564  1.00  0.00     0.034 A 
BRANCH  25  39
ATOM     39  C   UNL A   1      41.152  27.602  28.844  1.00  0.00     0.023 A 
ATOM     40  C   UNL A   1      42.150  27.816  27.878  1.00  0.00     0.031 A 
ATOM     41  C   UNL A   1      40.303  26.492  28.676  1.00  0.00     0.131 A 
ATOM     42  C   UNL A   1      42.242  26.965  26.765  1.00  0.00     0.055 A 
ATOM     43  C   UNL A   1      40.449  25.604  27.608  1.00  0.00     0.041 A 
ATOM     44  F   UNL A   1      39.316  26.248  29.552  1.00  0.00    -0.206 F 
ATOM     45  C   UNL A   1      41.417  25.845  26.638  1.00  0.00     0.022 A 
BRANCH  42  46
ATOM     46  S   UNL A   1      43.376  27.410  25.421  1.00  0.00     0.124 S 
ATOM     47  O   UNL A   1      44.164  28.474  26.039  1.00  0.00    -0.237 OA
ATOM     48  O   UNL A   1      44.080  26.157  25.173  1.00  0.00    -0.237 OA
ATOM     49  O   UNL A   1      42.484  27.848  24.349  1.00  0.00    -0.744 OA
ENDBRANCH  42  46
ENDBRANCH  25  39
BRANCH  26  50
ATOM     50  C   UNL A   1      39.575  33.533  36.793  1.00  0.00     0.023 A 
ATOM     51  C   UNL A   1      40.348  34.670  37.068  1.00  0.00     0.031 A 
ATOM     52  C   UNL A   1      38.571  33.180  37.714  1.00  0.00     0.131 A 
ATOM     53  C   UNL A   1      40.148  35.376  38.264  1.00  0.00     0.055 A 
ATOM     54  C   UNL A   1      38.325  33.930  38.863  1.00  0.00     0.041 A 
ATOM     55  F   UNL A   1      37.800  32.100  37.501  1.00  0.00    -0.206 F 
ATOM     56  C   UNL A   1      39.130  35.025  39.153  1.00  0.00     0.022 A 
BRANCH  53  57
ATOM     57  S   UNL A   1      41.326  36.683  38.700  1.00  0.00     0.124 S 
ATOM     58  O   UNL A   1      41.986  36.923  37.422  1.00  0.00    -0.237 OA
ATOM     59  O   UNL A   1      40.440  37.741  39.174  1.00  0.00    -0.237 OA
ATOM     60  O   UNL A   1      42.158  36.061  39.727  1.00  0.00    -0.744 OA
ENDBRANCH  53  57
ENDBRANCH  26  50
BRANCH  38  61
ATOM     61  C   UNL A   1      44.196  28.513  35.354  1.00  0.00     0.023 A 
ATOM     62  C   UNL A   1      44.019  27.474  36.285  1.00  0.00     0.031 A 
ATOM     63  C   UNL A   1      45.490  29.040  35.189  1.00  0.00     0.131 A 
ATOM     64  C   UNL A   1      45.104  27.041  37.062  1.00  0.00     0.055 A 
ATOM     65  C   UNL A   1      46.579  28.554  35.913  1.00  0.00     0.041 A 
ATOM     66  F   UNL A   1      45.716  30.039  34.321  1.00  0.00    -0.206 F 
ATOM     67  C   UNL A   1      46.387  27.560  36.867  1.00  0.00     0.022 A 
BRANCH  64  68
ATOM     68  S   UNL A   1      44.794  25.870  38.411  1.00  0.00     0.124 S 
ATOM     69  O   UNL A   1      46.145  25.444  38.759  1.00  0.00    -0.237 OA
ATOM     70  O   UNL A   1      44.113  26.702  39.398  1.00  0.00    -0.237 OA
ATOM     71  O   UNL A   1      43.961  24.842  37.788  1.00  0.00    -0.744 OA
ENDBRANCH  64  68
ENDBRANCH  38  61
ENDBRANCH  12  13
ENDBRANCH   5   7
ENDBRANCH   2   3
ENDBRANCH   1   2
BRANCH   1  72
ATOM     72  C   UNL A   1      31.664  30.532  25.871  1.00  0.00     0.023 C 
BRANCH  72  73
ATOM     73  C   UNL A   1      33.050  29.928  26.086  1.00  0.00     0.116 C 
BRANCH  73  74
ATOM     74  N   UNL A   1      33.519  29.223  24.916  1.00  0.00    -0.354 N 
ATOM     75  C   UNL A   1      33.593  27.890  24.658  1.00  0.00     0.249 C 
ATOM     76  H   UNL A   1      33.836  29.802  24.186  1.00  0.00     0.163 HD
ATOM     77  O   UNL A   1      33.955  27.556  23.524  1.00  0.00    -0.272 OA
BRANCH  75  78
ATOM     78  C   UNL A   1      33.344  26.800  25.736  1.00  0.00     0.207 C 
ATOM     79  C   UNL A   1      31.886  26.372  25.737  1.00  0.00     0.045 C 
ATOM     80  O   UNL A   1      34.116  25.606  25.777  1.00  0.00    -0.363 OA
ATOM     81  C   UNL A   1      31.907  25.011  25.097  1.00  0.00     0.037 C 
ATOM     82  C   UNL A   1      33.309  24.488  25.372  1.00  0.00     0.139 C 
BRANCH  82  83
ATOM     83  C   UNL A   1      33.403  23.350  26.397  1.00  0.00     0.161 C 
BRANCH  83  84
ATOM     84  N   UNL A   1      33.462  22.056  25.736  1.00  0.00    -0.270 N 
ATOM     85  C   UNL A   1      34.622  21.388  25.466  1.00  0.00     0.263 C 
ATOM     86  C   UNL A   1      32.355  21.292  25.458  1.00  0.00     0.280 C 
ATOM     87  O   UNL A   1      35.772  21.744  25.621  1.00  0.00    -0.269 OA
ATOM     88  C   UNL A   1      34.238  20.066  24.993  1.00  0.00     0.071 A 
ATOM     89  C   UNL A   1      32.867  20.001  24.983  1.00  0.00     0.141 A 
ATOM     90  O   UNL A   1      31.185  21.586  25.625  1.00  0.00    -0.267 OA
ATOM     91  C   UNL A   1      34.987  18.957  24.669  1.00  0.00     0.018 A 
ATOM     92  N   UNL A   1      32.137  18.913  24.685  1.00  0.00    -0.250 NA
ATOM     93  C   UNL A   1      34.277  17.798  24.347  1.00  0.00     0.021 A 
ATOM     94  C   UNL A   1      32.875  17.821  24.372  1.00  0.00     0.112 A 
ENDBRANCH  83  84
ENDBRANCH  82  83
ENDBRANCH  75  78
ENDBRANCH  73  74
ENDBRANCH  72  73
ENDBRANCH   1  72
TORSDOF 16
ENDMDL
