MODEL 1
REMARK VINA RESULT:     -12.1      0.000      0.000
REMARK SMILES O=C(NCCCCNC(=O)c1ccc(S(=O)(=O)Cc2cccs2)c(F)c1)c1ccc(-c2c3nc(c(-c4cc(S(=O)(=O)[O-])ccc4F)c4ccc([nH]4)c(-c4cc(S(=O)(=O)[O-])ccc4F)c4nc(c(-c5cc(S(=O)(=O)[O-])ccc5F)c5ccc2[nH]5)C=C4)C=C3)cc1
REMARK SMILES IDX 5 1 4 2 3 3 1 4 2 5 27 7 28 8 89 9 29 10 88 11 30 12 31 13
REMARK SMILES IDX 32 14 82 15 33 16 87 17 81 18 83 19 34 20 86 21 80 22 79 23
REMARK SMILES IDX 35 25 67 26 47 27 66 28 48 29 51 30 65 31 84 32 49 33 50 34
REMARK SMILES IDX 64 36 85 37 52 38 36 39 37 40 45 41 38 42 44 43 46 44 43 45
REMARK SMILES IDX 39 46 40 47 41 48 42 49 68 50 69 51 77 52 70 53 76 54 78 55
REMARK SMILES IDX 75 56 71 57 72 58 73 59 74 60 53 61 54 62 62 63 55 64 61 65
REMARK SMILES IDX 63 66 60 67 56 68 57 69 58 70 59 71 6 72 7 73 8 74 9 75
REMARK SMILES IDX 10 77 11 78 12 79 26 80 13 81 24 82 14 83 25 84 15 85 16 86
REMARK SMILES IDX 17 87 18 88 19 89 20 90 23 91 21 92 22 93
REMARK H PARENT 3 6 83 24 51 35 8 76
REMARK Flexibility Score: inf
ROOT
ATOM      1  C   UNL A   1      35.860  21.432  24.495  1.00  0.00     0.023 C 
ENDROOT
BRANCH   1   2
ATOM      2  C   UNL A   1      37.007  21.856  25.405  1.00  0.00     0.116 C 
BRANCH   2   3
ATOM      3  N   UNL A   1      38.014  20.820  25.590  1.00  0.00    -0.352 N 
ATOM      4  O   UNL A   1      40.038  19.962  26.097  1.00  0.00    -0.269 OA
ATOM      5  C   UNL A   1      39.286  20.931  26.103  1.00  0.00     0.251 C 
ATOM      6  H   UNL A   1      37.747  19.914  25.308  1.00  0.00     0.163 HD
BRANCH   5   7
ATOM      7  C   UNL A   1      39.749  22.235  26.626  1.00  0.00     0.039 A 
ATOM      8  C   UNL A   1      39.201  23.426  26.146  1.00  0.00     0.014 A 
ATOM      9  C   UNL A   1      40.778  22.262  27.571  1.00  0.00     0.014 A 
ATOM     10  C   UNL A   1      39.794  24.637  26.483  1.00  0.00     0.010 A 
ATOM     11  C   UNL A   1      41.318  23.488  27.971  1.00  0.00     0.010 A 
ATOM     12  C   UNL A   1      40.862  24.683  27.394  1.00  0.00    -0.014 A 
BRANCH  12  13
ATOM     13  C   UNL A   1      41.481  25.994  27.721  1.00  0.00     0.031 A 
ATOM     14  C   UNL A   1      42.836  26.364  27.177  1.00  0.00     0.074 A 
ATOM     15  C   UNL A   1      40.782  26.881  28.456  1.00  0.00     0.049 A 
ATOM     16  N   UNL A   1      43.514  27.472  27.346  1.00  0.00    -0.248 NA
ATOM     17  C   UNL A   1      43.521  25.367  26.340  1.00  0.00     0.031 C 
ATOM     18  C   UNL A   1      39.454  26.639  29.025  1.00  0.00     0.029 A 
ATOM     19  N   UNL A   1      41.069  28.169  28.827  1.00  0.00    -0.354 N 
ATOM     20  C   UNL A   1      44.708  27.299  26.655  1.00  0.00     0.074 A 
ATOM     21  C   UNL A   1      44.674  25.971  26.080  1.00  0.00     0.031 C 
ATOM     22  C   UNL A   1      39.018  27.760  29.618  1.00  0.00     0.029 A 
ATOM     23  C   UNL A   1      40.059  28.778  29.533  1.00  0.00     0.049 A 
ATOM     24  H   UNL A   1      41.920  28.616  28.608  1.00  0.00     0.167 HD
ATOM     25  C   UNL A   1      45.735  28.172  26.508  1.00  0.00     0.034 A 
ATOM     26  C   UNL A   1      39.981  30.011  30.068  1.00  0.00     0.034 A 
ATOM     27  C   UNL A   1      45.748  29.504  27.056  1.00  0.00     0.049 A 
ATOM     28  C   UNL A   1      41.152  30.943  29.924  1.00  0.00     0.074 A 
ATOM     29  C   UNL A   1      46.726  30.476  26.928  1.00  0.00     0.029 A 
ATOM     30  N   UNL A   1      44.740  30.052  27.835  1.00  0.00    -0.354 N 
ATOM     31  N   UNL A   1      42.283  30.748  29.289  1.00  0.00    -0.248 NA
ATOM     32  C   UNL A   1      41.044  32.252  30.584  1.00  0.00     0.031 C 
ATOM     33  C   UNL A   1      46.331  31.594  27.671  1.00  0.00     0.029 A 
ATOM     34  C   UNL A   1      45.085  31.338  28.219  1.00  0.00     0.049 A 
ATOM     35  H   UNL A   1      43.903  29.595  28.079  1.00  0.00     0.167 HD
ATOM     36  C   UNL A   1      43.024  31.909  29.476  1.00  0.00     0.074 A 
ATOM     37  C   UNL A   1      42.207  32.806  30.267  1.00  0.00     0.031 C 
ATOM     38  C   UNL A   1      44.270  32.204  29.032  1.00  0.00     0.034 A 
BRANCH  25  39
ATOM     39  C   UNL A   1      46.948  27.710  25.746  1.00  0.00     0.023 A 
ATOM     40  C   UNL A   1      47.096  27.960  24.372  1.00  0.00     0.031 A 
ATOM     41  C   UNL A   1      47.990  27.048  26.418  1.00  0.00     0.131 A 
ATOM     42  C   UNL A   1      48.251  27.524  23.705  1.00  0.00     0.055 A 
ATOM     43  C   UNL A   1      49.160  26.663  25.761  1.00  0.00     0.041 A 
ATOM     44  F   UNL A   1      47.890  26.773  27.728  1.00  0.00    -0.206 F 
ATOM     45  C   UNL A   1      49.293  26.897  24.396  1.00  0.00     0.022 A 
BRANCH  42  46
ATOM     46  S   UNL A   1      48.359  27.741  21.909  1.00  0.00     0.124 S 
ATOM     47  O   UNL A   1      47.048  28.306  21.602  1.00  0.00    -0.237 OA
ATOM     48  O   UNL A   1      49.493  28.646  21.763  1.00  0.00    -0.237 OA
ATOM     49  O   UNL A   1      48.579  26.384  21.412  1.00  0.00    -0.744 OA
ENDBRANCH  42  46
ENDBRANCH  25  39
BRANCH  26  50
ATOM     50  C   UNL A   1      38.769  30.414  30.830  1.00  0.00     0.023 A 
ATOM     51  C   UNL A   1      37.721  31.112  30.211  1.00  0.00     0.031 A 
ATOM     52  C   UNL A   1      38.643  30.097  32.195  1.00  0.00     0.131 A 
ATOM     53  C   UNL A   1      36.597  31.486  30.963  1.00  0.00     0.055 A 
ATOM     54  C   UNL A   1      37.507  30.439  32.928  1.00  0.00     0.041 A 
ATOM     55  F   UNL A   1      39.618  29.424  32.826  1.00  0.00    -0.206 F 
ATOM     56  C   UNL A   1      36.478  31.143  32.312  1.00  0.00     0.022 A 
BRANCH  53  57
ATOM     57  S   UNL A   1      35.295  32.457  30.156  1.00  0.00     0.124 S 
ATOM     58  O   UNL A   1      34.341  32.638  31.245  1.00  0.00    -0.237 OA
ATOM     59  O   UNL A   1      36.021  33.650  29.733  1.00  0.00    -0.237 OA
ATOM     60  O   UNL A   1      34.847  31.588  29.069  1.00  0.00    -0.744 OA
ENDBRANCH  53  57
ENDBRANCH  26  50
BRANCH  38  61
ATOM     61  C   UNL A   1      44.824  33.553  29.396  1.00  0.00     0.023 A 
ATOM     62  C   UNL A   1      44.537  34.687  28.621  1.00  0.00     0.031 A 
ATOM     63  C   UNL A   1      45.615  33.708  30.547  1.00  0.00     0.131 A 
ATOM     64  C   UNL A   1      45.061  35.933  28.995  1.00  0.00     0.055 A 
ATOM     65  C   UNL A   1      46.100  34.956  30.935  1.00  0.00     0.041 A 
ATOM     66  F   UNL A   1      45.909  32.650  31.320  1.00  0.00    -0.206 F 
ATOM     67  C   UNL A   1      45.828  36.076  30.155  1.00  0.00     0.022 A 
BRANCH  64  68
ATOM     68  S   UNL A   1      44.739  37.369  27.937  1.00  0.00     0.124 S 
ATOM     69  O   UNL A   1      44.279  38.360  28.906  1.00  0.00    -0.237 OA
ATOM     70  O   UNL A   1      46.046  37.624  27.338  1.00  0.00    -0.237 OA
ATOM     71  O   UNL A   1      43.719  36.888  27.007  1.00  0.00    -0.744 OA
ENDBRANCH  64  68
ENDBRANCH  38  61
ENDBRANCH  12  13
ENDBRANCH   5   7
ENDBRANCH   2   3
ENDBRANCH   1   2
BRANCH   1  72
ATOM     72  C   UNL A   1      34.931  20.360  25.062  1.00  0.00     0.023 C 
BRANCH  72  73
ATOM     73  C   UNL A   1      33.446  20.705  25.014  1.00  0.00     0.116 C 
BRANCH  73  74
ATOM     74  N   UNL A   1      32.947  21.192  26.291  1.00  0.00    -0.352 N 
ATOM     75  C   UNL A   1      32.664  22.482  26.658  1.00  0.00     0.251 C 
ATOM     76  H   UNL A   1      32.791  20.506  26.980  1.00  0.00     0.163 HD
ATOM     77  O   UNL A   1      32.325  22.780  27.795  1.00  0.00    -0.269 OA
BRANCH  75  78
ATOM     78  C   UNL A   1      32.787  23.537  25.643  1.00  0.00     0.042 A 
ATOM     79  C   UNL A   1      33.946  24.320  25.592  1.00  0.00     0.015 A 
ATOM     80  C   UNL A   1      31.718  23.767  24.777  1.00  0.00     0.054 A 
ATOM     81  C   UNL A   1      34.013  25.378  24.690  1.00  0.00     0.024 A 
ATOM     82  C   UNL A   1      31.792  24.829  23.885  1.00  0.00     0.142 A 
ATOM     83  C   UNL A   1      32.926  25.633  23.843  1.00  0.00     0.103 A 
ATOM     84  F   UNL A   1      30.742  25.065  23.091  1.00  0.00    -0.206 F 
BRANCH  83  85
ATOM     85  S   UNL A   1      33.038  26.989  22.718  1.00  0.00     0.186 S 
ATOM     86  O   UNL A   1      33.893  26.524  21.641  1.00  0.00    -0.223 OA
ATOM     87  O   UNL A   1      31.671  27.389  22.421  1.00  0.00    -0.223 OA
BRANCH  85  88
ATOM     88  C   UNL A   1      33.843  28.360  23.502  1.00  0.00     0.188 C 
BRANCH  88  89
ATOM     89  C   UNL A   1      33.393  28.663  24.904  1.00  0.00     0.020 A 
ATOM     90  C   UNL A   1      33.971  28.459  26.144  1.00  0.00     0.016 A 
ATOM     91  S   UNL A   1      31.847  29.414  25.072  1.00  0.00    -0.148 S 
ATOM     92  C   UNL A   1      33.169  28.956  27.214  1.00  0.00     0.012 A 
ATOM     93  C   UNL A   1      31.983  29.487  26.769  1.00  0.00     0.065 A 
ENDBRANCH  88  89
ENDBRANCH  85  88
ENDBRANCH  83  85
ENDBRANCH  75  78
ENDBRANCH  73  74
ENDBRANCH  72  73
ENDBRANCH   1  72
TORSDOF 17
ENDMDL
MODEL 2
REMARK VINA RESULT:     -12.0      1.678      7.723
REMARK SMILES O=C(NCCCCNC(=O)c1ccc(S(=O)(=O)Cc2cccs2)c(F)c1)c1ccc(-c2c3nc(c(-c4cc(S(=O)(=O)[O-])ccc4F)c4ccc([nH]4)c(-c4cc(S(=O)(=O)[O-])ccc4F)c4nc(c(-c5cc(S(=O)(=O)[O-])ccc5F)c5ccc2[nH]5)C=C4)C=C3)cc1
REMARK SMILES IDX 5 1 4 2 3 3 1 4 2 5 27 7 28 8 89 9 29 10 88 11 30 12 31 13
REMARK SMILES IDX 32 14 82 15 33 16 87 17 81 18 83 19 34 20 86 21 80 22 79 23
REMARK SMILES IDX 35 25 67 26 47 27 66 28 48 29 51 30 65 31 84 32 49 33 50 34
REMARK SMILES IDX 64 36 85 37 52 38 36 39 37 40 45 41 38 42 44 43 46 44 43 45
REMARK SMILES IDX 39 46 40 47 41 48 42 49 68 50 69 51 77 52 70 53 76 54 78 55
REMARK SMILES IDX 75 56 71 57 72 58 73 59 74 60 53 61 54 62 62 63 55 64 61 65
REMARK SMILES IDX 63 66 60 67 56 68 57 69 58 70 59 71 6 72 7 73 8 74 9 75
REMARK SMILES IDX 10 77 11 78 12 79 26 80 13 81 24 82 14 83 25 84 15 85 16 86
REMARK SMILES IDX 17 87 18 88 19 89 20 90 23 91 21 92 22 93
REMARK H PARENT 3 6 83 24 51 35 8 76
REMARK Flexibility Score: inf
ROOT
ATOM      1  C   UNL A   1      35.486  21.921  25.375  1.00  0.00     0.023 C 
ENDROOT
BRANCH   1   2
ATOM      2  C   UNL A   1      36.903  22.023  24.824  1.00  0.00     0.116 C 
BRANCH   2   3
ATOM      3  N   UNL A   1      37.765  20.923  25.233  1.00  0.00    -0.352 N 
ATOM      4  O   UNL A   1      39.602  19.938  26.098  1.00  0.00    -0.269 OA
ATOM      5  C   UNL A   1      38.957  20.966  25.920  1.00  0.00     0.251 C 
ATOM      6  H   UNL A   1      37.452  20.022  24.984  1.00  0.00     0.163 HD
BRANCH   5   7
ATOM      7  C   UNL A   1      39.470  22.265  26.406  1.00  0.00     0.039 A 
ATOM      8  C   UNL A   1      38.910  23.462  25.957  1.00  0.00     0.014 A 
ATOM      9  C   UNL A   1      40.557  22.282  27.284  1.00  0.00     0.014 A 
ATOM     10  C   UNL A   1      39.538  24.666  26.250  1.00  0.00     0.010 A 
ATOM     11  C   UNL A   1      41.138  23.502  27.645  1.00  0.00     0.010 A 
ATOM     12  C   UNL A   1      40.663  24.701  27.092  1.00  0.00    -0.014 A 
BRANCH  12  13
ATOM     13  C   UNL A   1      41.319  26.005  27.373  1.00  0.00     0.031 A 
ATOM     14  C   UNL A   1      40.652  27.031  28.251  1.00  0.00     0.074 A 
ATOM     15  C   UNL A   1      42.556  26.231  26.888  1.00  0.00     0.049 A 
ATOM     16  N   UNL A   1      41.090  28.209  28.616  1.00  0.00    -0.248 NA
ATOM     17  C   UNL A   1      39.323  26.696  28.787  1.00  0.00     0.031 C 
ATOM     18  C   UNL A   1      43.308  25.304  26.038  1.00  0.00     0.029 A 
ATOM     19  N   UNL A   1      43.412  27.287  27.061  1.00  0.00    -0.354 N 
ATOM     20  C   UNL A   1      40.088  28.763  29.405  1.00  0.00     0.074 A 
ATOM     21  C   UNL A   1      39.008  27.801  29.452  1.00  0.00     0.031 C 
ATOM     22  C   UNL A   1      44.531  25.805  25.815  1.00  0.00     0.029 A 
ATOM     23  C   UNL A   1      44.630  27.116  26.447  1.00  0.00     0.049 A 
ATOM     24  H   UNL A   1      43.176  28.093  27.577  1.00  0.00     0.167 HD
ATOM     25  C   UNL A   1      40.076  29.961  30.040  1.00  0.00     0.034 A 
ATOM     26  C   UNL A   1      45.703  27.927  26.383  1.00  0.00     0.034 A 
ATOM     27  C   UNL A   1      41.169  30.900  30.015  1.00  0.00     0.049 A 
ATOM     28  C   UNL A   1      45.645  29.267  27.061  1.00  0.00     0.074 A 
ATOM     29  C   UNL A   1      41.265  32.122  30.658  1.00  0.00     0.029 A 
ATOM     30  N   UNL A   1      42.352  30.724  29.313  1.00  0.00    -0.354 N 
ATOM     31  N   UNL A   1      44.676  29.782  27.780  1.00  0.00    -0.248 NA
ATOM     32  C   UNL A   1      46.815  30.142  26.905  1.00  0.00     0.031 C 
ATOM     33  C   UNL A   1      42.486  32.707  30.305  1.00  0.00     0.029 A 
ATOM     34  C   UNL A   1      43.172  31.827  29.484  1.00  0.00     0.049 A 
ATOM     35  H   UNL A   1      42.576  29.931  28.774  1.00  0.00     0.167 HD
ATOM     36  C   UNL A   1      45.118  31.044  28.159  1.00  0.00     0.074 A 
ATOM     37  C   UNL A   1      46.446  31.207  27.605  1.00  0.00     0.031 C 
ATOM     38  C   UNL A   1      44.479  31.984  28.899  1.00  0.00     0.034 A 
BRANCH  25  39
ATOM     39  C   UNL A   1      38.832  30.345  30.794  1.00  0.00     0.023 A 
ATOM     40  C   UNL A   1      37.801  31.083  30.191  1.00  0.00     0.031 A 
ATOM     41  C   UNL A   1      38.660  29.927  32.126  1.00  0.00     0.131 A 
ATOM     42  C   UNL A   1      36.652  31.406  30.929  1.00  0.00     0.055 A 
ATOM     43  C   UNL A   1      37.493  30.207  32.838  1.00  0.00     0.041 A 
ATOM     44  F   UNL A   1      39.623  29.233  32.751  1.00  0.00    -0.206 F 
ATOM     45  C   UNL A   1      36.482  30.953  32.241  1.00  0.00     0.022 A 
BRANCH  42  46
ATOM     46  S   UNL A   1      35.396  32.470  30.171  1.00  0.00     0.124 S 
ATOM     47  O   UNL A   1      36.147  33.705  29.958  1.00  0.00    -0.237 OA
ATOM     48  O   UNL A   1      35.033  31.730  28.967  1.00  0.00    -0.237 OA
ATOM     49  O   UNL A   1      34.351  32.549  31.190  1.00  0.00    -0.744 OA
ENDBRANCH  42  46
ENDBRANCH  25  39
BRANCH  26  50
ATOM     50  C   UNL A   1      46.902  27.512  25.608  1.00  0.00     0.023 A 
ATOM     51  C   UNL A   1      47.034  27.833  24.249  1.00  0.00     0.031 A 
ATOM     52  C   UNL A   1      47.939  26.787  26.225  1.00  0.00     0.131 A 
ATOM     53  C   UNL A   1      48.175  27.415  23.544  1.00  0.00     0.055 A 
ATOM     54  C   UNL A   1      49.086  26.408  25.530  1.00  0.00     0.041 A 
ATOM     55  F   UNL A   1      47.857  26.465  27.525  1.00  0.00    -0.206 F 
ATOM     56  C   UNL A   1      49.205  26.717  24.178  1.00  0.00     0.022 A 
BRANCH  53  57
ATOM     57  S   UNL A   1      48.282  27.775  21.770  1.00  0.00     0.124 S 
ATOM     58  O   UNL A   1      46.978  28.375  21.509  1.00  0.00    -0.237 OA
ATOM     59  O   UNL A   1      49.428  28.676  21.710  1.00  0.00    -0.237 OA
ATOM     60  O   UNL A   1      48.496  26.460  21.169  1.00  0.00    -0.744 OA
ENDBRANCH  53  57
ENDBRANCH  26  50
BRANCH  38  61
ATOM     61  C   UNL A   1      45.212  33.271  29.148  1.00  0.00     0.023 A 
ATOM     62  C   UNL A   1      45.136  34.336  28.237  1.00  0.00     0.031 A 
ATOM     63  C   UNL A   1      45.961  33.445  30.324  1.00  0.00     0.131 A 
ATOM     64  C   UNL A   1      45.824  35.528  28.505  1.00  0.00     0.055 A 
ATOM     65  C   UNL A   1      46.611  34.647  30.604  1.00  0.00     0.041 A 
ATOM     66  F   UNL A   1      46.056  32.454  31.225  1.00  0.00    -0.206 F 
ATOM     67  C   UNL A   1      46.547  35.695  29.689  1.00  0.00     0.022 A 
BRANCH  64  68
ATOM     68  S   UNL A   1      45.772  36.862  27.278  1.00  0.00     0.124 S 
ATOM     69  O   UNL A   1      46.675  37.847  27.866  1.00  0.00    -0.237 OA
ATOM     70  O   UNL A   1      46.253  36.201  26.068  1.00  0.00    -0.237 OA
ATOM     71  O   UNL A   1      44.363  37.248  27.251  1.00  0.00    -0.744 OA
ENDBRANCH  64  68
ENDBRANCH  38  61
ENDBRANCH  12  13
ENDBRANCH   5   7
ENDBRANCH   2   3
ENDBRANCH   1   2
BRANCH   1  72
ATOM     72  C   UNL A   1      34.388  21.718  24.332  1.00  0.00     0.023 C 
BRANCH  72  73
ATOM     73  C   UNL A   1      33.160  22.605  24.510  1.00  0.00     0.116 C 
BRANCH  73  74
ATOM     74  N   UNL A   1      32.565  22.473  25.830  1.00  0.00    -0.352 N 
ATOM     75  C   UNL A   1      31.941  23.435  26.583  1.00  0.00     0.251 C 
ATOM     76  H   UNL A   1      32.616  21.577  26.237  1.00  0.00     0.163 HD
ATOM     77  O   UNL A   1      31.550  23.223  27.723  1.00  0.00    -0.269 OA
BRANCH  75  78
ATOM     78  C   UNL A   1      31.750  24.766  25.992  1.00  0.00     0.042 A 
ATOM     79  C   UNL A   1      30.494  25.131  25.493  1.00  0.00     0.015 A 
ATOM     80  C   UNL A   1      32.846  25.624  25.897  1.00  0.00     0.054 A 
ATOM     81  C   UNL A   1      30.348  26.357  24.850  1.00  0.00     0.024 A 
ATOM     82  C   UNL A   1      32.690  26.842  25.248  1.00  0.00     0.142 A 
ATOM     83  C   UNL A   1      31.456  27.206  24.723  1.00  0.00     0.103 A 
ATOM     84  F   UNL A   1      33.759  27.637  25.125  1.00  0.00    -0.206 F 
BRANCH  83  85
ATOM     85  S   UNL A   1      31.239  28.749  23.891  1.00  0.00     0.186 S 
ATOM     86  O   UNL A   1      31.609  29.763  24.861  1.00  0.00    -0.223 OA
ATOM     87  O   UNL A   1      31.983  28.650  22.644  1.00  0.00    -0.223 OA
BRANCH  85  88
ATOM     88  C   UNL A   1      29.530  28.980  23.482  1.00  0.00     0.188 C 
BRANCH  88  89
ATOM     89  C   UNL A   1      29.136  30.381  23.105  1.00  0.00     0.020 A 
ATOM     90  C   UNL A   1      28.961  31.541  23.838  1.00  0.00     0.016 A 
ATOM     91  S   UNL A   1      28.817  30.667  21.432  1.00  0.00    -0.148 S 
ATOM     92  C   UNL A   1      28.613  32.660  23.025  1.00  0.00     0.012 A 
ATOM     93  C   UNL A   1      28.489  32.318  21.699  1.00  0.00     0.065 A 
ENDBRANCH  88  89
ENDBRANCH  85  88
ENDBRANCH  83  85
ENDBRANCH  75  78
ENDBRANCH  73  74
ENDBRANCH  72  73
ENDBRANCH   1  72
TORSDOF 17
ENDMDL
MODEL 3
REMARK VINA RESULT:     -11.9      5.261     10.447
REMARK SMILES O=C(NCCCCNC(=O)c1ccc(S(=O)(=O)Cc2cccs2)c(F)c1)c1ccc(-c2c3nc(c(-c4cc(S(=O)(=O)[O-])ccc4F)c4ccc([nH]4)c(-c4cc(S(=O)(=O)[O-])ccc4F)c4nc(c(-c5cc(S(=O)(=O)[O-])ccc5F)c5ccc2[nH]5)C=C4)C=C3)cc1
REMARK SMILES IDX 5 1 4 2 3 3 1 4 2 5 27 7 28 8 89 9 29 10 88 11 30 12 31 13
REMARK SMILES IDX 32 14 82 15 33 16 87 17 81 18 83 19 34 20 86 21 80 22 79 23
REMARK SMILES IDX 35 25 67 26 47 27 66 28 48 29 51 30 65 31 84 32 49 33 50 34
REMARK SMILES IDX 64 36 85 37 52 38 36 39 37 40 45 41 38 42 44 43 46 44 43 45
REMARK SMILES IDX 39 46 40 47 41 48 42 49 68 50 69 51 77 52 70 53 76 54 78 55
REMARK SMILES IDX 75 56 71 57 72 58 73 59 74 60 53 61 54 62 62 63 55 64 61 65
REMARK SMILES IDX 63 66 60 67 56 68 57 69 58 70 59 71 6 72 7 73 8 74 9 75
REMARK SMILES IDX 10 77 11 78 12 79 26 80 13 81 24 82 14 83 25 84 15 85 16 86
REMARK SMILES IDX 17 87 18 88 19 89 20 90 23 91 21 92 22 93
REMARK H PARENT 3 6 83 24 51 35 8 76
REMARK Flexibility Score: inf
ROOT
ATOM      1  C   UNL A   1      31.701  28.949  26.587  1.00  0.00     0.023 C 
ENDROOT
BRANCH   1   2
ATOM      2  C   UNL A   1      32.829  29.886  26.173  1.00  0.00     0.116 C 
BRANCH   2   3
ATOM      3  N   UNL A   1      32.597  31.274  26.548  1.00  0.00    -0.352 N 
ATOM      4  O   UNL A   1      32.959  33.216  27.640  1.00  0.00    -0.269 OA
ATOM      5  C   UNL A   1      33.359  32.092  27.351  1.00  0.00     0.251 C 
ATOM      6  H   UNL A   1      31.782  31.684  26.177  1.00  0.00     0.163 HD
BRANCH   5   7
ATOM      7  C   UNL A   1      34.641  31.592  27.892  1.00  0.00     0.039 A 
ATOM      8  C   UNL A   1      34.761  30.272  28.329  1.00  0.00     0.014 A 
ATOM      9  C   UNL A   1      35.721  32.472  28.006  1.00  0.00     0.014 A 
ATOM     10  C   UNL A   1      35.895  29.882  29.031  1.00  0.00     0.010 A 
ATOM     11  C   UNL A   1      36.894  32.051  28.640  1.00  0.00     0.010 A 
ATOM     12  C   UNL A   1      36.972  30.767  29.201  1.00  0.00    -0.014 A 
BRANCH  12  13
ATOM     13  C   UNL A   1      38.164  30.321  29.968  1.00  0.00     0.031 A 
ATOM     14  C   UNL A   1      38.377  30.769  31.391  1.00  0.00     0.074 A 
ATOM     15  C   UNL A   1      39.020  29.451  29.397  1.00  0.00     0.049 A 
ATOM     16  N   UNL A   1      39.350  30.462  32.211  1.00  0.00    -0.248 NA
ATOM     17  C   UNL A   1      37.376  31.680  31.967  1.00  0.00     0.031 C 
ATOM     18  C   UNL A   1      38.908  28.936  28.030  1.00  0.00     0.029 A 
ATOM     19  N   UNL A   1      40.131  28.822  29.897  1.00  0.00    -0.354 N 
ATOM     20  C   UNL A   1      39.089  31.152  33.389  1.00  0.00     0.074 A 
ATOM     21  C   UNL A   1      37.877  31.913  33.173  1.00  0.00     0.031 C 
ATOM     22  C   UNL A   1      39.872  28.027  27.822  1.00  0.00     0.029 A 
ATOM     23  C   UNL A   1      40.711  27.943  29.012  1.00  0.00     0.049 A 
ATOM     24  H   UNL A   1      40.481  28.985  30.803  1.00  0.00     0.167 HD
ATOM     25  C   UNL A   1      39.793  31.144  34.549  1.00  0.00     0.034 A 
ATOM     26  C   UNL A   1      41.804  27.166  29.135  1.00  0.00     0.034 A 
ATOM     27  C   UNL A   1      40.981  30.359  34.767  1.00  0.00     0.049 A 
ATOM     28  C   UNL A   1      42.588  27.209  30.417  1.00  0.00     0.074 A 
ATOM     29  C   UNL A   1      41.742  30.254  35.920  1.00  0.00     0.029 A 
ATOM     30  N   UNL A   1      41.581  29.545  33.818  1.00  0.00    -0.354 N 
ATOM     31  N   UNL A   1      42.338  27.891  31.509  1.00  0.00    -0.248 NA
ATOM     32  C   UNL A   1      43.809  26.395  30.476  1.00  0.00     0.031 C 
ATOM     33  C   UNL A   1      42.829  29.416  35.652  1.00  0.00     0.029 A 
ATOM     34  C   UNL A   1      42.718  28.958  34.349  1.00  0.00     0.049 A 
ATOM     35  H   UNL A   1      41.248  29.404  32.903  1.00  0.00     0.167 HD
ATOM     36  C   UNL A   1      43.374  27.590  32.385  1.00  0.00     0.074 A 
ATOM     37  C   UNL A   1      44.242  26.654  31.703  1.00  0.00     0.031 C 
ATOM     38  C   UNL A   1      43.587  28.051  33.643  1.00  0.00     0.034 A 
BRANCH  25  39
ATOM     39  C   UNL A   1      39.318  32.032  35.667  1.00  0.00     0.023 A 
ATOM     40  C   UNL A   1      39.778  33.352  35.807  1.00  0.00     0.031 A 
ATOM     41  C   UNL A   1      38.357  31.561  36.579  1.00  0.00     0.131 A 
ATOM     42  C   UNL A   1      39.296  34.149  36.857  1.00  0.00     0.055 A 
ATOM     43  C   UNL A   1      37.843  32.375  37.589  1.00  0.00     0.041 A 
ATOM     44  F   UNL A   1      37.898  30.303  36.495  1.00  0.00    -0.206 F 
ATOM     45  C   UNL A   1      38.315  33.676  37.734  1.00  0.00     0.022 A 
BRANCH  42  46
ATOM     46  S   UNL A   1      40.002  35.801  37.096  1.00  0.00     0.124 S 
ATOM     47  O   UNL A   1      39.660  36.451  35.833  1.00  0.00    -0.237 OA
ATOM     48  O   UNL A   1      39.292  36.285  38.274  1.00  0.00    -0.237 OA
ATOM     49  O   UNL A   1      41.427  35.541  37.292  1.00  0.00    -0.744 OA
ENDBRANCH  42  46
ENDBRANCH  25  39
BRANCH  26  50
ATOM     50  C   UNL A   1      42.245  26.321  27.995  1.00  0.00     0.023 A 
ATOM     51  C   UNL A   1      41.838  24.982  27.883  1.00  0.00     0.031 A 
ATOM     52  C   UNL A   1      43.080  26.849  26.992  1.00  0.00     0.131 A 
ATOM     53  C   UNL A   1      42.283  24.210  26.798  1.00  0.00     0.055 A 
ATOM     54  C   UNL A   1      43.488  26.087  25.898  1.00  0.00     0.041 A 
ATOM     55  F   UNL A   1      43.487  28.126  27.055  1.00  0.00    -0.206 F 
ATOM     56  C   UNL A   1      43.093  24.757  25.800  1.00  0.00     0.022 A 
BRANCH  53  57
ATOM     57  S   UNL A   1      41.807  22.461  26.723  1.00  0.00     0.124 S 
ATOM     58  O   UNL A   1      42.536  21.906  27.857  1.00  0.00    -0.237 OA
ATOM     59  O   UNL A   1      40.356  22.534  26.863  1.00  0.00    -0.237 OA
ATOM     60  O   UNL A   1      42.281  22.038  25.406  1.00  0.00    -0.744 OA
ENDBRANCH  53  57
ENDBRANCH  26  50
BRANCH  38  61
ATOM     61  C   UNL A   1      44.808  27.547  34.358  1.00  0.00     0.023 A 
ATOM     62  C   UNL A   1      44.767  26.371  35.123  1.00  0.00     0.031 A 
ATOM     63  C   UNL A   1      46.030  28.231  34.242  1.00  0.00     0.131 A 
ATOM     64  C   UNL A   1      45.928  25.923  35.768  1.00  0.00     0.055 A 
ATOM     65  C   UNL A   1      47.191  27.759  34.855  1.00  0.00     0.041 A 
ATOM     66  F   UNL A   1      46.116  29.357  33.516  1.00  0.00    -0.206 F 
ATOM     67  C   UNL A   1      47.142  26.601  35.626  1.00  0.00     0.022 A 
BRANCH  64  68
ATOM     68  S   UNL A   1      45.832  24.443  36.811  1.00  0.00     0.124 S 
ATOM     69  O   UNL A   1      46.587  24.856  37.990  1.00  0.00    -0.237 OA
ATOM     70  O   UNL A   1      44.395  24.279  37.001  1.00  0.00    -0.237 OA
ATOM     71  O   UNL A   1      46.468  23.408  35.997  1.00  0.00    -0.744 OA
ENDBRANCH  64  68
ENDBRANCH  38  61
ENDBRANCH  12  13
ENDBRANCH   5   7
ENDBRANCH   2   3
ENDBRANCH   1   2
BRANCH   1  72
ATOM     72  C   UNL A   1      32.005  27.457  26.460  1.00  0.00     0.023 C 
BRANCH  72  73
ATOM     73  C   UNL A   1      31.434  26.788  25.214  1.00  0.00     0.116 C 
BRANCH  73  74
ATOM     74  N   UNL A   1      32.128  27.189  24.000  1.00  0.00    -0.352 N 
ATOM     75  C   UNL A   1      33.080  26.499  23.295  1.00  0.00     0.251 C 
ATOM     76  H   UNL A   1      31.882  28.071  23.637  1.00  0.00     0.163 HD
ATOM     77  O   UNL A   1      33.655  26.978  22.327  1.00  0.00    -0.269 OA
BRANCH  75  78
ATOM     78  C   UNL A   1      33.420  25.138  23.734  1.00  0.00     0.042 A 
ATOM     79  C   UNL A   1      32.819  24.038  23.112  1.00  0.00     0.015 A 
ATOM     80  C   UNL A   1      34.305  24.976  24.800  1.00  0.00     0.054 A 
ATOM     81  C   UNL A   1      33.076  22.758  23.598  1.00  0.00     0.024 A 
ATOM     82  C   UNL A   1      34.549  23.696  25.281  1.00  0.00     0.142 A 
ATOM     83  C   UNL A   1      33.937  22.595  24.691  1.00  0.00     0.103 A 
ATOM     84  F   UNL A   1      35.364  23.557  26.332  1.00  0.00    -0.206 F 
BRANCH  83  85
ATOM     85  S   UNL A   1      34.232  20.960  25.290  1.00  0.00     0.186 S 
ATOM     86  O   UNL A   1      35.661  20.750  25.143  1.00  0.00    -0.223 OA
ATOM     87  O   UNL A   1      33.635  20.896  26.616  1.00  0.00    -0.223 OA
BRANCH  85  88
ATOM     88  C   UNL A   1      33.397  19.781  24.265  1.00  0.00     0.188 C 
BRANCH  88  89
ATOM     89  C   UNL A   1      33.694  18.337  24.559  1.00  0.00     0.020 A 
ATOM     90  C   UNL A   1      34.743  17.502  24.217  1.00  0.00     0.016 A 
ATOM     91  S   UNL A   1      32.529  17.488  25.508  1.00  0.00    -0.148 S 
ATOM     92  C   UNL A   1      34.608  16.194  24.768  1.00  0.00     0.012 A 
ATOM     93  C   UNL A   1      33.442  16.049  25.480  1.00  0.00     0.065 A 
ENDBRANCH  88  89
ENDBRANCH  85  88
ENDBRANCH  83  85
ENDBRANCH  75  78
ENDBRANCH  73  74
ENDBRANCH  72  73
ENDBRANCH   1  72
TORSDOF 17
ENDMDL
