MODEL 1
REMARK VINA RESULT:     -11.9      0.000      0.000
REMARK SMILES CC(C)c1ccc(O[C@H](C)C(=O)Nc2ccccc2C(=O)NCCCCNC(=O)c2ccc(-c3c4nc(c(-c5cc(S(=O)(=O)[O-])ccc5F)c5ccc([nH]5)c(-c5cc(S(=O)(=O)[O-])ccc5F)c5nc(c(-c6cc(S(=O)(=O)[O-])ccc6F)c6ccc3[nH]6)C=C5)C=C4)cc2)cc1
REMARK SMILES IDX 23 1 22 2 20 3 21 4 19 6 14 7 15 8 16 9 18 10 17 11 13 12
REMARK SMILES IDX 11 13 12 14 9 16 10 17 8 18 7 19 4 20 5 21 94 22 6 23 93 24
REMARK SMILES IDX 2 25 1 26 3 27 24 28 25 29 26 30 27 31 28 32 29 34 30 35
REMARK SMILES IDX 31 36 92 37 32 38 91 39 33 40 34 41 35 42 85 43 36 44 90 45
REMARK SMILES IDX 84 46 86 47 37 48 89 49 83 50 82 51 38 53 70 54 50 55 69 56
REMARK SMILES IDX 51 57 54 58 68 59 87 60 52 61 53 62 67 64 88 65 55 66 39 67
REMARK SMILES IDX 40 68 48 69 41 70 47 71 49 72 46 73 42 74 43 75 44 76 45 77
REMARK SMILES IDX 71 78 72 79 80 80 73 81 79 82 81 83 78 84 74 85 75 86 76 87
REMARK SMILES IDX 77 88 56 89 57 90 65 91 58 92 64 93 66 94 63 95 59 96 60 97
REMARK SMILES IDX 61 98 62 99
REMARK H PARENT 22 5 13 15 27 33 86 52 54 63
REMARK Flexibility Score: inf
ROOT
ATOM      1  C   UNL A   1      31.818  25.705  26.079  1.00  0.00     0.116 C 
ENDROOT
BRANCH   1   2
ATOM      2  N   UNL A   1      31.640  24.554  26.930  1.00  0.00    -0.352 N 
ATOM      3  C   UNL A   1      32.447  23.458  27.131  1.00  0.00     0.253 C 
ATOM      4  O   UNL A   1      32.061  22.636  27.970  1.00  0.00    -0.269 OA
ATOM      5  H   UNL A   1      30.805  24.552  27.452  1.00  0.00     0.163 HD
BRANCH   3   6
ATOM      6  C   UNL A   1      33.706  23.156  26.370  1.00  0.00     0.063 A 
ATOM      7  C   UNL A   1      34.324  21.918  26.115  1.00  0.00     0.054 A 
ATOM      8  C   UNL A   1      35.653  21.902  25.642  1.00  0.00     0.027 A 
ATOM      9  C   UNL A   1      36.315  23.074  25.275  1.00  0.00     0.002 A 
ATOM     10  C   UNL A   1      34.383  24.328  25.947  1.00  0.00     0.016 A 
ATOM     11  C   UNL A   1      35.663  24.289  25.391  1.00  0.00     0.001 A 
BRANCH   7  12
ATOM     12  N   UNL A   1      33.774  20.633  26.284  1.00  0.00    -0.322 N 
ATOM     13  C   UNL A   1      32.979  19.866  25.462  1.00  0.00     0.265 C 
ATOM     14  O   UNL A   1      32.538  18.814  25.941  1.00  0.00    -0.270 OA
ATOM     15  H   UNL A   1      33.997  20.207  27.143  1.00  0.00     0.170 HD
BRANCH  13  16
ATOM     16  C   UNL A   1      32.693  20.236  24.001  1.00  0.00     0.259 C 
ATOM     17  C   UNL A   1      32.508  19.014  23.119  1.00  0.00     0.064 C 
BRANCH  16  18
ATOM     18  O   UNL A   1      31.683  21.232  24.115  1.00  0.00    -0.481 OA
BRANCH  18  19
ATOM     19  C   UNL A   1      31.742  22.410  23.459  1.00  0.00     0.120 A 
ATOM     20  C   UNL A   1      32.247  25.006  22.529  1.00  0.00    -0.045 A 
ATOM     21  C   UNL A   1      30.996  24.665  23.060  1.00  0.00     0.008 A 
ATOM     22  C   UNL A   1      33.232  24.015  22.436  1.00  0.00     0.008 A 
ATOM     23  C   UNL A   1      30.755  23.381  23.545  1.00  0.00     0.047 A 
ATOM     24  C   UNL A   1      32.980  22.726  22.903  1.00  0.00     0.047 A 
BRANCH  20  25
ATOM     25  C   UNL A   1      32.549  26.411  22.051  1.00  0.00     0.013 C 
ATOM     26  C   UNL A   1      31.276  27.255  22.103  1.00  0.00     0.012 C 
ATOM     27  C   UNL A   1      33.686  27.078  22.832  1.00  0.00     0.012 C 
ENDBRANCH  20  25
ENDBRANCH  18  19
ENDBRANCH  16  18
ENDBRANCH  13  16
ENDBRANCH   7  12
ENDBRANCH   3   6
ENDBRANCH   1   2
BRANCH   1  28
ATOM     28  C   UNL A   1      32.001  27.037  26.792  1.00  0.00     0.023 C 
BRANCH  28  29
ATOM     29  C   UNL A   1      31.617  28.278  25.976  1.00  0.00     0.023 C 
BRANCH  29  30
ATOM     30  C   UNL A   1      32.708  29.326  25.734  1.00  0.00     0.116 C 
BRANCH  30  31
ATOM     31  N   UNL A   1      32.376  30.659  26.212  1.00  0.00    -0.352 N 
ATOM     32  C   UNL A   1      33.042  31.484  27.091  1.00  0.00     0.251 C 
ATOM     33  H   UNL A   1      31.541  31.032  25.846  1.00  0.00     0.163 HD
ATOM     34  O   UNL A   1      32.515  32.530  27.466  1.00  0.00    -0.269 OA
BRANCH  32  35
ATOM     35  C   UNL A   1      34.373  31.102  27.614  1.00  0.00     0.039 A 
ATOM     36  C   UNL A   1      35.357  32.084  27.745  1.00  0.00     0.014 A 
ATOM     37  C   UNL A   1      34.656  29.782  27.973  1.00  0.00     0.014 A 
ATOM     38  C   UNL A   1      36.585  31.763  28.334  1.00  0.00     0.010 A 
ATOM     39  C   UNL A   1      35.849  29.480  28.630  1.00  0.00     0.010 A 
ATOM     40  C   UNL A   1      36.823  30.472  28.834  1.00  0.00    -0.014 A 
BRANCH  40  41
ATOM     41  C   UNL A   1      38.059  30.160  29.607  1.00  0.00     0.031 A 
ATOM     42  C   UNL A   1      39.089  29.208  29.058  1.00  0.00     0.074 A 
ATOM     43  C   UNL A   1      38.221  30.689  30.838  1.00  0.00     0.049 A 
ATOM     44  N   UNL A   1      40.192  28.774  29.614  1.00  0.00    -0.248 NA
ATOM     45  C   UNL A   1      38.831  28.649  27.723  1.00  0.00     0.031 C 
ATOM     46  C   UNL A   1      37.271  31.585  31.504  1.00  0.00     0.029 A 
ATOM     47  N   UNL A   1      39.234  30.548  31.756  1.00  0.00    -0.354 N 
ATOM     48  C   UNL A   1      40.754  27.885  28.704  1.00  0.00     0.074 A 
ATOM     49  C   UNL A   1      39.841  27.801  27.584  1.00  0.00     0.031 C 
ATOM     50  C   UNL A   1      37.758  31.932  32.706  1.00  0.00     0.029 A 
ATOM     51  C   UNL A   1      39.027  31.247  32.925  1.00  0.00     0.049 A 
ATOM     52  H   UNL A   1      40.034  29.998  31.593  1.00  0.00     0.167 HD
ATOM     53  C   UNL A   1      41.932  27.215  28.787  1.00  0.00     0.034 A 
ATOM     54  C   UNL A   1      39.764  31.318  34.053  1.00  0.00     0.034 A 
ATOM     55  C   UNL A   1      42.841  27.320  29.904  1.00  0.00     0.049 A 
ATOM     56  C   UNL A   1      41.062  30.550  34.123  1.00  0.00     0.074 A 
ATOM     57  C   UNL A   1      44.089  26.740  30.052  1.00  0.00     0.029 A 
ATOM     58  N   UNL A   1      42.599  28.039  31.066  1.00  0.00    -0.354 N 
ATOM     59  N   UNL A   1      41.610  29.768  33.221  1.00  0.00    -0.248 NA
ATOM     60  C   UNL A   1      41.845  30.684  35.358  1.00  0.00     0.031 C 
ATOM     61  C   UNL A   1      44.566  27.043  31.332  1.00  0.00     0.029 A 
ATOM     62  C   UNL A   1      43.658  27.886  31.951  1.00  0.00     0.049 A 
ATOM     63  H   UNL A   1      41.795  28.581  31.239  1.00  0.00     0.167 HD
ATOM     64  C   UNL A   1      42.817  29.345  33.771  1.00  0.00     0.074 A 
ATOM     65  C   UNL A   1      42.926  29.975  35.070  1.00  0.00     0.031 C 
ATOM     66  C   UNL A   1      43.752  28.510  33.250  1.00  0.00     0.034 A 
BRANCH  53  67
ATOM     67  C   UNL A   1      42.295  26.289  27.650  1.00  0.00     0.023 A 
ATOM     68  C   UNL A   1      41.782  24.983  27.564  1.00  0.00     0.031 A 
ATOM     69  C   UNL A   1      43.159  26.724  26.629  1.00  0.00     0.131 A 
ATOM     70  C   UNL A   1      42.184  24.139  26.516  1.00  0.00     0.055 A 
ATOM     71  C   UNL A   1      43.494  25.906  25.548  1.00  0.00     0.041 A 
ATOM     72  F   UNL A   1      43.696  27.954  26.666  1.00  0.00    -0.206 F 
ATOM     73  C   UNL A   1      43.015  24.601  25.493  1.00  0.00     0.022 A 
BRANCH  70  74
ATOM     74  S   UNL A   1      41.701  22.392  26.575  1.00  0.00     0.124 S 
ATOM     75  O   UNL A   1      42.593  21.806  25.577  1.00  0.00    -0.237 OA
ATOM     76  O   UNL A   1      41.972  22.035  27.962  1.00  0.00    -0.237 OA
ATOM     77  O   UNL A   1      40.288  22.415  26.200  1.00  0.00    -0.744 OA
ENDBRANCH  70  74
ENDBRANCH  53  67
BRANCH  54  78
ATOM     78  C   UNL A   1      39.297  32.122  35.221  1.00  0.00     0.023 A 
ATOM     79  C   UNL A   1      39.706  33.453  35.398  1.00  0.00     0.031 A 
ATOM     80  C   UNL A   1      38.485  31.547  36.217  1.00  0.00     0.131 A 
ATOM     81  C   UNL A   1      39.356  34.145  36.569  1.00  0.00     0.055 A 
ATOM     82  C   UNL A   1      38.087  32.260  37.349  1.00  0.00     0.041 A 
ATOM     83  F   UNL A   1      38.063  30.278  36.101  1.00  0.00    -0.206 F 
ATOM     84  C   UNL A   1      38.537  33.563  37.538  1.00  0.00     0.022 A 
BRANCH  81  85
ATOM     85  S   UNL A   1      40.084  35.781  36.862  1.00  0.00     0.124 S 
ATOM     86  O   UNL A   1      39.669  36.508  35.667  1.00  0.00    -0.237 OA
ATOM     87  O   UNL A   1      39.443  36.178  38.111  1.00  0.00    -0.237 OA
ATOM     88  O   UNL A   1      41.515  35.504  36.958  1.00  0.00    -0.744 OA
ENDBRANCH  81  85
ENDBRANCH  54  78
BRANCH  66  89
ATOM     89  C   UNL A   1      44.996  28.271  34.073  1.00  0.00     0.023 A 
ATOM     90  C   UNL A   1      46.147  29.065  33.925  1.00  0.00     0.031 A 
ATOM     91  C   UNL A   1      45.036  27.220  35.007  1.00  0.00     0.131 A 
ATOM     92  C   UNL A   1      47.308  28.756  34.649  1.00  0.00     0.055 A 
ATOM     93  C   UNL A   1      46.172  26.960  35.775  1.00  0.00     0.041 A 
ATOM     94  F   UNL A   1      43.969  26.426  35.189  1.00  0.00    -0.206 F 
ATOM     95  C   UNL A   1      47.322  27.720  35.587  1.00  0.00     0.022 A 
BRANCH  92  96
ATOM     96  S   UNL A   1      48.837  29.659  34.272  1.00  0.00     0.124 S 
ATOM     97  O   UNL A   1      49.393  29.883  35.601  1.00  0.00    -0.237 OA
ATOM     98  O   UNL A   1      49.558  28.711  33.430  1.00  0.00    -0.237 OA
ATOM     99  O   UNL A   1      48.364  30.861  33.585  1.00  0.00    -0.744 OA
ENDBRANCH  92  96
ENDBRANCH  66  89
ENDBRANCH  40  41
ENDBRANCH  32  35
ENDBRANCH  30  31
ENDBRANCH  29  30
ENDBRANCH  28  29
ENDBRANCH   1  28
TORSDOF 19
ENDMDL
MODEL 2
REMARK VINA RESULT:     -11.6      2.806      4.613
REMARK SMILES CC(C)c1ccc(O[C@H](C)C(=O)Nc2ccccc2C(=O)NCCCCNC(=O)c2ccc(-c3c4nc(c(-c5cc(S(=O)(=O)[O-])ccc5F)c5ccc([nH]5)c(-c5cc(S(=O)(=O)[O-])ccc5F)c5nc(c(-c6cc(S(=O)(=O)[O-])ccc6F)c6ccc3[nH]6)C=C5)C=C4)cc2)cc1
REMARK SMILES IDX 23 1 22 2 20 3 21 4 19 6 14 7 15 8 16 9 18 10 17 11 13 12
REMARK SMILES IDX 11 13 12 14 9 16 10 17 8 18 7 19 4 20 5 21 94 22 6 23 93 24
REMARK SMILES IDX 2 25 1 26 3 27 24 28 25 29 26 30 27 31 28 32 29 34 30 35
REMARK SMILES IDX 31 36 92 37 32 38 91 39 33 40 34 41 35 42 85 43 36 44 90 45
REMARK SMILES IDX 84 46 86 47 37 48 89 49 83 50 82 51 38 53 70 54 50 55 69 56
REMARK SMILES IDX 51 57 54 58 68 59 87 60 52 61 53 62 67 64 88 65 55 66 39 67
REMARK SMILES IDX 40 68 48 69 41 70 47 71 49 72 46 73 42 74 43 75 44 76 45 77
REMARK SMILES IDX 71 78 72 79 80 80 73 81 79 82 81 83 78 84 74 85 75 86 76 87
REMARK SMILES IDX 77 88 56 89 57 90 65 91 58 92 64 93 66 94 63 95 59 96 60 97
REMARK SMILES IDX 61 98 62 99
REMARK H PARENT 22 5 13 15 27 33 86 52 54 63
REMARK Flexibility Score: inf
ROOT
ATOM      1  C   UNL A   1      33.242  29.762  26.220  1.00  0.00     0.116 C 
ENDROOT
BRANCH   1   2
ATOM      2  N   UNL A   1      33.766  29.170  25.014  1.00  0.00    -0.352 N 
ATOM      3  C   UNL A   1      33.117  28.605  23.940  1.00  0.00     0.253 C 
ATOM      4  O   UNL A   1      33.829  28.217  23.008  1.00  0.00    -0.269 OA
ATOM      5  H   UNL A   1      34.748  29.171  24.947  1.00  0.00     0.163 HD
BRANCH   3   6
ATOM      6  C   UNL A   1      31.637  28.366  23.850  1.00  0.00     0.063 A 
ATOM      7  C   UNL A   1      30.838  27.423  24.524  1.00  0.00     0.054 A 
ATOM      8  C   UNL A   1      29.529  27.179  24.059  1.00  0.00     0.027 A 
ATOM      9  C   UNL A   1      28.954  27.952  23.050  1.00  0.00     0.002 A 
ATOM     10  C   UNL A   1      31.013  29.167  22.860  1.00  0.00     0.016 A 
ATOM     11  C   UNL A   1      29.685  28.977  22.476  1.00  0.00     0.001 A 
BRANCH   7  12
ATOM     12  N   UNL A   1      31.188  26.649  25.646  1.00  0.00    -0.322 N 
ATOM     13  C   UNL A   1      31.706  25.378  25.751  1.00  0.00     0.265 C 
ATOM     14  O   UNL A   1      31.791  24.906  26.892  1.00  0.00    -0.270 OA
ATOM     15  H   UNL A   1      31.035  27.096  26.510  1.00  0.00     0.170 HD
BRANCH  13  16
ATOM     16  C   UNL A   1      32.223  24.588  24.542  1.00  0.00     0.259 C 
ATOM     17  C   UNL A   1      33.729  24.691  24.383  1.00  0.00     0.064 C 
BRANCH  16  18
ATOM     18  O   UNL A   1      31.573  23.330  24.681  1.00  0.00    -0.481 OA
BRANCH  18  19
ATOM     19  C   UNL A   1      32.240  22.156  24.660  1.00  0.00     0.120 A 
ATOM     20  C   UNL A   1      33.081  19.485  24.550  1.00  0.00    -0.045 A 
ATOM     21  C   UNL A   1      33.170  20.216  25.741  1.00  0.00     0.008 A 
ATOM     22  C   UNL A   1      32.597  20.124  23.402  1.00  0.00     0.008 A 
ATOM     23  C   UNL A   1      32.728  21.536  25.800  1.00  0.00     0.047 A 
ATOM     24  C   UNL A   1      32.175  21.451  23.460  1.00  0.00     0.047 A 
BRANCH  20  25
ATOM     25  C   UNL A   1      33.501  18.031  24.479  1.00  0.00     0.013 C 
ATOM     26  C   UNL A   1      32.830  17.249  25.606  1.00  0.00     0.012 C 
ATOM     27  C   UNL A   1      33.216  17.391  23.116  1.00  0.00     0.012 C 
ENDBRANCH  20  25
ENDBRANCH  18  19
ENDBRANCH  16  18
ENDBRANCH  13  16
ENDBRANCH   7  12
ENDBRANCH   3   6
ENDBRANCH   1   2
BRANCH   1  28
ATOM     28  C   UNL A   1      31.906  30.479  26.085  1.00  0.00     0.023 C 
BRANCH  28  29
ATOM     29  C   UNL A   1      31.709  31.684  27.013  1.00  0.00     0.023 C 
BRANCH  29  30
ATOM     30  C   UNL A   1      32.947  32.523  27.348  1.00  0.00     0.116 C 
BRANCH  30  31
ATOM     31  N   UNL A   1      32.664  33.921  27.635  1.00  0.00    -0.352 N 
ATOM     32  C   UNL A   1      33.229  34.775  28.554  1.00  0.00     0.251 C 
ATOM     33  H   UNL A   1      31.955  34.320  27.080  1.00  0.00     0.163 HD
ATOM     34  O   UNL A   1      32.748  35.894  28.726  1.00  0.00    -0.269 OA
BRANCH  32  35
ATOM     35  C   UNL A   1      34.393  34.343  29.362  1.00  0.00     0.039 A 
ATOM     36  C   UNL A   1      34.170  33.691  30.577  1.00  0.00     0.014 A 
ATOM     37  C   UNL A   1      35.700  34.580  28.930  1.00  0.00     0.014 A 
ATOM     38  C   UNL A   1      35.254  33.184  31.302  1.00  0.00     0.010 A 
ATOM     39  C   UNL A   1      36.773  34.008  29.613  1.00  0.00     0.010 A 
ATOM     40  C   UNL A   1      36.562  33.287  30.799  1.00  0.00    -0.014 A 
BRANCH  40  41
ATOM     41  C   UNL A   1      37.705  32.612  31.479  1.00  0.00     0.031 A 
ATOM     42  C   UNL A   1      38.411  31.452  30.826  1.00  0.00     0.074 A 
ATOM     43  C   UNL A   1      38.064  33.006  32.718  1.00  0.00     0.049 A 
ATOM     44  N   UNL A   1      39.381  30.708  31.293  1.00  0.00    -0.248 NA
ATOM     45  C   UNL A   1      37.947  31.061  29.487  1.00  0.00     0.031 C 
ATOM     46  C   UNL A   1      37.425  34.084  33.480  1.00  0.00     0.029 A 
ATOM     47  N   UNL A   1      39.045  32.547  33.564  1.00  0.00    -0.354 N 
ATOM     48  C   UNL A   1      39.637  29.755  30.313  1.00  0.00     0.074 A 
ATOM     49  C   UNL A   1      38.681  29.984  29.250  1.00  0.00     0.031 C 
ATOM     50  C   UNL A   1      38.046  34.218  34.663  1.00  0.00     0.029 A 
ATOM     51  C   UNL A   1      39.092  33.207  34.773  1.00  0.00     0.049 A 
ATOM     52  H   UNL A   1      39.657  31.813  33.328  1.00  0.00     0.167 HD
ATOM     53  C   UNL A   1      40.592  28.791  30.293  1.00  0.00     0.034 A 
ATOM     54  C   UNL A   1      39.875  33.013  35.853  1.00  0.00     0.034 A 
ATOM     55  C   UNL A   1      41.549  28.584  31.354  1.00  0.00     0.049 A 
ATOM     56  C   UNL A   1      40.919  31.923  35.810  1.00  0.00     0.074 A 
ATOM     57  C   UNL A   1      42.601  27.684  31.399  1.00  0.00     0.029 A 
ATOM     58  N   UNL A   1      41.569  29.274  32.559  1.00  0.00    -0.354 N 
ATOM     59  N   UNL A   1      41.190  31.077  34.843  1.00  0.00    -0.248 NA
ATOM     60  C   UNL A   1      41.769  31.771  36.998  1.00  0.00     0.031 C 
ATOM     61  C   UNL A   1      43.203  27.774  32.658  1.00  0.00     0.029 A 
ATOM     62  C   UNL A   1      42.588  28.792  33.367  1.00  0.00     0.049 A 
ATOM     63  H   UNL A   1      40.950  30.000  32.804  1.00  0.00     0.167 HD
ATOM     64  C   UNL A   1      42.264  30.315  35.297  1.00  0.00     0.074 A 
ATOM     65  C   UNL A   1      42.603  30.817  36.612  1.00  0.00     0.031 C 
ATOM     66  C   UNL A   1      42.912  29.292  34.684  1.00  0.00     0.034 A 
BRANCH  53  67
ATOM     67  C   UNL A   1      40.635  27.869  29.097  1.00  0.00     0.023 A 
ATOM     68  C   UNL A   1      41.569  28.043  28.059  1.00  0.00     0.031 A 
ATOM     69  C   UNL A   1      39.736  26.793  28.997  1.00  0.00     0.131 A 
ATOM     70  C   UNL A   1      41.542  27.193  26.942  1.00  0.00     0.055 A 
ATOM     71  C   UNL A   1      39.765  25.904  27.922  1.00  0.00     0.041 A 
ATOM     72  F   UNL A   1      38.809  26.587  29.947  1.00  0.00    -0.206 F 
ATOM     73  C   UNL A   1      40.664  26.108  26.879  1.00  0.00     0.022 A 
BRANCH  70  74
ATOM     74  S   UNL A   1      42.590  27.596  25.519  1.00  0.00     0.124 S 
ATOM     75  O   UNL A   1      43.900  27.747  26.150  1.00  0.00    -0.237 OA
ATOM     76  O   UNL A   1      42.425  26.429  24.663  1.00  0.00    -0.237 OA
ATOM     77  O   UNL A   1      42.008  28.835  25.005  1.00  0.00    -0.744 OA
ENDBRANCH  70  74
ENDBRANCH  53  67
BRANCH  54  78
ATOM     78  C   UNL A   1      39.700  33.844  37.082  1.00  0.00     0.023 A 
ATOM     79  C   UNL A   1      40.538  34.940  37.344  1.00  0.00     0.031 A 
ATOM     80  C   UNL A   1      38.733  33.511  38.049  1.00  0.00     0.131 A 
ATOM     81  C   UNL A   1      40.435  35.625  38.566  1.00  0.00     0.055 A 
ATOM     82  C   UNL A   1      38.592  34.235  39.233  1.00  0.00     0.041 A 
ATOM     83  F   UNL A   1      37.904  32.474  37.852  1.00  0.00    -0.206 F 
ATOM     84  C   UNL A   1      39.458  35.290  39.505  1.00  0.00     0.022 A 
BRANCH  81  85
ATOM     85  S   UNL A   1      41.675  36.890  38.959  1.00  0.00     0.124 S 
ATOM     86  O   UNL A   1      42.292  37.115  37.656  1.00  0.00    -0.237 OA
ATOM     87  O   UNL A   1      40.848  37.975  39.474  1.00  0.00    -0.237 OA
ATOM     88  O   UNL A   1      42.527  36.234  39.948  1.00  0.00    -0.744 OA
ENDBRANCH  81  85
ENDBRANCH  54  78
BRANCH  66  89
ATOM     89  C   UNL A   1      44.083  28.682  35.416  1.00  0.00     0.023 A 
ATOM     90  C   UNL A   1      43.920  27.611  36.313  1.00  0.00     0.031 A 
ATOM     91  C   UNL A   1      45.380  29.193  35.228  1.00  0.00     0.131 A 
ATOM     92  C   UNL A   1      45.022  27.129  37.035  1.00  0.00     0.055 A 
ATOM     93  C   UNL A   1      46.483  28.664  35.899  1.00  0.00     0.041 A 
ATOM     94  F   UNL A   1      45.596  30.217  34.388  1.00  0.00    -0.206 F 
ATOM     95  C   UNL A   1      46.306  27.637  36.820  1.00  0.00     0.022 A 
BRANCH  92  96
ATOM     96  S   UNL A   1      44.739  25.902  38.342  1.00  0.00     0.124 S 
ATOM     97  O   UNL A   1      45.940  26.043  39.157  1.00  0.00    -0.237 OA
ATOM     98  O   UNL A   1      43.498  26.372  38.947  1.00  0.00    -0.237 OA
ATOM     99  O   UNL A   1      44.631  24.640  37.609  1.00  0.00    -0.744 OA
ENDBRANCH  92  96
ENDBRANCH  66  89
ENDBRANCH  40  41
ENDBRANCH  32  35
ENDBRANCH  30  31
ENDBRANCH  29  30
ENDBRANCH  28  29
ENDBRANCH   1  28
TORSDOF 19
ENDMDL
MODEL 3
REMARK VINA RESULT:     -11.3      2.491      8.388
REMARK SMILES CC(C)c1ccc(O[C@H](C)C(=O)Nc2ccccc2C(=O)NCCCCNC(=O)c2ccc(-c3c4nc(c(-c5cc(S(=O)(=O)[O-])ccc5F)c5ccc([nH]5)c(-c5cc(S(=O)(=O)[O-])ccc5F)c5nc(c(-c6cc(S(=O)(=O)[O-])ccc6F)c6ccc3[nH]6)C=C5)C=C4)cc2)cc1
REMARK SMILES IDX 23 1 22 2 20 3 21 4 19 6 14 7 15 8 16 9 18 10 17 11 13 12
REMARK SMILES IDX 11 13 12 14 9 16 10 17 8 18 7 19 4 20 5 21 94 22 6 23 93 24
REMARK SMILES IDX 2 25 1 26 3 27 24 28 25 29 26 30 27 31 28 32 29 34 30 35
REMARK SMILES IDX 31 36 92 37 32 38 91 39 33 40 34 41 35 42 85 43 36 44 90 45
REMARK SMILES IDX 84 46 86 47 37 48 89 49 83 50 82 51 38 53 70 54 50 55 69 56
REMARK SMILES IDX 51 57 54 58 68 59 87 60 52 61 53 62 67 64 88 65 55 66 39 67
REMARK SMILES IDX 40 68 48 69 41 70 47 71 49 72 46 73 42 74 43 75 44 76 45 77
REMARK SMILES IDX 71 78 72 79 80 80 73 81 79 82 81 83 78 84 74 85 75 86 76 87
REMARK SMILES IDX 77 88 56 89 57 90 65 91 58 92 64 93 66 94 63 95 59 96 60 97
REMARK SMILES IDX 61 98 62 99
REMARK H PARENT 22 5 13 15 27 33 86 52 54 63
REMARK Flexibility Score: inf
ROOT
ATOM      1  C   UNL A   1      32.219  30.298  25.965  1.00  0.00     0.116 C 
ENDROOT
BRANCH   1   2
ATOM      2  N   UNL A   1      32.781  29.860  24.711  1.00  0.00    -0.352 N 
ATOM      3  C   UNL A   1      32.338  28.915  23.814  1.00  0.00     0.253 C 
ATOM      4  O   UNL A   1      33.003  28.780  22.782  1.00  0.00    -0.269 OA
ATOM      5  H   UNL A   1      33.618  30.310  24.454  1.00  0.00     0.163 HD
BRANCH   3   6
ATOM      6  C   UNL A   1      31.164  28.002  24.026  1.00  0.00     0.063 A 
ATOM      7  C   UNL A   1      31.114  26.732  24.631  1.00  0.00     0.054 A 
ATOM      8  C   UNL A   1      29.966  25.932  24.448  1.00  0.00     0.027 A 
ATOM      9  C   UNL A   1      28.824  26.424  23.816  1.00  0.00     0.002 A 
ATOM     10  C   UNL A   1      29.975  28.493  23.430  1.00  0.00     0.016 A 
ATOM     11  C   UNL A   1      28.814  27.724  23.340  1.00  0.00     0.001 A 
BRANCH   7  12
ATOM     12  N   UNL A   1      32.103  26.120  25.424  1.00  0.00    -0.322 N 
ATOM     13  C   UNL A   1      32.825  24.961  25.247  1.00  0.00     0.265 C 
ATOM     14  O   UNL A   1      33.543  24.607  26.191  1.00  0.00    -0.270 OA
ATOM     15  H   UNL A   1      32.316  26.607  26.253  1.00  0.00     0.170 HD
BRANCH  13  16
ATOM     16  C   UNL A   1      32.814  24.167  23.936  1.00  0.00     0.259 C 
ATOM     17  C   UNL A   1      34.170  24.156  23.252  1.00  0.00     0.064 C 
BRANCH  16  18
ATOM     18  O   UNL A   1      32.153  22.960  24.299  1.00  0.00    -0.481 OA
BRANCH  18  19
ATOM     19  C   UNL A   1      32.765  21.756  24.277  1.00  0.00     0.120 A 
ATOM     20  C   UNL A   1      33.518  19.062  24.454  1.00  0.00    -0.045 A 
ATOM     21  C   UNL A   1      34.093  20.024  25.294  1.00  0.00     0.008 A 
ATOM     22  C   UNL A   1      32.584  19.477  23.497  1.00  0.00     0.008 A 
ATOM     23  C   UNL A   1      33.699  21.359  25.222  1.00  0.00     0.047 A 
ATOM     24  C   UNL A   1      32.208  20.817  23.413  1.00  0.00     0.047 A 
BRANCH  20  25
ATOM     25  C   UNL A   1      33.888  17.597  24.557  1.00  0.00     0.013 C 
ATOM     26  C   UNL A   1      32.813  16.851  25.346  1.00  0.00     0.012 C 
ATOM     27  C   UNL A   1      34.126  16.942  23.192  1.00  0.00     0.012 C 
ENDBRANCH  20  25
ENDBRANCH  18  19
ENDBRANCH  16  18
ENDBRANCH  13  16
ENDBRANCH   7  12
ENDBRANCH   3   6
ENDBRANCH   1   2
BRANCH   1  28
ATOM     28  C   UNL A   1      31.037  31.252  25.868  1.00  0.00     0.023 C 
BRANCH  28  29
ATOM     29  C   UNL A   1      31.245  32.625  26.521  1.00  0.00     0.023 C 
BRANCH  29  30
ATOM     30  C   UNL A   1      32.648  32.951  27.041  1.00  0.00     0.116 C 
BRANCH  30  31
ATOM     31  N   UNL A   1      32.728  34.173  27.826  1.00  0.00    -0.352 N 
ATOM     32  C   UNL A   1      33.591  34.528  28.839  1.00  0.00     0.251 C 
ATOM     33  H   UNL A   1      32.059  34.856  27.595  1.00  0.00     0.163 HD
ATOM     34  O   UNL A   1      33.401  35.569  29.467  1.00  0.00    -0.269 OA
BRANCH  32  35
ATOM     35  C   UNL A   1      34.726  33.649  29.199  1.00  0.00     0.039 A 
ATOM     36  C   UNL A   1      36.003  33.963  28.729  1.00  0.00     0.014 A 
ATOM     37  C   UNL A   1      34.538  32.517  29.996  1.00  0.00     0.014 A 
ATOM     38  C   UNL A   1      37.102  33.204  29.144  1.00  0.00     0.010 A 
ATOM     39  C   UNL A   1      35.642  31.809  30.471  1.00  0.00     0.010 A 
ATOM     40  C   UNL A   1      36.941  32.154  30.064  1.00  0.00    -0.014 A 
BRANCH  40  41
ATOM     41  C   UNL A   1      38.119  31.444  30.638  1.00  0.00     0.031 A 
ATOM     42  C   UNL A   1      38.694  31.857  31.968  1.00  0.00     0.074 A 
ATOM     43  C   UNL A   1      38.712  30.463  29.926  1.00  0.00     0.049 A 
ATOM     44  N   UNL A   1      39.748  31.395  32.591  1.00  0.00    -0.248 NA
ATOM     45  C   UNL A   1      38.011  32.951  32.674  1.00  0.00     0.031 C 
ATOM     46  C   UNL A   1      38.283  30.004  28.601  1.00  0.00     0.029 A 
ATOM     47  N   UNL A   1      39.806  29.679  30.203  1.00  0.00    -0.354 N 
ATOM     48  C   UNL A   1      39.862  32.147  33.756  1.00  0.00     0.074 A 
ATOM     49  C   UNL A   1      38.801  33.131  33.723  1.00  0.00     0.031 C 
ATOM     50  C   UNL A   1      39.086  29.006  28.197  1.00  0.00     0.029 A 
ATOM     51  C   UNL A   1      40.119  28.784  29.203  1.00  0.00     0.049 A 
ATOM     52  H   UNL A   1      40.320  29.751  31.040  1.00  0.00     0.167 HD
ATOM     53  C   UNL A   1      40.757  32.016  34.768  1.00  0.00     0.034 A 
ATOM     54  C   UNL A   1      41.129  27.898  29.097  1.00  0.00     0.034 A 
ATOM     55  C   UNL A   1      41.802  31.020  34.795  1.00  0.00     0.049 A 
ATOM     56  C   UNL A   1      42.120  27.785  30.230  1.00  0.00     0.074 A 
ATOM     57  C   UNL A   1      42.713  30.758  35.804  1.00  0.00     0.029 A 
ATOM     58  N   UNL A   1      42.084  30.130  33.767  1.00  0.00    -0.354 N 
ATOM     59  N   UNL A   1      42.169  28.459  31.357  1.00  0.00    -0.248 NA
ATOM     60  C   UNL A   1      43.184  26.783  30.084  1.00  0.00     0.031 C 
ATOM     61  C   UNL A   1      43.593  29.767  35.356  1.00  0.00     0.029 A 
ATOM     62  C   UNL A   1      43.179  29.346  34.104  1.00  0.00     0.049 A 
ATOM     63  H   UNL A   1      41.581  30.064  32.924  1.00  0.00     0.167 HD
ATOM     64  C   UNL A   1      43.250  27.938  32.063  1.00  0.00     0.074 A 
ATOM     65  C   UNL A   1      43.809  26.881  31.247  1.00  0.00     0.031 C 
ATOM     66  C   UNL A   1      43.737  28.300  33.277  1.00  0.00     0.034 A 
BRANCH  53  67
ATOM     67  C   UNL A   1      40.664  32.990  35.919  1.00  0.00     0.023 A 
ATOM     68  C   UNL A   1      39.929  32.695  37.082  1.00  0.00     0.031 A 
ATOM     69  C   UNL A   1      41.329  34.227  35.859  1.00  0.00     0.131 A 
ATOM     70  C   UNL A   1      39.828  33.649  38.107  1.00  0.00     0.055 A 
ATOM     71  C   UNL A   1      41.288  35.139  36.915  1.00  0.00     0.041 A 
ATOM     72  F   UNL A   1      42.030  34.573  34.767  1.00  0.00    -0.206 F 
ATOM     73  C   UNL A   1      40.524  34.858  38.043  1.00  0.00     0.022 A 
BRANCH  70  74
ATOM     74  S   UNL A   1      38.676  33.336  39.473  1.00  0.00     0.124 S 
ATOM     75  O   UNL A   1      39.286  32.172  40.112  1.00  0.00    -0.237 OA
ATOM     76  O   UNL A   1      38.733  34.582  40.227  1.00  0.00    -0.237 OA
ATOM     77  O   UNL A   1      37.407  33.073  38.797  1.00  0.00    -0.744 OA
ENDBRANCH  70  74
ENDBRANCH  53  67
BRANCH  54  78
ATOM     78  C   UNL A   1      41.283  27.057  27.872  1.00  0.00     0.023 A 
ATOM     79  C   UNL A   1      40.944  25.695  27.878  1.00  0.00     0.031 A 
ATOM     80  C   UNL A   1      41.835  27.591  26.693  1.00  0.00     0.131 A 
ATOM     81  C   UNL A   1      41.217  24.899  26.753  1.00  0.00     0.055 A 
ATOM     82  C   UNL A   1      42.046  26.810  25.556  1.00  0.00     0.041 A 
ATOM     83  F   UNL A   1      42.177  28.887  26.629  1.00  0.00    -0.206 F 
ATOM     84  C   UNL A   1      41.751  25.451  25.587  1.00  0.00     0.022 A 
BRANCH  81  85
ATOM     85  S   UNL A   1      40.970  23.106  26.877  1.00  0.00     0.124 S 
ATOM     86  O   UNL A   1      41.960  22.604  25.931  1.00  0.00    -0.237 OA
ATOM     87  O   UNL A   1      41.248  22.859  28.288  1.00  0.00    -0.237 OA
ATOM     88  O   UNL A   1      39.577  22.927  26.477  1.00  0.00    -0.744 OA
ENDBRANCH  81  85
ENDBRANCH  54  78
BRANCH  66  89
ATOM     89  C   UNL A   1      44.909  27.511  33.812  1.00  0.00     0.023 A 
ATOM     90  C   UNL A   1      44.730  26.330  34.553  1.00  0.00     0.031 A 
ATOM     91  C   UNL A   1      46.224  27.959  33.591  1.00  0.00     0.131 A 
ATOM     92  C   UNL A   1      45.842  25.672  35.102  1.00  0.00     0.055 A 
ATOM     93  C   UNL A   1      47.329  27.263  34.082  1.00  0.00     0.041 A 
ATOM     94  F   UNL A   1      46.456  29.081  32.893  1.00  0.00    -0.206 F 
ATOM     95  C   UNL A   1      47.142  26.122  34.855  1.00  0.00     0.022 A 
BRANCH  92  96
ATOM     96  S   UNL A   1      45.561  24.283  36.235  1.00  0.00     0.124 S 
ATOM     97  O   UNL A   1      46.325  24.690  37.409  1.00  0.00    -0.237 OA
ATOM     98  O   UNL A   1      44.110  24.290  36.383  1.00  0.00    -0.237 OA
ATOM     99  O   UNL A   1      46.104  23.134  35.509  1.00  0.00    -0.744 OA
ENDBRANCH  92  96
ENDBRANCH  66  89
ENDBRANCH  40  41
ENDBRANCH  32  35
ENDBRANCH  30  31
ENDBRANCH  29  30
ENDBRANCH  28  29
ENDBRANCH   1  28
TORSDOF 19
ENDMDL
