MODEL 1
REMARK VINA RESULT:     -11.8      0.000      0.000
REMARK SMILES O=C(NCCCCNC(=O)c1cc(Br)cc2c1OCC2)c1ccc(-c2c3nc(c(-c4cc(S(=O)(=O)[O-])ccc4F)c4ccc([nH]4)c(-c4cc(S(=O)(=O)[O-])ccc4F)c4nc(c(-c5cc(S(=O)(=O)[O-])ccc5F)c5ccc2[nH]5)C=C4)C=C3)cc1
REMARK SMILES IDX 4 1 3 2 1 3 2 4 21 6 22 7 83 8 23 9 82 10 24 11 25 12 26 13
REMARK SMILES IDX 76 14 27 15 81 16 75 17 77 18 28 19 80 20 74 21 73 22 29 24
REMARK SMILES IDX 61 25 41 26 60 27 42 28 45 29 59 30 78 31 43 32 44 33 58 35
REMARK SMILES IDX 79 36 46 37 30 38 31 39 39 40 32 41 38 42 40 43 37 44 33 45
REMARK SMILES IDX 34 46 35 47 36 48 62 49 63 50 71 51 64 52 70 53 72 54 69 55
REMARK SMILES IDX 65 56 66 57 67 58 68 59 47 60 48 61 56 62 49 63 55 64 57 65
REMARK SMILES IDX 54 66 50 67 51 68 52 69 53 70 5 71 6 72 7 73 8 74 9 75 10 77
REMARK SMILES IDX 11 78 12 79 17 80 13 81 16 82 18 83 14 84 15 85 20 86 19 87
REMARK H PARENT 3 5 77 23 45 34 8 76
REMARK Flexibility Score: inf
ROOT
ATOM      1  C   UNL A   1      36.456  22.161  25.735  1.00  0.00     0.116 C 
ENDROOT
BRANCH   1   2
ATOM      2  N   UNL A   1      37.428  21.077  25.676  1.00  0.00    -0.352 N 
ATOM      3  O   UNL A   1      39.470  20.118  25.764  1.00  0.00    -0.269 OA
ATOM      4  C   UNL A   1      38.776  21.113  25.957  1.00  0.00     0.251 C 
ATOM      5  H   UNL A   1      37.074  20.202  25.398  1.00  0.00     0.163 HD
BRANCH   4   6
ATOM      6  C   UNL A   1      39.385  22.365  26.461  1.00  0.00     0.039 A 
ATOM      7  C   UNL A   1      38.953  23.604  25.987  1.00  0.00     0.014 A 
ATOM      8  C   UNL A   1      40.421  22.296  27.398  1.00  0.00     0.014 A 
ATOM      9  C   UNL A   1      39.658  24.754  26.321  1.00  0.00     0.010 A 
ATOM     10  C   UNL A   1      41.071  23.467  27.805  1.00  0.00     0.010 A 
ATOM     11  C   UNL A   1      40.718  24.703  27.243  1.00  0.00    -0.014 A 
BRANCH  11  12
ATOM     12  C   UNL A   1      41.391  25.972  27.625  1.00  0.00     0.031 A 
ATOM     13  C   UNL A   1      42.762  26.320  27.110  1.00  0.00     0.074 A 
ATOM     14  C   UNL A   1      40.712  26.846  28.394  1.00  0.00     0.049 A 
ATOM     15  N   UNL A   1      43.457  27.415  27.295  1.00  0.00    -0.248 NA
ATOM     16  C   UNL A   1      43.446  25.309  26.291  1.00  0.00     0.031 C 
ATOM     17  C   UNL A   1      39.382  26.605  28.962  1.00  0.00     0.029 A 
ATOM     18  N   UNL A   1      41.019  28.117  28.804  1.00  0.00    -0.354 N 
ATOM     19  C   UNL A   1      44.662  27.224  26.626  1.00  0.00     0.074 A 
ATOM     20  C   UNL A   1      44.614  25.893  26.057  1.00  0.00     0.031 C 
ATOM     21  C   UNL A   1      38.962  27.712  29.590  1.00  0.00     0.029 A 
ATOM     22  C   UNL A   1      40.016  28.718  29.530  1.00  0.00     0.049 A 
ATOM     23  H   UNL A   1      41.875  28.558  28.599  1.00  0.00     0.167 HD
ATOM     24  C   UNL A   1      45.702  28.085  26.493  1.00  0.00     0.034 A 
ATOM     25  C   UNL A   1      39.953  29.938  30.095  1.00  0.00     0.034 A 
ATOM     26  C   UNL A   1      45.731  29.411  27.066  1.00  0.00     0.049 A 
ATOM     27  C   UNL A   1      41.122  30.869  29.932  1.00  0.00     0.074 A 
ATOM     28  C   UNL A   1      46.733  30.365  26.988  1.00  0.00     0.029 A 
ATOM     29  N   UNL A   1      44.712  29.974  27.824  1.00  0.00    -0.354 N 
ATOM     30  N   UNL A   1      42.252  30.667  29.294  1.00  0.00    -0.248 NA
ATOM     31  C   UNL A   1      41.007  32.189  30.561  1.00  0.00     0.031 C 
ATOM     32  C   UNL A   1      46.342  31.479  27.741  1.00  0.00     0.029 A 
ATOM     33  C   UNL A   1      45.069  31.250  28.236  1.00  0.00     0.049 A 
ATOM     34  H   UNL A   1      43.858  29.532  28.037  1.00  0.00     0.167 HD
ATOM     35  C   UNL A   1      42.983  31.840  29.445  1.00  0.00     0.074 A 
ATOM     36  C   UNL A   1      42.147  32.756  30.197  1.00  0.00     0.031 C 
ATOM     37  C   UNL A   1      44.235  32.135  29.013  1.00  0.00     0.034 A 
BRANCH  24  38
ATOM     38  C   UNL A   1      46.915  27.603  25.731  1.00  0.00     0.023 A 
ATOM     39  C   UNL A   1      47.119  27.931  24.380  1.00  0.00     0.031 A 
ATOM     40  C   UNL A   1      47.882  26.807  26.369  1.00  0.00     0.131 A 
ATOM     41  C   UNL A   1      48.237  27.427  23.697  1.00  0.00     0.055 A 
ATOM     42  C   UNL A   1      49.026  26.361  25.703  1.00  0.00     0.041 A 
ATOM     43  F   UNL A   1      47.732  26.445  27.653  1.00  0.00    -0.206 F 
ATOM     44  C   UNL A   1      49.204  26.662  24.356  1.00  0.00     0.022 A 
BRANCH  41  45
ATOM     45  S   UNL A   1      48.362  27.696  21.908  1.00  0.00     0.124 S 
ATOM     46  O   UNL A   1      48.621  26.341  21.423  1.00  0.00    -0.237 OA
ATOM     47  O   UNL A   1      47.055  28.253  21.579  1.00  0.00    -0.237 OA
ATOM     48  O   UNL A   1      49.485  28.622  21.776  1.00  0.00    -0.744 OA
ENDBRANCH  41  45
ENDBRANCH  24  38
BRANCH  25  49
ATOM     49  C   UNL A   1      38.759  30.334  30.895  1.00  0.00     0.023 A 
ATOM     50  C   UNL A   1      37.686  31.023  30.311  1.00  0.00     0.031 A 
ATOM     51  C   UNL A   1      38.693  30.053  32.272  1.00  0.00     0.131 A 
ATOM     52  C   UNL A   1      36.611  31.446  31.109  1.00  0.00     0.055 A 
ATOM     53  C   UNL A   1      37.597  30.426  33.050  1.00  0.00     0.041 A 
ATOM     54  F   UNL A   1      39.692  29.391  32.879  1.00  0.00    -0.206 F 
ATOM     55  C   UNL A   1      36.554  31.140  32.471  1.00  0.00     0.022 A 
BRANCH  52  56
ATOM     56  S   UNL A   1      35.328  32.485  30.359  1.00  0.00     0.124 S 
ATOM     57  O   UNL A   1      36.072  33.699  30.042  1.00  0.00    -0.237 OA
ATOM     58  O   UNL A   1      34.910  31.673  29.221  1.00  0.00    -0.237 OA
ATOM     59  O   UNL A   1      34.336  32.622  31.424  1.00  0.00    -0.744 OA
ENDBRANCH  52  56
ENDBRANCH  25  49
BRANCH  37  60
ATOM     60  C   UNL A   1      44.751  33.510  29.351  1.00  0.00     0.023 A 
ATOM     61  C   UNL A   1      44.590  34.589  28.463  1.00  0.00     0.031 A 
ATOM     62  C   UNL A   1      45.460  33.732  30.544  1.00  0.00     0.131 A 
ATOM     63  C   UNL A   1      45.192  35.823  28.747  1.00  0.00     0.055 A 
ATOM     64  C   UNL A   1      46.008  34.978  30.848  1.00  0.00     0.041 A 
ATOM     65  F   UNL A   1      45.644  32.735  31.424  1.00  0.00    -0.206 F 
ATOM     66  C   UNL A   1      45.890  36.028  29.940  1.00  0.00     0.022 A 
BRANCH  63  67
ATOM     67  S   UNL A   1      45.147  37.123  27.483  1.00  0.00     0.124 S 
ATOM     68  O   UNL A   1      45.636  38.283  28.222  1.00  0.00    -0.237 OA
ATOM     69  O   UNL A   1      46.044  36.594  26.460  1.00  0.00    -0.237 OA
ATOM     70  O   UNL A   1      43.737  37.180  27.100  1.00  0.00    -0.744 OA
ENDBRANCH  63  67
ENDBRANCH  37  60
ENDBRANCH  11  12
ENDBRANCH   4   6
ENDBRANCH   1   2
BRANCH   1  71
ATOM     71  C   UNL A   1      35.026  21.715  25.457  1.00  0.00     0.023 C 
BRANCH  71  72
ATOM     72  C   UNL A   1      34.225  21.256  26.673  1.00  0.00     0.023 C 
BRANCH  72  73
ATOM     73  C   UNL A   1      33.831  22.355  27.654  1.00  0.00     0.116 C 
BRANCH  73  74
ATOM     74  N   UNL A   1      32.396  22.570  27.727  1.00  0.00    -0.352 N 
ATOM     75  C   UNL A   1      31.603  23.434  27.010  1.00  0.00     0.255 C 
ATOM     76  H   UNL A   1      31.922  22.016  28.387  1.00  0.00     0.163 HD
ATOM     77  O   UNL A   1      30.395  23.488  27.211  1.00  0.00    -0.269 OA
BRANCH  75  78
ATOM     78  C   UNL A   1      32.211  24.269  25.963  1.00  0.00     0.083 A 
ATOM     79  C   UNL A   1      32.673  25.557  26.267  1.00  0.00     0.033 A 
ATOM     80  C   UNL A   1      32.349  23.799  24.668  1.00  0.00     0.135 A 
ATOM     81  C   UNL A   1      33.204  26.362  25.252  1.00  0.00     0.019 A 
ATOM     82  C   UNL A   1      32.894  24.598  23.674  1.00  0.00    -0.001 A 
ATOM     83  O   UNL A   1      31.987  22.555  24.225  1.00  0.00    -0.492 OA
ATOM     84  Br  UNL A   1      33.759  28.123  25.661  1.00  0.00    -0.051 Br
ATOM     85  C   UNL A   1      33.321  25.889  23.942  1.00  0.00     0.023 A 
ATOM     86  C   UNL A   1      32.976  23.831  22.410  1.00  0.00     0.081 C 
ATOM     87  C   UNL A   1      32.134  22.613  22.791  1.00  0.00     0.234 C 
ENDBRANCH  75  78
ENDBRANCH  73  74
ENDBRANCH  72  73
ENDBRANCH  71  72
ENDBRANCH   1  71
TORSDOF 14
ENDMDL
MODEL 2
REMARK VINA RESULT:     -11.7      1.473      2.127
REMARK SMILES O=C(NCCCCNC(=O)c1cc(Br)cc2c1OCC2)c1ccc(-c2c3nc(c(-c4cc(S(=O)(=O)[O-])ccc4F)c4ccc([nH]4)c(-c4cc(S(=O)(=O)[O-])ccc4F)c4nc(c(-c5cc(S(=O)(=O)[O-])ccc5F)c5ccc2[nH]5)C=C4)C=C3)cc1
REMARK SMILES IDX 4 1 3 2 1 3 2 4 21 6 22 7 83 8 23 9 82 10 24 11 25 12 26 13
REMARK SMILES IDX 76 14 27 15 81 16 75 17 77 18 28 19 80 20 74 21 73 22 29 24
REMARK SMILES IDX 61 25 41 26 60 27 42 28 45 29 59 30 78 31 43 32 44 33 58 35
REMARK SMILES IDX 79 36 46 37 30 38 31 39 39 40 32 41 38 42 40 43 37 44 33 45
REMARK SMILES IDX 34 46 35 47 36 48 62 49 63 50 71 51 64 52 70 53 72 54 69 55
REMARK SMILES IDX 65 56 66 57 67 58 68 59 47 60 48 61 56 62 49 63 55 64 57 65
REMARK SMILES IDX 54 66 50 67 51 68 52 69 53 70 5 71 6 72 7 73 8 74 9 75 10 77
REMARK SMILES IDX 11 78 12 79 17 80 13 81 16 82 18 83 14 84 15 85 20 86 19 87
REMARK H PARENT 3 5 77 23 45 34 8 76
REMARK Flexibility Score: inf
ROOT
ATOM      1  C   UNL A   1      35.790  22.257  26.194  1.00  0.00     0.116 C 
ENDROOT
BRANCH   1   2
ATOM      2  N   UNL A   1      36.735  21.250  25.729  1.00  0.00    -0.352 N 
ATOM      3  O   UNL A   1      38.752  20.403  25.171  1.00  0.00    -0.269 OA
ATOM      4  C   UNL A   1      38.110  21.315  25.684  1.00  0.00     0.251 C 
ATOM      5  H   UNL A   1      36.337  20.411  25.402  1.00  0.00     0.163 HD
BRANCH   4   6
ATOM      6  C   UNL A   1      38.805  22.505  26.228  1.00  0.00     0.039 A 
ATOM      7  C   UNL A   1      38.376  23.790  25.894  1.00  0.00     0.014 A 
ATOM      8  C   UNL A   1      39.915  22.331  27.059  1.00  0.00     0.014 A 
ATOM      9  C   UNL A   1      39.147  24.889  26.254  1.00  0.00     0.010 A 
ATOM     10  C   UNL A   1      40.640  23.446  27.498  1.00  0.00     0.010 A 
ATOM     11  C   UNL A   1      40.282  24.733  27.069  1.00  0.00    -0.014 A 
BRANCH  11  12
ATOM     12  C   UNL A   1      41.029  25.948  27.488  1.00  0.00     0.031 A 
ATOM     13  C   UNL A   1      42.411  26.239  26.965  1.00  0.00     0.074 A 
ATOM     14  C   UNL A   1      40.410  26.828  28.299  1.00  0.00     0.049 A 
ATOM     15  N   UNL A   1      43.167  27.286  27.180  1.00  0.00    -0.248 NA
ATOM     16  C   UNL A   1      43.027  25.224  26.099  1.00  0.00     0.031 C 
ATOM     17  C   UNL A   1      39.076  26.639  28.878  1.00  0.00     0.029 A 
ATOM     18  N   UNL A   1      40.793  28.064  28.751  1.00  0.00    -0.354 N 
ATOM     19  C   UNL A   1      44.351  27.055  26.486  1.00  0.00     0.074 A 
ATOM     20  C   UNL A   1      44.222  25.751  25.869  1.00  0.00     0.031 C 
ATOM     21  C   UNL A   1      38.728  27.743  29.554  1.00  0.00     0.029 A 
ATOM     22  C   UNL A   1      39.835  28.691  29.515  1.00  0.00     0.049 A 
ATOM     23  H   UNL A   1      41.669  28.464  28.550  1.00  0.00     0.167 HD
ATOM     24  C   UNL A   1      45.436  27.861  26.370  1.00  0.00     0.034 A 
ATOM     25  C   UNL A   1      39.847  29.890  30.126  1.00  0.00     0.034 A 
ATOM     26  C   UNL A   1      45.546  29.162  26.991  1.00  0.00     0.049 A 
ATOM     27  C   UNL A   1      41.064  30.760  29.980  1.00  0.00     0.074 A 
ATOM     28  C   UNL A   1      46.599  30.060  26.934  1.00  0.00     0.029 A 
ATOM     29  N   UNL A   1      44.570  29.751  27.785  1.00  0.00    -0.354 N 
ATOM     30  N   UNL A   1      42.172  30.522  29.317  1.00  0.00    -0.248 NA
ATOM     31  C   UNL A   1      41.031  32.060  30.660  1.00  0.00     0.031 C 
ATOM     32  C   UNL A   1      46.281  31.165  27.734  1.00  0.00     0.029 A 
ATOM     33  C   UNL A   1      45.003  30.988  28.239  1.00  0.00     0.049 A 
ATOM     34  H   UNL A   1      43.696  29.348  27.995  1.00  0.00     0.167 HD
ATOM     35  C   UNL A   1      42.969  31.646  29.501  1.00  0.00     0.074 A 
ATOM     36  C   UNL A   1      42.196  32.577  30.300  1.00  0.00     0.031 C 
ATOM     37  C   UNL A   1      44.231  31.887  29.061  1.00  0.00     0.034 A 
BRANCH  24  38
ATOM     38  C   UNL A   1      46.610  27.343  25.572  1.00  0.00     0.023 A 
ATOM     39  C   UNL A   1      46.897  27.820  24.281  1.00  0.00     0.031 A 
ATOM     40  C   UNL A   1      47.456  26.359  26.114  1.00  0.00     0.131 A 
ATOM     41  C   UNL A   1      47.971  27.280  23.557  1.00  0.00     0.055 A 
ATOM     42  C   UNL A   1      48.562  25.871  25.414  1.00  0.00     0.041 A 
ATOM     43  F   UNL A   1      47.220  25.851  27.334  1.00  0.00    -0.206 F 
ATOM     44  C   UNL A   1      48.820  26.325  24.124  1.00  0.00     0.022 A 
BRANCH  41  45
ATOM     45  S   UNL A   1      48.188  27.766  21.823  1.00  0.00     0.124 S 
ATOM     46  O   UNL A   1      49.345  28.655  21.908  1.00  0.00    -0.237 OA
ATOM     47  O   UNL A   1      48.413  26.486  21.161  1.00  0.00    -0.237 OA
ATOM     48  O   UNL A   1      46.927  28.426  21.490  1.00  0.00    -0.744 OA
ENDBRANCH  41  45
ENDBRANCH  24  38
BRANCH  25  49
ATOM     49  C   UNL A   1      38.688  30.321  30.958  1.00  0.00     0.023 A 
ATOM     50  C   UNL A   1      37.628  31.057  30.408  1.00  0.00     0.031 A 
ATOM     51  C   UNL A   1      38.643  30.025  32.334  1.00  0.00     0.131 A 
ATOM     52  C   UNL A   1      36.589  31.510  31.236  1.00  0.00     0.055 A 
ATOM     53  C   UNL A   1      37.580  30.429  33.141  1.00  0.00     0.041 A 
ATOM     54  F   UNL A   1      39.630  29.319  32.908  1.00  0.00    -0.206 F 
ATOM     55  C   UNL A   1      36.552  31.189  32.595  1.00  0.00     0.022 A 
BRANCH  52  56
ATOM     56  S   UNL A   1      35.329  32.606  30.529  1.00  0.00     0.124 S 
ATOM     57  O   UNL A   1      36.087  33.833  30.311  1.00  0.00    -0.237 OA
ATOM     58  O   UNL A   1      34.934  31.875  29.329  1.00  0.00    -0.237 OA
ATOM     59  O   UNL A   1      34.313  32.677  31.577  1.00  0.00    -0.744 OA
ENDBRANCH  52  56
ENDBRANCH  25  49
BRANCH  37  60
ATOM     60  C   UNL A   1      44.827  33.218  29.442  1.00  0.00     0.023 A 
ATOM     61  C   UNL A   1      44.687  34.345  28.613  1.00  0.00     0.031 A 
ATOM     62  C   UNL A   1      45.589  33.348  30.616  1.00  0.00     0.131 A 
ATOM     63  C   UNL A   1      45.361  35.533  28.930  1.00  0.00     0.055 A 
ATOM     64  C   UNL A   1      46.208  34.550  30.957  1.00  0.00     0.041 A 
ATOM     65  F   UNL A   1      45.754  32.302  31.442  1.00  0.00    -0.206 F 
ATOM     66  C   UNL A   1      46.111  35.646  30.103  1.00  0.00     0.022 A 
BRANCH  63  67
ATOM     67  S   UNL A   1      45.335  36.893  27.730  1.00  0.00     0.124 S 
ATOM     68  O   UNL A   1      44.049  36.693  27.070  1.00  0.00    -0.237 OA
ATOM     69  O   UNL A   1      45.436  38.069  28.589  1.00  0.00    -0.237 OA
ATOM     70  O   UNL A   1      46.508  36.635  26.894  1.00  0.00    -0.744 OA
ENDBRANCH  63  67
ENDBRANCH  37  60
ENDBRANCH  11  12
ENDBRANCH   4   6
ENDBRANCH   1   2
BRANCH   1  71
ATOM     71  C   UNL A   1      34.881  22.795  25.097  1.00  0.00     0.023 C 
BRANCH  71  72
ATOM     72  C   UNL A   1      33.999  23.980  25.487  1.00  0.00     0.023 C 
BRANCH  72  73
ATOM     73  C   UNL A   1      32.882  24.319  24.505  1.00  0.00     0.116 C 
BRANCH  73  74
ATOM     74  N   UNL A   1      33.372  24.785  23.220  1.00  0.00    -0.352 N 
ATOM     75  C   UNL A   1      33.443  26.064  22.722  1.00  0.00     0.255 C 
ATOM     76  H   UNL A   1      33.702  24.081  22.615  1.00  0.00     0.163 HD
ATOM     77  O   UNL A   1      33.885  26.275  21.598  1.00  0.00    -0.269 OA
BRANCH  75  78
ATOM     78  C   UNL A   1      33.021  27.191  23.568  1.00  0.00     0.083 A 
ATOM     79  C   UNL A   1      33.853  27.651  24.597  1.00  0.00     0.033 A 
ATOM     80  C   UNL A   1      31.807  27.822  23.358  1.00  0.00     0.135 A 
ATOM     81  C   UNL A   1      33.419  28.692  25.428  1.00  0.00     0.019 A 
ATOM     82  C   UNL A   1      31.394  28.865  24.174  1.00  0.00    -0.001 A 
ATOM     83  O   UNL A   1      30.906  27.518  22.372  1.00  0.00    -0.492 OA
ATOM     84  Br  UNL A   1      34.520  29.258  26.858  1.00  0.00    -0.051 Br
ATOM     85  C   UNL A   1      32.183  29.311  25.224  1.00  0.00     0.023 A 
ATOM     86  C   UNL A   1      30.097  29.389  23.693  1.00  0.00     0.081 C 
ATOM     87  C   UNL A   1      29.733  28.298  22.686  1.00  0.00     0.234 C 
ENDBRANCH  75  78
ENDBRANCH  73  74
ENDBRANCH  72  73
ENDBRANCH  71  72
ENDBRANCH   1  71
TORSDOF 14
ENDMDL
MODEL 3
REMARK VINA RESULT:     -11.6      5.309     10.420
REMARK SMILES O=C(NCCCCNC(=O)c1cc(Br)cc2c1OCC2)c1ccc(-c2c3nc(c(-c4cc(S(=O)(=O)[O-])ccc4F)c4ccc([nH]4)c(-c4cc(S(=O)(=O)[O-])ccc4F)c4nc(c(-c5cc(S(=O)(=O)[O-])ccc5F)c5ccc2[nH]5)C=C4)C=C3)cc1
REMARK SMILES IDX 4 1 3 2 1 3 2 4 21 6 22 7 83 8 23 9 82 10 24 11 25 12 26 13
REMARK SMILES IDX 76 14 27 15 81 16 75 17 77 18 28 19 80 20 74 21 73 22 29 24
REMARK SMILES IDX 61 25 41 26 60 27 42 28 45 29 59 30 78 31 43 32 44 33 58 35
REMARK SMILES IDX 79 36 46 37 30 38 31 39 39 40 32 41 38 42 40 43 37 44 33 45
REMARK SMILES IDX 34 46 35 47 36 48 62 49 63 50 71 51 64 52 70 53 72 54 69 55
REMARK SMILES IDX 65 56 66 57 67 58 68 59 47 60 48 61 56 62 49 63 55 64 57 65
REMARK SMILES IDX 54 66 50 67 51 68 52 69 53 70 5 71 6 72 7 73 8 74 9 75 10 77
REMARK SMILES IDX 11 78 12 79 17 80 13 81 16 82 18 83 14 84 15 85 20 86 19 87
REMARK H PARENT 3 5 77 23 45 34 8 76
REMARK Flexibility Score: inf
ROOT
ATOM      1  C   UNL A   1      33.398  29.239  25.135  1.00  0.00     0.116 C 
ENDROOT
BRANCH   1   2
ATOM      2  N   UNL A   1      32.756  30.404  25.730  1.00  0.00    -0.352 N 
ATOM      3  O   UNL A   1      32.442  32.050  27.243  1.00  0.00    -0.269 OA
ATOM      4  C   UNL A   1      33.159  31.148  26.817  1.00  0.00     0.251 C 
ATOM      5  H   UNL A   1      31.923  30.699  25.297  1.00  0.00     0.163 HD
BRANCH   4   6
ATOM      6  C   UNL A   1      34.441  30.832  27.486  1.00  0.00     0.039 A 
ATOM      7  C   UNL A   1      34.692  29.545  27.965  1.00  0.00     0.014 A 
ATOM      8  C   UNL A   1      35.392  31.842  27.659  1.00  0.00     0.014 A 
ATOM      9  C   UNL A   1      35.811  29.311  28.755  1.00  0.00     0.010 A 
ATOM     10  C   UNL A   1      36.565  31.579  28.378  1.00  0.00     0.010 A 
ATOM     11  C   UNL A   1      36.768  30.320  28.963  1.00  0.00    -0.014 A 
BRANCH  11  12
ATOM     12  C   UNL A   1      37.985  29.997  29.752  1.00  0.00     0.031 A 
ATOM     13  C   UNL A   1      38.149  30.469  31.172  1.00  0.00     0.074 A 
ATOM     14  C   UNL A   1      38.917  29.203  29.188  1.00  0.00     0.049 A 
ATOM     15  N   UNL A   1      39.117  30.216  32.016  1.00  0.00    -0.248 NA
ATOM     16  C   UNL A   1      37.098  31.345  31.711  1.00  0.00     0.031 C 
ATOM     17  C   UNL A   1      38.868  28.700  27.812  1.00  0.00     0.029 A 
ATOM     18  N   UNL A   1      40.063  28.652  29.699  1.00  0.00    -0.354 N 
ATOM     19  C   UNL A   1      38.801  30.906  33.183  1.00  0.00     0.074 A 
ATOM     20  C   UNL A   1      37.564  31.614  32.924  1.00  0.00     0.031 C 
ATOM     21  C   UNL A   1      39.898  27.867  27.609  1.00  0.00     0.029 A 
ATOM     22  C   UNL A   1      40.718  27.826  28.814  1.00  0.00     0.049 A 
ATOM     23  H   UNL A   1      40.387  28.830  30.611  1.00  0.00     0.167 HD
ATOM     24  C   UNL A   1      39.477  30.935  34.359  1.00  0.00     0.034 A 
ATOM     25  C   UNL A   1      41.857  27.123  28.949  1.00  0.00     0.034 A 
ATOM     26  C   UNL A   1      40.709  30.219  34.601  1.00  0.00     0.049 A 
ATOM     27  C   UNL A   1      42.584  27.176  30.264  1.00  0.00     0.074 A 
ATOM     28  C   UNL A   1      41.471  30.177  35.756  1.00  0.00     0.029 A 
ATOM     29  N   UNL A   1      41.361  29.419  33.671  1.00  0.00    -0.354 N 
ATOM     30  N   UNL A   1      42.266  27.835  31.355  1.00  0.00    -0.248 NA
ATOM     31  C   UNL A   1      43.819  26.391  30.368  1.00  0.00     0.031 C 
ATOM     32  C   UNL A   1      42.608  29.397  35.507  1.00  0.00     0.029 A 
ATOM     33  C   UNL A   1      42.525  28.898  34.218  1.00  0.00     0.049 A 
ATOM     34  H   UNL A   1      41.044  29.247  32.754  1.00  0.00     0.167 HD
ATOM     35  C   UNL A   1      43.265  27.540  32.276  1.00  0.00     0.074 A 
ATOM     36  C   UNL A   1      44.169  26.612  31.625  1.00  0.00     0.031 C 
ATOM     37  C   UNL A   1      43.430  28.000  33.543  1.00  0.00     0.034 A 
BRANCH  24  38
ATOM     38  C   UNL A   1      38.919  31.801  35.464  1.00  0.00     0.023 A 
ATOM     39  C   UNL A   1      38.339  31.247  36.619  1.00  0.00     0.031 A 
ATOM     40  C   UNL A   1      38.973  33.202  35.362  1.00  0.00     0.131 A 
ATOM     41  C   UNL A   1      37.793  32.087  37.601  1.00  0.00     0.055 A 
ATOM     42  C   UNL A   1      38.486  34.035  36.373  1.00  0.00     0.041 A 
ATOM     43  F   UNL A   1      39.497  33.789  34.274  1.00  0.00    -0.206 F 
ATOM     44  C   UNL A   1      37.883  33.478  37.497  1.00  0.00     0.022 A 
BRANCH  41  45
ATOM     45  S   UNL A   1      36.870  31.342  38.974  1.00  0.00     0.124 S 
ATOM     46  O   UNL A   1      36.709  29.966  38.508  1.00  0.00    -0.237 OA
ATOM     47  O   UNL A   1      37.774  31.532  40.103  1.00  0.00    -0.237 OA
ATOM     48  O   UNL A   1      35.637  32.123  39.024  1.00  0.00    -0.744 OA
ENDBRANCH  41  45
ENDBRANCH  24  38
BRANCH  25  49
ATOM     49  C   UNL A   1      42.398  26.341  27.802  1.00  0.00     0.023 A 
ATOM     50  C   UNL A   1      41.987  25.022  27.560  1.00  0.00     0.031 A 
ATOM     51  C   UNL A   1      43.366  26.899  26.945  1.00  0.00     0.131 A 
ATOM     52  C   UNL A   1      42.572  24.289  26.515  1.00  0.00     0.055 A 
ATOM     53  C   UNL A   1      43.902  26.186  25.874  1.00  0.00     0.041 A 
ATOM     54  F   UNL A   1      43.790  28.159  27.131  1.00  0.00    -0.206 F 
ATOM     55  C   UNL A   1      43.516  24.866  25.663  1.00  0.00     0.022 A 
BRANCH  52  56
ATOM     56  S   UNL A   1      42.147  22.535  26.340  1.00  0.00     0.124 S 
ATOM     57  O   UNL A   1      42.854  21.941  27.469  1.00  0.00    -0.237 OA
ATOM     58  O   UNL A   1      40.692  22.566  26.440  1.00  0.00    -0.237 OA
ATOM     59  O   UNL A   1      42.674  22.187  25.021  1.00  0.00    -0.744 OA
ENDBRANCH  52  56
ENDBRANCH  25  49
BRANCH  37  60
ATOM     60  C   UNL A   1      44.636  27.488  34.287  1.00  0.00     0.023 A 
ATOM     61  C   UNL A   1      44.557  26.351  35.111  1.00  0.00     0.031 A 
ATOM     62  C   UNL A   1      45.861  28.174  34.217  1.00  0.00     0.131 A 
ATOM     63  C   UNL A   1      45.660  25.975  35.890  1.00  0.00     0.055 A 
ATOM     64  C   UNL A   1      46.973  27.760  34.950  1.00  0.00     0.041 A 
ATOM     65  F   UNL A   1      45.989  29.266  33.446  1.00  0.00    -0.206 F 
ATOM     66  C   UNL A   1      46.872  26.665  35.806  1.00  0.00     0.022 A 
BRANCH  63  67
ATOM     67  S   UNL A   1      45.455  24.640  37.100  1.00  0.00     0.124 S 
ATOM     68  O   UNL A   1      46.597  24.852  37.984  1.00  0.00    -0.237 OA
ATOM     69  O   UNL A   1      44.144  24.935  37.670  1.00  0.00    -0.237 OA
ATOM     70  O   UNL A   1      45.517  23.427  36.286  1.00  0.00    -0.744 OA
ENDBRANCH  63  67
ENDBRANCH  37  60
ENDBRANCH  11  12
ENDBRANCH   4   6
ENDBRANCH   1   2
BRANCH   1  71
ATOM     71  C   UNL A   1      32.537  27.983  25.168  1.00  0.00     0.023 C 
BRANCH  71  72
ATOM     72  C   UNL A   1      32.999  26.887  26.126  1.00  0.00     0.023 C 
BRANCH  72  73
ATOM     73  C   UNL A   1      33.086  25.486  25.529  1.00  0.00     0.116 C 
BRANCH  73  74
ATOM     74  N   UNL A   1      33.228  25.488  24.083  1.00  0.00    -0.352 N 
ATOM     75  C   UNL A   1      33.711  24.507  23.250  1.00  0.00     0.255 C 
ATOM     76  H   UNL A   1      32.937  26.314  23.633  1.00  0.00     0.163 HD
ATOM     77  O   UNL A   1      33.766  24.686  22.038  1.00  0.00    -0.269 OA
BRANCH  75  78
ATOM     78  C   UNL A   1      34.125  23.217  23.821  1.00  0.00     0.083 A 
ATOM     79  C   UNL A   1      33.301  22.091  23.694  1.00  0.00     0.033 A 
ATOM     80  C   UNL A   1      35.336  23.087  24.480  1.00  0.00     0.135 A 
ATOM     81  C   UNL A   1      33.683  20.881  24.285  1.00  0.00     0.019 A 
ATOM     82  C   UNL A   1      35.715  21.878  25.045  1.00  0.00    -0.001 A 
ATOM     83  O   UNL A   1      36.266  24.078  24.649  1.00  0.00    -0.492 OA
ATOM     84  Br  UNL A   1      32.529  19.387  24.167  1.00  0.00    -0.051 Br
ATOM     85  C   UNL A   1      34.897  20.762  24.967  1.00  0.00     0.023 A 
ATOM     86  C   UNL A   1      37.068  22.005  25.630  1.00  0.00     0.081 C 
ATOM     87  C   UNL A   1      37.241  23.523  25.556  1.00  0.00     0.234 C 
ENDBRANCH  75  78
ENDBRANCH  73  74
ENDBRANCH  72  73
ENDBRANCH  71  72
ENDBRANCH   1  71
TORSDOF 14
ENDMDL
