MODEL 1
REMARK VINA RESULT:     -11.4      0.000      0.000
REMARK SMILES COc1ccc([C@H](CC(=O)NCCCCNC(=O)c2ccc(-c3c4nc(c(-c5cc(S(=O)(=O)[O-])ccc5F)c5ccc([nH]5)c(-c5cc(S(=O)(=O)[O-])ccc5F)c5nc(c(-c6cc(S(=O)(=O)[O-])ccc6F)c6ccc3[nH]6)C=C5)C=C4)cc2)NC(C)=O)cc1
REMARK SMILES IDX 13 1 12 2 11 3 9 4 10 5 8 7 7 8 6 9 3 10 4 11 87 12 5 13
REMARK SMILES IDX 86 14 2 15 1 16 82 17 83 18 84 20 85 21 14 22 15 23 16 24
REMARK SMILES IDX 17 25 18 27 19 28 20 29 81 30 21 31 80 32 22 33 23 34 24 35
REMARK SMILES IDX 74 36 25 37 79 38 73 39 75 40 26 41 78 42 72 43 71 44 27 46
REMARK SMILES IDX 59 47 39 48 58 49 40 50 43 51 57 52 76 53 41 54 42 55 56 57
REMARK SMILES IDX 77 58 44 59 28 60 29 61 37 62 30 63 36 64 38 65 35 66 31 67
REMARK SMILES IDX 32 68 33 69 34 70 60 71 61 72 69 73 62 74 68 75 70 76 67 77
REMARK SMILES IDX 63 78 64 79 65 80 66 81 45 82 46 83 54 84 47 85 53 86 55 87
REMARK SMILES IDX 52 88 48 89 49 90 50 91 51 92
REMARK H PARENT 11 6 82 19 16 26 75 45 43 56
REMARK Flexibility Score: inf
ROOT
ATOM      1  C   UNL A   1      31.283  27.503  26.119  1.00  0.00     0.023 C 
ENDROOT
BRANCH   1   2
ATOM      2  C   UNL A   1      30.748  26.164  25.610  1.00  0.00     0.116 C 
BRANCH   2   3
ATOM      3  N   UNL A   1      30.766  25.148  26.649  1.00  0.00    -0.356 N 
ATOM      4  C   UNL A   1      30.856  23.793  26.533  1.00  0.00     0.222 C 
ATOM      5  O   UNL A   1      30.777  23.095  27.546  1.00  0.00    -0.275 OA
ATOM      6  H   UNL A   1      30.703  25.488  27.571  1.00  0.00     0.163 HD
BRANCH   4   7
ATOM      7  C   UNL A   1      31.115  23.167  25.183  1.00  0.00     0.129 C 
BRANCH   7   8
ATOM      8  C   UNL A   1      32.609  23.117  24.829  1.00  0.00     0.121 C 
BRANCH   8   9
ATOM      9  C   UNL A   1      33.145  21.691  24.675  1.00  0.00    -0.025 A 
ATOM     10  C   UNL A   1      34.065  19.012  24.561  1.00  0.00     0.118 A 
ATOM     11  C   UNL A   1      32.727  19.309  24.323  1.00  0.00     0.047 A 
ATOM     12  C   UNL A   1      34.948  20.047  24.858  1.00  0.00     0.047 A 
ATOM     13  C   UNL A   1      32.269  20.626  24.404  1.00  0.00     0.010 A 
ATOM     14  C   UNL A   1      34.490  21.370  24.921  1.00  0.00     0.010 A 
BRANCH  10  15
ATOM     15  O   UNL A   1      34.396  17.690  24.452  1.00  0.00    -0.497 OA
ATOM     16  C   UNL A   1      33.975  17.050  23.255  1.00  0.00     0.278 C 
ENDBRANCH  10  15
ENDBRANCH   8   9
BRANCH   8  17
ATOM     17  N   UNL A   1      32.852  23.944  23.648  1.00  0.00    -0.349 N 
ATOM     18  C   UNL A   1      33.554  25.125  23.703  1.00  0.00     0.217 C 
ATOM     19  H   UNL A   1      32.498  23.644  22.779  1.00  0.00     0.164 HD
ATOM     20  C   UNL A   1      33.597  25.885  22.405  1.00  0.00     0.114 C 
ATOM     21  O   UNL A   1      34.097  25.552  24.716  1.00  0.00    -0.275 OA
ENDBRANCH   8  17
ENDBRANCH   7   8
ENDBRANCH   4   7
ENDBRANCH   2   3
ENDBRANCH   1   2
BRANCH   1  22
ATOM     22  C   UNL A   1      31.912  28.390  25.047  1.00  0.00     0.023 C 
BRANCH  22  23
ATOM     23  C   UNL A   1      33.020  29.303  25.549  1.00  0.00     0.116 C 
BRANCH  23  24
ATOM     24  N   UNL A   1      32.522  30.588  26.013  1.00  0.00    -0.352 N 
ATOM     25  C   UNL A   1      33.030  31.404  26.995  1.00  0.00     0.251 C 
ATOM     26  H   UNL A   1      31.711  30.919  25.563  1.00  0.00     0.163 HD
ATOM     27  O   UNL A   1      32.396  32.389  27.362  1.00  0.00    -0.269 OA
BRANCH  25  28
ATOM     28  C   UNL A   1      34.322  31.062  27.626  1.00  0.00     0.039 A 
ATOM     29  C   UNL A   1      35.273  32.069  27.808  1.00  0.00     0.014 A 
ATOM     30  C   UNL A   1      34.579  29.760  28.064  1.00  0.00     0.014 A 
ATOM     31  C   UNL A   1      36.457  31.782  28.491  1.00  0.00     0.010 A 
ATOM     32  C   UNL A   1      35.721  29.497  28.812  1.00  0.00     0.010 A 
ATOM     33  C   UNL A   1      36.674  30.504  29.031  1.00  0.00    -0.014 A 
BRANCH  33  34
ATOM     34  C   UNL A   1      37.895  30.195  29.819  1.00  0.00     0.031 A 
ATOM     35  C   UNL A   1      38.930  29.257  29.262  1.00  0.00     0.074 A 
ATOM     36  C   UNL A   1      38.035  30.704  31.060  1.00  0.00     0.049 A 
ATOM     37  N   UNL A   1      40.015  28.792  29.823  1.00  0.00    -0.248 NA
ATOM     38  C   UNL A   1      38.690  28.746  27.903  1.00  0.00     0.031 C 
ATOM     39  C   UNL A   1      37.076  31.590  31.724  1.00  0.00     0.029 A 
ATOM     40  N   UNL A   1      39.032  30.542  31.990  1.00  0.00    -0.354 N 
ATOM     41  C   UNL A   1      40.579  27.923  28.895  1.00  0.00     0.074 A 
ATOM     42  C   UNL A   1      39.680  27.879  27.762  1.00  0.00     0.031 C 
ATOM     43  C   UNL A   1      37.542  31.909  32.942  1.00  0.00     0.029 A 
ATOM     44  C   UNL A   1      38.806  31.217  33.167  1.00  0.00     0.049 A 
ATOM     45  H   UNL A   1      39.833  29.992  31.828  1.00  0.00     0.167 HD
ATOM     46  C   UNL A   1      41.750  27.242  28.974  1.00  0.00     0.034 A 
ATOM     47  C   UNL A   1      39.531  31.262  34.303  1.00  0.00     0.034 A 
ATOM     48  C   UNL A   1      42.641  27.313  30.106  1.00  0.00     0.049 A 
ATOM     49  C   UNL A   1      40.823  30.487  34.372  1.00  0.00     0.074 A 
ATOM     50  C   UNL A   1      43.881  26.718  30.265  1.00  0.00     0.029 A 
ATOM     51  N   UNL A   1      42.386  28.016  31.277  1.00  0.00    -0.354 N 
ATOM     52  N   UNL A   1      41.371  29.714  33.463  1.00  0.00    -0.248 NA
ATOM     53  C   UNL A   1      41.598  30.600  35.613  1.00  0.00     0.031 C 
ATOM     54  C   UNL A   1      44.342  27.005  31.555  1.00  0.00     0.029 A 
ATOM     55  C   UNL A   1      43.429  27.844  32.174  1.00  0.00     0.049 A 
ATOM     56  H   UNL A   1      41.582  28.558  31.445  1.00  0.00     0.167 HD
ATOM     57  C   UNL A   1      42.572  29.275  34.014  1.00  0.00     0.074 A 
ATOM     58  C   UNL A   1      42.673  29.882  35.325  1.00  0.00     0.031 C 
ATOM     59  C   UNL A   1      43.510  28.449  33.482  1.00  0.00     0.034 A 
BRANCH  46  60
ATOM     60  C   UNL A   1      42.112  26.346  27.813  1.00  0.00     0.023 A 
ATOM     61  C   UNL A   1      41.684  25.008  27.748  1.00  0.00     0.031 A 
ATOM     62  C   UNL A   1      42.921  26.828  26.768  1.00  0.00     0.131 A 
ATOM     63  C   UNL A   1      42.130  24.179  26.708  1.00  0.00     0.055 A 
ATOM     64  C   UNL A   1      43.290  26.020  25.690  1.00  0.00     0.041 A 
ATOM     65  F   UNL A   1      43.378  28.090  26.783  1.00  0.00    -0.206 F 
ATOM     66  C   UNL A   1      42.909  24.683  25.663  1.00  0.00     0.022 A 
BRANCH  63  67
ATOM     67  S   UNL A   1      41.798  22.398  26.817  1.00  0.00     0.124 S 
ATOM     68  O   UNL A   1      42.067  21.965  25.447  1.00  0.00    -0.237 OA
ATOM     69  O   UNL A   1      42.756  21.960  27.825  1.00  0.00    -0.237 OA
ATOM     70  O   UNL A   1      40.395  22.335  27.219  1.00  0.00    -0.744 OA
ENDBRANCH  63  67
ENDBRANCH  46  60
BRANCH  47  71
ATOM     71  C   UNL A   1      39.056  32.056  35.473  1.00  0.00     0.023 A 
ATOM     72  C   UNL A   1      38.432  31.432  36.565  1.00  0.00     0.031 A 
ATOM     73  C   UNL A   1      39.178  33.457  35.495  1.00  0.00     0.131 A 
ATOM     74  C   UNL A   1      37.909  32.210  37.610  1.00  0.00     0.055 A 
ATOM     75  C   UNL A   1      38.705  34.222  36.564  1.00  0.00     0.041 A 
ATOM     76  F   UNL A   1      39.770  34.104  34.479  1.00  0.00    -0.206 F 
ATOM     77  C   UNL A   1      38.054  33.599  37.623  1.00  0.00     0.022 A 
BRANCH  74  78
ATOM     78  S   UNL A   1      36.956  31.384  38.914  1.00  0.00     0.124 S 
ATOM     79  O   UNL A   1      35.733  32.177  38.937  1.00  0.00    -0.237 OA
ATOM     80  O   UNL A   1      36.833  30.029  38.387  1.00  0.00    -0.237 OA
ATOM     81  O   UNL A   1      37.809  31.515  40.094  1.00  0.00    -0.744 OA
ENDBRANCH  74  78
ENDBRANCH  47  71
BRANCH  59  82
ATOM     82  C   UNL A   1      44.748  28.198  34.309  1.00  0.00     0.023 A 
ATOM     83  C   UNL A   1      44.837  27.117  35.204  1.00  0.00     0.031 A 
ATOM     84  C   UNL A   1      45.853  29.062  34.203  1.00  0.00     0.131 A 
ATOM     85  C   UNL A   1      45.981  26.962  35.999  1.00  0.00     0.055 A 
ATOM     86  C   UNL A   1      47.014  28.865  34.953  1.00  0.00     0.041 A 
ATOM     87  F   UNL A   1      45.823  30.111  33.366  1.00  0.00    -0.206 F 
ATOM     88  C   UNL A   1      47.077  27.818  35.867  1.00  0.00     0.022 A 
BRANCH  85  89
ATOM     89  S   UNL A   1      45.985  25.675  37.278  1.00  0.00     0.124 S 
ATOM     90  O   UNL A   1      46.893  24.685  36.709  1.00  0.00    -0.237 OA
ATOM     91  O   UNL A   1      46.479  26.396  38.447  1.00  0.00    -0.237 OA
ATOM     92  O   UNL A   1      44.586  25.261  37.353  1.00  0.00    -0.744 OA
ENDBRANCH  85  89
ENDBRANCH  59  82
ENDBRANCH  33  34
ENDBRANCH  25  28
ENDBRANCH  23  24
ENDBRANCH  22  23
ENDBRANCH   1  22
TORSDOF 18
ENDMDL
MODEL 2
REMARK VINA RESULT:     -11.2      2.886      3.842
REMARK SMILES COc1ccc([C@H](CC(=O)NCCCCNC(=O)c2ccc(-c3c4nc(c(-c5cc(S(=O)(=O)[O-])ccc5F)c5ccc([nH]5)c(-c5cc(S(=O)(=O)[O-])ccc5F)c5nc(c(-c6cc(S(=O)(=O)[O-])ccc6F)c6ccc3[nH]6)C=C5)C=C4)cc2)NC(C)=O)cc1
REMARK SMILES IDX 13 1 12 2 11 3 9 4 10 5 8 7 7 8 6 9 3 10 4 11 87 12 5 13
REMARK SMILES IDX 86 14 2 15 1 16 82 17 83 18 84 20 85 21 14 22 15 23 16 24
REMARK SMILES IDX 17 25 18 27 19 28 20 29 81 30 21 31 80 32 22 33 23 34 24 35
REMARK SMILES IDX 74 36 25 37 79 38 73 39 75 40 26 41 78 42 72 43 71 44 27 46
REMARK SMILES IDX 59 47 39 48 58 49 40 50 43 51 57 52 76 53 41 54 42 55 56 57
REMARK SMILES IDX 77 58 44 59 28 60 29 61 37 62 30 63 36 64 38 65 35 66 31 67
REMARK SMILES IDX 32 68 33 69 34 70 60 71 61 72 69 73 62 74 68 75 70 76 67 77
REMARK SMILES IDX 63 78 64 79 65 80 66 81 45 82 46 83 54 84 47 85 53 86 55 87
REMARK SMILES IDX 52 88 48 89 49 90 50 91 51 92
REMARK H PARENT 11 6 82 19 16 26 75 45 43 56
REMARK Flexibility Score: inf
ROOT
ATOM      1  C   UNL A   1      31.876  30.410  26.783  1.00  0.00     0.023 C 
ENDROOT
BRANCH   1   2
ATOM      2  C   UNL A   1      33.197  29.939  26.174  1.00  0.00     0.116 C 
BRANCH   2   3
ATOM      3  N   UNL A   1      33.085  29.732  24.740  1.00  0.00    -0.356 N 
ATOM      4  C   UNL A   1      33.519  28.687  23.979  1.00  0.00     0.222 C 
ATOM      5  O   UNL A   1      33.390  28.740  22.755  1.00  0.00    -0.275 OA
ATOM      6  H   UNL A   1      32.628  30.450  24.246  1.00  0.00     0.163 HD
BRANCH   4   7
ATOM      7  C   UNL A   1      34.092  27.457  24.644  1.00  0.00     0.129 C 
BRANCH   7   8
ATOM      8  C   UNL A   1      33.439  26.158  24.148  1.00  0.00     0.121 C 
BRANCH   8   9
ATOM      9  C   UNL A   1      34.085  24.898  24.731  1.00  0.00    -0.025 A 
ATOM     10  C   UNL A   1      35.147  22.464  25.723  1.00  0.00     0.118 A 
ATOM     11  C   UNL A   1      35.379  22.850  24.407  1.00  0.00     0.047 A 
ATOM     12  C   UNL A   1      34.385  23.287  26.548  1.00  0.00     0.047 A 
ATOM     13  C   UNL A   1      34.835  24.037  23.911  1.00  0.00     0.010 A 
ATOM     14  C   UNL A   1      33.855  24.487  26.054  1.00  0.00     0.010 A 
BRANCH  10  15
ATOM     15  O   UNL A   1      35.731  21.286  26.095  1.00  0.00    -0.497 OA
ATOM     16  C   UNL A   1      36.208  20.475  25.029  1.00  0.00     0.278 C 
ENDBRANCH  10  15
ENDBRANCH   8   9
BRANCH   8  17
ATOM     17  N   UNL A   1      31.999  26.220  24.392  1.00  0.00    -0.349 N 
ATOM     18  C   UNL A   1      31.073  26.177  23.375  1.00  0.00     0.217 C 
ATOM     19  H   UNL A   1      31.678  26.297  25.320  1.00  0.00     0.164 HD
ATOM     20  C   UNL A   1      29.649  26.370  23.821  1.00  0.00     0.114 C 
ATOM     21  O   UNL A   1      31.361  26.010  22.195  1.00  0.00    -0.275 OA
ENDBRANCH   8  17
ENDBRANCH   7   8
ENDBRANCH   4   7
ENDBRANCH   2   3
ENDBRANCH   1   2
BRANCH   1  22
ATOM     22  C   UNL A   1      31.700  31.926  26.834  1.00  0.00     0.023 C 
BRANCH  22  23
ATOM     23  C   UNL A   1      32.898  32.686  27.384  1.00  0.00     0.116 C 
BRANCH  23  24
ATOM     24  N   UNL A   1      32.585  34.069  27.708  1.00  0.00    -0.352 N 
ATOM     25  C   UNL A   1      33.132  34.869  28.682  1.00  0.00     0.251 C 
ATOM     26  H   UNL A   1      31.887  34.489  27.155  1.00  0.00     0.163 HD
ATOM     27  O   UNL A   1      32.644  35.971  28.916  1.00  0.00    -0.269 OA
BRANCH  25  28
ATOM     28  C   UNL A   1      34.284  34.374  29.465  1.00  0.00     0.039 A 
ATOM     29  C   UNL A   1      34.045  33.669  30.647  1.00  0.00     0.014 A 
ATOM     30  C   UNL A   1      35.592  34.576  29.015  1.00  0.00     0.014 A 
ATOM     31  C   UNL A   1      35.118  33.109  31.343  1.00  0.00     0.010 A 
ATOM     32  C   UNL A   1      36.649  33.951  29.667  1.00  0.00     0.010 A 
ATOM     33  C   UNL A   1      36.424  33.214  30.840  1.00  0.00    -0.014 A 
BRANCH  33  34
ATOM     34  C   UNL A   1      37.572  32.569  31.528  1.00  0.00     0.031 A 
ATOM     35  C   UNL A   1      38.301  31.433  30.866  1.00  0.00     0.074 A 
ATOM     36  C   UNL A   1      37.909  32.961  32.774  1.00  0.00     0.049 A 
ATOM     37  N   UNL A   1      39.266  30.683  31.333  1.00  0.00    -0.248 NA
ATOM     38  C   UNL A   1      37.861  31.070  29.510  1.00  0.00     0.031 C 
ATOM     39  C   UNL A   1      37.245  34.021  33.535  1.00  0.00     0.029 A 
ATOM     40  N   UNL A   1      38.885  32.506  33.624  1.00  0.00    -0.354 N 
ATOM     41  C   UNL A   1      39.536  29.751  30.336  1.00  0.00     0.074 A 
ATOM     42  C   UNL A   1      38.590  29.993  29.268  1.00  0.00     0.031 C 
ATOM     43  C   UNL A   1      37.848  34.150  34.728  1.00  0.00     0.029 A 
ATOM     44  C   UNL A   1      38.907  33.153  34.838  1.00  0.00     0.049 A 
ATOM     45  H   UNL A   1      39.511  31.783  33.387  1.00  0.00     0.167 HD
ATOM     46  C   UNL A   1      40.500  28.796  30.307  1.00  0.00     0.034 A 
ATOM     47  C   UNL A   1      39.686  32.955  35.921  1.00  0.00     0.034 A 
ATOM     48  C   UNL A   1      41.445  28.582  31.376  1.00  0.00     0.049 A 
ATOM     49  C   UNL A   1      40.742  31.880  35.871  1.00  0.00     0.074 A 
ATOM     50  C   UNL A   1      42.501  27.689  31.426  1.00  0.00     0.029 A 
ATOM     51  N   UNL A   1      41.445  29.264  32.586  1.00  0.00    -0.354 N 
ATOM     52  N   UNL A   1      41.023  31.043  34.898  1.00  0.00    -0.248 NA
ATOM     53  C   UNL A   1      41.592  31.731  37.058  1.00  0.00     0.031 C 
ATOM     54  C   UNL A   1      43.096  27.784  32.689  1.00  0.00     0.029 A 
ATOM     55  C   UNL A   1      42.462  28.790  33.401  1.00  0.00     0.049 A 
ATOM     56  H   UNL A   1      40.815  29.980  32.831  1.00  0.00     0.167 HD
ATOM     57  C   UNL A   1      42.104  30.290  35.348  1.00  0.00     0.074 A 
ATOM     58  C   UNL A   1      42.432  30.783  36.669  1.00  0.00     0.031 C 
ATOM     59  C   UNL A   1      42.770  29.286  34.722  1.00  0.00     0.034 A 
BRANCH  46  60
ATOM     60  C   UNL A   1      40.555  27.900  29.092  1.00  0.00     0.023 A 
ATOM     61  C   UNL A   1      41.510  28.087  28.077  1.00  0.00     0.031 A 
ATOM     62  C   UNL A   1      39.621  26.861  28.932  1.00  0.00     0.131 A 
ATOM     63  C   UNL A   1      41.461  27.303  26.915  1.00  0.00     0.055 A 
ATOM     64  C   UNL A   1      39.632  26.027  27.811  1.00  0.00     0.041 A 
ATOM     65  F   UNL A   1      38.672  26.645  29.856  1.00  0.00    -0.206 F 
ATOM     66  C   UNL A   1      40.545  26.256  26.786  1.00  0.00     0.022 A 
BRANCH  63  67
ATOM     67  S   UNL A   1      42.516  27.764  25.513  1.00  0.00     0.124 S 
ATOM     68  O   UNL A   1      43.809  27.951  26.168  1.00  0.00    -0.237 OA
ATOM     69  O   UNL A   1      42.404  26.603  24.638  1.00  0.00    -0.237 OA
ATOM     70  O   UNL A   1      41.899  28.989  25.008  1.00  0.00    -0.744 OA
ENDBRANCH  63  67
ENDBRANCH  46  60
BRANCH  47  71
ATOM     71  C   UNL A   1      39.496  33.781  37.150  1.00  0.00     0.023 A 
ATOM     72  C   UNL A   1      40.322  34.885  37.413  1.00  0.00     0.031 A 
ATOM     73  C   UNL A   1      38.515  33.449  38.101  1.00  0.00     0.131 A 
ATOM     74  C   UNL A   1      40.185  35.589  38.620  1.00  0.00     0.055 A 
ATOM     75  C   UNL A   1      38.346  34.186  39.275  1.00  0.00     0.041 A 
ATOM     76  F   UNL A   1      37.696  32.405  37.897  1.00  0.00    -0.206 F 
ATOM     77  C   UNL A   1      39.194  35.255  39.547  1.00  0.00     0.022 A 
BRANCH  74  78
ATOM     78  S   UNL A   1      41.383  36.896  39.004  1.00  0.00     0.124 S 
ATOM     79  O   UNL A   1      42.139  36.980  37.760  1.00  0.00    -0.237 OA
ATOM     80  O   UNL A   1      40.511  38.027  39.303  1.00  0.00    -0.237 OA
ATOM     81  O   UNL A   1      42.118  36.360  40.147  1.00  0.00    -0.744 OA
ENDBRANCH  74  78
ENDBRANCH  47  71
BRANCH  59  82
ATOM     82  C   UNL A   1      43.951  28.690  35.450  1.00  0.00     0.023 A 
ATOM     83  C   UNL A   1      43.813  27.591  36.314  1.00  0.00     0.031 A 
ATOM     84  C   UNL A   1      45.234  29.241  35.279  1.00  0.00     0.131 A 
ATOM     85  C   UNL A   1      44.927  27.113  37.020  1.00  0.00     0.055 A 
ATOM     86  C   UNL A   1      46.350  28.722  35.937  1.00  0.00     0.041 A 
ATOM     87  F   UNL A   1      45.424  30.293  34.467  1.00  0.00    -0.206 F 
ATOM     88  C   UNL A   1      46.197  27.659  36.824  1.00  0.00     0.022 A 
BRANCH  85  89
ATOM     89  S   UNL A   1      44.678  25.822  38.269  1.00  0.00     0.124 S 
ATOM     90  O   UNL A   1      43.652  24.991  37.648  1.00  0.00    -0.237 OA
ATOM     91  O   UNL A   1      46.006  25.225  38.372  1.00  0.00    -0.237 OA
ATOM     92  O   UNL A   1      44.243  26.565  39.450  1.00  0.00    -0.744 OA
ENDBRANCH  85  89
ENDBRANCH  59  82
ENDBRANCH  33  34
ENDBRANCH  25  28
ENDBRANCH  23  24
ENDBRANCH  22  23
ENDBRANCH   1  22
TORSDOF 18
ENDMDL
MODEL 3
REMARK VINA RESULT:     -11.1      3.447      8.840
REMARK SMILES COc1ccc([C@H](CC(=O)NCCCCNC(=O)c2ccc(-c3c4nc(c(-c5cc(S(=O)(=O)[O-])ccc5F)c5ccc([nH]5)c(-c5cc(S(=O)(=O)[O-])ccc5F)c5nc(c(-c6cc(S(=O)(=O)[O-])ccc6F)c6ccc3[nH]6)C=C5)C=C4)cc2)NC(C)=O)cc1
REMARK SMILES IDX 13 1 12 2 11 3 9 4 10 5 8 7 7 8 6 9 3 10 4 11 87 12 5 13
REMARK SMILES IDX 86 14 2 15 1 16 82 17 83 18 84 20 85 21 14 22 15 23 16 24
REMARK SMILES IDX 17 25 18 27 19 28 20 29 81 30 21 31 80 32 22 33 23 34 24 35
REMARK SMILES IDX 74 36 25 37 79 38 73 39 75 40 26 41 78 42 72 43 71 44 27 46
REMARK SMILES IDX 59 47 39 48 58 49 40 50 43 51 57 52 76 53 41 54 42 55 56 57
REMARK SMILES IDX 77 58 44 59 28 60 29 61 37 62 30 63 36 64 38 65 35 66 31 67
REMARK SMILES IDX 32 68 33 69 34 70 60 71 61 72 69 73 62 74 68 75 70 76 67 77
REMARK SMILES IDX 63 78 64 79 65 80 66 81 45 82 46 83 54 84 47 85 53 86 55 87
REMARK SMILES IDX 52 88 48 89 49 90 50 91 51 92
REMARK H PARENT 11 6 82 19 16 26 75 45 43 56
REMARK Flexibility Score: inf
ROOT
ATOM      1  C   UNL A   1      31.923  28.784  27.020  1.00  0.00     0.023 C 
ENDROOT
BRANCH   1   2
ATOM      2  C   UNL A   1      31.106  27.541  27.373  1.00  0.00     0.116 C 
BRANCH   2   3
ATOM      3  N   UNL A   1      31.583  26.365  26.665  1.00  0.00    -0.356 N 
ATOM      4  C   UNL A   1      31.005  25.679  25.638  1.00  0.00     0.222 C 
ATOM      5  O   UNL A   1      31.543  24.651  25.223  1.00  0.00    -0.275 OA
ATOM      6  H   UNL A   1      32.450  26.012  26.971  1.00  0.00     0.163 HD
BRANCH   4   7
ATOM      7  C   UNL A   1      29.755  26.217  24.981  1.00  0.00     0.129 C 
BRANCH   7   8
ATOM      8  C   UNL A   1      30.028  26.826  23.597  1.00  0.00     0.121 C 
BRANCH   8   9
ATOM      9  C   UNL A   1      29.377  28.197  23.403  1.00  0.00    -0.025 A 
ATOM     10  C   UNL A   1      28.157  30.751  23.231  1.00  0.00     0.118 A 
ATOM     11  C   UNL A   1      29.502  30.632  23.568  1.00  0.00     0.047 A 
ATOM     12  C   UNL A   1      27.416  29.599  22.981  1.00  0.00     0.047 A 
ATOM     13  C   UNL A   1      30.097  29.373  23.677  1.00  0.00     0.010 A 
ATOM     14  C   UNL A   1      28.018  28.337  23.073  1.00  0.00     0.010 A 
BRANCH  10  15
ATOM     15  O   UNL A   1      27.687  32.032  23.153  1.00  0.00    -0.497 OA
ATOM     16  C   UNL A   1      28.650  33.018  22.802  1.00  0.00     0.278 C 
ENDBRANCH  10  15
ENDBRANCH   8   9
BRANCH   8  17
ATOM     17  N   UNL A   1      31.470  26.844  23.356  1.00  0.00    -0.349 N 
ATOM     18  C   UNL A   1      32.019  26.540  22.132  1.00  0.00     0.217 C 
ATOM     19  H   UNL A   1      32.072  27.083  24.098  1.00  0.00     0.164 HD
ATOM     20  C   UNL A   1      33.523  26.504  22.117  1.00  0.00     0.114 C 
ATOM     21  O   UNL A   1      31.360  26.301  21.126  1.00  0.00    -0.275 OA
ENDBRANCH   8  17
ENDBRANCH   7   8
ENDBRANCH   4   7
ENDBRANCH   2   3
ENDBRANCH   1   2
BRANCH   1  22
ATOM     22  C   UNL A   1      33.139  28.521  26.135  1.00  0.00     0.023 C 
BRANCH  22  23
ATOM     23  C   UNL A   1      34.396  29.276  26.543  1.00  0.00     0.116 C 
BRANCH  23  24
ATOM     24  N   UNL A   1      34.120  30.641  26.960  1.00  0.00    -0.352 N 
ATOM     25  C   UNL A   1      34.766  31.399  27.907  1.00  0.00     0.251 C 
ATOM     26  H   UNL A   1      33.369  31.084  26.502  1.00  0.00     0.163 HD
ATOM     27  O   UNL A   1      34.306  32.487  28.240  1.00  0.00    -0.269 OA
BRANCH  25  28
ATOM     28  C   UNL A   1      35.992  30.872  28.544  1.00  0.00     0.039 A 
ATOM     29  C   UNL A   1      35.883  29.813  29.447  1.00  0.00     0.014 A 
ATOM     30  C   UNL A   1      37.246  31.401  28.223  1.00  0.00     0.014 A 
ATOM     31  C   UNL A   1      37.040  29.240  29.979  1.00  0.00     0.010 A 
ATOM     32  C   UNL A   1      38.397  30.778  28.692  1.00  0.00     0.010 A 
ATOM     33  C   UNL A   1      38.307  29.693  29.577  1.00  0.00    -0.014 A 
BRANCH  33  34
ATOM     34  C   UNL A   1      39.551  29.054  30.078  1.00  0.00     0.031 A 
ATOM     35  C   UNL A   1      40.238  29.605  31.297  1.00  0.00     0.074 A 
ATOM     36  C   UNL A   1      40.096  28.027  29.396  1.00  0.00     0.049 A 
ATOM     37  N   UNL A   1      41.373  29.250  31.841  1.00  0.00    -0.248 NA
ATOM     38  C   UNL A   1      39.575  30.731  31.974  1.00  0.00     0.031 C 
ATOM     39  C   UNL A   1      39.543  27.436  28.175  1.00  0.00     0.029 A 
ATOM     40  N   UNL A   1      41.240  27.304  29.624  1.00  0.00    -0.354 N 
ATOM     41  C   UNL A   1      41.569  30.117  32.911  1.00  0.00     0.074 A 
ATOM     42  C   UNL A   1      40.465  31.054  32.898  1.00  0.00     0.031 C 
ATOM     43  C   UNL A   1      40.336  26.428  27.776  1.00  0.00     0.029 A 
ATOM     44  C   UNL A   1      41.476  26.330  28.681  1.00  0.00     0.049 A 
ATOM     45  H   UNL A   1      41.835  27.468  30.391  1.00  0.00     0.167 HD
ATOM     46  C   UNL A   1      42.566  30.117  33.831  1.00  0.00     0.034 A 
ATOM     47  C   UNL A   1      42.503  25.465  28.555  1.00  0.00     0.034 A 
ATOM     48  C   UNL A   1      43.648  29.163  33.837  1.00  0.00     0.049 A 
ATOM     49  C   UNL A   1      43.606  25.491  29.583  1.00  0.00     0.074 A 
ATOM     50  C   UNL A   1      44.674  29.029  34.756  1.00  0.00     0.029 A 
ATOM     51  N   UNL A   1      43.850  28.183  32.873  1.00  0.00    -0.354 N 
ATOM     52  N   UNL A   1      43.747  26.281  30.623  1.00  0.00    -0.248 NA
ATOM     53  C   UNL A   1      44.680  24.503  29.427  1.00  0.00     0.031 C 
ATOM     54  C   UNL A   1      45.531  28.016  34.312  1.00  0.00     0.029 A 
ATOM     55  C   UNL A   1      45.000  27.463  33.158  1.00  0.00     0.049 A 
ATOM     56  H   UNL A   1      43.262  28.023  32.099  1.00  0.00     0.167 HD
ATOM     57  C   UNL A   1      44.911  25.861  31.262  1.00  0.00     0.074 A 
ATOM     58  C   UNL A   1      45.421  24.742  30.499  1.00  0.00     0.031 C 
ATOM     59  C   UNL A   1      45.501  26.354  32.381  1.00  0.00     0.034 A 
BRANCH  46  60
ATOM     60  C   UNL A   1      42.538  31.197  34.886  1.00  0.00     0.023 A 
ATOM     61  C   UNL A   1      43.143  32.450  34.680  1.00  0.00     0.031 A 
ATOM     62  C   UNL A   1      41.921  30.963  36.128  1.00  0.00     0.131 A 
ATOM     63  C   UNL A   1      43.188  33.388  35.723  1.00  0.00     0.055 A 
ATOM     64  C   UNL A   1      41.894  31.933  37.133  1.00  0.00     0.041 A 
ATOM     65  F   UNL A   1      41.345  29.780  36.394  1.00  0.00    -0.206 F 
ATOM     66  C   UNL A   1      42.544  33.148  36.939  1.00  0.00     0.022 A 
BRANCH  63  67
ATOM     67  S   UNL A   1      44.223  34.863  35.517  1.00  0.00     0.124 S 
ATOM     68  O   UNL A   1      43.333  35.744  34.763  1.00  0.00    -0.237 OA
ATOM     69  O   UNL A   1      44.492  35.254  36.896  1.00  0.00    -0.237 OA
ATOM     70  O   UNL A   1      45.378  34.370  34.771  1.00  0.00    -0.744 OA
ENDBRANCH  63  67
ENDBRANCH  46  60
BRANCH  47  71
ATOM     71  C   UNL A   1      42.549  24.507  27.412  1.00  0.00     0.023 A 
ATOM     72  C   UNL A   1      41.951  23.241  27.505  1.00  0.00     0.031 A 
ATOM     73  C   UNL A   1      43.232  24.829  26.225  1.00  0.00     0.131 A 
ATOM     74  C   UNL A   1      42.089  22.323  26.452  1.00  0.00     0.055 A 
ATOM     75  C   UNL A   1      43.319  23.932  25.158  1.00  0.00     0.041 A 
ATOM     76  F   UNL A   1      43.818  26.028  26.081  1.00  0.00    -0.206 F 
ATOM     77  C   UNL A   1      42.757  22.665  25.274  1.00  0.00     0.022 A 
BRANCH  74  78
ATOM     78  S   UNL A   1      41.456  20.638  26.680  1.00  0.00     0.124 S 
ATOM     79  O   UNL A   1      41.928  19.976  25.470  1.00  0.00    -0.237 OA
ATOM     80  O   UNL A   1      42.104  20.238  27.925  1.00  0.00    -0.237 OA
ATOM     81  O   UNL A   1      40.009  20.827  26.766  1.00  0.00    -0.744 OA
ENDBRANCH  74  78
ENDBRANCH  47  71
BRANCH  59  82
ATOM     82  C   UNL A   1      46.742  25.646  32.868  1.00  0.00     0.023 A 
ATOM     83  C   UNL A   1      46.683  24.611  33.818  1.00  0.00     0.031 A 
ATOM     84  C   UNL A   1      48.006  26.021  32.377  1.00  0.00     0.131 A 
ATOM     85  C   UNL A   1      47.868  24.028  34.289  1.00  0.00     0.055 A 
ATOM     86  C   UNL A   1      49.177  25.394  32.804  1.00  0.00     0.041 A 
ATOM     87  F   UNL A   1      48.122  27.005  31.469  1.00  0.00    -0.206 F 
ATOM     88  C   UNL A   1      49.113  24.399  33.776  1.00  0.00     0.022 A 
BRANCH  85  89
ATOM     89  S   UNL A   1      47.769  22.834  35.651  1.00  0.00     0.124 S 
ATOM     90  O   UNL A   1      49.154  22.389  35.766  1.00  0.00    -0.237 OA
ATOM     91  O   UNL A   1      47.269  23.653  36.751  1.00  0.00    -0.237 OA
ATOM     92  O   UNL A   1      46.833  21.826  35.157  1.00  0.00    -0.744 OA
ENDBRANCH  85  89
ENDBRANCH  59  82
ENDBRANCH  33  34
ENDBRANCH  25  28
ENDBRANCH  23  24
ENDBRANCH  22  23
ENDBRANCH   1  22
TORSDOF 18
ENDMDL
