MODEL 1
REMARK VINA RESULT:     -10.6      0.000      0.000
REMARK SMILES Cc1csc(CSCC[C@H]([NH3+])C(=O)NCCCCNC(=O)c2ccc(-c3c4nc(c(-c5cc(S(=O)(=O)[O-])ccc5F)c5ccc([nH]5)c(-c5cc(S(=O)(=O)[O-])ccc5F)c5nc(c(-c6cc(S(=O)(=O)[O-])ccc6F)c6ccc3[nH]6)C=C5)C=C4)cc2)n1
REMARK SMILES IDX 15 1 14 2 12 3 13 4 10 6 9 7 8 8 7 9 6 10 5 11 1 12 2 13
REMARK SMILES IDX 3 14 85 15 4 16 11 17 16 21 17 22 18 23 19 24 20 25 21 27
REMARK SMILES IDX 22 28 23 29 84 30 24 31 83 32 25 33 26 34 27 35 77 36 28 37
REMARK SMILES IDX 82 38 76 39 78 40 29 41 81 42 75 43 74 44 30 46 62 47 42 48
REMARK SMILES IDX 61 49 43 50 46 51 60 52 79 53 44 54 45 55 59 57 80 58 47 59
REMARK SMILES IDX 31 60 32 61 40 62 33 63 39 64 41 65 38 66 34 67 35 68 36 69
REMARK SMILES IDX 37 70 63 71 64 72 72 73 65 74 71 75 73 76 70 77 66 78 67 79
REMARK SMILES IDX 68 80 69 81 48 82 49 83 57 84 50 85 56 86 58 87 55 88 51 89
REMARK SMILES IDX 52 90 53 91 54 92
REMARK H PARENT 14 5 11 18 11 19 11 20 19 26 78 45 46 56
REMARK Flexibility Score: inf
ROOT
ATOM      1  C   UNL A   1      33.159  29.078  23.210  1.00  0.00     0.116 C 
ENDROOT
BRANCH   1   2
ATOM      2  N   UNL A   1      31.812  29.163  22.672  1.00  0.00    -0.351 N 
ATOM      3  C   UNL A   1      30.910  28.209  22.316  1.00  0.00     0.278 C 
ATOM      4  O   UNL A   1      29.787  28.597  21.976  1.00  0.00    -0.268 OA
ATOM      5  H   UNL A   1      31.492  30.083  22.538  1.00  0.00     0.163 HD
BRANCH   3   6
ATOM      6  C   UNL A   1      31.233  26.703  22.267  1.00  0.00     0.271 C 
BRANCH   6   7
ATOM      7  C   UNL A   1      31.382  25.899  23.572  1.00  0.00     0.086 C 
BRANCH   7   8
ATOM      8  C   UNL A   1      30.579  24.614  23.780  1.00  0.00     0.076 C 
BRANCH   8   9
ATOM      9  S   UNL A   1      31.530  23.072  23.590  1.00  0.00    -0.154 SA
BRANCH   9  10
ATOM     10  C   UNL A   1      32.473  23.028  25.147  1.00  0.00     0.137 C 
BRANCH  10  11
ATOM     11  C   UNL A   1      33.783  22.293  25.116  1.00  0.00     0.103 A 
ATOM     12  C   UNL A   1      37.365  22.229  24.780  1.00  0.00     0.067 C 
ATOM     13  C   UNL A   1      35.948  21.838  24.952  1.00  0.00     0.049 A 
ATOM     14  C   UNL A   1      35.463  20.546  24.984  1.00  0.00     0.090 A 
ATOM     15  N   UNL A   1      34.989  22.826  25.081  1.00  0.00    -0.246 NA
ATOM     16  S   UNL A   1      33.758  20.566  25.058  1.00  0.00    -0.126 S 
ENDBRANCH  10  11
ENDBRANCH   9  10
ENDBRANCH   8   9
ENDBRANCH   7   8
ENDBRANCH   6   7
BRANCH   6  17
ATOM     17  N   UNL A   1      32.350  26.439  21.327  1.00  0.00    -0.347 N 
ATOM     18  H   UNL A   1      31.985  26.002  20.481  1.00  0.00     0.345 HD
ATOM     19  H   UNL A   1      33.025  25.814  21.768  1.00  0.00     0.345 HD
ATOM     20  H   UNL A   1      32.807  27.318  21.086  1.00  0.00     0.345 HD
ENDBRANCH   6  17
ENDBRANCH   3   6
ENDBRANCH   1   2
BRANCH   1  21
ATOM     21  C   UNL A   1      33.195  29.299  24.722  1.00  0.00     0.023 C 
BRANCH  21  22
ATOM     22  C   UNL A   1      31.870  29.775  25.341  1.00  0.00     0.023 C 
BRANCH  22  23
ATOM     23  C   UNL A   1      31.950  30.288  26.784  1.00  0.00     0.116 C 
BRANCH  23  24
ATOM     24  N   UNL A   1      31.923  31.739  26.880  1.00  0.00    -0.352 N 
ATOM     25  C   UNL A   1      32.866  32.593  27.409  1.00  0.00     0.251 C 
ATOM     26  H   UNL A   1      31.117  32.173  26.516  1.00  0.00     0.163 HD
ATOM     27  O   UNL A   1      32.627  33.795  27.486  1.00  0.00    -0.269 OA
BRANCH  25  28
ATOM     28  C   UNL A   1      34.154  32.058  27.909  1.00  0.00     0.039 A 
ATOM     29  C   UNL A   1      35.214  32.927  28.155  1.00  0.00     0.014 A 
ATOM     30  C   UNL A   1      34.315  30.693  28.139  1.00  0.00     0.014 A 
ATOM     31  C   UNL A   1      36.404  32.433  28.708  1.00  0.00     0.010 A 
ATOM     32  C   UNL A   1      35.470  30.215  28.770  1.00  0.00     0.010 A 
ATOM     33  C   UNL A   1      36.531  31.079  29.079  1.00  0.00    -0.014 A 
BRANCH  33  34
ATOM     34  C   UNL A   1      37.738  30.600  29.828  1.00  0.00     0.031 A 
ATOM     35  C   UNL A   1      38.012  31.008  31.258  1.00  0.00     0.074 A 
ATOM     36  C   UNL A   1      38.651  29.829  29.197  1.00  0.00     0.049 A 
ATOM     37  N   UNL A   1      39.017  30.678  32.035  1.00  0.00    -0.248 NA
ATOM     38  C   UNL A   1      37.064  31.940  31.878  1.00  0.00     0.031 C 
ATOM     39  C   UNL A   1      38.596  29.441  27.785  1.00  0.00     0.029 A 
ATOM     40  N   UNL A   1      39.800  29.228  29.655  1.00  0.00    -0.354 N 
ATOM     41  C   UNL A   1      38.839  31.386  33.221  1.00  0.00     0.074 A 
ATOM     42  C   UNL A   1      37.663  32.212  33.029  1.00  0.00     0.031 C 
ATOM     43  C   UNL A   1      39.628  28.630  27.509  1.00  0.00     0.029 A 
ATOM     44  C   UNL A   1      40.445  28.467  28.708  1.00  0.00     0.049 A 
ATOM     45  H   UNL A   1      40.130  29.334  30.576  1.00  0.00     0.167 HD
ATOM     46  C   UNL A   1      39.561  31.336  34.371  1.00  0.00     0.034 A 
ATOM     47  C   UNL A   1      41.562  27.715  28.780  1.00  0.00     0.034 A 
ATOM     48  C   UNL A   1      40.704  30.475  34.581  1.00  0.00     0.049 A 
ATOM     49  C   UNL A   1      42.304  27.607  30.086  1.00  0.00     0.074 A 
ATOM     50  C   UNL A   1      41.426  30.269  35.746  1.00  0.00     0.029 A 
ATOM     51  N   UNL A   1      41.296  29.681  33.609  1.00  0.00    -0.354 N 
ATOM     52  N   UNL A   1      42.062  28.211  31.224  1.00  0.00    -0.248 NA
ATOM     53  C   UNL A   1      43.461  26.700  30.118  1.00  0.00     0.031 C 
ATOM     54  C   UNL A   1      42.487  29.399  35.465  1.00  0.00     0.029 A 
ATOM     55  C   UNL A   1      42.388  29.007  34.141  1.00  0.00     0.049 A 
ATOM     56  H   UNL A   1      40.988  29.606  32.678  1.00  0.00     0.167 HD
ATOM     57  C   UNL A   1      43.028  27.745  32.112  1.00  0.00     0.074 A 
ATOM     58  C   UNL A   1      43.842  26.794  31.384  1.00  0.00     0.031 C 
ATOM     59  C   UNL A   1      43.218  28.075  33.414  1.00  0.00     0.034 A 
BRANCH  46  60
ATOM     60  C   UNL A   1      39.135  32.247  35.503  1.00  0.00     0.023 A 
ATOM     61  C   UNL A   1      39.546  33.591  35.561  1.00  0.00     0.031 A 
ATOM     62  C   UNL A   1      38.328  31.764  36.548  1.00  0.00     0.131 A 
ATOM     63  C   UNL A   1      39.237  34.371  36.685  1.00  0.00     0.055 A 
ATOM     64  C   UNL A   1      37.943  32.576  37.618  1.00  0.00     0.041 A 
ATOM     65  F   UNL A   1      37.909  30.489  36.556  1.00  0.00    -0.206 F 
ATOM     66  C   UNL A   1      38.415  33.883  37.701  1.00  0.00     0.022 A 
BRANCH  63  67
ATOM     67  S   UNL A   1      40.067  35.973  36.872  1.00  0.00     0.124 S 
ATOM     68  O   UNL A   1      39.431  36.493  38.080  1.00  0.00    -0.237 OA
ATOM     69  O   UNL A   1      41.467  35.589  37.001  1.00  0.00    -0.237 OA
ATOM     70  O   UNL A   1      39.724  36.682  35.641  1.00  0.00    -0.744 OA
ENDBRANCH  63  67
ENDBRANCH  46  60
BRANCH  47  71
ATOM     71  C   UNL A   1      42.051  26.993  27.573  1.00  0.00     0.023 A 
ATOM     72  C   UNL A   1      41.840  25.614  27.418  1.00  0.00     0.031 A 
ATOM     73  C   UNL A   1      42.752  27.675  26.563  1.00  0.00     0.131 A 
ATOM     74  C   UNL A   1      42.357  24.952  26.295  1.00  0.00     0.055 A 
ATOM     75  C   UNL A   1      43.226  27.020  25.427  1.00  0.00     0.041 A 
ATOM     76  F   UNL A   1      42.966  28.997  26.661  1.00  0.00    -0.206 F 
ATOM     77  C   UNL A   1      43.039  25.647  25.293  1.00  0.00     0.022 A 
BRANCH  74  78
ATOM     78  S   UNL A   1      42.176  23.150  26.189  1.00  0.00     0.124 S 
ATOM     79  O   UNL A   1      43.012  22.701  27.296  1.00  0.00    -0.237 OA
ATOM     80  O   UNL A   1      40.737  22.981  26.361  1.00  0.00    -0.237 OA
ATOM     81  O   UNL A   1      42.682  22.836  24.854  1.00  0.00    -0.744 OA
ENDBRANCH  74  78
ENDBRANCH  47  71
BRANCH  59  82
ATOM     82  C   UNL A   1      44.337  27.376  34.146  1.00  0.00     0.023 A 
ATOM     83  C   UNL A   1      44.167  26.100  34.714  1.00  0.00     0.031 A 
ATOM     84  C   UNL A   1      45.587  28.004  34.295  1.00  0.00     0.131 A 
ATOM     85  C   UNL A   1      45.212  25.514  35.445  1.00  0.00     0.055 A 
ATOM     86  C   UNL A   1      46.640  27.394  34.980  1.00  0.00     0.041 A 
ATOM     87  F   UNL A   1      45.805  29.224  33.777  1.00  0.00    -0.206 F 
ATOM     88  C   UNL A   1      46.452  26.148  35.570  1.00  0.00     0.022 A 
BRANCH  85  89
ATOM     89  S   UNL A   1      44.906  23.946  36.304  1.00  0.00     0.124 S 
ATOM     90  O   UNL A   1      45.643  22.996  35.476  1.00  0.00    -0.237 OA
ATOM     91  O   UNL A   1      45.462  24.202  37.629  1.00  0.00    -0.237 OA
ATOM     92  O   UNL A   1      43.452  23.807  36.260  1.00  0.00    -0.744 OA
ENDBRANCH  85  89
ENDBRANCH  59  82
ENDBRANCH  33  34
ENDBRANCH  25  28
ENDBRANCH  23  24
ENDBRANCH  22  23
ENDBRANCH  21  22
ENDBRANCH   1  21
TORSDOF 20
ENDMDL
MODEL 2
REMARK VINA RESULT:     -10.3      4.864      9.887
REMARK SMILES Cc1csc(CSCC[C@H]([NH3+])C(=O)NCCCCNC(=O)c2ccc(-c3c4nc(c(-c5cc(S(=O)(=O)[O-])ccc5F)c5ccc([nH]5)c(-c5cc(S(=O)(=O)[O-])ccc5F)c5nc(c(-c6cc(S(=O)(=O)[O-])ccc6F)c6ccc3[nH]6)C=C5)C=C4)cc2)n1
REMARK SMILES IDX 15 1 14 2 12 3 13 4 10 6 9 7 8 8 7 9 6 10 5 11 1 12 2 13
REMARK SMILES IDX 3 14 85 15 4 16 11 17 16 21 17 22 18 23 19 24 20 25 21 27
REMARK SMILES IDX 22 28 23 29 84 30 24 31 83 32 25 33 26 34 27 35 77 36 28 37
REMARK SMILES IDX 82 38 76 39 78 40 29 41 81 42 75 43 74 44 30 46 62 47 42 48
REMARK SMILES IDX 61 49 43 50 46 51 60 52 79 53 44 54 45 55 59 57 80 58 47 59
REMARK SMILES IDX 31 60 32 61 40 62 33 63 39 64 41 65 38 66 34 67 35 68 36 69
REMARK SMILES IDX 37 70 63 71 64 72 72 73 65 74 71 75 73 76 70 77 66 78 67 79
REMARK SMILES IDX 68 80 69 81 48 82 49 83 57 84 50 85 56 86 58 87 55 88 51 89
REMARK SMILES IDX 52 90 53 91 54 92
REMARK H PARENT 14 5 11 18 11 19 11 20 19 26 78 45 46 56
REMARK Flexibility Score: inf
ROOT
ATOM      1  C   UNL A   1      33.515  24.071  24.850  1.00  0.00     0.116 C 
ENDROOT
BRANCH   1   2
ATOM      2  N   UNL A   1      33.215  23.627  26.200  1.00  0.00    -0.351 N 
ATOM      3  C   UNL A   1      32.042  23.330  26.823  1.00  0.00     0.278 C 
ATOM      4  O   UNL A   1      32.116  22.876  27.970  1.00  0.00    -0.268 OA
ATOM      5  H   UNL A   1      34.008  23.524  26.773  1.00  0.00     0.163 HD
BRANCH   3   6
ATOM      6  C   UNL A   1      30.656  23.577  26.199  1.00  0.00     0.271 C 
BRANCH   6   7
ATOM      7  C   UNL A   1      30.091  25.006  26.104  1.00  0.00     0.086 C 
BRANCH   7   8
ATOM      8  C   UNL A   1      30.405  25.879  24.889  1.00  0.00     0.076 C 
BRANCH   8   9
ATOM      9  S   UNL A   1      28.956  26.386  23.908  1.00  0.00    -0.154 SA
BRANCH   9  10
ATOM     10  C   UNL A   1      29.395  28.097  23.465  1.00  0.00     0.137 C 
BRANCH  10  11
ATOM     11  C   UNL A   1      30.852  28.458  23.549  1.00  0.00     0.103 A 
ATOM     12  C   UNL A   1      34.220  28.321  22.293  1.00  0.00     0.067 C 
ATOM     13  C   UNL A   1      33.022  28.603  23.115  1.00  0.00     0.049 A 
ATOM     14  C   UNL A   1      33.014  29.212  24.353  1.00  0.00     0.090 A 
ATOM     15  N   UNL A   1      31.779  28.224  22.641  1.00  0.00    -0.246 NA
ATOM     16  S   UNL A   1      31.432  29.207  24.994  1.00  0.00    -0.126 S 
ENDBRANCH  10  11
ENDBRANCH   9  10
ENDBRANCH   8   9
ENDBRANCH   7   8
ENDBRANCH   6   7
BRANCH   6  17
ATOM     17  N   UNL A   1      29.659  22.626  26.750  1.00  0.00    -0.347 N 
ATOM     18  H   UNL A   1      30.127  21.963  27.367  1.00  0.00     0.345 HD
ATOM     19  H   UNL A   1      29.213  22.119  25.984  1.00  0.00     0.345 HD
ATOM     20  H   UNL A   1      28.952  23.139  27.275  1.00  0.00     0.345 HD
ENDBRANCH   6  17
ENDBRANCH   3   6
ENDBRANCH   1   2
BRANCH   1  21
ATOM     21  C   UNL A   1      34.957  24.558  24.706  1.00  0.00     0.023 C 
BRANCH  21  22
ATOM     22  C   UNL A   1      36.027  23.458  24.793  1.00  0.00     0.023 C 
BRANCH  22  23
ATOM     23  C   UNL A   1      36.997  23.557  25.976  1.00  0.00     0.116 C 
BRANCH  23  24
ATOM     24  N   UNL A   1      37.932  22.445  26.047  1.00  0.00    -0.352 N 
ATOM     25  C   UNL A   1      39.265  22.451  26.398  1.00  0.00     0.251 C 
ATOM     26  H   UNL A   1      37.561  21.564  25.811  1.00  0.00     0.163 HD
ATOM     27  O   UNL A   1      39.924  21.419  26.311  1.00  0.00    -0.269 OA
BRANCH  25  28
ATOM     28  C   UNL A   1      39.906  23.707  26.851  1.00  0.00     0.039 A 
ATOM     29  C   UNL A   1      39.929  24.815  26.007  1.00  0.00     0.014 A 
ATOM     30  C   UNL A   1      40.488  23.792  28.114  1.00  0.00     0.014 A 
ATOM     31  C   UNL A   1      40.460  26.028  26.467  1.00  0.00     0.010 A 
ATOM     32  C   UNL A   1      40.941  25.024  28.602  1.00  0.00     0.010 A 
ATOM     33  C   UNL A   1      40.922  26.169  27.791  1.00  0.00    -0.014 A 
BRANCH  33  34
ATOM     34  C   UNL A   1      41.324  27.513  28.322  1.00  0.00     0.031 A 
ATOM     35  C   UNL A   1      42.770  27.940  28.420  1.00  0.00     0.074 A 
ATOM     36  C   UNL A   1      40.375  28.354  28.789  1.00  0.00     0.049 A 
ATOM     37  N   UNL A   1      43.272  29.069  28.862  1.00  0.00    -0.248 NA
ATOM     38  C   UNL A   1      43.784  26.960  28.013  1.00  0.00     0.031 C 
ATOM     39  C   UNL A   1      38.944  28.049  28.875  1.00  0.00     0.029 A 
ATOM     40  N   UNL A   1      40.464  29.636  29.278  1.00  0.00    -0.354 N 
ATOM     41  C   UNL A   1      44.657  28.922  28.818  1.00  0.00     0.074 A 
ATOM     42  C   UNL A   1      44.907  27.568  28.367  1.00  0.00     0.031 C 
ATOM     43  C   UNL A   1      38.289  29.127  29.331  1.00  0.00     0.029 A 
ATOM     44  C   UNL A   1      39.250  30.190  29.611  1.00  0.00     0.049 A 
ATOM     45  H   UNL A   1      41.319  30.114  29.380  1.00  0.00     0.167 HD
ATOM     46  C   UNL A   1      45.628  29.831  29.096  1.00  0.00     0.034 A 
ATOM     47  C   UNL A   1      38.928  31.411  30.086  1.00  0.00     0.034 A 
ATOM     48  C   UNL A   1      45.379  31.197  29.497  1.00  0.00     0.049 A 
ATOM     49  C   UNL A   1      40.011  32.432  30.309  1.00  0.00     0.074 A 
ATOM     50  C   UNL A   1      46.294  32.221  29.687  1.00  0.00     0.029 A 
ATOM     51  N   UNL A   1      44.129  31.733  29.777  1.00  0.00    -0.354 N 
ATOM     52  N   UNL A   1      41.309  32.302  30.169  1.00  0.00    -0.248 NA
ATOM     53  C   UNL A   1      39.582  33.770  30.740  1.00  0.00     0.031 C 
ATOM     54  C   UNL A   1      45.606  33.355  30.136  1.00  0.00     0.029 A 
ATOM     55  C   UNL A   1      44.254  33.062  30.162  1.00  0.00     0.049 A 
ATOM     56  H   UNL A   1      43.279  31.242  29.712  1.00  0.00     0.167 HD
ATOM     57  C   UNL A   1      41.849  33.547  30.480  1.00  0.00     0.074 A 
ATOM     58  C   UNL A   1      40.736  34.419  30.794  1.00  0.00     0.031 C 
ATOM     59  C   UNL A   1      43.150  33.930  30.499  1.00  0.00     0.034 A 
BRANCH  46  60
ATOM     60  C   UNL A   1      47.067  29.372  28.976  1.00  0.00     0.023 A 
ATOM     61  C   UNL A   1      47.720  29.315  27.732  1.00  0.00     0.031 A 
ATOM     62  C   UNL A   1      47.787  28.965  30.113  1.00  0.00     0.131 A 
ATOM     63  C   UNL A   1      49.009  28.769  27.642  1.00  0.00     0.055 A 
ATOM     64  C   UNL A   1      49.106  28.512  30.028  1.00  0.00     0.041 A 
ATOM     65  F   UNL A   1      47.218  28.988  31.328  1.00  0.00    -0.206 F 
ATOM     66  C   UNL A   1      49.718  28.392  28.783  1.00  0.00     0.022 A 
BRANCH  63  67
ATOM     67  S   UNL A   1      49.672  28.403  25.993  1.00  0.00     0.124 S 
ATOM     68  O   UNL A   1      48.453  28.365  25.189  1.00  0.00    -0.237 OA
ATOM     69  O   UNL A   1      50.561  29.534  25.753  1.00  0.00    -0.237 OA
ATOM     70  O   UNL A   1      50.334  27.113  26.169  1.00  0.00    -0.744 OA
ENDBRANCH  63  67
ENDBRANCH  46  60
BRANCH  47  71
ATOM     71  C   UNL A   1      37.506  31.743  30.377  1.00  0.00     0.023 A 
ATOM     72  C   UNL A   1      36.635  32.157  29.357  1.00  0.00     0.031 A 
ATOM     73  C   UNL A   1      37.005  31.665  31.687  1.00  0.00     0.131 A 
ATOM     74  C   UNL A   1      35.315  32.514  29.671  1.00  0.00     0.055 A 
ATOM     75  C   UNL A   1      35.679  31.979  31.988  1.00  0.00     0.041 A 
ATOM     76  F   UNL A   1      37.797  31.261  32.694  1.00  0.00    -0.206 F 
ATOM     77  C   UNL A   1      34.828  32.416  30.977  1.00  0.00     0.022 A 
BRANCH  74  78
ATOM     78  S   UNL A   1      34.254  33.165  28.352  1.00  0.00     0.124 S 
ATOM     79  O   UNL A   1      33.725  31.940  27.764  1.00  0.00    -0.237 OA
ATOM     80  O   UNL A   1      33.305  33.980  29.102  1.00  0.00    -0.237 OA
ATOM     81  O   UNL A   1      35.183  33.913  27.507  1.00  0.00    -0.744 OA
ENDBRANCH  74  78
ENDBRANCH  47  71
BRANCH  59  82
ATOM     82  C   UNL A   1      43.439  35.371  30.844  1.00  0.00     0.023 A 
ATOM     83  C   UNL A   1      43.550  36.361  29.852  1.00  0.00     0.031 A 
ATOM     84  C   UNL A   1      43.627  35.754  32.184  1.00  0.00     0.131 A 
ATOM     85  C   UNL A   1      43.887  37.676  30.210  1.00  0.00     0.055 A 
ATOM     86  C   UNL A   1      43.912  37.074  32.539  1.00  0.00     0.041 A 
ATOM     87  F   UNL A   1      43.537  34.849  33.173  1.00  0.00    -0.206 F 
ATOM     88  C   UNL A   1      44.056  38.041  31.549  1.00  0.00     0.022 A 
BRANCH  85  89
ATOM     89  S   UNL A   1      44.186  38.891  28.896  1.00  0.00     0.124 S 
ATOM     90  O   UNL A   1      42.897  38.924  28.213  1.00  0.00    -0.237 OA
ATOM     91  O   UNL A   1      44.538  40.089  29.653  1.00  0.00    -0.237 OA
ATOM     92  O   UNL A   1      45.280  38.303  28.126  1.00  0.00    -0.744 OA
ENDBRANCH  85  89
ENDBRANCH  59  82
ENDBRANCH  33  34
ENDBRANCH  25  28
ENDBRANCH  23  24
ENDBRANCH  22  23
ENDBRANCH  21  22
ENDBRANCH   1  21
TORSDOF 20
ENDMDL
MODEL 3
REMARK VINA RESULT:     -10.2      2.843      3.630
REMARK SMILES Cc1csc(CSCC[C@H]([NH3+])C(=O)NCCCCNC(=O)c2ccc(-c3c4nc(c(-c5cc(S(=O)(=O)[O-])ccc5F)c5ccc([nH]5)c(-c5cc(S(=O)(=O)[O-])ccc5F)c5nc(c(-c6cc(S(=O)(=O)[O-])ccc6F)c6ccc3[nH]6)C=C5)C=C4)cc2)n1
REMARK SMILES IDX 15 1 14 2 12 3 13 4 10 6 9 7 8 8 7 9 6 10 5 11 1 12 2 13
REMARK SMILES IDX 3 14 85 15 4 16 11 17 16 21 17 22 18 23 19 24 20 25 21 27
REMARK SMILES IDX 22 28 23 29 84 30 24 31 83 32 25 33 26 34 27 35 77 36 28 37
REMARK SMILES IDX 82 38 76 39 78 40 29 41 81 42 75 43 74 44 30 46 62 47 42 48
REMARK SMILES IDX 61 49 43 50 46 51 60 52 79 53 44 54 45 55 59 57 80 58 47 59
REMARK SMILES IDX 31 60 32 61 40 62 33 63 39 64 41 65 38 66 34 67 35 68 36 69
REMARK SMILES IDX 37 70 63 71 64 72 72 73 65 74 71 75 73 76 70 77 66 78 67 79
REMARK SMILES IDX 68 80 69 81 48 82 49 83 57 84 50 85 56 86 58 87 55 88 51 89
REMARK SMILES IDX 52 90 53 91 54 92
REMARK H PARENT 14 5 11 18 11 19 11 20 19 26 78 45 46 56
REMARK Flexibility Score: inf
ROOT
ATOM      1  C   UNL A   1      31.838  28.647  23.673  1.00  0.00     0.116 C 
ENDROOT
BRANCH   1   2
ATOM      2  N   UNL A   1      31.791  27.344  23.032  1.00  0.00    -0.351 N 
ATOM      3  C   UNL A   1      31.073  26.220  23.302  1.00  0.00     0.278 C 
ATOM      4  O   UNL A   1      31.178  25.283  22.503  1.00  0.00    -0.268 OA
ATOM      5  H   UNL A   1      32.392  27.257  22.258  1.00  0.00     0.163 HD
BRANCH   3   6
ATOM      6  C   UNL A   1      30.197  26.046  24.557  1.00  0.00     0.271 C 
BRANCH   6   7
ATOM      7  C   UNL A   1      30.555  24.983  25.611  1.00  0.00     0.086 C 
BRANCH   7   8
ATOM      8  C   UNL A   1      31.764  25.183  26.526  1.00  0.00     0.076 C 
BRANCH   8   9
ATOM      9  S   UNL A   1      33.251  24.241  26.056  1.00  0.00    -0.154 SA
BRANCH   9  10
ATOM     10  C   UNL A   1      32.823  22.568  26.637  1.00  0.00     0.137 C 
BRANCH  10  11
ATOM     11  C   UNL A   1      32.778  21.488  25.593  1.00  0.00     0.103 A 
ATOM     12  C   UNL A   1      33.659  18.213  24.393  1.00  0.00     0.067 C 
ATOM     13  C   UNL A   1      33.109  19.582  24.509  1.00  0.00     0.049 A 
ATOM     14  C   UNL A   1      32.480  20.289  23.504  1.00  0.00     0.090 A 
ATOM     15  N   UNL A   1      33.227  20.254  25.712  1.00  0.00    -0.246 NA
ATOM     16  S   UNL A   1      32.133  21.873  24.037  1.00  0.00    -0.126 S 
ENDBRANCH  10  11
ENDBRANCH   9  10
ENDBRANCH   8   9
ENDBRANCH   7   8
ENDBRANCH   6   7
BRANCH   6  17
ATOM     17  N   UNL A   1      28.761  25.993  24.187  1.00  0.00    -0.347 N 
ATOM     18  H   UNL A   1      28.544  26.766  23.559  1.00  0.00     0.345 HD
ATOM     19  H   UNL A   1      28.190  26.070  25.029  1.00  0.00     0.345 HD
ATOM     20  H   UNL A   1      28.562  25.109  23.720  1.00  0.00     0.345 HD
ENDBRANCH   6  17
ENDBRANCH   3   6
ENDBRANCH   1   2
BRANCH   1  21
ATOM     21  C   UNL A   1      33.242  29.003  24.163  1.00  0.00     0.023 C 
BRANCH  21  22
ATOM     22  C   UNL A   1      33.906  27.942  25.057  1.00  0.00     0.023 C 
BRANCH  22  23
ATOM     23  C   UNL A   1      34.058  28.312  26.537  1.00  0.00     0.116 C 
BRANCH  23  24
ATOM     24  N   UNL A   1      33.634  29.671  26.836  1.00  0.00    -0.352 N 
ATOM     25  C   UNL A   1      34.256  30.624  27.613  1.00  0.00     0.251 C 
ATOM     26  H   UNL A   1      32.784  29.949  26.425  1.00  0.00     0.163 HD
ATOM     27  O   UNL A   1      33.698  31.697  27.827  1.00  0.00    -0.269 OA
BRANCH  25  28
ATOM     28  C   UNL A   1      35.582  30.343  28.212  1.00  0.00     0.039 A 
ATOM     29  C   UNL A   1      35.660  29.769  29.479  1.00  0.00     0.014 A 
ATOM     30  C   UNL A   1      36.752  30.647  27.521  1.00  0.00     0.014 A 
ATOM     31  C   UNL A   1      36.910  29.426  30.011  1.00  0.00     0.010 A 
ATOM     32  C   UNL A   1      37.993  30.226  28.015  1.00  0.00     0.010 A 
ATOM     33  C   UNL A   1      38.094  29.595  29.264  1.00  0.00    -0.014 A 
BRANCH  33  34
ATOM     34  C   UNL A   1      39.401  29.064  29.771  1.00  0.00     0.031 A 
ATOM     35  C   UNL A   1      40.114  29.676  30.956  1.00  0.00     0.074 A 
ATOM     36  C   UNL A   1      40.002  28.044  29.119  1.00  0.00     0.049 A 
ATOM     37  N   UNL A   1      41.253  29.329  31.507  1.00  0.00    -0.248 NA
ATOM     38  C   UNL A   1      39.493  30.855  31.570  1.00  0.00     0.031 C 
ATOM     39  C   UNL A   1      39.506  27.417  27.891  1.00  0.00     0.029 A 
ATOM     40  N   UNL A   1      41.159  27.351  29.394  1.00  0.00    -0.354 N 
ATOM     41  C   UNL A   1      41.501  30.264  32.508  1.00  0.00     0.074 A 
ATOM     42  C   UNL A   1      40.421  31.228  32.440  1.00  0.00     0.031 C 
ATOM     43  C   UNL A   1      40.318  26.405  27.553  1.00  0.00     0.029 A 
ATOM     44  C   UNL A   1      41.417  26.329  28.511  1.00  0.00     0.049 A 
ATOM     45  H   UNL A   1      41.746  27.568  30.154  1.00  0.00     0.167 HD
ATOM     46  C   UNL A   1      42.509  30.304  33.419  1.00  0.00     0.034 A 
ATOM     47  C   UNL A   1      42.416  25.424  28.464  1.00  0.00     0.034 A 
ATOM     48  C   UNL A   1      43.558  29.314  33.521  1.00  0.00     0.049 A 
ATOM     49  C   UNL A   1      43.479  25.434  29.529  1.00  0.00     0.074 A 
ATOM     50  C   UNL A   1      44.553  29.207  34.479  1.00  0.00     0.029 A 
ATOM     51  N   UNL A   1      43.756  28.265  32.634  1.00  0.00    -0.354 N 
ATOM     52  N   UNL A   1      43.641  26.270  30.526  1.00  0.00    -0.248 NA
ATOM     53  C   UNL A   1      44.486  24.364  29.470  1.00  0.00     0.031 C 
ATOM     54  C   UNL A   1      45.384  28.132  34.142  1.00  0.00     0.029 A 
ATOM     55  C   UNL A   1      44.870  27.524  33.009  1.00  0.00     0.049 A 
ATOM     56  H   UNL A   1      43.190  28.073  31.852  1.00  0.00     0.167 HD
ATOM     57  C   UNL A   1      44.760  25.818  31.221  1.00  0.00     0.074 A 
ATOM     58  C   UNL A   1      45.219  24.624  30.543  1.00  0.00     0.031 C 
ATOM     59  C   UNL A   1      45.347  26.346  32.324  1.00  0.00     0.034 A 
BRANCH  46  60
ATOM     60  C   UNL A   1      42.529  31.469  34.387  1.00  0.00     0.023 A 
ATOM     61  C   UNL A   1      41.715  31.488  35.533  1.00  0.00     0.031 A 
ATOM     62  C   UNL A   1      43.353  32.583  34.151  1.00  0.00     0.131 A 
ATOM     63  C   UNL A   1      41.666  32.633  36.340  1.00  0.00     0.055 A 
ATOM     64  C   UNL A   1      43.370  33.683  35.013  1.00  0.00     0.041 A 
ATOM     65  F   UNL A   1      44.147  32.631  33.070  1.00  0.00    -0.206 F 
ATOM     66  C   UNL A   1      42.508  33.721  36.105  1.00  0.00     0.022 A 
BRANCH  63  67
ATOM     67  S   UNL A   1      40.364  32.742  37.598  1.00  0.00     0.124 S 
ATOM     68  O   UNL A   1      39.931  34.130  37.452  1.00  0.00    -0.237 OA
ATOM     69  O   UNL A   1      39.415  31.727  37.157  1.00  0.00    -0.237 OA
ATOM     70  O   UNL A   1      41.066  32.444  38.844  1.00  0.00    -0.744 OA
ENDBRANCH  63  67
ENDBRANCH  46  60
BRANCH  47  71
ATOM     71  C   UNL A   1      42.456  24.418  27.367  1.00  0.00     0.023 A 
ATOM     72  C   UNL A   1      41.678  23.252  27.424  1.00  0.00     0.031 A 
ATOM     73  C   UNL A   1      43.289  24.606  26.251  1.00  0.00     0.131 A 
ATOM     74  C   UNL A   1      41.776  22.297  26.400  1.00  0.00     0.055 A 
ATOM     75  C   UNL A   1      43.351  23.676  25.214  1.00  0.00     0.041 A 
ATOM     76  F   UNL A   1      44.042  25.714  26.146  1.00  0.00    -0.206 F 
ATOM     77  C   UNL A   1      42.598  22.507  25.290  1.00  0.00     0.022 A 
BRANCH  74  78
ATOM     78  S   UNL A   1      40.853  20.745  26.567  1.00  0.00     0.124 S 
ATOM     79  O   UNL A   1      39.543  21.120  26.048  1.00  0.00    -0.237 OA
ATOM     80  O   UNL A   1      41.637  19.837  25.738  1.00  0.00    -0.237 OA
ATOM     81  O   UNL A   1      40.903  20.474  28.002  1.00  0.00    -0.744 OA
ENDBRANCH  74  78
ENDBRANCH  47  71
BRANCH  59  82
ATOM     82  C   UNL A   1      46.541  25.613  32.886  1.00  0.00     0.023 A 
ATOM     83  C   UNL A   1      47.814  25.709  32.297  1.00  0.00     0.031 A 
ATOM     84  C   UNL A   1      46.397  24.789  34.017  1.00  0.00     0.131 A 
ATOM     85  C   UNL A   1      48.882  24.958  32.811  1.00  0.00     0.055 A 
ATOM     86  C   UNL A   1      47.475  24.083  34.555  1.00  0.00     0.041 A 
ATOM     87  F   UNL A   1      45.203  24.656  34.618  1.00  0.00    -0.206 F 
ATOM     88  C   UNL A   1      48.723  24.155  33.945  1.00  0.00     0.022 A 
BRANCH  85  89
ATOM     89  S   UNL A   1      50.468  24.974  31.929  1.00  0.00     0.124 S 
ATOM     90  O   UNL A   1      51.203  26.014  32.644  1.00  0.00    -0.237 OA
ATOM     91  O   UNL A   1      50.946  23.609  32.120  1.00  0.00    -0.237 OA
ATOM     92  O   UNL A   1      50.095  25.312  30.557  1.00  0.00    -0.744 OA
ENDBRANCH  85  89
ENDBRANCH  59  82
ENDBRANCH  33  34
ENDBRANCH  25  28
ENDBRANCH  23  24
ENDBRANCH  22  23
ENDBRANCH  21  22
ENDBRANCH   1  21
TORSDOF 20
ENDMDL
