MODEL 1
REMARK VINA RESULT:     -13.0      0.000      0.000
REMARK SMILES [H]/N=C1\C=CC2=NC(C(=O)NCCCCNC(=O)c3ccc(-c4c5nc(c(-c6cc(S(=O)(=O)[O-])ccc6F)c6ccc([nH]6)c(-c6cc(S(=O)(=O)[O-])ccc6F)c6nc(c(-c7cc(S(=O)(=O)[O-])ccc7F)c7ccc4[nH]7)C=C6)C=C5)cc3)=C[C@@H]2C1
REMARK SMILES IDX 15 1 14 2 13 3 12 4 11 5 9 6 10 7 8 9 2 10 3 11 1 12 4 13
REMARK SMILES IDX 84 14 5 15 83 16 6 17 82 18 7 19 16 20 17 21 18 23 19 24
REMARK SMILES IDX 20 25 81 26 21 27 80 28 22 29 23 30 24 31 74 32 25 33 79 34
REMARK SMILES IDX 73 35 75 36 26 37 78 38 72 39 71 40 27 42 59 43 39 44 58 45
REMARK SMILES IDX 40 46 43 47 57 48 76 49 41 50 42 51 56 53 77 54 44 55 28 56
REMARK SMILES IDX 29 57 37 58 30 59 36 60 38 61 35 62 31 63 32 64 33 65 34 66
REMARK SMILES IDX 60 67 61 68 69 69 62 70 68 71 70 72 67 73 63 74 64 75 65 76
REMARK SMILES IDX 66 77 45 78 46 79 54 80 47 81 53 82 55 83 52 84 48 85 49 86
REMARK SMILES IDX 50 87 51 88
REMARK H PARENT 11 8 16 22 75 41 43 52
REMARK Flexibility Score: inf
ROOT
ATOM      1  C   UNL A   1      35.418  29.304  27.357  1.00  0.00     0.116 C 
ENDROOT
BRANCH   1   2
ATOM      2  C   UNL A   1      34.033  28.770  27.017  1.00  0.00     0.023 C 
BRANCH   2   3
ATOM      3  C   UNL A   1      33.247  29.638  26.019  1.00  0.00     0.023 C 
BRANCH   3   4
ATOM      4  C   UNL A   1      33.144  29.072  24.596  1.00  0.00     0.116 C 
BRANCH   4   5
ATOM      5  N   UNL A   1      32.192  27.981  24.550  1.00  0.00    -0.351 N 
ATOM      6  C   UNL A   1      30.868  27.872  24.266  1.00  0.00     0.269 C 
ATOM      7  O   UNL A   1      30.357  26.771  24.501  1.00  0.00    -0.268 OA
ATOM      8  H   UNL A   1      32.601  27.114  24.776  1.00  0.00     0.163 HD
BRANCH   6   9
ATOM      9  C   UNL A   1      30.042  28.956  23.614  1.00  0.00     0.125 C 
ATOM     10  N   UNL A   1      27.533  33.125  20.449  1.00  0.00    -0.305 NA
ATOM     11  C   UNL A   1      28.107  32.448  21.390  1.00  0.00     0.032 C 
ATOM     12  H   UNL A   1      27.327  34.078  20.584  1.00  0.00     0.187 HD
ATOM     13  C   UNL A   1      28.519  33.084  22.668  1.00  0.00     0.025 C 
ATOM     14  C   UNL A   1      28.408  30.977  21.141  1.00  0.00     0.069 C 
ATOM     15  C   UNL A   1      29.082  32.382  23.656  1.00  0.00     0.026 C 
ATOM     16  C   UNL A   1      28.475  30.205  22.437  1.00  0.00     0.069 C 
ATOM     17  C   UNL A   1      29.260  30.939  23.487  1.00  0.00     0.049 C 
ATOM     18  C   UNL A   1      29.269  28.937  22.515  1.00  0.00     0.017 C 
ATOM     19  N   UNL A   1      30.063  30.216  24.195  1.00  0.00    -0.247 NA
ENDBRANCH   6   9
ENDBRANCH   4   5
ENDBRANCH   3   4
ENDBRANCH   2   3
ENDBRANCH   1   2
BRANCH   1  20
ATOM     20  N   UNL A   1      35.528  29.786  28.733  1.00  0.00    -0.352 N 
ATOM     21  C   UNL A   1      36.506  29.478  29.667  1.00  0.00     0.251 C 
ATOM     22  H   UNL A   1      34.822  30.405  29.031  1.00  0.00     0.163 HD
ATOM     23  O   UNL A   1      36.284  29.613  30.859  1.00  0.00    -0.269 OA
BRANCH  21  24
ATOM     24  C   UNL A   1      37.813  28.979  29.186  1.00  0.00     0.039 A 
ATOM     25  C   UNL A   1      38.458  29.542  28.082  1.00  0.00     0.014 A 
ATOM     26  C   UNL A   1      38.409  27.933  29.886  1.00  0.00     0.014 A 
ATOM     27  C   UNL A   1      39.739  29.093  27.753  1.00  0.00     0.010 A 
ATOM     28  C   UNL A   1      39.727  27.619  29.673  1.00  0.00     0.010 A 
ATOM     29  C   UNL A   1      40.384  28.147  28.573  1.00  0.00    -0.014 A 
BRANCH  29  30
ATOM     30  C   UNL A   1      41.791  27.799  28.374  1.00  0.00     0.031 A 
ATOM     31  C   UNL A   1      41.990  26.525  27.635  1.00  0.00     0.074 A 
ATOM     32  C   UNL A   1      42.832  28.619  28.653  1.00  0.00     0.049 A 
ATOM     33  N   UNL A   1      42.397  25.403  28.122  1.00  0.00    -0.248 NA
ATOM     34  C   UNL A   1      41.513  26.426  26.246  1.00  0.00     0.031 C 
ATOM     35  C   UNL A   1      42.804  30.006  29.133  1.00  0.00     0.029 A 
ATOM     36  N   UNL A   1      44.167  28.402  28.481  1.00  0.00    -0.354 N 
ATOM     37  C   UNL A   1      42.477  24.522  27.051  1.00  0.00     0.074 A 
ATOM     38  C   UNL A   1      41.726  25.134  25.987  1.00  0.00     0.031 C 
ATOM     39  C   UNL A   1      44.029  30.567  28.998  1.00  0.00     0.029 A 
ATOM     40  C   UNL A   1      44.971  29.539  28.591  1.00  0.00     0.049 A 
ATOM     41  H   UNL A   1      44.537  27.510  28.292  1.00  0.00     0.167 HD
ATOM     42  C   UNL A   1      43.364  23.488  27.070  1.00  0.00     0.034 A 
ATOM     43  C   UNL A   1      46.316  29.633  28.386  1.00  0.00     0.034 A 
ATOM     44  C   UNL A   1      43.847  23.252  28.416  1.00  0.00     0.049 A 
ATOM     45  C   UNL A   1      46.859  28.266  28.575  1.00  0.00     0.074 A 
ATOM     46  C   UNL A   1      43.234  22.952  29.619  1.00  0.00     0.029 A 
ATOM     47  N   UNL A   1      45.090  23.744  28.753  1.00  0.00    -0.354 N 
ATOM     48  N   UNL A   1      46.829  27.646  29.723  1.00  0.00    -0.248 NA
ATOM     49  C   UNL A   1      46.952  27.405  27.407  1.00  0.00     0.031 C 
ATOM     50  C   UNL A   1      43.907  23.763  30.581  1.00  0.00     0.029 A 
ATOM     51  C   UNL A   1      44.958  24.423  29.941  1.00  0.00     0.049 A 
ATOM     52  H   UNL A   1      45.921  23.629  28.236  1.00  0.00     0.167 HD
ATOM     53  C   UNL A   1      46.443  26.350  29.417  1.00  0.00     0.074 A 
ATOM     54  C   UNL A   1      46.621  26.237  27.968  1.00  0.00     0.031 C 
ATOM     55  C   UNL A   1      45.749  25.585  30.311  1.00  0.00     0.034 A 
BRANCH  42  56
ATOM     56  C   UNL A   1      44.077  22.937  25.854  1.00  0.00     0.023 A 
ATOM     57  C   UNL A   1      44.086  21.538  25.691  1.00  0.00     0.031 A 
ATOM     58  C   UNL A   1      44.973  23.655  25.028  1.00  0.00     0.131 A 
ATOM     59  C   UNL A   1      45.011  20.913  24.836  1.00  0.00     0.055 A 
ATOM     60  C   UNL A   1      45.845  23.033  24.131  1.00  0.00     0.041 A 
ATOM     61  F   UNL A   1      45.125  24.980  25.102  1.00  0.00    -0.206 F 
ATOM     62  C   UNL A   1      45.893  21.652  24.055  1.00  0.00     0.022 A 
BRANCH  59  63
ATOM     63  S   UNL A   1      45.163  19.111  24.904  1.00  0.00     0.124 S 
ATOM     64  O   UNL A   1      46.523  18.949  25.406  1.00  0.00    -0.237 OA
ATOM     65  O   UNL A   1      44.089  18.754  25.825  1.00  0.00    -0.237 OA
ATOM     66  O   UNL A   1      44.956  18.701  23.517  1.00  0.00    -0.744 OA
ENDBRANCH  59  63
ENDBRANCH  42  56
BRANCH  43  67
ATOM     67  C   UNL A   1      47.074  30.731  27.711  1.00  0.00     0.023 A 
ATOM     68  C   UNL A   1      46.456  31.805  27.026  1.00  0.00     0.031 A 
ATOM     69  C   UNL A   1      48.456  30.869  27.974  1.00  0.00     0.131 A 
ATOM     70  C   UNL A   1      47.211  32.945  26.646  1.00  0.00     0.055 A 
ATOM     71  C   UNL A   1      49.192  31.999  27.606  1.00  0.00     0.041 A 
ATOM     72  F   UNL A   1      49.121  29.942  28.682  1.00  0.00    -0.206 F 
ATOM     73  C   UNL A   1      48.571  33.048  26.949  1.00  0.00     0.022 A 
BRANCH  70  74
ATOM     74  S   UNL A   1      46.422  34.368  25.812  1.00  0.00     0.124 S 
ATOM     75  O   UNL A   1      45.983  35.185  26.936  1.00  0.00    -0.237 OA
ATOM     76  O   UNL A   1      47.510  34.905  25.003  1.00  0.00    -0.237 OA
ATOM     77  O   UNL A   1      45.336  33.756  25.042  1.00  0.00    -0.744 OA
ENDBRANCH  70  74
ENDBRANCH  43  67
BRANCH  55  78
ATOM     78  C   UNL A   1      45.641  26.063  31.750  1.00  0.00     0.023 A 
ATOM     79  C   UNL A   1      44.512  26.694  32.328  1.00  0.00     0.031 A 
ATOM     80  C   UNL A   1      46.714  25.749  32.604  1.00  0.00     0.131 A 
ATOM     81  C   UNL A   1      44.497  26.989  33.708  1.00  0.00     0.055 A 
ATOM     82  C   UNL A   1      46.684  26.019  33.972  1.00  0.00     0.041 A 
ATOM     83  F   UNL A   1      47.807  25.134  32.125  1.00  0.00    -0.206 F 
ATOM     84  C   UNL A   1      45.577  26.647  34.528  1.00  0.00     0.022 A 
BRANCH  81  85
ATOM     85  S   UNL A   1      43.080  27.852  34.471  1.00  0.00     0.124 S 
ATOM     86  O   UNL A   1      42.057  26.817  34.562  1.00  0.00    -0.237 OA
ATOM     87  O   UNL A   1      43.634  28.316  35.740  1.00  0.00    -0.237 OA
ATOM     88  O   UNL A   1      42.778  28.921  33.516  1.00  0.00    -0.744 OA
ENDBRANCH  81  85
ENDBRANCH  55  78
ENDBRANCH  29  30
ENDBRANCH  21  24
ENDBRANCH   1  20
TORSDOF 14
ENDMDL
MODEL 2
REMARK VINA RESULT:     -12.9      1.303      1.664
REMARK SMILES [H]/N=C1\C=CC2=NC(C(=O)NCCCCNC(=O)c3ccc(-c4c5nc(c(-c6cc(S(=O)(=O)[O-])ccc6F)c6ccc([nH]6)c(-c6cc(S(=O)(=O)[O-])ccc6F)c6nc(c(-c7cc(S(=O)(=O)[O-])ccc7F)c7ccc4[nH]7)C=C6)C=C5)cc3)=C[C@@H]2C1
REMARK SMILES IDX 15 1 14 2 13 3 12 4 11 5 9 6 10 7 8 9 2 10 3 11 1 12 4 13
REMARK SMILES IDX 84 14 5 15 83 16 6 17 82 18 7 19 16 20 17 21 18 23 19 24
REMARK SMILES IDX 20 25 81 26 21 27 80 28 22 29 23 30 24 31 74 32 25 33 79 34
REMARK SMILES IDX 73 35 75 36 26 37 78 38 72 39 71 40 27 42 59 43 39 44 58 45
REMARK SMILES IDX 40 46 43 47 57 48 76 49 41 50 42 51 56 53 77 54 44 55 28 56
REMARK SMILES IDX 29 57 37 58 30 59 36 60 38 61 35 62 31 63 32 64 33 65 34 66
REMARK SMILES IDX 60 67 61 68 69 69 62 70 68 71 70 72 67 73 63 74 64 75 65 76
REMARK SMILES IDX 66 77 45 78 46 79 54 80 47 81 53 82 55 83 52 84 48 85 49 86
REMARK SMILES IDX 50 87 51 88
REMARK H PARENT 11 8 16 22 75 41 43 52
REMARK Flexibility Score: inf
ROOT
ATOM      1  C   UNL A   1      35.364  29.400  27.559  1.00  0.00     0.116 C 
ENDROOT
BRANCH   1   2
ATOM      2  C   UNL A   1      33.909  29.216  27.147  1.00  0.00     0.023 C 
BRANCH   2   3
ATOM      3  C   UNL A   1      33.702  28.255  25.963  1.00  0.00     0.023 C 
BRANCH   3   4
ATOM      4  C   UNL A   1      32.717  28.738  24.890  1.00  0.00     0.116 C 
BRANCH   4   5
ATOM      5  N   UNL A   1      31.837  27.660  24.485  1.00  0.00    -0.351 N 
ATOM      6  C   UNL A   1      30.582  27.586  23.972  1.00  0.00     0.269 C 
ATOM      7  O   UNL A   1      30.094  26.452  23.911  1.00  0.00    -0.268 OA
ATOM      8  H   UNL A   1      32.247  26.773  24.609  1.00  0.00     0.163 HD
BRANCH   6   9
ATOM      9  C   UNL A   1      29.817  28.761  23.409  1.00  0.00     0.125 C 
ATOM     10  N   UNL A   1      27.495  33.240  20.539  1.00  0.00    -0.305 NA
ATOM     11  C   UNL A   1      28.068  32.484  21.418  1.00  0.00     0.032 C 
ATOM     12  H   UNL A   1      27.390  34.203  20.712  1.00  0.00     0.187 HD
ATOM     13  C   UNL A   1      28.627  33.040  22.679  1.00  0.00     0.025 C 
ATOM     14  C   UNL A   1      28.211  31.000  21.113  1.00  0.00     0.069 C 
ATOM     15  C   UNL A   1      29.189  32.258  23.605  1.00  0.00     0.026 C 
ATOM     16  C   UNL A   1      28.296  30.185  22.381  1.00  0.00     0.069 C 
ATOM     17  C   UNL A   1      29.218  30.810  23.388  1.00  0.00     0.049 C 
ATOM     18  C   UNL A   1      28.971  28.848  22.370  1.00  0.00     0.017 C 
ATOM     19  N   UNL A   1      29.998  29.995  24.018  1.00  0.00    -0.247 NA
ENDBRANCH   6   9
ENDBRANCH   4   5
ENDBRANCH   3   4
ENDBRANCH   2   3
ENDBRANCH   1   2
BRANCH   1  20
ATOM     20  N   UNL A   1      35.517  29.870  28.934  1.00  0.00    -0.352 N 
ATOM     21  C   UNL A   1      36.504  29.522  29.847  1.00  0.00     0.251 C 
ATOM     22  H   UNL A   1      34.840  30.511  29.251  1.00  0.00     0.163 HD
ATOM     23  O   UNL A   1      36.310  29.658  31.044  1.00  0.00    -0.269 OA
BRANCH  21  24
ATOM     24  C   UNL A   1      37.783  28.981  29.337  1.00  0.00     0.039 A 
ATOM     25  C   UNL A   1      38.420  29.524  28.218  1.00  0.00     0.014 A 
ATOM     26  C   UNL A   1      38.359  27.916  30.023  1.00  0.00     0.014 A 
ATOM     27  C   UNL A   1      39.678  29.035  27.861  1.00  0.00     0.010 A 
ATOM     28  C   UNL A   1      39.662  27.560  29.781  1.00  0.00     0.010 A 
ATOM     29  C   UNL A   1      40.310  28.067  28.666  1.00  0.00    -0.014 A 
BRANCH  29  30
ATOM     30  C   UNL A   1      41.700  27.674  28.436  1.00  0.00     0.031 A 
ATOM     31  C   UNL A   1      41.842  26.410  27.667  1.00  0.00     0.074 A 
ATOM     32  C   UNL A   1      42.775  28.450  28.713  1.00  0.00     0.049 A 
ATOM     33  N   UNL A   1      42.216  25.264  28.123  1.00  0.00    -0.248 NA
ATOM     34  C   UNL A   1      41.338  26.358  26.284  1.00  0.00     0.031 C 
ATOM     35  C   UNL A   1      42.805  29.827  29.223  1.00  0.00     0.029 A 
ATOM     36  N   UNL A   1      44.098  28.190  28.514  1.00  0.00    -0.354 N 
ATOM     37  C   UNL A   1      42.247  24.404  27.032  1.00  0.00     0.074 A 
ATOM     38  C   UNL A   1      41.501  25.065  25.995  1.00  0.00     0.031 C 
ATOM     39  C   UNL A   1      44.046  30.347  29.078  1.00  0.00     0.029 A 
ATOM     40  C   UNL A   1      44.944  29.295  28.634  1.00  0.00     0.049 A 
ATOM     41  H   UNL A   1      44.433  27.290  28.299  1.00  0.00     0.167 HD
ATOM     42  C   UNL A   1      43.096  23.339  27.014  1.00  0.00     0.034 A 
ATOM     43  C   UNL A   1      46.288  29.346  28.408  1.00  0.00     0.034 A 
ATOM     44  C   UNL A   1      43.592  23.057  28.346  1.00  0.00     0.049 A 
ATOM     45  C   UNL A   1      46.785  27.957  28.559  1.00  0.00     0.074 A 
ATOM     46  C   UNL A   1      42.989  22.753  29.553  1.00  0.00     0.029 A 
ATOM     47  N   UNL A   1      44.858  23.497  28.672  1.00  0.00    -0.354 N 
ATOM     48  N   UNL A   1      46.752  27.313  29.694  1.00  0.00    -0.248 NA
ATOM     49  C   UNL A   1      46.827  27.118  27.371  1.00  0.00     0.031 C 
ATOM     50  C   UNL A   1      43.706  23.519  30.520  1.00  0.00     0.029 A 
ATOM     51  C   UNL A   1      44.770  24.154  29.876  1.00  0.00     0.049 A 
ATOM     52  H   UNL A   1      45.675  23.364  28.139  1.00  0.00     0.167 HD
ATOM     53  C   UNL A   1      46.314  26.039  29.367  1.00  0.00     0.074 A 
ATOM     54  C   UNL A   1      46.465  25.951  27.913  1.00  0.00     0.031 C 
ATOM     55  C   UNL A   1      45.608  25.279  30.256  1.00  0.00     0.034 A 
BRANCH  42  56
ATOM     56  C   UNL A   1      43.769  22.790  25.774  1.00  0.00     0.023 A 
ATOM     57  C   UNL A   1      43.824  21.389  25.638  1.00  0.00     0.031 A 
ATOM     58  C   UNL A   1      44.593  23.523  24.890  1.00  0.00     0.131 A 
ATOM     59  C   UNL A   1      44.730  20.782  24.751  1.00  0.00     0.055 A 
ATOM     60  C   UNL A   1      45.444  22.916  23.962  1.00  0.00     0.041 A 
ATOM     61  F   UNL A   1      44.697  24.855  24.930  1.00  0.00    -0.206 F 
ATOM     62  C   UNL A   1      45.542  21.537  23.911  1.00  0.00     0.022 A 
BRANCH  59  63
ATOM     63  S   UNL A   1      44.956  18.988  24.847  1.00  0.00     0.124 S 
ATOM     64  O   UNL A   1      43.744  18.576  25.547  1.00  0.00    -0.237 OA
ATOM     65  O   UNL A   1      45.044  18.621  23.437  1.00  0.00    -0.237 OA
ATOM     66  O   UNL A   1      46.196  18.844  25.606  1.00  0.00    -0.744 OA
ENDBRANCH  59  63
ENDBRANCH  42  56
BRANCH  43  67
ATOM     67  C   UNL A   1      47.074  30.430  27.743  1.00  0.00     0.023 A 
ATOM     68  C   UNL A   1      46.484  31.554  27.114  1.00  0.00     0.031 A 
ATOM     69  C   UNL A   1      48.469  30.496  27.963  1.00  0.00     0.131 A 
ATOM     70  C   UNL A   1      47.279  32.671  26.746  1.00  0.00     0.055 A 
ATOM     71  C   UNL A   1      49.243  31.604  27.607  1.00  0.00     0.041 A 
ATOM     72  F   UNL A   1      49.113  29.517  28.616  1.00  0.00    -0.206 F 
ATOM     73  C   UNL A   1      48.650  32.701  27.005  1.00  0.00     0.022 A 
BRANCH  70  74
ATOM     74  S   UNL A   1      46.529  34.156  25.986  1.00  0.00     0.124 S 
ATOM     75  O   UNL A   1      45.350  33.607  25.328  1.00  0.00    -0.237 OA
ATOM     76  O   UNL A   1      46.289  35.015  27.139  1.00  0.00    -0.237 OA
ATOM     77  O   UNL A   1      47.569  34.637  25.074  1.00  0.00    -0.744 OA
ENDBRANCH  70  74
ENDBRANCH  43  67
BRANCH  55  78
ATOM     78  C   UNL A   1      45.541  25.730  31.707  1.00  0.00     0.023 A 
ATOM     79  C   UNL A   1      46.546  25.522  32.684  1.00  0.00     0.031 A 
ATOM     80  C   UNL A   1      44.434  26.516  32.075  1.00  0.00     0.131 A 
ATOM     81  C   UNL A   1      46.410  26.089  33.969  1.00  0.00     0.055 A 
ATOM     82  C   UNL A   1      44.316  27.095  33.338  1.00  0.00     0.041 A 
ATOM     83  F   UNL A   1      43.454  26.767  31.192  1.00  0.00    -0.206 F 
ATOM     84  C   UNL A   1      45.302  26.878  34.292  1.00  0.00     0.022 A 
BRANCH  81  85
ATOM     85  S   UNL A   1      47.660  25.793  35.266  1.00  0.00     0.124 S 
ATOM     86  O   UNL A   1      48.461  27.012  35.255  1.00  0.00    -0.237 OA
ATOM     87  O   UNL A   1      46.842  25.577  36.456  1.00  0.00    -0.237 OA
ATOM     88  O   UNL A   1      48.366  24.600  34.793  1.00  0.00    -0.744 OA
ENDBRANCH  81  85
ENDBRANCH  55  78
ENDBRANCH  29  30
ENDBRANCH  21  24
ENDBRANCH   1  20
TORSDOF 14
ENDMDL
MODEL 3
REMARK VINA RESULT:     -12.8      2.481      3.919
REMARK SMILES [H]/N=C1\C=CC2=NC(C(=O)NCCCCNC(=O)c3ccc(-c4c5nc(c(-c6cc(S(=O)(=O)[O-])ccc6F)c6ccc([nH]6)c(-c6cc(S(=O)(=O)[O-])ccc6F)c6nc(c(-c7cc(S(=O)(=O)[O-])ccc7F)c7ccc4[nH]7)C=C6)C=C5)cc3)=C[C@@H]2C1
REMARK SMILES IDX 15 1 14 2 13 3 12 4 11 5 9 6 10 7 8 9 2 10 3 11 1 12 4 13
REMARK SMILES IDX 84 14 5 15 83 16 6 17 82 18 7 19 16 20 17 21 18 23 19 24
REMARK SMILES IDX 20 25 81 26 21 27 80 28 22 29 23 30 24 31 74 32 25 33 79 34
REMARK SMILES IDX 73 35 75 36 26 37 78 38 72 39 71 40 27 42 59 43 39 44 58 45
REMARK SMILES IDX 40 46 43 47 57 48 76 49 41 50 42 51 56 53 77 54 44 55 28 56
REMARK SMILES IDX 29 57 37 58 30 59 36 60 38 61 35 62 31 63 32 64 33 65 34 66
REMARK SMILES IDX 60 67 61 68 69 69 62 70 68 71 70 72 67 73 63 74 64 75 65 76
REMARK SMILES IDX 66 77 45 78 46 79 54 80 47 81 53 82 55 83 52 84 48 85 49 86
REMARK SMILES IDX 50 87 51 88
REMARK H PARENT 11 8 16 22 75 41 43 52
REMARK Flexibility Score: inf
ROOT
ATOM      1  C   UNL A   1      35.433  29.286  27.391  1.00  0.00     0.116 C 
ENDROOT
BRANCH   1   2
ATOM      2  C   UNL A   1      34.064  28.704  27.062  1.00  0.00     0.023 C 
BRANCH   2   3
ATOM      3  C   UNL A   1      33.828  28.448  25.563  1.00  0.00     0.023 C 
BRANCH   3   4
ATOM      4  C   UNL A   1      33.744  26.971  25.154  1.00  0.00     0.116 C 
BRANCH   4   5
ATOM      5  N   UNL A   1      33.677  26.845  23.713  1.00  0.00    -0.351 N 
ATOM      6  C   UNL A   1      33.692  25.807  22.838  1.00  0.00     0.269 C 
ATOM      7  O   UNL A   1      33.788  26.112  21.644  1.00  0.00    -0.268 OA
ATOM      8  H   UNL A   1      33.602  27.717  23.261  1.00  0.00     0.163 HD
BRANCH   6   9
ATOM      9  C   UNL A   1      33.511  24.358  23.227  1.00  0.00     0.125 C 
ATOM     10  N   UNL A   1      32.346  19.129  25.460  1.00  0.00    -0.305 NA
ATOM     11  C   UNL A   1      32.931  20.194  25.019  1.00  0.00     0.032 C 
ATOM     12  H   UNL A   1      32.881  18.393  25.834  1.00  0.00     0.187 HD
ATOM     13  C   UNL A   1      34.405  20.368  25.108  1.00  0.00     0.025 C 
ATOM     14  C   UNL A   1      32.068  21.310  24.447  1.00  0.00     0.069 C 
ATOM     15  C   UNL A   1      35.017  21.452  24.623  1.00  0.00     0.026 C 
ATOM     16  C   UNL A   1      32.839  22.145  23.455  1.00  0.00     0.069 C 
ATOM     17  C   UNL A   1      34.216  22.478  23.951  1.00  0.00     0.049 C 
ATOM     18  C   UNL A   1      32.430  23.561  23.188  1.00  0.00     0.017 C 
ATOM     19  N   UNL A   1      34.614  23.689  23.739  1.00  0.00    -0.247 NA
ENDBRANCH   6   9
ENDBRANCH   4   5
ENDBRANCH   3   4
ENDBRANCH   2   3
ENDBRANCH   1   2
BRANCH   1  20
ATOM     20  N   UNL A   1      35.541  29.760  28.769  1.00  0.00    -0.352 N 
ATOM     21  C   UNL A   1      36.514  29.439  29.705  1.00  0.00     0.251 C 
ATOM     22  H   UNL A   1      34.839  30.382  29.069  1.00  0.00     0.163 HD
ATOM     23  O   UNL A   1      36.288  29.569  30.897  1.00  0.00    -0.269 OA
BRANCH  21  24
ATOM     24  C   UNL A   1      37.819  28.934  29.226  1.00  0.00     0.039 A 
ATOM     25  C   UNL A   1      38.421  29.427  28.066  1.00  0.00     0.014 A 
ATOM     26  C   UNL A   1      38.456  27.956  29.984  1.00  0.00     0.014 A 
ATOM     27  C   UNL A   1      39.703  28.982  27.735  1.00  0.00     0.010 A 
ATOM     28  C   UNL A   1      39.776  27.655  29.758  1.00  0.00     0.010 A 
ATOM     29  C   UNL A   1      40.391  28.113  28.604  1.00  0.00    -0.014 A 
BRANCH  29  30
ATOM     30  C   UNL A   1      41.800  27.781  28.392  1.00  0.00     0.031 A 
ATOM     31  C   UNL A   1      42.007  26.509  27.653  1.00  0.00     0.074 A 
ATOM     32  C   UNL A   1      42.834  28.614  28.660  1.00  0.00     0.049 A 
ATOM     33  N   UNL A   1      42.431  25.392  28.137  1.00  0.00    -0.248 NA
ATOM     34  C   UNL A   1      41.518  26.403  26.268  1.00  0.00     0.031 C 
ATOM     35  C   UNL A   1      42.795  30.001  29.139  1.00  0.00     0.029 A 
ATOM     36  N   UNL A   1      44.170  28.412  28.476  1.00  0.00    -0.354 N 
ATOM     37  C   UNL A   1      42.511  24.511  27.066  1.00  0.00     0.074 A 
ATOM     38  C   UNL A   1      41.744  25.113  26.009  1.00  0.00     0.031 C 
ATOM     39  C   UNL A   1      44.012  30.576  28.992  1.00  0.00     0.029 A 
ATOM     40  C   UNL A   1      44.962  29.558  28.578  1.00  0.00     0.049 A 
ATOM     41  H   UNL A   1      44.548  27.524  28.284  1.00  0.00     0.167 HD
ATOM     42  C   UNL A   1      43.410  23.487  27.077  1.00  0.00     0.034 A 
ATOM     43  C   UNL A   1      46.304  29.668  28.359  1.00  0.00     0.034 A 
ATOM     44  C   UNL A   1      43.908  23.259  28.419  1.00  0.00     0.049 A 
ATOM     45  C   UNL A   1      46.864  28.307  28.545  1.00  0.00     0.074 A 
ATOM     46  C   UNL A   1      43.311  22.953  29.628  1.00  0.00     0.029 A 
ATOM     47  N   UNL A   1      45.149  23.765  28.743  1.00  0.00    -0.354 N 
ATOM     48  N   UNL A   1      46.853  27.688  29.693  1.00  0.00    -0.248 NA
ATOM     49  C   UNL A   1      46.956  27.446  27.376  1.00  0.00     0.031 C 
ATOM     50  C   UNL A   1      43.983  23.772  30.583  1.00  0.00     0.029 A 
ATOM     51  C   UNL A   1      45.021  24.443  29.932  1.00  0.00     0.049 A 
ATOM     52  H   UNL A   1      45.976  23.659  28.219  1.00  0.00     0.167 HD
ATOM     53  C   UNL A   1      46.478  26.387  29.392  1.00  0.00     0.074 A 
ATOM     54  C   UNL A   1      46.644  26.275  27.942  1.00  0.00     0.031 C 
ATOM     55  C   UNL A   1      45.802  25.615  30.293  1.00  0.00     0.034 A 
BRANCH  42  56
ATOM     56  C   UNL A   1      44.118  22.943  25.855  1.00  0.00     0.023 A 
ATOM     57  C   UNL A   1      44.146  21.544  25.696  1.00  0.00     0.031 A 
ATOM     58  C   UNL A   1      44.993  23.672  25.017  1.00  0.00     0.131 A 
ATOM     59  C   UNL A   1      45.071  20.931  24.833  1.00  0.00     0.055 A 
ATOM     60  C   UNL A   1      45.865  23.061  24.112  1.00  0.00     0.041 A 
ATOM     61  F   UNL A   1      45.126  25.000  25.085  1.00  0.00    -0.206 F 
ATOM     62  C   UNL A   1      45.933  21.681  24.040  1.00  0.00     0.022 A 
BRANCH  59  63
ATOM     63  S   UNL A   1      45.252  19.131  24.905  1.00  0.00     0.124 S 
ATOM     64  O   UNL A   1      46.350  18.984  25.854  1.00  0.00    -0.237 OA
ATOM     65  O   UNL A   1      43.934  18.716  25.374  1.00  0.00    -0.237 OA
ATOM     66  O   UNL A   1      45.565  18.767  23.525  1.00  0.00    -0.744 OA
ENDBRANCH  59  63
ENDBRANCH  42  56
BRANCH  43  67
ATOM     67  C   UNL A   1      47.043  30.773  27.676  1.00  0.00     0.023 A 
ATOM     68  C   UNL A   1      46.406  31.837  26.992  1.00  0.00     0.031 A 
ATOM     69  C   UNL A   1      48.425  30.930  27.929  1.00  0.00     0.131 A 
ATOM     70  C   UNL A   1      47.144  32.986  26.604  1.00  0.00     0.055 A 
ATOM     71  C   UNL A   1      49.143  32.068  27.553  1.00  0.00     0.041 A 
ATOM     72  F   UNL A   1      49.107  30.013  28.634  1.00  0.00    -0.206 F 
ATOM     73  C   UNL A   1      48.504  33.107  26.897  1.00  0.00     0.022 A 
BRANCH  70  74
ATOM     74  S   UNL A   1      46.330  34.396  25.772  1.00  0.00     0.124 S 
ATOM     75  O   UNL A   1      45.867  35.198  26.898  1.00  0.00    -0.237 OA
ATOM     76  O   UNL A   1      47.411  34.960  24.973  1.00  0.00    -0.237 OA
ATOM     77  O   UNL A   1      45.262  33.766  24.992  1.00  0.00    -0.744 OA
ENDBRANCH  70  74
ENDBRANCH  43  67
BRANCH  55  78
ATOM     78  C   UNL A   1      45.702  26.093  31.733  1.00  0.00     0.023 A 
ATOM     79  C   UNL A   1      44.586  26.750  32.309  1.00  0.00     0.031 A 
ATOM     80  C   UNL A   1      46.765  25.753  32.589  1.00  0.00     0.131 A 
ATOM     81  C   UNL A   1      44.575  27.043  33.690  1.00  0.00     0.055 A 
ATOM     82  C   UNL A   1      46.740  26.023  33.957  1.00  0.00     0.041 A 
ATOM     83  F   UNL A   1      47.846  25.114  32.110  1.00  0.00    -0.206 F 
ATOM     84  C   UNL A   1      45.646  26.674  34.512  1.00  0.00     0.022 A 
BRANCH  81  85
ATOM     85  S   UNL A   1      43.177  27.936  34.452  1.00  0.00     0.124 S 
ATOM     86  O   UNL A   1      42.023  27.490  33.680  1.00  0.00    -0.237 OA
ATOM     87  O   UNL A   1      43.230  27.488  35.840  1.00  0.00    -0.237 OA
ATOM     88  O   UNL A   1      43.528  29.346  34.258  1.00  0.00    -0.744 OA
ENDBRANCH  81  85
ENDBRANCH  55  78
ENDBRANCH  29  30
ENDBRANCH  21  24
ENDBRANCH   1  20
TORSDOF 14
ENDMDL
