MODEL 1
REMARK VINA RESULT:     -13.7      0.000      0.000
REMARK SMILES CC1=C(C)C[C@@H](C(=O)NCCCCNC(=O)c2ccc(-c3c4nc(c(-c5cc(S(=O)(=O)[O-])ccc5F)c5ccc([nH]5)c(-c5cc(S(=O)(=O)[O-])ccc5F)c5nc(c(-c6cc(S(=O)(=O)[O-])ccc6F)c6ccc3[nH]6)C=C5)C=C4)cc2)[C@@H](C(=O)N2CCN(c3cccc(C(F)(F)F)c3)CC2)C1
REMARK SMILES IDX 11 1 10 2 9 3 7 4 8 5 6 7 1 8 2 9 3 10 99 11 4 12 5 13 80 14
REMARK SMILES IDX 81 15 82 16 83 17 84 18 98 19 85 20 97 21 86 22 87 23 88 24
REMARK SMILES IDX 96 25 89 26 91 27 90 28 92 29 93 30 94 31 95 32 12 33 13 34
REMARK SMILES IDX 14 35 15 36 16 38 17 39 18 40 79 41 19 42 78 43 20 44 21 45
REMARK SMILES IDX 22 46 72 47 23 48 77 49 71 50 73 51 24 52 76 53 70 54 69 55
REMARK SMILES IDX 25 57 57 58 37 59 56 60 38 61 41 62 55 63 74 64 39 65 40 66
REMARK SMILES IDX 54 68 75 69 42 70 26 71 27 72 35 73 28 74 34 75 36 76 33 77
REMARK SMILES IDX 29 78 30 79 31 80 32 81 58 82 59 83 67 84 60 85 66 86 68 87
REMARK SMILES IDX 65 88 61 89 62 90 63 91 64 92 43 93 44 94 52 95 45 96 51 97
REMARK SMILES IDX 53 98 50 99 46 100 47 101 48 102 49 103
REMARK H PARENT 9 6 14 37 73 56 41 67
REMARK Flexibility Score: inf
ROOT
ATOM      1  C   UNL A   1      31.319  30.903  26.546  1.00  0.00     0.023 C 
ENDROOT
BRANCH   1   2
ATOM      2  C   UNL A   1      31.137  30.279  25.167  1.00  0.00     0.116 C 
BRANCH   2   3
ATOM      3  N   UNL A   1      32.344  29.720  24.602  1.00  0.00    -0.356 N 
ATOM      4  C   UNL A   1      32.574  28.943  23.517  1.00  0.00     0.224 C 
ATOM      5  O   UNL A   1      33.759  28.714  23.237  1.00  0.00    -0.275 OA
ATOM      6  H   UNL A   1      33.160  29.948  25.106  1.00  0.00     0.163 HD
BRANCH   4   7
ATOM      7  C   UNL A   1      31.484  28.377  22.602  1.00  0.00     0.095 C 
ATOM      8  C   UNL A   1      27.346  29.641  23.498  1.00  0.00     0.039 C 
ATOM      9  C   UNL A   1      28.678  29.191  22.946  1.00  0.00    -0.074 C 
ATOM     10  C   UNL A   1      29.467  29.927  22.135  1.00  0.00    -0.074 C 
ATOM     11  C   UNL A   1      29.086  27.820  23.446  1.00  0.00     0.045 C 
ATOM     12  C   UNL A   1      29.157  31.312  21.620  1.00  0.00     0.039 C 
ATOM     13  C   UNL A   1      30.834  29.440  21.712  1.00  0.00     0.045 C 
ATOM     14  C   UNL A   1      30.517  27.319  23.145  1.00  0.00     0.095 C 
BRANCH  14  15
ATOM     15  C   UNL A   1      31.032  26.533  24.361  1.00  0.00     0.226 C 
ATOM     16  O   UNL A   1      30.943  26.902  25.525  1.00  0.00    -0.275 OA
ATOM     17  N   UNL A   1      31.472  25.253  24.059  1.00  0.00    -0.339 N 
ATOM     18  C   UNL A   1      31.088  24.179  24.981  1.00  0.00     0.141 C 
ATOM     19  C   UNL A   1      32.825  25.113  23.520  1.00  0.00     0.141 C 
ATOM     20  C   UNL A   1      31.232  22.799  24.322  1.00  0.00     0.138 C 
ATOM     21  C   UNL A   1      33.062  23.737  22.883  1.00  0.00     0.138 C 
ATOM     22  N   UNL A   1      32.578  22.660  23.751  1.00  0.00    -0.368 N 
BRANCH  22  23
ATOM     23  C   UNL A   1      33.379  21.611  24.131  1.00  0.00     0.037 A 
ATOM     24  C   UNL A   1      34.696  21.833  24.547  1.00  0.00     0.026 A 
ATOM     25  C   UNL A   1      32.915  20.291  24.085  1.00  0.00     0.039 A 
ATOM     26  C   UNL A   1      35.526  20.776  24.926  1.00  0.00     0.003 A 
ATOM     27  C   UNL A   1      33.743  19.210  24.433  1.00  0.00     0.058 A 
ATOM     28  C   UNL A   1      35.051  19.469  24.867  1.00  0.00     0.013 A 
BRANCH  27  29
ATOM     29  C   UNL A   1      33.248  17.792  24.336  1.00  0.00     0.416 C 
ATOM     30  F   UNL A   1      33.331  17.293  23.071  1.00  0.00    -0.166 F 
ATOM     31  F   UNL A   1      33.968  16.938  25.118  1.00  0.00    -0.166 F 
ATOM     32  F   UNL A   1      31.949  17.634  24.716  1.00  0.00    -0.166 F 
ENDBRANCH  27  29
ENDBRANCH  22  23
ENDBRANCH  14  15
ENDBRANCH   4   7
ENDBRANCH   2   3
ENDBRANCH   1   2
BRANCH   1  33
ATOM     33  C   UNL A   1      31.486  32.419  26.553  1.00  0.00     0.023 C 
BRANCH  33  34
ATOM     34  C   UNL A   1      32.714  32.902  27.304  1.00  0.00     0.116 C 
BRANCH  34  35
ATOM     35  N   UNL A   1      32.568  34.259  27.818  1.00  0.00    -0.352 N 
ATOM     36  C   UNL A   1      33.303  34.874  28.803  1.00  0.00     0.251 C 
ATOM     37  H   UNL A   1      31.855  34.800  27.410  1.00  0.00     0.163 HD
ATOM     38  O   UNL A   1      32.990  35.983  29.213  1.00  0.00    -0.269 OA
BRANCH  36  39
ATOM     39  C   UNL A   1      34.446  34.140  29.379  1.00  0.00     0.039 A 
ATOM     40  C   UNL A   1      35.734  34.453  28.947  1.00  0.00     0.014 A 
ATOM     41  C   UNL A   1      34.236  33.211  30.401  1.00  0.00     0.014 A 
ATOM     42  C   UNL A   1      36.827  33.873  29.592  1.00  0.00     0.010 A 
ATOM     43  C   UNL A   1      35.323  32.705  31.096  1.00  0.00     0.010 A 
ATOM     44  C   UNL A   1      36.628  33.023  30.691  1.00  0.00    -0.014 A 
BRANCH  44  45
ATOM     45  C   UNL A   1      37.772  32.431  31.423  1.00  0.00     0.031 A 
ATOM     46  C   UNL A   1      38.523  31.281  30.814  1.00  0.00     0.074 A 
ATOM     47  C   UNL A   1      38.069  32.869  32.662  1.00  0.00     0.049 A 
ATOM     48  N   UNL A   1      39.486  30.558  31.320  1.00  0.00    -0.248 NA
ATOM     49  C   UNL A   1      38.096  30.862  29.471  1.00  0.00     0.031 C 
ATOM     50  C   UNL A   1      37.356  33.929  33.378  1.00  0.00     0.029 A 
ATOM     51  N   UNL A   1      39.036  32.464  33.544  1.00  0.00    -0.354 N 
ATOM     52  C   UNL A   1      39.765  29.584  30.367  1.00  0.00     0.074 A 
ATOM     53  C   UNL A   1      38.815  29.766  29.291  1.00  0.00     0.031 C 
ATOM     54  C   UNL A   1      37.917  34.096  34.586  1.00  0.00     0.029 A 
ATOM     55  C   UNL A   1      39.005  33.136  34.743  1.00  0.00     0.049 A 
ATOM     56  H   UNL A   1      39.690  31.758  33.340  1.00  0.00     0.167 HD
ATOM     57  C   UNL A   1      40.742  28.643  30.378  1.00  0.00     0.034 A 
ATOM     58  C   UNL A   1      39.763  32.985  35.846  1.00  0.00     0.034 A 
ATOM     59  C   UNL A   1      41.687  28.496  31.458  1.00  0.00     0.049 A 
ATOM     60  C   UNL A   1      40.861  31.955  35.832  1.00  0.00     0.074 A 
ATOM     61  C   UNL A   1      42.764  27.633  31.554  1.00  0.00     0.029 A 
ATOM     62  N   UNL A   1      41.658  29.229  32.640  1.00  0.00    -0.354 N 
ATOM     63  N   UNL A   1      41.166  31.089  34.893  1.00  0.00    -0.248 NA
ATOM     64  C   UNL A   1      41.726  31.896  37.015  1.00  0.00     0.031 C 
ATOM     65  C   UNL A   1      43.351  27.804  32.814  1.00  0.00     0.029 A 
ATOM     66  C   UNL A   1      42.683  28.821  33.480  1.00  0.00     0.049 A 
ATOM     67  H   UNL A   1      41.005  29.935  32.850  1.00  0.00     0.167 HD
ATOM     68  C   UNL A   1      42.273  30.392  35.365  1.00  0.00     0.074 A 
ATOM     69  C   UNL A   1      42.591  30.954  36.664  1.00  0.00     0.031 C 
ATOM     70  C   UNL A   1      42.969  29.383  34.780  1.00  0.00     0.034 A 
BRANCH  57  71
ATOM     71  C   UNL A   1      40.804  27.704  29.196  1.00  0.00     0.023 A 
ATOM     72  C   UNL A   1      41.756  27.869  28.172  1.00  0.00     0.031 A 
ATOM     73  C   UNL A   1      39.858  26.676  29.047  1.00  0.00     0.131 A 
ATOM     74  C   UNL A   1      41.674  27.098  27.004  1.00  0.00     0.055 A 
ATOM     75  C   UNL A   1      39.841  25.847  27.923  1.00  0.00     0.041 A 
ATOM     76  F   UNL A   1      38.911  26.478  29.978  1.00  0.00    -0.206 F 
ATOM     77  C   UNL A   1      40.737  26.069  26.882  1.00  0.00     0.022 A 
BRANCH  74  78
ATOM     78  S   UNL A   1      42.685  27.583  25.578  1.00  0.00     0.124 S 
ATOM     79  O   UNL A   1      43.975  27.853  26.208  1.00  0.00    -0.237 OA
ATOM     80  O   UNL A   1      42.623  26.399  24.729  1.00  0.00    -0.237 OA
ATOM     81  O   UNL A   1      41.998  28.763  25.056  1.00  0.00    -0.744 OA
ENDBRANCH  74  78
ENDBRANCH  57  71
BRANCH  58  82
ATOM     82  C   UNL A   1      39.504  33.824  37.050  1.00  0.00     0.023 A 
ATOM     83  C   UNL A   1      38.827  33.307  38.164  1.00  0.00     0.031 A 
ATOM     84  C   UNL A   1      39.933  35.162  37.097  1.00  0.00     0.131 A 
ATOM     85  C   UNL A   1      38.567  34.134  39.269  1.00  0.00     0.055 A 
ATOM     86  C   UNL A   1      39.711  35.968  38.215  1.00  0.00     0.041 A 
ATOM     87  F   UNL A   1      40.599  35.698  36.062  1.00  0.00    -0.206 F 
ATOM     88  C   UNL A   1      39.015  35.457  39.307  1.00  0.00     0.022 A 
BRANCH  85  89
ATOM     89  S   UNL A   1      37.593  33.467  40.646  1.00  0.00     0.124 S 
ATOM     90  O   UNL A   1      36.489  32.819  39.944  1.00  0.00    -0.237 OA
ATOM     91  O   UNL A   1      38.551  32.577  41.293  1.00  0.00    -0.237 OA
ATOM     92  O   UNL A   1      37.232  34.655  41.415  1.00  0.00    -0.744 OA
ENDBRANCH  85  89
ENDBRANCH  58  82
BRANCH  70  93
ATOM     93  C   UNL A   1      44.161  28.852  35.535  1.00  0.00     0.023 A 
ATOM     94  C   UNL A   1      44.047  27.774  36.430  1.00  0.00     0.031 A 
ATOM     95  C   UNL A   1      45.425  29.442  35.363  1.00  0.00     0.131 A 
ATOM     96  C   UNL A   1      45.168  27.350  37.158  1.00  0.00     0.055 A 
ATOM     97  C   UNL A   1      46.550  28.979  36.048  1.00  0.00     0.041 A 
ATOM     98  F   UNL A   1      45.588  30.476  34.523  1.00  0.00    -0.206 F 
ATOM     99  C   UNL A   1      46.422  27.936  36.960  1.00  0.00     0.022 A 
BRANCH  96 100
ATOM    100  S   UNL A   1      44.951  26.078  38.433  1.00  0.00     0.124 S 
ATOM    101  O   UNL A   1      46.293  25.514  38.529  1.00  0.00    -0.237 OA
ATOM    102  O   UNL A   1      44.502  26.861  39.581  1.00  0.00    -0.237 OA
ATOM    103  O   UNL A   1      43.944  25.187  37.859  1.00  0.00    -0.744 OA
ENDBRANCH  96 100
ENDBRANCH  70  93
ENDBRANCH  44  45
ENDBRANCH  36  39
ENDBRANCH  34  35
ENDBRANCH  33  34
ENDBRANCH   1  33
TORSDOF 17
ENDMDL
MODEL 2
REMARK VINA RESULT:     -13.4      1.564      1.968
REMARK SMILES CC1=C(C)C[C@@H](C(=O)NCCCCNC(=O)c2ccc(-c3c4nc(c(-c5cc(S(=O)(=O)[O-])ccc5F)c5ccc([nH]5)c(-c5cc(S(=O)(=O)[O-])ccc5F)c5nc(c(-c6cc(S(=O)(=O)[O-])ccc6F)c6ccc3[nH]6)C=C5)C=C4)cc2)[C@@H](C(=O)N2CCN(c3cccc(C(F)(F)F)c3)CC2)C1
REMARK SMILES IDX 11 1 10 2 9 3 7 4 8 5 6 7 1 8 2 9 3 10 99 11 4 12 5 13 80 14
REMARK SMILES IDX 81 15 82 16 83 17 84 18 98 19 85 20 97 21 86 22 87 23 88 24
REMARK SMILES IDX 96 25 89 26 91 27 90 28 92 29 93 30 94 31 95 32 12 33 13 34
REMARK SMILES IDX 14 35 15 36 16 38 17 39 18 40 79 41 19 42 78 43 20 44 21 45
REMARK SMILES IDX 22 46 72 47 23 48 77 49 71 50 73 51 24 52 76 53 70 54 69 55
REMARK SMILES IDX 25 57 57 58 37 59 56 60 38 61 41 62 55 63 74 64 39 65 40 66
REMARK SMILES IDX 54 68 75 69 42 70 26 71 27 72 35 73 28 74 34 75 36 76 33 77
REMARK SMILES IDX 29 78 30 79 31 80 32 81 58 82 59 83 67 84 60 85 66 86 68 87
REMARK SMILES IDX 65 88 61 89 62 90 63 91 64 92 43 93 44 94 52 95 45 96 51 97
REMARK SMILES IDX 53 98 50 99 46 100 47 101 48 102 49 103
REMARK H PARENT 9 6 14 37 73 56 41 67
REMARK Flexibility Score: inf
ROOT
ATOM      1  C   UNL A   1      31.213  31.073  26.557  1.00  0.00     0.023 C 
ENDROOT
BRANCH   1   2
ATOM      2  C   UNL A   1      31.010  30.394  25.206  1.00  0.00     0.116 C 
BRANCH   2   3
ATOM      3  N   UNL A   1      32.214  29.843  24.629  1.00  0.00    -0.356 N 
ATOM      4  C   UNL A   1      32.439  29.078  23.534  1.00  0.00     0.224 C 
ATOM      5  O   UNL A   1      33.623  28.855  23.245  1.00  0.00    -0.275 OA
ATOM      6  H   UNL A   1      33.032  30.067  25.131  1.00  0.00     0.163 HD
BRANCH   4   7
ATOM      7  C   UNL A   1      31.344  28.521  22.619  1.00  0.00     0.095 C 
ATOM      8  C   UNL A   1      27.208  29.756  23.562  1.00  0.00     0.039 C 
ATOM      9  C   UNL A   1      28.538  29.319  22.994  1.00  0.00    -0.074 C 
ATOM     10  C   UNL A   1      29.319  30.069  22.187  1.00  0.00    -0.074 C 
ATOM     11  C   UNL A   1      28.955  27.943  23.472  1.00  0.00     0.045 C 
ATOM     12  C   UNL A   1      28.999  31.460  21.694  1.00  0.00     0.039 C 
ATOM     13  C   UNL A   1      30.684  29.593  21.748  1.00  0.00     0.045 C 
ATOM     14  C   UNL A   1      30.385  27.452  23.154  1.00  0.00     0.095 C 
BRANCH  14  15
ATOM     15  C   UNL A   1      30.912  26.651  24.355  1.00  0.00     0.226 C 
ATOM     16  O   UNL A   1      30.875  27.026  25.520  1.00  0.00    -0.275 OA
ATOM     17  N   UNL A   1      31.297  25.356  24.044  1.00  0.00    -0.339 N 
ATOM     18  C   UNL A   1      30.906  24.298  24.982  1.00  0.00     0.141 C 
ATOM     19  C   UNL A   1      32.626  25.167  23.462  1.00  0.00     0.141 C 
ATOM     20  C   UNL A   1      30.981  22.912  24.323  1.00  0.00     0.138 C 
ATOM     21  C   UNL A   1      32.794  23.782  22.822  1.00  0.00     0.138 C 
ATOM     22  N   UNL A   1      32.301  22.725  23.710  1.00  0.00    -0.368 N 
BRANCH  22  23
ATOM     23  C   UNL A   1      33.078  21.650  24.067  1.00  0.00     0.037 A 
ATOM     24  C   UNL A   1      32.505  20.387  24.253  1.00  0.00     0.026 A 
ATOM     25  C   UNL A   1      34.454  21.789  24.284  1.00  0.00     0.039 A 
ATOM     26  C   UNL A   1      33.279  19.287  24.625  1.00  0.00     0.003 A 
ATOM     27  C   UNL A   1      35.246  20.701  24.689  1.00  0.00     0.058 A 
ATOM     28  C   UNL A   1      34.645  19.444  24.844  1.00  0.00     0.013 A 
BRANCH  27  29
ATOM     29  C   UNL A   1      36.716  20.873  24.964  1.00  0.00     0.416 C 
ATOM     30  F   UNL A   1      36.957  21.563  26.113  1.00  0.00    -0.166 F 
ATOM     31  F   UNL A   1      37.358  19.679  25.107  1.00  0.00    -0.166 F 
ATOM     32  F   UNL A   1      37.387  21.537  23.981  1.00  0.00    -0.166 F 
ENDBRANCH  27  29
ENDBRANCH  22  23
ENDBRANCH  14  15
ENDBRANCH   4   7
ENDBRANCH   2   3
ENDBRANCH   1   2
BRANCH   1  33
ATOM     33  C   UNL A   1      31.631  32.538  26.488  1.00  0.00     0.023 C 
BRANCH  33  34
ATOM     34  C   UNL A   1      32.779  32.898  27.413  1.00  0.00     0.116 C 
BRANCH  34  35
ATOM     35  N   UNL A   1      32.717  34.275  27.887  1.00  0.00    -0.352 N 
ATOM     36  C   UNL A   1      33.517  34.885  28.823  1.00  0.00     0.251 C 
ATOM     37  H   UNL A   1      32.015  34.837  27.487  1.00  0.00     0.163 HD
ATOM     38  O   UNL A   1      33.272  36.020  29.207  1.00  0.00    -0.269 OA
BRANCH  36  39
ATOM     39  C   UNL A   1      34.645  34.115  29.380  1.00  0.00     0.039 A 
ATOM     40  C   UNL A   1      35.941  34.425  28.969  1.00  0.00     0.014 A 
ATOM     41  C   UNL A   1      34.415  33.154  30.368  1.00  0.00     0.014 A 
ATOM     42  C   UNL A   1      37.021  33.808  29.600  1.00  0.00     0.010 A 
ATOM     43  C   UNL A   1      35.490  32.609  31.052  1.00  0.00     0.010 A 
ATOM     44  C   UNL A   1      36.803  32.923  30.668  1.00  0.00    -0.014 A 
BRANCH  44  45
ATOM     45  C   UNL A   1      37.933  32.290  31.386  1.00  0.00     0.031 A 
ATOM     46  C   UNL A   1      38.658  31.138  30.751  1.00  0.00     0.074 A 
ATOM     47  C   UNL A   1      38.239  32.693  32.634  1.00  0.00     0.049 A 
ATOM     48  N   UNL A   1      39.605  30.382  31.242  1.00  0.00    -0.248 NA
ATOM     49  C   UNL A   1      38.223  30.758  29.400  1.00  0.00     0.031 C 
ATOM     50  C   UNL A   1      37.549  33.753  33.374  1.00  0.00     0.029 A 
ATOM     51  N   UNL A   1      39.196  32.248  33.507  1.00  0.00    -0.354 N 
ATOM     52  C   UNL A   1      39.863  29.423  30.268  1.00  0.00     0.074 A 
ATOM     53  C   UNL A   1      38.917  29.650  29.196  1.00  0.00     0.031 C 
ATOM     54  C   UNL A   1      38.114  33.881  34.585  1.00  0.00     0.029 A 
ATOM     55  C   UNL A   1      39.180  32.894  34.720  1.00  0.00     0.049 A 
ATOM     56  H   UNL A   1      39.835  31.532  33.287  1.00  0.00     0.167 HD
ATOM     57  C   UNL A   1      40.819  28.461  30.257  1.00  0.00     0.034 A 
ATOM     58  C   UNL A   1      39.934  32.702  35.820  1.00  0.00     0.034 A 
ATOM     59  C   UNL A   1      41.759  28.269  31.334  1.00  0.00     0.049 A 
ATOM     60  C   UNL A   1      41.009  31.648  35.783  1.00  0.00     0.074 A 
ATOM     61  C   UNL A   1      42.817  27.381  31.410  1.00  0.00     0.029 A 
ATOM     62  N   UNL A   1      41.747  28.977  32.531  1.00  0.00    -0.354 N 
ATOM     63  N   UNL A   1      41.295  30.797  34.825  1.00  0.00    -0.248 NA
ATOM     64  C   UNL A   1      41.872  31.544  36.964  1.00  0.00     0.031 C 
ATOM     65  C   UNL A   1      43.407  27.511  32.673  1.00  0.00     0.029 A 
ATOM     66  C   UNL A   1      42.762  28.527  33.362  1.00  0.00     0.049 A 
ATOM     67  H   UNL A   1      41.110  29.692  32.757  1.00  0.00     0.167 HD
ATOM     68  C   UNL A   1      42.387  30.066  35.282  1.00  0.00     0.074 A 
ATOM     69  C   UNL A   1      42.717  30.591  36.592  1.00  0.00     0.031 C 
ATOM     70  C   UNL A   1      43.060  29.054  34.674  1.00  0.00     0.034 A 
BRANCH  57  71
ATOM     71  C   UNL A   1      40.861  27.548  29.055  1.00  0.00     0.023 A 
ATOM     72  C   UNL A   1      41.816  27.715  28.035  1.00  0.00     0.031 A 
ATOM     73  C   UNL A   1      39.892  26.543  28.884  1.00  0.00     0.131 A 
ATOM     74  C   UNL A   1      41.717  26.971  26.850  1.00  0.00     0.055 A 
ATOM     75  C   UNL A   1      39.857  25.740  27.741  1.00  0.00     0.041 A 
ATOM     76  F   UNL A   1      38.942  26.345  29.811  1.00  0.00    -0.206 F 
ATOM     77  C   UNL A   1      40.758  25.966  26.705  1.00  0.00     0.022 A 
BRANCH  74  78
ATOM     78  S   UNL A   1      42.738  27.466  25.433  1.00  0.00     0.124 S 
ATOM     79  O   UNL A   1      42.756  26.239  24.639  1.00  0.00    -0.237 OA
ATOM     80  O   UNL A   1      41.982  28.580  24.874  1.00  0.00    -0.237 OA
ATOM     81  O   UNL A   1      44.018  27.822  26.042  1.00  0.00    -0.744 OA
ENDBRANCH  74  78
ENDBRANCH  57  71
BRANCH  58  82
ATOM     82  C   UNL A   1      39.693  33.519  37.042  1.00  0.00     0.023 A 
ATOM     83  C   UNL A   1      40.498  34.627  37.346  1.00  0.00     0.031 A 
ATOM     84  C   UNL A   1      38.647  33.197  37.926  1.00  0.00     0.131 A 
ATOM     85  C   UNL A   1      40.267  35.356  38.523  1.00  0.00     0.055 A 
ATOM     86  C   UNL A   1      38.394  33.951  39.074  1.00  0.00     0.041 A 
ATOM     87  F   UNL A   1      37.840  32.156  37.671  1.00  0.00    -0.206 F 
ATOM     88  C   UNL A   1      39.214  35.033  39.383  1.00  0.00     0.022 A 
BRANCH  85  89
ATOM     89  S   UNL A   1      41.396  36.713  38.943  1.00  0.00     0.124 S 
ATOM     90  O   UNL A   1      42.206  36.112  39.997  1.00  0.00    -0.237 OA
ATOM     91  O   UNL A   1      42.071  36.950  37.671  1.00  0.00    -0.237 OA
ATOM     92  O   UNL A   1      40.498  37.781  39.377  1.00  0.00    -0.744 OA
ENDBRANCH  85  89
ENDBRANCH  58  82
BRANCH  70  93
ATOM     93  C   UNL A   1      44.239  28.481  35.417  1.00  0.00     0.023 A 
ATOM     94  C   UNL A   1      44.079  27.505  36.417  1.00  0.00     0.031 A 
ATOM     95  C   UNL A   1      45.541  28.925  35.127  1.00  0.00     0.131 A 
ATOM     96  C   UNL A   1      45.197  27.043  37.126  1.00  0.00     0.055 A 
ATOM     97  C   UNL A   1      46.656  28.419  35.796  1.00  0.00     0.041 A 
ATOM     98  F   UNL A   1      45.750  29.857  34.183  1.00  0.00    -0.206 F 
ATOM     99  C   UNL A   1      46.485  27.481  36.811  1.00  0.00     0.022 A 
BRANCH  96 100
ATOM    100  S   UNL A   1      44.937  25.920  38.527  1.00  0.00     0.124 S 
ATOM    101  O   UNL A   1      43.860  26.585  39.252  1.00  0.00    -0.237 OA
ATOM    102  O   UNL A   1      44.583  24.669  37.863  1.00  0.00    -0.237 OA
ATOM    103  O   UNL A   1      46.231  25.915  39.206  1.00  0.00    -0.744 OA
ENDBRANCH  96 100
ENDBRANCH  70  93
ENDBRANCH  44  45
ENDBRANCH  36  39
ENDBRANCH  34  35
ENDBRANCH  33  34
ENDBRANCH   1  33
TORSDOF 17
ENDMDL
MODEL 3
REMARK VINA RESULT:     -13.1      1.498      7.340
REMARK SMILES CC1=C(C)C[C@@H](C(=O)NCCCCNC(=O)c2ccc(-c3c4nc(c(-c5cc(S(=O)(=O)[O-])ccc5F)c5ccc([nH]5)c(-c5cc(S(=O)(=O)[O-])ccc5F)c5nc(c(-c6cc(S(=O)(=O)[O-])ccc6F)c6ccc3[nH]6)C=C5)C=C4)cc2)[C@@H](C(=O)N2CCN(c3cccc(C(F)(F)F)c3)CC2)C1
REMARK SMILES IDX 11 1 10 2 9 3 7 4 8 5 6 7 1 8 2 9 3 10 99 11 4 12 5 13 80 14
REMARK SMILES IDX 81 15 82 16 83 17 84 18 98 19 85 20 97 21 86 22 87 23 88 24
REMARK SMILES IDX 96 25 89 26 91 27 90 28 92 29 93 30 94 31 95 32 12 33 13 34
REMARK SMILES IDX 14 35 15 36 16 38 17 39 18 40 79 41 19 42 78 43 20 44 21 45
REMARK SMILES IDX 22 46 72 47 23 48 77 49 71 50 73 51 24 52 76 53 70 54 69 55
REMARK SMILES IDX 25 57 57 58 37 59 56 60 38 61 41 62 55 63 74 64 39 65 40 66
REMARK SMILES IDX 54 68 75 69 42 70 26 71 27 72 35 73 28 74 34 75 36 76 33 77
REMARK SMILES IDX 29 78 30 79 31 80 32 81 58 82 59 83 67 84 60 85 66 86 68 87
REMARK SMILES IDX 65 88 61 89 62 90 63 91 64 92 43 93 44 94 52 95 45 96 51 97
REMARK SMILES IDX 53 98 50 99 46 100 47 101 48 102 49 103
REMARK H PARENT 9 6 14 37 73 56 41 67
REMARK Flexibility Score: inf
ROOT
ATOM      1  C   UNL A   1      31.209  30.991  26.529  1.00  0.00     0.023 C 
ENDROOT
BRANCH   1   2
ATOM      2  C   UNL A   1      31.084  30.374  25.140  1.00  0.00     0.116 C 
BRANCH   2   3
ATOM      3  N   UNL A   1      32.306  29.794  24.633  1.00  0.00    -0.356 N 
ATOM      4  C   UNL A   1      32.567  28.976  23.586  1.00  0.00     0.224 C 
ATOM      5  O   UNL A   1      33.760  28.738  23.349  1.00  0.00    -0.275 OA
ATOM      6  H   UNL A   1      33.107  30.043  25.151  1.00  0.00     0.163 HD
BRANCH   4   7
ATOM      7  C   UNL A   1      31.504  28.374  22.662  1.00  0.00     0.095 C 
ATOM      8  C   UNL A   1      27.321  29.521  23.507  1.00  0.00     0.039 C 
ATOM      9  C   UNL A   1      28.672  29.108  22.971  1.00  0.00    -0.074 C 
ATOM     10  C   UNL A   1      29.448  29.862  22.165  1.00  0.00    -0.074 C 
ATOM     11  C   UNL A   1      29.114  27.752  23.484  1.00  0.00     0.045 C 
ATOM     12  C   UNL A   1      29.103  31.234  21.639  1.00  0.00     0.039 C 
ATOM     13  C   UNL A   1      30.833  29.412  21.759  1.00  0.00     0.045 C 
ATOM     14  C   UNL A   1      30.562  27.292  23.201  1.00  0.00     0.095 C 
BRANCH  14  15
ATOM     15  C   UNL A   1      31.087  26.527  24.426  1.00  0.00     0.226 C 
ATOM     16  O   UNL A   1      30.969  26.896  25.588  1.00  0.00    -0.275 OA
ATOM     17  N   UNL A   1      31.575  25.262  24.135  1.00  0.00    -0.339 N 
ATOM     18  C   UNL A   1      31.214  24.178  25.056  1.00  0.00     0.141 C 
ATOM     19  C   UNL A   1      32.939  25.167  23.616  1.00  0.00     0.141 C 
ATOM     20  C   UNL A   1      31.415  22.801  24.403  1.00  0.00     0.138 C 
ATOM     21  C   UNL A   1      33.232  23.797  22.987  1.00  0.00     0.138 C 
ATOM     22  N   UNL A   1      32.773  22.708  23.852  1.00  0.00    -0.368 N 
BRANCH  22  23
ATOM     23  C   UNL A   1      33.604  21.687  24.247  1.00  0.00     0.037 A 
ATOM     24  C   UNL A   1      34.927  21.949  24.617  1.00  0.00     0.026 A 
ATOM     25  C   UNL A   1      33.164  20.358  24.262  1.00  0.00     0.039 A 
ATOM     26  C   UNL A   1      35.787  20.921  25.010  1.00  0.00     0.003 A 
ATOM     27  C   UNL A   1      34.022  19.307  24.625  1.00  0.00     0.058 A 
ATOM     28  C   UNL A   1      35.336  19.604  25.012  1.00  0.00     0.013 A 
BRANCH  27  29
ATOM     29  C   UNL A   1      33.551  17.876  24.593  1.00  0.00     0.416 C 
ATOM     30  F   UNL A   1      32.633  17.605  25.561  1.00  0.00    -0.166 F 
ATOM     31  F   UNL A   1      32.949  17.557  23.411  1.00  0.00    -0.166 F 
ATOM     32  F   UNL A   1      34.550  16.964  24.756  1.00  0.00    -0.166 F 
ENDBRANCH  27  29
ENDBRANCH  22  23
ENDBRANCH  14  15
ENDBRANCH   4   7
ENDBRANCH   2   3
ENDBRANCH   1   2
BRANCH   1  33
ATOM     33  C   UNL A   1      31.434  32.499  26.548  1.00  0.00     0.023 C 
BRANCH  33  34
ATOM     34  C   UNL A   1      32.768  32.917  27.141  1.00  0.00     0.116 C 
BRANCH  34  35
ATOM     35  N   UNL A   1      32.694  34.173  27.878  1.00  0.00    -0.352 N 
ATOM     36  C   UNL A   1      33.487  34.592  28.918  1.00  0.00     0.251 C 
ATOM     37  H   UNL A   1      31.987  34.797  27.595  1.00  0.00     0.163 HD
ATOM     38  O   UNL A   1      33.232  35.627  29.518  1.00  0.00    -0.269 OA
BRANCH  36  39
ATOM     39  C   UNL A   1      34.621  33.737  29.316  1.00  0.00     0.039 A 
ATOM     40  C   UNL A   1      35.910  34.105  28.932  1.00  0.00     0.014 A 
ATOM     41  C   UNL A   1      34.405  32.627  30.137  1.00  0.00     0.014 A 
ATOM     42  C   UNL A   1      36.998  33.388  29.429  1.00  0.00     0.010 A 
ATOM     43  C   UNL A   1      35.490  31.972  30.698  1.00  0.00     0.010 A 
ATOM     44  C   UNL A   1      36.796  32.341  30.341  1.00  0.00    -0.014 A 
BRANCH  44  45
ATOM     45  C   UNL A   1      37.936  31.593  30.920  1.00  0.00     0.031 A 
ATOM     46  C   UNL A   1      38.455  31.974  32.278  1.00  0.00     0.074 A 
ATOM     47  C   UNL A   1      38.551  30.643  30.191  1.00  0.00     0.049 A 
ATOM     48  N   UNL A   1      39.495  31.519  32.927  1.00  0.00    -0.248 NA
ATOM     49  C   UNL A   1      37.731  33.046  32.976  1.00  0.00     0.031 C 
ATOM     50  C   UNL A   1      38.175  30.246  28.831  1.00  0.00     0.029 A 
ATOM     51  N   UNL A   1      39.630  29.852  30.481  1.00  0.00    -0.354 N 
ATOM     52  C   UNL A   1      39.562  32.266  34.099  1.00  0.00     0.074 A 
ATOM     53  C   UNL A   1      38.504  33.251  34.029  1.00  0.00     0.031 C 
ATOM     54  C   UNL A   1      39.007  29.279  28.411  1.00  0.00     0.029 A 
ATOM     55  C   UNL A   1      39.991  29.012  29.454  1.00  0.00     0.049 A 
ATOM     56  H   UNL A   1      40.105  29.883  31.343  1.00  0.00     0.167 HD
ATOM     57  C   UNL A   1      40.410  32.122  35.147  1.00  0.00     0.034 A 
ATOM     58  C   UNL A   1      41.009  28.134  29.364  1.00  0.00     0.034 A 
ATOM     59  C   UNL A   1      41.445  31.118  35.196  1.00  0.00     0.049 A 
ATOM     60  C   UNL A   1      41.925  27.966  30.546  1.00  0.00     0.074 A 
ATOM     61  C   UNL A   1      42.317  30.824  36.228  1.00  0.00     0.029 A 
ATOM     62  N   UNL A   1      41.752  30.247  34.156  1.00  0.00    -0.354 N 
ATOM     63  N   UNL A   1      41.932  28.625  31.683  1.00  0.00    -0.248 NA
ATOM     64  C   UNL A   1      42.954  26.927  30.442  1.00  0.00     0.031 C 
ATOM     65  C   UNL A   1      43.187  29.817  35.792  1.00  0.00     0.029 A 
ATOM     66  C   UNL A   1      42.816  29.433  34.513  1.00  0.00     0.049 A 
ATOM     67  H   UNL A   1      41.282  30.213  33.291  1.00  0.00     0.167 HD
ATOM     68  C   UNL A   1      42.957  28.065  32.439  1.00  0.00     0.074 A 
ATOM     69  C   UNL A   1      43.531  27.004  31.634  1.00  0.00     0.031 C 
ATOM     70  C   UNL A   1      43.385  28.393  33.686  1.00  0.00     0.034 A 
BRANCH  57  71
ATOM     71  C   UNL A   1      40.252  33.090  36.296  1.00  0.00     0.023 A 
ATOM     72  C   UNL A   1      39.580  32.727  37.479  1.00  0.00     0.031 A 
ATOM     73  C   UNL A   1      40.710  34.414  36.185  1.00  0.00     0.131 A 
ATOM     74  C   UNL A   1      39.291  33.698  38.450  1.00  0.00     0.055 A 
ATOM     75  C   UNL A   1      40.503  35.353  37.199  1.00  0.00     0.041 A 
ATOM     76  F   UNL A   1      41.341  34.829  35.076  1.00  0.00    -0.206 F 
ATOM     77  C   UNL A   1      39.769  35.004  38.330  1.00  0.00     0.022 A 
BRANCH  74  78
ATOM     78  S   UNL A   1      38.125  33.273  39.773  1.00  0.00     0.124 S 
ATOM     79  O   UNL A   1      38.719  32.050  40.309  1.00  0.00    -0.237 OA
ATOM     80  O   UNL A   1      38.187  34.446  40.637  1.00  0.00    -0.237 OA
ATOM     81  O   UNL A   1      36.860  33.082  39.067  1.00  0.00    -0.744 OA
ENDBRANCH  74  78
ENDBRANCH  57  71
BRANCH  58  82
ATOM     82  C   UNL A   1      41.213  27.355  28.110  1.00  0.00     0.023 A 
ATOM     83  C   UNL A   1      40.912  25.987  28.046  1.00  0.00     0.031 A 
ATOM     84  C   UNL A   1      41.718  27.977  26.953  1.00  0.00     0.131 A 
ATOM     85  C   UNL A   1      41.148  25.274  26.860  1.00  0.00     0.055 A 
ATOM     86  C   UNL A   1      41.911  27.274  25.763  1.00  0.00     0.041 A 
ATOM     87  F   UNL A   1      42.007  29.288  26.960  1.00  0.00    -0.206 F 
ATOM     88  C   UNL A   1      41.635  25.910  25.716  1.00  0.00     0.022 A 
BRANCH  85  89
ATOM     89  S   UNL A   1      40.853  23.484  26.846  1.00  0.00     0.124 S 
ATOM     90  O   UNL A   1      41.009  23.146  28.257  1.00  0.00    -0.237 OA
ATOM     91  O   UNL A   1      39.496  23.405  26.315  1.00  0.00    -0.237 OA
ATOM     92  O   UNL A   1      41.897  22.973  25.962  1.00  0.00    -0.744 OA
ENDBRANCH  85  89
ENDBRANCH  58  82
BRANCH  70  93
ATOM     93  C   UNL A   1      44.507  27.566  34.258  1.00  0.00     0.023 A 
ATOM     94  C   UNL A   1      44.260  26.392  34.990  1.00  0.00     0.031 A 
ATOM     95  C   UNL A   1      45.843  27.966  34.075  1.00  0.00     0.131 A 
ATOM     96  C   UNL A   1      45.331  25.685  35.557  1.00  0.00     0.055 A 
ATOM     97  C   UNL A   1      46.908  27.228  34.593  1.00  0.00     0.041 A 
ATOM     98  F   UNL A   1      46.134  29.081  33.386  1.00  0.00    -0.206 F 
ATOM     99  C   UNL A   1      46.653  26.087  35.349  1.00  0.00     0.022 A 
BRANCH  96 100
ATOM    100  S   UNL A   1      44.970  24.279  36.643  1.00  0.00     0.124 S 
ATOM    101  O   UNL A   1      46.305  23.871  37.065  1.00  0.00    -0.237 OA
ATOM    102  O   UNL A   1      44.133  24.887  37.673  1.00  0.00    -0.237 OA
ATOM    103  O   UNL A   1      44.282  23.335  35.764  1.00  0.00    -0.744 OA
ENDBRANCH  96 100
ENDBRANCH  70  93
ENDBRANCH  44  45
ENDBRANCH  36  39
ENDBRANCH  34  35
ENDBRANCH  33  34
ENDBRANCH   1  33
TORSDOF 17
ENDMDL
