MODEL 1
REMARK VINA RESULT:     -13.4      0.000      0.000
REMARK SMILES Cc1ccc(C(=O)c2cccc(C)c2C(=O)NCCCCNC(=O)c2ccc(-c3c4nc(c(-c5cc(S(=O)(=O)[O-])ccc5F)c5ccc([nH]5)c(-c5cc(S(=O)(=O)[O-])ccc5F)c5nc(c(-c6cc(S(=O)(=O)[O-])ccc6F)c6ccc3[nH]6)C=C5)C=C4)cc2)c(C)c1
REMARK SMILES IDX 20 1 19 2 18 3 17 4 15 5 16 6 14 8 8 9 9 10 10 11 12 12
REMARK SMILES IDX 11 13 13 14 6 15 7 16 5 17 1 18 2 19 3 20 90 21 4 22 88 23
REMARK SMILES IDX 89 24 21 25 22 26 23 27 24 29 25 30 26 31 87 32 27 33 86 34
REMARK SMILES IDX 28 35 29 36 30 37 80 38 31 39 85 40 79 41 81 42 32 43 84 44
REMARK SMILES IDX 78 45 77 46 33 48 65 49 45 50 64 51 46 52 49 53 63 54 82 55
REMARK SMILES IDX 47 56 48 57 62 59 83 60 50 61 34 62 35 63 43 64 36 65 42 66
REMARK SMILES IDX 44 67 41 68 37 69 38 70 39 71 40 72 66 73 67 74 75 75 68 76
REMARK SMILES IDX 74 77 76 78 73 79 69 80 70 81 71 82 72 83 51 84 52 85 60 86
REMARK SMILES IDX 53 87 59 88 61 89 58 90 54 91 55 92 56 93 57 94
REMARK H PARENT 17 7 22 28 81 47 49 58
REMARK Flexibility Score: inf
ROOT
ATOM      1  C   UNL A   1      33.687  29.639  27.456  1.00  0.00     0.023 C 
ENDROOT
BRANCH   1   2
ATOM      2  C   UNL A   1      32.241  30.066  27.230  1.00  0.00     0.023 C 
BRANCH   2   3
ATOM      3  C   UNL A   1      31.835  30.397  25.790  1.00  0.00     0.116 C 
BRANCH   3   4
ATOM      4  N   UNL A   1      32.499  29.618  24.752  1.00  0.00    -0.352 N 
ATOM      5  C   UNL A   1      32.066  28.648  23.868  1.00  0.00     0.252 C 
ATOM      6  O   UNL A   1      32.887  28.304  23.014  1.00  0.00    -0.269 OA
ATOM      7  H   UNL A   1      33.457  29.826  24.662  1.00  0.00     0.163 HD
BRANCH   5   8
ATOM      8  C   UNL A   1      30.745  27.917  23.963  1.00  0.00     0.053 A 
ATOM      9  C   UNL A   1      30.541  26.779  24.766  1.00  0.00     0.036 A 
ATOM     10  C   UNL A   1      29.326  26.062  24.725  1.00  0.00     0.013 A 
ATOM     11  C   UNL A   1      28.274  26.501  23.934  1.00  0.00     0.001 A 
ATOM     12  C   UNL A   1      29.607  28.434  23.278  1.00  0.00    -0.038 A 
ATOM     13  C   UNL A   1      28.398  27.703  23.254  1.00  0.00     0.004 A 
ATOM     14  C   UNL A   1      29.574  29.812  22.661  1.00  0.00     0.045 C 
BRANCH   9  15
ATOM     15  C   UNL A   1      31.419  26.519  25.926  1.00  0.00     0.194 C 
ATOM     16  O   UNL A   1      31.081  27.083  26.961  1.00  0.00    -0.289 OA
BRANCH  15  17
ATOM     17  C   UNL A   1      32.560  25.542  25.868  1.00  0.00     0.025 A 
ATOM     18  C   UNL A   1      35.797  22.721  25.384  1.00  0.00     0.044 C 
ATOM     19  C   UNL A   1      34.691  23.719  25.564  1.00  0.00    -0.051 A 
ATOM     20  C   UNL A   1      34.900  25.077  25.342  1.00  0.00     0.004 A 
ATOM     21  C   UNL A   1      33.432  23.289  26.004  1.00  0.00     0.007 A 
ATOM     22  C   UNL A   1      33.846  25.979  25.491  1.00  0.00     0.013 A 
ATOM     23  C   UNL A   1      32.365  24.187  26.188  1.00  0.00    -0.040 A 
ATOM     24  C   UNL A   1      31.065  23.648  26.718  1.00  0.00     0.045 C 
ENDBRANCH  15  17
ENDBRANCH   9  15
ENDBRANCH   5   8
ENDBRANCH   3   4
ENDBRANCH   2   3
ENDBRANCH   1   2
BRANCH   1  25
ATOM     25  C   UNL A   1      34.745  30.612  26.932  1.00  0.00     0.116 C 
BRANCH  25  26
ATOM     26  N   UNL A   1      35.332  31.441  27.993  1.00  0.00    -0.352 N 
ATOM     27  C   UNL A   1      36.375  31.164  28.861  1.00  0.00     0.251 C 
ATOM     28  H   UNL A   1      34.922  32.330  28.103  1.00  0.00     0.163 HD
ATOM     29  O   UNL A   1      36.717  31.953  29.742  1.00  0.00    -0.269 OA
BRANCH  27  30
ATOM     30  C   UNL A   1      37.139  29.919  28.669  1.00  0.00     0.039 A 
ATOM     31  C   UNL A   1      37.157  28.989  29.714  1.00  0.00     0.014 A 
ATOM     32  C   UNL A   1      38.026  29.822  27.605  1.00  0.00     0.014 A 
ATOM     33  C   UNL A   1      38.240  28.126  29.828  1.00  0.00     0.010 A 
ATOM     34  C   UNL A   1      39.161  29.067  27.785  1.00  0.00     0.010 A 
ATOM     35  C   UNL A   1      39.293  28.274  28.932  1.00  0.00    -0.014 A 
BRANCH  35  36
ATOM     36  C   UNL A   1      40.620  27.717  29.144  1.00  0.00     0.031 A 
ATOM     37  C   UNL A   1      40.894  26.341  28.702  1.00  0.00     0.074 A 
ATOM     38  C   UNL A   1      41.589  28.538  29.598  1.00  0.00     0.049 A 
ATOM     39  N   UNL A   1      41.921  25.641  29.031  1.00  0.00    -0.248 NA
ATOM     40  C   UNL A   1      39.945  25.611  27.867  1.00  0.00     0.031 C 
ATOM     41  C   UNL A   1      43.035  28.345  29.567  1.00  0.00     0.029 A 
ATOM     42  N   UNL A   1      41.403  29.647  30.426  1.00  0.00    -0.354 N 
ATOM     43  C   UNL A   1      41.916  24.500  28.257  1.00  0.00     0.074 A 
ATOM     44  C   UNL A   1      40.629  24.496  27.608  1.00  0.00     0.031 C 
ATOM     45  C   UNL A   1      43.595  29.127  30.508  1.00  0.00     0.029 A 
ATOM     46  C   UNL A   1      42.503  29.678  31.299  1.00  0.00     0.049 A 
ATOM     47  H   UNL A   1      40.651  30.281  30.401  1.00  0.00     0.167 HD
ATOM     48  C   UNL A   1      43.062  23.768  28.153  1.00  0.00     0.034 A 
ATOM     49  C   UNL A   1      42.326  29.446  32.635  1.00  0.00     0.034 A 
ATOM     50  C   UNL A   1      44.077  24.276  29.079  1.00  0.00     0.049 A 
ATOM     51  C   UNL A   1      43.120  28.249  33.109  1.00  0.00     0.074 A 
ATOM     52  C   UNL A   1      45.149  25.138  28.909  1.00  0.00     0.029 A 
ATOM     53  N   UNL A   1      43.857  24.185  30.451  1.00  0.00    -0.354 N 
ATOM     54  N   UNL A   1      43.409  27.211  32.368  1.00  0.00    -0.248 NA
ATOM     55  C   UNL A   1      43.687  28.166  34.450  1.00  0.00     0.031 C 
ATOM     56  C   UNL A   1      45.502  25.645  30.189  1.00  0.00     0.029 A 
ATOM     57  C   UNL A   1      44.682  25.055  31.137  1.00  0.00     0.049 A 
ATOM     58  H   UNL A   1      43.202  23.584  30.874  1.00  0.00     0.167 HD
ATOM     59  C   UNL A   1      44.181  26.340  33.095  1.00  0.00     0.074 A 
ATOM     60  C   UNL A   1      44.336  26.992  34.386  1.00  0.00     0.031 C 
ATOM     61  C   UNL A   1      44.631  25.150  32.591  1.00  0.00     0.034 A 
BRANCH  48  62
ATOM     62  C   UNL A   1      43.369  22.825  27.005  1.00  0.00     0.023 A 
ATOM     63  C   UNL A   1      42.836  21.518  27.035  1.00  0.00     0.031 A 
ATOM     64  C   UNL A   1      44.218  23.092  25.911  1.00  0.00     0.131 A 
ATOM     65  C   UNL A   1      43.223  20.537  26.100  1.00  0.00     0.055 A 
ATOM     66  C   UNL A   1      44.650  22.104  25.013  1.00  0.00     0.041 A 
ATOM     67  F   UNL A   1      44.626  24.330  25.612  1.00  0.00    -0.206 F 
ATOM     68  C   UNL A   1      44.162  20.813  25.111  1.00  0.00     0.022 A 
BRANCH  65  69
ATOM     69  S   UNL A   1      42.475  18.887  26.183  1.00  0.00     0.124 S 
ATOM     70  O   UNL A   1      42.635  18.546  27.593  1.00  0.00    -0.237 OA
ATOM     71  O   UNL A   1      41.112  19.143  25.729  1.00  0.00    -0.237 OA
ATOM     72  O   UNL A   1      43.291  18.098  25.262  1.00  0.00    -0.744 OA
ENDBRANCH  65  69
ENDBRANCH  48  62
BRANCH  49  73
ATOM     73  C   UNL A   1      40.965  29.827  33.140  1.00  0.00     0.023 A 
ATOM     74  C   UNL A   1      40.711  31.197  33.372  1.00  0.00     0.031 A 
ATOM     75  C   UNL A   1      39.856  28.983  33.023  1.00  0.00     0.131 A 
ATOM     76  C   UNL A   1      39.415  31.717  33.265  1.00  0.00     0.055 A 
ATOM     77  C   UNL A   1      38.548  29.493  33.022  1.00  0.00     0.041 A 
ATOM     78  F   UNL A   1      40.013  27.673  32.787  1.00  0.00    -0.206 F 
ATOM     79  C   UNL A   1      38.325  30.870  33.093  1.00  0.00     0.022 A 
BRANCH  76  80
ATOM     80  S   UNL A   1      39.227  33.514  33.053  1.00  0.00     0.124 S 
ATOM     81  O   UNL A   1      38.193  33.820  34.033  1.00  0.00    -0.237 OA
ATOM     82  O   UNL A   1      40.567  34.022  33.344  1.00  0.00    -0.237 OA
ATOM     83  O   UNL A   1      38.822  33.660  31.659  1.00  0.00    -0.744 OA
ENDBRANCH  76  80
ENDBRANCH  49  73
BRANCH  61  84
ATOM     84  C   UNL A   1      45.153  24.004  33.433  1.00  0.00     0.023 A 
ATOM     85  C   UNL A   1      46.461  23.966  33.936  1.00  0.00     0.031 A 
ATOM     86  C   UNL A   1      44.309  22.949  33.854  1.00  0.00     0.131 A 
ATOM     87  C   UNL A   1      46.918  22.888  34.711  1.00  0.00     0.055 A 
ATOM     88  C   UNL A   1      44.736  21.926  34.708  1.00  0.00     0.041 A 
ATOM     89  F   UNL A   1      43.025  22.872  33.472  1.00  0.00    -0.206 F 
ATOM     90  C   UNL A   1      46.057  21.878  35.127  1.00  0.00     0.022 A 
BRANCH  87  91
ATOM     91  S   UNL A   1      48.687  22.806  35.090  1.00  0.00     0.124 S 
ATOM     92  O   UNL A   1      48.930  21.365  35.065  1.00  0.00    -0.237 OA
ATOM     93  O   UNL A   1      49.280  23.565  33.994  1.00  0.00    -0.237 OA
ATOM     94  O   UNL A   1      48.788  23.430  36.407  1.00  0.00    -0.744 OA
ENDBRANCH  87  91
ENDBRANCH  61  84
ENDBRANCH  35  36
ENDBRANCH  27  30
ENDBRANCH  25  26
ENDBRANCH   1  25
TORSDOF 16
ENDMDL
MODEL 2
REMARK VINA RESULT:     -13.3      1.130      1.874
REMARK SMILES Cc1ccc(C(=O)c2cccc(C)c2C(=O)NCCCCNC(=O)c2ccc(-c3c4nc(c(-c5cc(S(=O)(=O)[O-])ccc5F)c5ccc([nH]5)c(-c5cc(S(=O)(=O)[O-])ccc5F)c5nc(c(-c6cc(S(=O)(=O)[O-])ccc6F)c6ccc3[nH]6)C=C5)C=C4)cc2)c(C)c1
REMARK SMILES IDX 20 1 19 2 18 3 17 4 15 5 16 6 14 8 8 9 9 10 10 11 12 12
REMARK SMILES IDX 11 13 13 14 6 15 7 16 5 17 1 18 2 19 3 20 90 21 4 22 88 23
REMARK SMILES IDX 89 24 21 25 22 26 23 27 24 29 25 30 26 31 87 32 27 33 86 34
REMARK SMILES IDX 28 35 29 36 30 37 80 38 31 39 85 40 79 41 81 42 32 43 84 44
REMARK SMILES IDX 78 45 77 46 33 48 65 49 45 50 64 51 46 52 49 53 63 54 82 55
REMARK SMILES IDX 47 56 48 57 62 59 83 60 50 61 34 62 35 63 43 64 36 65 42 66
REMARK SMILES IDX 44 67 41 68 37 69 38 70 39 71 40 72 66 73 67 74 75 75 68 76
REMARK SMILES IDX 74 77 76 78 73 79 69 80 70 81 71 82 72 83 51 84 52 85 60 86
REMARK SMILES IDX 53 87 59 88 61 89 58 90 54 91 55 92 56 93 57 94
REMARK H PARENT 17 7 22 28 81 47 49 58
REMARK Flexibility Score: inf
ROOT
ATOM      1  C   UNL A   1      32.850  30.674  27.166  1.00  0.00     0.023 C 
ENDROOT
BRANCH   1   2
ATOM      2  C   UNL A   1      31.908  29.546  26.759  1.00  0.00     0.023 C 
BRANCH   2   3
ATOM      3  C   UNL A   1      32.208  28.157  27.328  1.00  0.00     0.116 C 
BRANCH   3   4
ATOM      4  N   UNL A   1      31.156  27.162  27.154  1.00  0.00    -0.352 N 
ATOM      5  C   UNL A   1      30.826  26.297  26.127  1.00  0.00     0.252 C 
ATOM      6  O   UNL A   1      29.942  25.478  26.388  1.00  0.00    -0.269 OA
ATOM      7  H   UNL A   1      30.554  27.093  27.930  1.00  0.00     0.163 HD
BRANCH   5   8
ATOM      8  C   UNL A   1      31.370  26.378  24.719  1.00  0.00     0.053 A 
ATOM      9  C   UNL A   1      32.650  25.921  24.351  1.00  0.00     0.036 A 
ATOM     10  C   UNL A   1      33.158  26.132  23.051  1.00  0.00     0.013 A 
ATOM     11  C   UNL A   1      32.378  26.741  22.080  1.00  0.00     0.001 A 
ATOM     12  C   UNL A   1      30.534  26.862  23.670  1.00  0.00    -0.038 A 
ATOM     13  C   UNL A   1      31.061  27.060  22.375  1.00  0.00     0.004 A 
ATOM     14  C   UNL A   1      29.047  27.067  23.833  1.00  0.00     0.045 C 
BRANCH   9  15
ATOM     15  C   UNL A   1      33.341  24.903  25.169  1.00  0.00     0.194 C 
ATOM     16  O   UNL A   1      34.019  25.355  26.085  1.00  0.00    -0.289 OA
BRANCH  15  17
ATOM     17  C   UNL A   1      33.129  23.428  24.967  1.00  0.00     0.025 A 
ATOM     18  C   UNL A   1      32.618  19.147  24.689  1.00  0.00     0.044 C 
ATOM     19  C   UNL A   1      32.768  20.637  24.780  1.00  0.00    -0.051 A 
ATOM     20  C   UNL A   1      31.779  21.430  25.355  1.00  0.00     0.004 A 
ATOM     21  C   UNL A   1      33.903  21.254  24.238  1.00  0.00     0.007 A 
ATOM     22  C   UNL A   1      31.958  22.810  25.449  1.00  0.00     0.013 A 
ATOM     23  C   UNL A   1      34.088  22.648  24.297  1.00  0.00    -0.040 A 
ATOM     24  C   UNL A   1      35.309  23.233  23.641  1.00  0.00     0.045 C 
ENDBRANCH  15  17
ENDBRANCH   9  15
ENDBRANCH   5   8
ENDBRANCH   3   4
ENDBRANCH   2   3
ENDBRANCH   1   2
BRANCH   1  25
ATOM     25  C   UNL A   1      34.326  30.286  27.274  1.00  0.00     0.116 C 
BRANCH  25  26
ATOM     26  N   UNL A   1      35.150  31.337  27.885  1.00  0.00    -0.352 N 
ATOM     27  C   UNL A   1      36.398  31.254  28.479  1.00  0.00     0.251 C 
ATOM     28  H   UNL A   1      34.754  32.239  27.870  1.00  0.00     0.163 HD
ATOM     29  O   UNL A   1      36.939  32.228  29.001  1.00  0.00    -0.269 OA
BRANCH  27  30
ATOM     30  C   UNL A   1      37.124  29.973  28.414  1.00  0.00     0.039 A 
ATOM     31  C   UNL A   1      37.154  29.173  29.562  1.00  0.00     0.014 A 
ATOM     32  C   UNL A   1      37.973  29.725  27.343  1.00  0.00     0.014 A 
ATOM     33  C   UNL A   1      38.217  28.299  29.746  1.00  0.00     0.010 A 
ATOM     34  C   UNL A   1      39.094  28.964  27.579  1.00  0.00     0.010 A 
ATOM     35  C   UNL A   1      39.243  28.310  28.808  1.00  0.00    -0.014 A 
BRANCH  35  36
ATOM     36  C   UNL A   1      40.562  27.744  29.045  1.00  0.00     0.031 A 
ATOM     37  C   UNL A   1      40.834  26.364  28.613  1.00  0.00     0.074 A 
ATOM     38  C   UNL A   1      41.529  28.559  29.513  1.00  0.00     0.049 A 
ATOM     39  N   UNL A   1      41.850  25.658  28.962  1.00  0.00    -0.248 NA
ATOM     40  C   UNL A   1      39.895  25.638  27.764  1.00  0.00     0.031 C 
ATOM     41  C   UNL A   1      42.974  28.355  29.508  1.00  0.00     0.029 A 
ATOM     42  N   UNL A   1      41.337  29.672  30.333  1.00  0.00    -0.354 N 
ATOM     43  C   UNL A   1      41.850  24.514  28.192  1.00  0.00     0.074 A 
ATOM     44  C   UNL A   1      40.575  24.517  27.521  1.00  0.00     0.031 C 
ATOM     45  C   UNL A   1      43.523  29.137  30.457  1.00  0.00     0.029 A 
ATOM     46  C   UNL A   1      42.421  29.699  31.226  1.00  0.00     0.049 A 
ATOM     47  H   UNL A   1      40.590  30.312  30.293  1.00  0.00     0.167 HD
ATOM     48  C   UNL A   1      42.993  23.773  28.112  1.00  0.00     0.034 A 
ATOM     49  C   UNL A   1      42.219  29.473  32.560  1.00  0.00     0.034 A 
ATOM     50  C   UNL A   1      43.995  24.277  29.053  1.00  0.00     0.049 A 
ATOM     51  C   UNL A   1      42.996  28.272  33.052  1.00  0.00     0.074 A 
ATOM     52  C   UNL A   1      45.076  25.131  28.899  1.00  0.00     0.029 A 
ATOM     53  N   UNL A   1      43.750  24.193  30.421  1.00  0.00    -0.354 N 
ATOM     54  N   UNL A   1      43.291  27.230  32.319  1.00  0.00    -0.248 NA
ATOM     55  C   UNL A   1      43.539  28.190  34.402  1.00  0.00     0.031 C 
ATOM     56  C   UNL A   1      45.410  25.640  30.184  1.00  0.00     0.029 A 
ATOM     57  C   UNL A   1      44.569  25.060  31.119  1.00  0.00     0.049 A 
ATOM     58  H   UNL A   1      43.084  23.598  30.835  1.00  0.00     0.167 HD
ATOM     59  C   UNL A   1      44.043  26.355  33.063  1.00  0.00     0.074 A 
ATOM     60  C   UNL A   1      44.180  27.011  34.354  1.00  0.00     0.031 C 
ATOM     61  C   UNL A   1      44.494  25.160  32.572  1.00  0.00     0.034 A 
BRANCH  48  62
ATOM     62  C   UNL A   1      43.313  22.824  26.972  1.00  0.00     0.023 A 
ATOM     63  C   UNL A   1      42.795  21.511  27.014  1.00  0.00     0.031 A 
ATOM     64  C   UNL A   1      44.161  23.091  25.878  1.00  0.00     0.131 A 
ATOM     65  C   UNL A   1      43.196  20.527  26.088  1.00  0.00     0.055 A 
ATOM     66  C   UNL A   1      44.606  22.100  24.990  1.00  0.00     0.041 A 
ATOM     67  F   UNL A   1      44.555  24.331  25.568  1.00  0.00    -0.206 F 
ATOM     68  C   UNL A   1      44.133  20.805  25.098  1.00  0.00     0.022 A 
BRANCH  65  69
ATOM     69  S   UNL A   1      42.467  18.869  26.185  1.00  0.00     0.124 S 
ATOM     70  O   UNL A   1      42.653  18.531  27.592  1.00  0.00    -0.237 OA
ATOM     71  O   UNL A   1      41.095  19.108  25.751  1.00  0.00    -0.237 OA
ATOM     72  O   UNL A   1      43.278  18.087  25.252  1.00  0.00    -0.744 OA
ENDBRANCH  65  69
ENDBRANCH  48  62
BRANCH  49  73
ATOM     73  C   UNL A   1      40.853  29.866  33.039  1.00  0.00     0.023 A 
ATOM     74  C   UNL A   1      40.601  31.240  33.250  1.00  0.00     0.031 A 
ATOM     75  C   UNL A   1      39.742  29.025  32.915  1.00  0.00     0.131 A 
ATOM     76  C   UNL A   1      39.310  31.764  33.118  1.00  0.00     0.055 A 
ATOM     77  C   UNL A   1      38.436  29.540  32.888  1.00  0.00     0.041 A 
ATOM     78  F   UNL A   1      39.897  27.711  32.697  1.00  0.00    -0.206 F 
ATOM     79  C   UNL A   1      38.218  30.919  32.939  1.00  0.00     0.022 A 
BRANCH  76  80
ATOM     80  S   UNL A   1      39.133  33.559  32.881  1.00  0.00     0.124 S 
ATOM     81  O   UNL A   1      40.494  34.023  33.117  1.00  0.00    -0.237 OA
ATOM     82  O   UNL A   1      38.641  33.663  31.509  1.00  0.00    -0.237 OA
ATOM     83  O   UNL A   1      38.160  33.950  33.896  1.00  0.00    -0.744 OA
ENDBRANCH  76  80
ENDBRANCH  49  73
BRANCH  61  84
ATOM     84  C   UNL A   1      44.992  24.014  33.427  1.00  0.00     0.023 A 
ATOM     85  C   UNL A   1      46.306  23.942  33.909  1.00  0.00     0.031 A 
ATOM     86  C   UNL A   1      44.121  22.995  33.882  1.00  0.00     0.131 A 
ATOM     87  C   UNL A   1      46.741  22.864  34.697  1.00  0.00     0.055 A 
ATOM     88  C   UNL A   1      44.529  21.975  34.748  1.00  0.00     0.041 A 
ATOM     89  F   UNL A   1      42.829  22.954  33.523  1.00  0.00    -0.206 F 
ATOM     90  C   UNL A   1      45.855  21.891  35.146  1.00  0.00     0.022 A 
BRANCH  87  91
ATOM     91  S   UNL A   1      48.513  22.731  35.048  1.00  0.00     0.124 S 
ATOM     92  O   UNL A   1      49.072  23.727  34.138  1.00  0.00    -0.237 OA
ATOM     93  O   UNL A   1      48.580  23.065  36.468  1.00  0.00    -0.237 OA
ATOM     94  O   UNL A   1      48.827  21.343  34.720  1.00  0.00    -0.744 OA
ENDBRANCH  87  91
ENDBRANCH  61  84
ENDBRANCH  35  36
ENDBRANCH  27  30
ENDBRANCH  25  26
ENDBRANCH   1  25
TORSDOF 16
ENDMDL
MODEL 3
REMARK VINA RESULT:     -13.3      4.579     10.684
REMARK SMILES Cc1ccc(C(=O)c2cccc(C)c2C(=O)NCCCCNC(=O)c2ccc(-c3c4nc(c(-c5cc(S(=O)(=O)[O-])ccc5F)c5ccc([nH]5)c(-c5cc(S(=O)(=O)[O-])ccc5F)c5nc(c(-c6cc(S(=O)(=O)[O-])ccc6F)c6ccc3[nH]6)C=C5)C=C4)cc2)c(C)c1
REMARK SMILES IDX 20 1 19 2 18 3 17 4 15 5 16 6 14 8 8 9 9 10 10 11 12 12
REMARK SMILES IDX 11 13 13 14 6 15 7 16 5 17 1 18 2 19 3 20 90 21 4 22 88 23
REMARK SMILES IDX 89 24 21 25 22 26 23 27 24 29 25 30 26 31 87 32 27 33 86 34
REMARK SMILES IDX 28 35 29 36 30 37 80 38 31 39 85 40 79 41 81 42 32 43 84 44
REMARK SMILES IDX 78 45 77 46 33 48 65 49 45 50 64 51 46 52 49 53 63 54 82 55
REMARK SMILES IDX 47 56 48 57 62 59 83 60 50 61 34 62 35 63 43 64 36 65 42 66
REMARK SMILES IDX 44 67 41 68 37 69 38 70 39 71 40 72 66 73 67 74 75 75 68 76
REMARK SMILES IDX 74 77 76 78 73 79 69 80 70 81 71 82 72 83 51 84 52 85 60 86
REMARK SMILES IDX 53 87 59 88 61 89 58 90 54 91 55 92 56 93 57 94
REMARK H PARENT 17 7 22 28 81 47 49 58
REMARK Flexibility Score: inf
ROOT
ATOM      1  C   UNL A   1      38.852  21.391  25.898  1.00  0.00     0.023 C 
ENDROOT
BRANCH   1   2
ATOM      2  C   UNL A   1      37.778  21.346  24.817  1.00  0.00     0.023 C 
BRANCH   2   3
ATOM      3  C   UNL A   1      36.537  20.497  25.111  1.00  0.00     0.116 C 
BRANCH   3   4
ATOM      4  N   UNL A   1      35.514  21.136  25.930  1.00  0.00    -0.352 N 
ATOM      5  C   UNL A   1      34.166  21.379  25.748  1.00  0.00     0.252 C 
ATOM      6  O   UNL A   1      33.569  21.822  26.732  1.00  0.00    -0.269 OA
ATOM      7  H   UNL A   1      35.855  21.464  26.793  1.00  0.00     0.163 HD
BRANCH   5   8
ATOM      8  C   UNL A   1      33.436  21.264  24.428  1.00  0.00     0.053 A 
ATOM      9  C   UNL A   1      33.339  22.315  23.497  1.00  0.00     0.036 A 
ATOM     10  C   UNL A   1      32.543  22.197  22.338  1.00  0.00     0.013 A 
ATOM     11  C   UNL A   1      31.883  21.011  22.054  1.00  0.00     0.001 A 
ATOM     12  C   UNL A   1      32.876  20.011  24.043  1.00  0.00    -0.038 A 
ATOM     13  C   UNL A   1      32.087  19.912  22.876  1.00  0.00     0.004 A 
ATOM     14  C   UNL A   1      33.183  18.718  24.761  1.00  0.00     0.045 C 
BRANCH   9  15
ATOM     15  C   UNL A   1      34.334  23.408  23.502  1.00  0.00     0.194 C 
ATOM     16  O   UNL A   1      35.377  23.155  22.910  1.00  0.00    -0.289 OA
BRANCH  15  17
ATOM     17  C   UNL A   1      34.038  24.763  24.081  1.00  0.00     0.025 A 
ATOM     18  C   UNL A   1      32.917  28.534  25.867  1.00  0.00     0.044 C 
ATOM     19  C   UNL A   1      33.330  27.226  25.262  1.00  0.00    -0.051 A 
ATOM     20  C   UNL A   1      33.972  26.250  26.019  1.00  0.00     0.004 A 
ATOM     21  C   UNL A   1      33.107  26.990  23.899  1.00  0.00     0.007 A 
ATOM     22  C   UNL A   1      34.321  25.031  25.435  1.00  0.00     0.013 A 
ATOM     23  C   UNL A   1      33.478  25.779  23.286  1.00  0.00    -0.040 A 
ATOM     24  C   UNL A   1      33.254  25.633  21.806  1.00  0.00     0.045 C 
ENDBRANCH  15  17
ENDBRANCH   9  15
ENDBRANCH   5   8
ENDBRANCH   3   4
ENDBRANCH   2   3
ENDBRANCH   1   2
BRANCH   1  25
ATOM     25  C   UNL A   1      39.202  22.789  26.413  1.00  0.00     0.116 C 
BRANCH  25  26
ATOM     26  N   UNL A   1      40.650  23.016  26.511  1.00  0.00    -0.352 N 
ATOM     27  C   UNL A   1      41.350  24.179  26.783  1.00  0.00     0.251 C 
ATOM     28  H   UNL A   1      41.208  22.218  26.360  1.00  0.00     0.163 HD
ATOM     29  O   UNL A   1      42.580  24.217  26.776  1.00  0.00    -0.269 OA
BRANCH  27  30
ATOM     30  C   UNL A   1      40.592  25.383  27.165  1.00  0.00     0.039 A 
ATOM     31  C   UNL A   1      40.659  26.499  26.324  1.00  0.00     0.014 A 
ATOM     32  C   UNL A   1      40.072  25.481  28.450  1.00  0.00     0.014 A 
ATOM     33  C   UNL A   1      40.460  27.763  26.865  1.00  0.00     0.010 A 
ATOM     34  C   UNL A   1      40.006  26.731  29.019  1.00  0.00     0.010 A 
ATOM     35  C   UNL A   1      40.269  27.865  28.238  1.00  0.00    -0.014 A 
BRANCH  35  36
ATOM     36  C   UNL A   1      40.416  29.104  28.986  1.00  0.00     0.031 A 
ATOM     37  C   UNL A   1      39.320  30.086  28.960  1.00  0.00     0.074 A 
ATOM     38  C   UNL A   1      41.486  29.234  29.797  1.00  0.00     0.049 A 
ATOM     39  N   UNL A   1      39.400  31.304  29.363  1.00  0.00    -0.248 NA
ATOM     40  C   UNL A   1      38.019  29.753  28.391  1.00  0.00     0.031 C 
ATOM     41  C   UNL A   1      41.692  30.182  30.887  1.00  0.00     0.029 A 
ATOM     42  N   UNL A   1      42.737  28.647  29.604  1.00  0.00    -0.354 N 
ATOM     43  C   UNL A   1      38.124  31.828  29.366  1.00  0.00     0.074 A 
ATOM     44  C   UNL A   1      37.318  30.849  28.683  1.00  0.00     0.031 C 
ATOM     45  C   UNL A   1      43.014  30.299  31.112  1.00  0.00     0.029 A 
ATOM     46  C   UNL A   1      43.687  29.587  30.034  1.00  0.00     0.049 A 
ATOM     47  H   UNL A   1      42.917  27.750  29.240  1.00  0.00     0.167 HD
ATOM     48  C   UNL A   1      37.882  32.969  30.074  1.00  0.00     0.034 A 
ATOM     49  C   UNL A   1      44.529  30.177  29.131  1.00  0.00     0.034 A 
ATOM     50  C   UNL A   1      39.137  33.536  30.573  1.00  0.00     0.049 A 
ATOM     51  C   UNL A   1      44.366  31.680  29.105  1.00  0.00     0.074 A 
ATOM     52  C   UNL A   1      39.778  33.453  31.798  1.00  0.00     0.029 A 
ATOM     53  N   UNL A   1      40.079  34.012  29.665  1.00  0.00    -0.354 N 
ATOM     54  N   UNL A   1      43.248  32.308  29.360  1.00  0.00    -0.248 NA
ATOM     55  C   UNL A   1      45.478  32.584  28.837  1.00  0.00     0.031 C 
ATOM     56  C   UNL A   1      41.146  33.783  31.593  1.00  0.00     0.029 A 
ATOM     57  C   UNL A   1      41.322  34.116  30.260  1.00  0.00     0.049 A 
ATOM     58  H   UNL A   1      39.887  34.242  28.727  1.00  0.00     0.167 HD
ATOM     59  C   UNL A   1      43.468  33.661  29.299  1.00  0.00     0.074 A 
ATOM     60  C   UNL A   1      44.882  33.779  28.981  1.00  0.00     0.031 C 
ATOM     61  C   UNL A   1      42.479  34.584  29.507  1.00  0.00     0.034 A 
BRANCH  48  62
ATOM     62  C   UNL A   1      36.513  33.380  30.583  1.00  0.00     0.023 A 
ATOM     63  C   UNL A   1      35.650  34.090  29.720  1.00  0.00     0.031 A 
ATOM     64  C   UNL A   1      36.019  33.193  31.891  1.00  0.00     0.131 A 
ATOM     65  C   UNL A   1      34.444  34.657  30.179  1.00  0.00     0.055 A 
ATOM     66  C   UNL A   1      34.849  33.804  32.366  1.00  0.00     0.041 A 
ATOM     67  F   UNL A   1      36.603  32.362  32.760  1.00  0.00    -0.206 F 
ATOM     68  C   UNL A   1      34.058  34.552  31.512  1.00  0.00     0.022 A 
BRANCH  65  69
ATOM     69  S   UNL A   1      33.372  35.531  29.007  1.00  0.00     0.124 S 
ATOM     70  O   UNL A   1      34.338  36.212  28.152  1.00  0.00    -0.237 OA
ATOM     71  O   UNL A   1      32.624  34.437  28.397  1.00  0.00    -0.237 OA
ATOM     72  O   UNL A   1      32.579  36.412  29.864  1.00  0.00    -0.744 OA
ENDBRANCH  65  69
ENDBRANCH  48  62
BRANCH  49  73
ATOM     73  C   UNL A   1      44.818  29.325  27.929  1.00  0.00     0.023 A 
ATOM     74  C   UNL A   1      45.811  28.329  28.054  1.00  0.00     0.031 A 
ATOM     75  C   UNL A   1      43.922  29.203  26.861  1.00  0.00     0.131 A 
ATOM     76  C   UNL A   1      45.762  27.162  27.281  1.00  0.00     0.055 A 
ATOM     77  C   UNL A   1      43.940  28.081  26.018  1.00  0.00     0.041 A 
ATOM     78  F   UNL A   1      42.941  30.099  26.683  1.00  0.00    -0.206 F 
ATOM     79  C   UNL A   1      44.830  27.031  26.257  1.00  0.00     0.022 A 
BRANCH  76  80
ATOM     80  S   UNL A   1      46.726  25.724  27.839  1.00  0.00     0.124 S 
ATOM     81  O   UNL A   1      45.675  24.823  28.295  1.00  0.00    -0.237 OA
ATOM     82  O   UNL A   1      47.446  25.322  26.631  1.00  0.00    -0.237 OA
ATOM     83  O   UNL A   1      47.581  26.263  28.892  1.00  0.00    -0.744 OA
ENDBRANCH  76  80
ENDBRANCH  49  73
BRANCH  61  84
ATOM     84  C   UNL A   1      42.564  36.039  29.096  1.00  0.00     0.023 A 
ATOM     85  C   UNL A   1      43.297  36.991  29.818  1.00  0.00     0.031 A 
ATOM     86  C   UNL A   1      41.990  36.504  27.888  1.00  0.00     0.131 A 
ATOM     87  C   UNL A   1      43.354  38.335  29.415  1.00  0.00     0.055 A 
ATOM     88  C   UNL A   1      42.130  37.820  27.435  1.00  0.00     0.041 A 
ATOM     89  F   UNL A   1      41.284  35.696  27.082  1.00  0.00    -0.206 F 
ATOM     90  C   UNL A   1      42.799  38.754  28.212  1.00  0.00     0.022 A 
BRANCH  87  91
ATOM     91  S   UNL A   1      44.104  39.530  30.551  1.00  0.00     0.124 S 
ATOM     92  O   UNL A   1      44.196  38.752  31.784  1.00  0.00    -0.237 OA
ATOM     93  O   UNL A   1      45.375  39.831  29.899  1.00  0.00    -0.237 OA
ATOM     94  O   UNL A   1      43.143  40.630  30.580  1.00  0.00    -0.744 OA
ENDBRANCH  87  91
ENDBRANCH  61  84
ENDBRANCH  35  36
ENDBRANCH  27  30
ENDBRANCH  25  26
ENDBRANCH   1  25
TORSDOF 16
ENDMDL
