MODEL 1
REMARK VINA RESULT:     -11.8      0.000      0.000
REMARK SMILES C[C@H]1CC[C@@H]([C@H](C(=O)NCCCCNC(=O)c2ccc(-c3c4nc(c(-c5cc(S(=O)(=O)[O-])ccc5F)c5ccc([nH]5)c(-c5cc(S(=O)(=O)[O-])ccc5F)c5nc(c(-c6cc(S(=O)(=O)[O-])ccc6F)c6ccc3[nH]6)C=C5)C=C4)cc2)[C@@H]2CCS(=O)(=O)C2)C[C@@H]1C
REMARK SMILES IDX 12 1 11 2 10 3 9 4 7 5 8 6 6 8 5 9 1 10 2 11 3 12 88 13 4 14
REMARK SMILES IDX 87 15 89 16 80 17 81 18 86 19 82 20 83 21 84 22 85 23 13 24
REMARK SMILES IDX 14 25 15 26 16 28 17 29 18 30 79 31 19 32 78 33 20 34 21 35
REMARK SMILES IDX 22 36 72 37 23 38 77 39 71 40 73 41 24 42 76 43 70 44 69 45
REMARK SMILES IDX 25 47 57 48 37 49 56 50 38 51 41 52 55 53 74 54 39 55 40 56
REMARK SMILES IDX 54 58 75 59 42 60 26 61 27 62 35 63 28 64 34 65 36 66 33 67
REMARK SMILES IDX 29 68 30 69 31 70 32 71 58 72 59 73 67 74 60 75 66 76 68 77
REMARK SMILES IDX 65 78 61 79 62 80 63 81 64 82 43 83 44 84 52 85 45 86 51 87
REMARK SMILES IDX 53 88 50 89 46 90 47 91 48 92 49 93
REMARK H PARENT 9 7 14 27 73 46 41 57
REMARK Flexibility Score: inf
ROOT
ATOM      1  C   UNL A   1      36.679  21.906  24.308  1.00  0.00     0.023 C 
ENDROOT
BRANCH   1   2
ATOM      2  C   UNL A   1      36.576  23.198  23.495  1.00  0.00     0.023 C 
BRANCH   2   3
ATOM      3  C   UNL A   1      35.191  23.837  23.488  1.00  0.00     0.116 C 
BRANCH   3   4
ATOM      4  N   UNL A   1      34.208  22.992  22.835  1.00  0.00    -0.356 N 
ATOM      5  C   UNL A   1      32.849  23.049  22.860  1.00  0.00     0.223 C 
ATOM      6  O   UNL A   1      32.216  22.202  22.230  1.00  0.00    -0.275 OA
ATOM      7  H   UNL A   1      34.583  22.263  22.291  1.00  0.00     0.163 HD
BRANCH   5   8
ATOM      8  C   UNL A   1      32.146  24.215  23.567  1.00  0.00     0.085 C 
BRANCH   8   9
ATOM      9  C   UNL A   1      31.626  25.175  22.417  1.00  0.00     0.002 C 
ATOM     10  C   UNL A   1      33.716  28.776  23.541  1.00  0.00     0.008 C 
ATOM     11  C   UNL A   1      32.706  27.989  22.687  1.00  0.00    -0.011 C 
ATOM     12  C   UNL A   1      33.471  26.902  21.905  1.00  0.00     0.004 C 
ATOM     13  C   UNL A   1      31.526  27.482  23.551  1.00  0.00    -0.011 C 
ATOM     14  C   UNL A   1      32.655  25.708  21.417  1.00  0.00     0.005 C 
ATOM     15  C   UNL A   1      30.749  26.367  22.849  1.00  0.00     0.008 C 
ATOM     16  C   UNL A   1      30.557  28.623  23.897  1.00  0.00     0.008 C 
ENDBRANCH   8   9
BRANCH   8  17
ATOM     17  C   UNL A   1      31.126  23.728  24.650  1.00  0.00     0.018 C 
ATOM     18  C   UNL A   1      30.780  24.816  25.701  1.00  0.00     0.021 C 
ATOM     19  C   UNL A   1      31.565  22.537  25.533  1.00  0.00     0.141 C 
ATOM     20  C   UNL A   1      31.866  24.858  26.768  1.00  0.00     0.137 C 
ATOM     21  S   UNL A   1      32.511  23.210  26.879  1.00  0.00     0.150 S 
ATOM     22  O   UNL A   1      33.905  23.250  26.501  1.00  0.00    -0.229 OA
ATOM     23  O   UNL A   1      32.056  22.613  28.120  1.00  0.00    -0.229 OA
ENDBRANCH   8  17
ENDBRANCH   5   8
ENDBRANCH   3   4
ENDBRANCH   2   3
ENDBRANCH   1   2
BRANCH   1  24
ATOM     24  C   UNL A   1      37.234  22.072  25.718  1.00  0.00     0.116 C 
BRANCH  24  25
ATOM     25  N   UNL A   1      38.253  21.087  26.039  1.00  0.00    -0.352 N 
ATOM     26  C   UNL A   1      39.543  21.276  26.470  1.00  0.00     0.251 C 
ATOM     27  H   UNL A   1      37.978  20.147  25.932  1.00  0.00     0.163 HD
ATOM     28  O   UNL A   1      40.305  20.313  26.523  1.00  0.00    -0.269 OA
BRANCH  26  29
ATOM     29  C   UNL A   1      40.017  22.629  26.840  1.00  0.00     0.039 A 
ATOM     30  C   UNL A   1      40.976  22.752  27.849  1.00  0.00     0.014 A 
ATOM     31  C   UNL A   1      39.511  23.773  26.218  1.00  0.00     0.014 A 
ATOM     32  C   UNL A   1      41.450  24.017  28.205  1.00  0.00     0.010 A 
ATOM     33  C   UNL A   1      40.053  25.023  26.508  1.00  0.00     0.010 A 
ATOM     34  C   UNL A   1      41.010  25.163  27.522  1.00  0.00    -0.014 A 
BRANCH  34  35
ATOM     35  C   UNL A   1      41.509  26.514  27.899  1.00  0.00     0.031 A 
ATOM     36  C   UNL A   1      42.912  26.928  27.532  1.00  0.00     0.074 A 
ATOM     37  C   UNL A   1      40.715  27.357  28.587  1.00  0.00     0.049 A 
ATOM     38  N   UNL A   1      43.534  28.053  27.776  1.00  0.00    -0.248 NA
ATOM     39  C   UNL A   1      43.732  25.932  26.826  1.00  0.00     0.031 C 
ATOM     40  C   UNL A   1      39.355  27.054  29.041  1.00  0.00     0.029 A 
ATOM     41  N   UNL A   1      40.930  28.640  29.024  1.00  0.00    -0.354 N 
ATOM     42  C   UNL A   1      44.819  27.895  27.262  1.00  0.00     0.074 A 
ATOM     43  C   UNL A   1      44.907  26.540  26.768  1.00  0.00     0.031 C 
ATOM     44  C   UNL A   1      38.845  28.134  29.653  1.00  0.00     0.029 A 
ATOM     45  C   UNL A   1      39.853  29.190  29.681  1.00  0.00     0.049 A 
ATOM     46  H   UNL A   1      41.777  29.122  28.880  1.00  0.00     0.167 HD
ATOM     47  C   UNL A   1      45.821  28.806  27.184  1.00  0.00     0.034 A 
ATOM     48  C   UNL A   1      39.696  30.404  30.244  1.00  0.00     0.034 A 
ATOM     49  C   UNL A   1      45.713  30.158  27.677  1.00  0.00     0.049 A 
ATOM     50  C   UNL A   1      40.831  31.395  30.163  1.00  0.00     0.074 A 
ATOM     51  C   UNL A   1      46.646  31.178  27.607  1.00  0.00     0.029 A 
ATOM     52  N   UNL A   1      44.608  30.678  28.341  1.00  0.00    -0.354 N 
ATOM     53  N   UNL A   1      42.020  31.250  29.623  1.00  0.00    -0.248 NA
ATOM     54  C   UNL A   1      40.593  32.719  30.749  1.00  0.00     0.031 C 
ATOM     55  C   UNL A   1      46.140  32.284  28.300  1.00  0.00     0.029 A 
ATOM     56  C   UNL A   1      44.851  31.991  28.716  1.00  0.00     0.049 A 
ATOM     57  H   UNL A   1      43.775  30.185  28.521  1.00  0.00     0.167 HD
ATOM     58  C   UNL A   1      42.657  32.480  29.771  1.00  0.00     0.074 A 
ATOM     59  C   UNL A   1      41.712  33.355  30.435  1.00  0.00     0.031 C 
ATOM     60  C   UNL A   1      43.906  32.854  29.389  1.00  0.00     0.034 A 
BRANCH  47  61
ATOM     61  C   UNL A   1      47.127  28.351  26.568  1.00  0.00     0.023 A 
ATOM     62  C   UNL A   1      47.331  28.353  25.176  1.00  0.00     0.031 A 
ATOM     63  C   UNL A   1      48.170  27.873  27.380  1.00  0.00     0.131 A 
ATOM     64  C   UNL A   1      48.506  27.804  24.638  1.00  0.00     0.055 A 
ATOM     65  C   UNL A   1      49.375  27.418  26.842  1.00  0.00     0.041 A 
ATOM     66  F   UNL A   1      48.030  27.822  28.715  1.00  0.00    -0.206 F 
ATOM     67  C   UNL A   1      49.542  27.363  25.462  1.00  0.00     0.022 A 
BRANCH  64  68
ATOM     68  S   UNL A   1      48.585  27.517  22.847  1.00  0.00     0.124 S 
ATOM     69  O   UNL A   1      48.577  26.058  22.782  1.00  0.00    -0.237 OA
ATOM     70  O   UNL A   1      47.382  28.185  22.366  1.00  0.00    -0.237 OA
ATOM     71  O   UNL A   1      49.846  28.142  22.456  1.00  0.00    -0.744 OA
ENDBRANCH  64  68
ENDBRANCH  47  61
BRANCH  48  72
ATOM     72  C   UNL A   1      38.422  30.758  30.936  1.00  0.00     0.023 A 
ATOM     73  C   UNL A   1      37.388  31.428  30.261  1.00  0.00     0.031 A 
ATOM     74  C   UNL A   1      38.235  30.466  32.299  1.00  0.00     0.131 A 
ATOM     75  C   UNL A   1      36.239  31.829  30.961  1.00  0.00     0.055 A 
ATOM     76  C   UNL A   1      37.065  30.813  32.976  1.00  0.00     0.041 A 
ATOM     77  F   UNL A   1      39.189  29.826  32.993  1.00  0.00    -0.206 F 
ATOM     78  C   UNL A   1      36.063  31.512  32.310  1.00  0.00     0.022 A 
BRANCH  75  79
ATOM     79  S   UNL A   1      35.012  32.856  30.105  1.00  0.00     0.124 S 
ATOM     80  O   UNL A   1      34.501  31.931  29.099  1.00  0.00    -0.237 OA
ATOM     81  O   UNL A   1      34.095  33.198  31.187  1.00  0.00    -0.237 OA
ATOM     82  O   UNL A   1      35.803  33.969  29.585  1.00  0.00    -0.744 OA
ENDBRANCH  75  79
ENDBRANCH  48  72
BRANCH  60  83
ATOM     83  C   UNL A   1      44.295  34.296  29.629  1.00  0.00     0.023 A 
ATOM     84  C   UNL A   1      44.038  35.306  28.685  1.00  0.00     0.031 A 
ATOM     85  C   UNL A   1      44.963  34.657  30.814  1.00  0.00     0.131 A 
ATOM     86  C   UNL A   1      44.518  36.607  28.904  1.00  0.00     0.055 A 
ATOM     87  C   UNL A   1      45.367  35.970  31.061  1.00  0.00     0.041 A 
ATOM     88  F   UNL A   1      45.241  33.736  31.751  1.00  0.00    -0.206 F 
ATOM     89  C   UNL A   1      45.163  36.949  30.095  1.00  0.00     0.022 A 
BRANCH  86  90
ATOM     90  S   UNL A   1      44.411  37.811  27.552  1.00  0.00     0.124 S 
ATOM     91  O   UNL A   1      45.651  37.561  26.825  1.00  0.00    -0.237 OA
ATOM     92  O   UNL A   1      43.183  37.411  26.875  1.00  0.00    -0.237 OA
ATOM     93  O   UNL A   1      44.348  39.098  28.243  1.00  0.00    -0.744 OA
ENDBRANCH  86  90
ENDBRANCH  60  83
ENDBRANCH  34  35
ENDBRANCH  26  29
ENDBRANCH  24  25
ENDBRANCH   1  24
TORSDOF 16
ENDMDL
MODEL 2
REMARK VINA RESULT:     -11.8      4.972     10.215
REMARK SMILES C[C@H]1CC[C@@H]([C@H](C(=O)NCCCCNC(=O)c2ccc(-c3c4nc(c(-c5cc(S(=O)(=O)[O-])ccc5F)c5ccc([nH]5)c(-c5cc(S(=O)(=O)[O-])ccc5F)c5nc(c(-c6cc(S(=O)(=O)[O-])ccc6F)c6ccc3[nH]6)C=C5)C=C4)cc2)[C@@H]2CCS(=O)(=O)C2)C[C@@H]1C
REMARK SMILES IDX 12 1 11 2 10 3 9 4 7 5 8 6 6 8 5 9 1 10 2 11 3 12 88 13 4 14
REMARK SMILES IDX 87 15 89 16 80 17 81 18 86 19 82 20 83 21 84 22 85 23 13 24
REMARK SMILES IDX 14 25 15 26 16 28 17 29 18 30 79 31 19 32 78 33 20 34 21 35
REMARK SMILES IDX 22 36 72 37 23 38 77 39 71 40 73 41 24 42 76 43 70 44 69 45
REMARK SMILES IDX 25 47 57 48 37 49 56 50 38 51 41 52 55 53 74 54 39 55 40 56
REMARK SMILES IDX 54 58 75 59 42 60 26 61 27 62 35 63 28 64 34 65 36 66 33 67
REMARK SMILES IDX 29 68 30 69 31 70 32 71 58 72 59 73 67 74 60 75 66 76 68 77
REMARK SMILES IDX 65 78 61 79 62 80 63 81 64 82 43 83 44 84 52 85 45 86 51 87
REMARK SMILES IDX 53 88 50 89 46 90 47 91 48 92 49 93
REMARK H PARENT 9 7 14 27 73 46 41 57
REMARK Flexibility Score: inf
ROOT
ATOM      1  C   UNL A   1      31.777  29.442  26.658  1.00  0.00     0.023 C 
ENDROOT
BRANCH   1   2
ATOM      2  C   UNL A   1      31.848  28.117  27.419  1.00  0.00     0.023 C 
BRANCH   2   3
ATOM      3  C   UNL A   1      32.207  26.908  26.562  1.00  0.00     0.116 C 
BRANCH   3   4
ATOM      4  N   UNL A   1      31.203  25.863  26.649  1.00  0.00    -0.356 N 
ATOM      5  C   UNL A   1      31.220  24.590  26.173  1.00  0.00     0.223 C 
ATOM      6  O   UNL A   1      30.230  23.882  26.359  1.00  0.00    -0.275 OA
ATOM      7  H   UNL A   1      30.381  26.117  27.127  1.00  0.00     0.163 HD
BRANCH   5   8
ATOM      8  C   UNL A   1      32.494  24.033  25.524  1.00  0.00     0.085 C 
BRANCH   8   9
ATOM      9  C   UNL A   1      33.056  22.943  26.528  1.00  0.00     0.002 C 
ATOM     10  C   UNL A   1      36.507  21.663  24.281  1.00  0.00     0.008 C 
ATOM     11  C   UNL A   1      35.529  21.561  25.466  1.00  0.00    -0.011 C 
ATOM     12  C   UNL A   1      35.622  22.863  26.288  1.00  0.00     0.004 C 
ATOM     13  C   UNL A   1      34.110  21.178  24.982  1.00  0.00    -0.011 C 
ATOM     14  C   UNL A   1      34.422  23.203  27.168  1.00  0.00     0.005 C 
ATOM     15  C   UNL A   1      33.050  21.479  26.042  1.00  0.00     0.008 C 
ATOM     16  C   UNL A   1      34.031  19.690  24.607  1.00  0.00     0.008 C 
ENDBRANCH   8   9
BRANCH   8  17
ATOM     17  C   UNL A   1      32.273  23.626  24.029  1.00  0.00     0.018 C 
ATOM     18  C   UNL A   1      33.513  23.879  23.133  1.00  0.00     0.021 C 
ATOM     19  C   UNL A   1      31.151  24.368  23.265  1.00  0.00     0.141 C 
ATOM     20  C   UNL A   1      33.549  25.342  22.712  1.00  0.00     0.137 C 
ATOM     21  S   UNL A   1      31.859  25.874  22.640  1.00  0.00     0.150 S 
ATOM     22  O   UNL A   1      31.678  26.921  23.620  1.00  0.00    -0.229 OA
ATOM     23  O   UNL A   1      31.478  26.033  21.249  1.00  0.00    -0.229 OA
ENDBRANCH   8  17
ENDBRANCH   5   8
ENDBRANCH   3   4
ENDBRANCH   2   3
ENDBRANCH   1   2
BRANCH   1  24
ATOM     24  C   UNL A   1      33.107  30.172  26.507  1.00  0.00     0.116 C 
BRANCH  24  25
ATOM     25  N   UNL A   1      32.998  31.596  26.778  1.00  0.00    -0.352 N 
ATOM     26  C   UNL A   1      33.757  32.385  27.607  1.00  0.00     0.251 C 
ATOM     27  H   UNL A   1      32.275  32.061  26.298  1.00  0.00     0.163 HD
ATOM     28  O   UNL A   1      33.397  33.538  27.832  1.00  0.00    -0.269 OA
BRANCH  26  29
ATOM     29  C   UNL A   1      34.979  31.843  28.244  1.00  0.00     0.039 A 
ATOM     30  C   UNL A   1      34.912  30.597  28.873  1.00  0.00     0.014 A 
ATOM     31  C   UNL A   1      36.178  32.560  28.245  1.00  0.00     0.014 A 
ATOM     32  C   UNL A   1      36.056  30.059  29.468  1.00  0.00     0.010 A 
ATOM     33  C   UNL A   1      37.337  31.981  28.755  1.00  0.00     0.010 A 
ATOM     34  C   UNL A   1      37.285  30.735  29.396  1.00  0.00    -0.014 A 
BRANCH  34  35
ATOM     35  C   UNL A   1      38.506  30.167  30.030  1.00  0.00     0.031 A 
ATOM     36  C   UNL A   1      38.903  30.596  31.420  1.00  0.00     0.074 A 
ATOM     37  C   UNL A   1      39.269  29.288  29.352  1.00  0.00     0.049 A 
ATOM     38  N   UNL A   1      39.931  30.227  32.140  1.00  0.00    -0.248 NA
ATOM     39  C   UNL A   1      38.046  31.599  32.072  1.00  0.00     0.031 C 
ATOM     40  C   UNL A   1      39.016  28.830  27.984  1.00  0.00     0.029 A 
ATOM     41  N   UNL A   1      40.409  28.617  29.718  1.00  0.00    -0.354 N 
ATOM     42  C   UNL A   1      39.849  30.957  33.322  1.00  0.00     0.074 A 
ATOM     43  C   UNL A   1      38.718  31.846  33.186  1.00  0.00     0.031 C 
ATOM     44  C   UNL A   1      39.946  27.925  27.643  1.00  0.00     0.029 A 
ATOM     45  C   UNL A   1      40.890  27.770  28.746  1.00  0.00     0.049 A 
ATOM     46  H   UNL A   1      40.841  28.731  30.595  1.00  0.00     0.167 HD
ATOM     47  C   UNL A   1      40.628  30.872  34.430  1.00  0.00     0.034 A 
ATOM     48  C   UNL A   1      41.971  26.964  28.740  1.00  0.00     0.034 A 
ATOM     49  C   UNL A   1      41.750  29.973  34.551  1.00  0.00     0.049 A 
ATOM     50  C   UNL A   1      42.834  26.900  29.976  1.00  0.00     0.074 A 
ATOM     51  C   UNL A   1      42.577  29.768  35.641  1.00  0.00     0.029 A 
ATOM     52  N   UNL A   1      42.212  29.134  33.543  1.00  0.00    -0.354 N 
ATOM     53  N   UNL A   1      42.710  27.554  31.109  1.00  0.00    -0.248 NA
ATOM     54  C   UNL A   1      43.971  25.973  29.938  1.00  0.00     0.031 C 
ATOM     55  C   UNL A   1      43.585  28.872  35.267  1.00  0.00     0.029 A 
ATOM     56  C   UNL A   1      43.330  28.438  33.976  1.00  0.00     0.049 A 
ATOM     57  H   UNL A   1      41.804  29.047  32.651  1.00  0.00     0.167 HD
ATOM     58  C   UNL A   1      43.732  27.086  31.932  1.00  0.00     0.074 A 
ATOM     59  C   UNL A   1      44.448  26.084  31.169  1.00  0.00     0.031 C 
ATOM     60  C   UNL A   1      44.046  27.447  33.204  1.00  0.00     0.034 A 
BRANCH  47  61
ATOM     61  C   UNL A   1      40.303  31.800  35.581  1.00  0.00     0.023 A 
ATOM     62  C   UNL A   1      39.280  31.509  36.503  1.00  0.00     0.031 A 
ATOM     63  C   UNL A   1      40.999  33.011  35.738  1.00  0.00     0.131 A 
ATOM     64  C   UNL A   1      38.925  32.454  37.478  1.00  0.00     0.055 A 
ATOM     65  C   UNL A   1      40.703  33.904  36.770  1.00  0.00     0.041 A 
ATOM     66  F   UNL A   1      41.969  33.360  34.878  1.00  0.00    -0.206 F 
ATOM     67  C   UNL A   1      39.648  33.637  37.637  1.00  0.00     0.022 A 
BRANCH  64  68
ATOM     68  S   UNL A   1      37.396  32.190  38.421  1.00  0.00     0.124 S 
ATOM     69  O   UNL A   1      37.156  30.766  38.201  1.00  0.00    -0.237 OA
ATOM     70  O   UNL A   1      37.788  32.571  39.772  1.00  0.00    -0.237 OA
ATOM     71  O   UNL A   1      36.437  33.082  37.773  1.00  0.00    -0.744 OA
ENDBRANCH  64  68
ENDBRANCH  47  61
BRANCH  48  72
ATOM     72  C   UNL A   1      42.304  26.153  27.533  1.00  0.00     0.023 A 
ATOM     73  C   UNL A   1      41.912  24.809  27.427  1.00  0.00     0.031 A 
ATOM     74  C   UNL A   1      43.058  26.702  26.480  1.00  0.00     0.131 A 
ATOM     75  C   UNL A   1      42.318  24.045  26.321  1.00  0.00     0.055 A 
ATOM     76  C   UNL A   1      43.408  25.955  25.354  1.00  0.00     0.041 A 
ATOM     77  F   UNL A   1      43.459  27.983  26.528  1.00  0.00    -0.206 F 
ATOM     78  C   UNL A   1      43.050  24.614  25.277  1.00  0.00     0.022 A 
BRANCH  75  79
ATOM     79  S   UNL A   1      41.955  22.267  26.310  1.00  0.00     0.124 S 
ATOM     80  O   UNL A   1      42.497  21.846  27.598  1.00  0.00    -0.237 OA
ATOM     81  O   UNL A   1      40.502  22.255  26.190  1.00  0.00    -0.237 OA
ATOM     82  O   UNL A   1      42.680  21.779  25.139  1.00  0.00    -0.744 OA
ENDBRANCH  75  79
ENDBRANCH  48  72
BRANCH  60  83
ATOM     83  C   UNL A   1      45.184  26.704  33.867  1.00  0.00     0.023 A 
ATOM     84  C   UNL A   1      44.996  25.461  34.498  1.00  0.00     0.031 A 
ATOM     85  C   UNL A   1      46.473  27.267  33.895  1.00  0.00     0.131 A 
ATOM     86  C   UNL A   1      46.057  24.864  35.196  1.00  0.00     0.055 A 
ATOM     87  C   UNL A   1      47.543  26.628  34.523  1.00  0.00     0.041 A 
ATOM     88  F   UNL A   1      46.714  28.454  33.314  1.00  0.00    -0.206 F 
ATOM     89  C   UNL A   1      47.334  25.430  35.196  1.00  0.00     0.022 A 
BRANCH  86  90
ATOM     90  S   UNL A   1      45.711  23.408  36.223  1.00  0.00     0.124 S 
ATOM     91  O   UNL A   1      44.446  22.939  35.667  1.00  0.00    -0.237 OA
ATOM     92  O   UNL A   1      46.872  22.564  35.968  1.00  0.00    -0.237 OA
ATOM     93  O   UNL A   1      45.627  23.955  37.576  1.00  0.00    -0.744 OA
ENDBRANCH  86  90
ENDBRANCH  60  83
ENDBRANCH  34  35
ENDBRANCH  26  29
ENDBRANCH  24  25
ENDBRANCH   1  24
TORSDOF 16
ENDMDL
MODEL 3
REMARK VINA RESULT:     -11.8      2.554      3.289
REMARK SMILES C[C@H]1CC[C@@H]([C@H](C(=O)NCCCCNC(=O)c2ccc(-c3c4nc(c(-c5cc(S(=O)(=O)[O-])ccc5F)c5ccc([nH]5)c(-c5cc(S(=O)(=O)[O-])ccc5F)c5nc(c(-c6cc(S(=O)(=O)[O-])ccc6F)c6ccc3[nH]6)C=C5)C=C4)cc2)[C@@H]2CCS(=O)(=O)C2)C[C@@H]1C
REMARK SMILES IDX 12 1 11 2 10 3 9 4 7 5 8 6 6 8 5 9 1 10 2 11 3 12 88 13 4 14
REMARK SMILES IDX 87 15 89 16 80 17 81 18 86 19 82 20 83 21 84 22 85 23 13 24
REMARK SMILES IDX 14 25 15 26 16 28 17 29 18 30 79 31 19 32 78 33 20 34 21 35
REMARK SMILES IDX 22 36 72 37 23 38 77 39 71 40 73 41 24 42 76 43 70 44 69 45
REMARK SMILES IDX 25 47 57 48 37 49 56 50 38 51 41 52 55 53 74 54 39 55 40 56
REMARK SMILES IDX 54 58 75 59 42 60 26 61 27 62 35 63 28 64 34 65 36 66 33 67
REMARK SMILES IDX 29 68 30 69 31 70 32 71 58 72 59 73 67 74 60 75 66 76 68 77
REMARK SMILES IDX 65 78 61 79 62 80 63 81 64 82 43 83 44 84 52 85 45 86 51 87
REMARK SMILES IDX 53 88 50 89 46 90 47 91 48 92 49 93
REMARK H PARENT 9 7 14 27 73 46 41 57
REMARK Flexibility Score: inf
ROOT
ATOM      1  C   UNL A   1      35.946  23.355  24.425  1.00  0.00     0.023 C 
ENDROOT
BRANCH   1   2
ATOM      2  C   UNL A   1      34.689  24.216  24.288  1.00  0.00     0.023 C 
BRANCH   2   3
ATOM      3  C   UNL A   1      34.484  25.226  25.413  1.00  0.00     0.116 C 
BRANCH   3   4
ATOM      4  N   UNL A   1      33.292  24.938  26.189  1.00  0.00    -0.356 N 
ATOM      5  C   UNL A   1      32.094  25.581  26.227  1.00  0.00     0.223 C 
ATOM      6  O   UNL A   1      31.225  25.155  26.988  1.00  0.00    -0.275 OA
ATOM      7  H   UNL A   1      33.362  24.156  26.783  1.00  0.00     0.163 HD
BRANCH   5   8
ATOM      8  C   UNL A   1      31.815  26.736  25.256  1.00  0.00     0.085 C 
BRANCH   8   9
ATOM      9  C   UNL A   1      30.951  26.118  24.079  1.00  0.00     0.002 C 
ATOM     10  C   UNL A   1      30.050  29.743  21.923  1.00  0.00     0.008 C 
ATOM     11  C   UNL A   1      29.908  28.232  22.181  1.00  0.00    -0.011 C 
ATOM     12  C   UNL A   1      31.287  27.571  21.975  1.00  0.00     0.004 C 
ATOM     13  C   UNL A   1      29.239  27.963  23.550  1.00  0.00    -0.011 C 
ATOM     14  C   UNL A   1      31.508  26.224  22.657  1.00  0.00     0.005 C 
ATOM     15  C   UNL A   1      29.465  26.526  24.019  1.00  0.00     0.008 C 
ATOM     16  C   UNL A   1      27.728  28.238  23.496  1.00  0.00     0.008 C 
ENDBRANCH   8   9
BRANCH   8  17
ATOM     17  C   UNL A   1      31.278  28.012  25.985  1.00  0.00     0.018 C 
ATOM     18  C   UNL A   1      31.477  29.316  25.168  1.00  0.00     0.021 C 
ATOM     19  C   UNL A   1      31.932  28.365  27.342  1.00  0.00     0.141 C 
ATOM     20  C   UNL A   1      32.900  29.825  25.359  1.00  0.00     0.137 C 
ATOM     21  S   UNL A   1      33.393  29.313  26.983  1.00  0.00     0.150 S 
ATOM     22  O   UNL A   1      34.516  28.413  26.846  1.00  0.00    -0.229 OA
ATOM     23  O   UNL A   1      33.426  30.475  27.850  1.00  0.00    -0.229 OA
ENDBRANCH   8  17
ENDBRANCH   5   8
ENDBRANCH   3   4
ENDBRANCH   2   3
ENDBRANCH   1   2
BRANCH   1  24
ATOM     24  C   UNL A   1      36.655  23.455  25.770  1.00  0.00     0.116 C 
BRANCH  24  25
ATOM     25  N   UNL A   1      37.711  22.468  25.923  1.00  0.00    -0.352 N 
ATOM     26  C   UNL A   1      39.011  22.639  26.330  1.00  0.00     0.251 C 
ATOM     27  H   UNL A   1      37.456  21.543  25.701  1.00  0.00     0.163 HD
ATOM     28  O   UNL A   1      39.799  21.701  26.228  1.00  0.00    -0.269 OA
BRANCH  26  29
ATOM     29  C   UNL A   1      39.464  23.945  26.858  1.00  0.00     0.039 A 
ATOM     30  C   UNL A   1      40.025  24.870  25.973  1.00  0.00     0.014 A 
ATOM     31  C   UNL A   1      39.362  24.256  28.217  1.00  0.00     0.014 A 
ATOM     32  C   UNL A   1      40.446  26.116  26.446  1.00  0.00     0.010 A 
ATOM     33  C   UNL A   1      39.695  25.531  28.668  1.00  0.00     0.010 A 
ATOM     34  C   UNL A   1      40.265  26.467  27.794  1.00  0.00    -0.014 A 
BRANCH  34  35
ATOM     35  C   UNL A   1      40.714  27.791  28.304  1.00  0.00     0.031 A 
ATOM     36  C   UNL A   1      42.186  28.106  28.390  1.00  0.00     0.074 A 
ATOM     37  C   UNL A   1      39.804  28.699  28.709  1.00  0.00     0.049 A 
ATOM     38  N   UNL A   1      42.777  29.195  28.813  1.00  0.00    -0.248 NA
ATOM     39  C   UNL A   1      43.115  27.043  27.977  1.00  0.00     0.031 C 
ATOM     40  C   UNL A   1      38.354  28.495  28.718  1.00  0.00     0.029 A 
ATOM     41  N   UNL A   1      39.960  29.975  29.189  1.00  0.00    -0.354 N 
ATOM     42  C   UNL A   1      44.143  28.943  28.725  1.00  0.00     0.074 A 
ATOM     43  C   UNL A   1      44.288  27.573  28.286  1.00  0.00     0.031 C 
ATOM     44  C   UNL A   1      37.754  29.619  29.140  1.00  0.00     0.029 A 
ATOM     45  C   UNL A   1      38.773  30.608  29.477  1.00  0.00     0.049 A 
ATOM     46  H   UNL A   1      40.841  30.399  29.314  1.00  0.00     0.167 HD
ATOM     47  C   UNL A   1      45.181  29.785  28.960  1.00  0.00     0.034 A 
ATOM     48  C   UNL A   1      38.532  31.843  29.961  1.00  0.00     0.034 A 
ATOM     49  C   UNL A   1      45.017  31.152  29.392  1.00  0.00     0.049 A 
ATOM     50  C   UNL A   1      39.701  32.757  30.234  1.00  0.00     0.074 A 
ATOM     51  C   UNL A   1      45.992  32.109  29.614  1.00  0.00     0.029 A 
ATOM     52  N   UNL A   1      43.799  31.757  29.679  1.00  0.00    -0.354 N 
ATOM     53  N   UNL A   1      40.986  32.524  30.091  1.00  0.00    -0.248 NA
ATOM     54  C   UNL A   1      39.384  34.106  30.715  1.00  0.00     0.031 C 
ATOM     55  C   UNL A   1      45.373  33.261  30.113  1.00  0.00     0.029 A 
ATOM     56  C   UNL A   1      44.002  33.061  30.108  1.00  0.00     0.049 A 
ATOM     57  H   UNL A   1      42.919  31.323  29.591  1.00  0.00     0.167 HD
ATOM     58  C   UNL A   1      41.627  33.713  30.427  1.00  0.00     0.074 A 
ATOM     59  C   UNL A   1      40.585  34.662  30.762  1.00  0.00     0.031 C 
ATOM     60  C   UNL A   1      42.956  33.998  30.451  1.00  0.00     0.034 A 
BRANCH  47  61
ATOM     61  C   UNL A   1      46.579  29.234  28.782  1.00  0.00     0.023 A 
ATOM     62  C   UNL A   1      47.166  29.096  27.510  1.00  0.00     0.031 A 
ATOM     63  C   UNL A   1      47.323  28.803  29.894  1.00  0.00     0.131 A 
ATOM     64  C   UNL A   1      48.411  28.463  27.376  1.00  0.00     0.055 A 
ATOM     65  C   UNL A   1      48.603  28.261  29.762  1.00  0.00     0.041 A 
ATOM     66  F   UNL A   1      46.811  28.885  31.133  1.00  0.00    -0.206 F 
ATOM     67  C   UNL A   1      49.147  28.071  28.496  1.00  0.00     0.022 A 
BRANCH  64  68
ATOM     68  S   UNL A   1      48.974  28.004  25.713  1.00  0.00     0.124 S 
ATOM     69  O   UNL A   1      49.322  26.597  25.897  1.00  0.00    -0.237 OA
ATOM     70  O   UNL A   1      47.796  28.269  24.896  1.00  0.00    -0.237 OA
ATOM     71  O   UNL A   1      50.111  28.892  25.479  1.00  0.00    -0.744 OA
ENDBRANCH  64  68
ENDBRANCH  47  61
BRANCH  48  72
ATOM     72  C   UNL A   1      37.133  32.293  30.221  1.00  0.00     0.023 A 
ATOM     73  C   UNL A   1      36.387  32.960  29.236  1.00  0.00     0.031 A 
ATOM     74  C   UNL A   1      36.534  32.099  31.479  1.00  0.00     0.131 A 
ATOM     75  C   UNL A   1      35.108  33.452  29.539  1.00  0.00     0.055 A 
ATOM     76  C   UNL A   1      35.239  32.538  31.757  1.00  0.00     0.041 A 
ATOM     77  F   UNL A   1      37.201  31.467  32.458  1.00  0.00    -0.206 F 
ATOM     78  C   UNL A   1      34.523  33.232  30.788  1.00  0.00     0.022 A 
BRANCH  75  79
ATOM     79  S   UNL A   1      34.251  34.471  28.305  1.00  0.00     0.124 S 
ATOM     80  O   UNL A   1      34.314  35.794  28.917  1.00  0.00    -0.237 OA
ATOM     81  O   UNL A   1      35.080  34.272  27.120  1.00  0.00    -0.237 OA
ATOM     82  O   UNL A   1      32.919  33.876  28.238  1.00  0.00    -0.744 OA
ENDBRANCH  75  79
ENDBRANCH  48  72
BRANCH  60  83
ATOM     83  C   UNL A   1      43.349  35.416  30.798  1.00  0.00     0.023 A 
ATOM     84  C   UNL A   1      43.549  35.833  32.126  1.00  0.00     0.031 A 
ATOM     85  C   UNL A   1      43.495  36.376  29.779  1.00  0.00     0.131 A 
ATOM     86  C   UNL A   1      43.802  37.185  32.405  1.00  0.00     0.055 A 
ATOM     87  C   UNL A   1      43.826  37.703  30.058  1.00  0.00     0.041 A 
ATOM     88  F   UNL A   1      43.313  36.041  28.491  1.00  0.00    -0.206 F 
ATOM     89  C   UNL A   1      43.962  38.118  31.378  1.00  0.00     0.022 A 
BRANCH  86  90
ATOM     90  S   UNL A   1      43.780  37.734  34.134  1.00  0.00     0.124 S 
ATOM     91  O   UNL A   1      42.704  38.720  34.125  1.00  0.00    -0.237 OA
ATOM     92  O   UNL A   1      43.503  36.495  34.851  1.00  0.00    -0.237 OA
ATOM     93  O   UNL A   1      45.120  38.282  34.337  1.00  0.00    -0.744 OA
ENDBRANCH  86  90
ENDBRANCH  60  83
ENDBRANCH  34  35
ENDBRANCH  26  29
ENDBRANCH  24  25
ENDBRANCH   1  24
TORSDOF 16
ENDMDL
