MODEL 1
REMARK VINA RESULT:     -12.4      0.000      0.000
REMARK SMILES CC1(C)[C@H]2CC[C@]1(C)C(=O)N(CC(=O)NCCCCNC(=O)c1ccc(-c3c4nc(c(-c5cc(S(=O)(=O)[O-])ccc5F)c5ccc([nH]5)c(-c5cc(S(=O)(=O)[O-])ccc5F)c5nc(c(-c6cc(S(=O)(=O)[O-])ccc6F)c6ccc3[nH]6)C=C5)C=C4)cc1)C2=O
REMARK SMILES IDX 18 1 17 2 16 3 15 4 13 5 14 6 12 8 11 9 1 10 2 11 4 12 7 13
REMARK SMILES IDX 3 14 5 15 86 16 6 17 9 18 8 19 87 20 10 21 19 22 20 23 21 24
REMARK SMILES IDX 22 26 23 27 24 28 85 29 25 30 84 31 26 32 27 33 28 34 78 35
REMARK SMILES IDX 29 36 83 37 77 38 79 39 30 40 82 41 76 42 75 43 31 45 63 46
REMARK SMILES IDX 43 47 62 48 44 49 47 50 61 51 80 52 45 53 46 54 60 56 81 57
REMARK SMILES IDX 48 58 32 59 33 60 41 61 34 62 40 63 42 64 39 65 35 66 36 67
REMARK SMILES IDX 37 68 38 69 64 70 65 71 73 72 66 73 72 74 74 75 71 76 67 77
REMARK SMILES IDX 68 78 69 79 70 80 49 81 50 82 58 83 51 84 57 85 59 86 56 87
REMARK SMILES IDX 52 88 53 89 54 90 55 91
REMARK H PARENT 15 7 20 25 79 44 47 55
REMARK Flexibility Score: inf
ROOT
ATOM      1  C   UNL A   1      32.272  29.208  24.524  1.00  0.00     0.023 C 
ENDROOT
BRANCH   1   2
ATOM      2  C   UNL A   1      31.133  28.215  24.428  1.00  0.00     0.023 C 
BRANCH   2   3
ATOM      3  C   UNL A   1      30.695  27.695  23.071  1.00  0.00     0.116 C 
BRANCH   3   4
ATOM      4  N   UNL A   1      31.847  27.704  22.177  1.00  0.00    -0.355 N 
ATOM      5  C   UNL A   1      32.679  26.673  21.820  1.00  0.00     0.240 C 
ATOM      6  O   UNL A   1      33.764  26.980  21.316  1.00  0.00    -0.273 OA
ATOM      7  H   UNL A   1      32.057  28.576  21.772  1.00  0.00     0.163 HD
BRANCH   5   8
ATOM      8  C   UNL A   1      32.310  25.195  22.072  1.00  0.00     0.228 C 
BRANCH   8   9
ATOM      9  N   UNL A   1      32.713  24.727  23.405  1.00  0.00    -0.272 N 
ATOM     10  C   UNL A   1      33.500  22.835  27.319  1.00  0.00     0.013 C 
ATOM     11  C   UNL A   1      33.304  23.225  25.832  1.00  0.00    -0.010 C 
ATOM     12  C   UNL A   1      32.142  24.222  25.764  1.00  0.00     0.086 C 
ATOM     13  C   UNL A   1      34.381  24.147  25.153  1.00  0.00     0.053 C 
ATOM     14  C   UNL A   1      33.038  21.901  25.086  1.00  0.00     0.013 C 
ATOM     15  C   UNL A   1      32.787  25.483  26.378  1.00  0.00     0.015 C 
ATOM     16  C   UNL A   1      31.721  24.364  24.296  1.00  0.00     0.233 C 
ATOM     17  C   UNL A   1      34.170  25.563  25.754  1.00  0.00     0.018 C 
ATOM     18  C   UNL A   1      34.031  24.334  23.644  1.00  0.00     0.236 C 
ATOM     19  C   UNL A   1      35.827  23.713  25.349  1.00  0.00     0.022 C 
ATOM     20  O   UNL A   1      30.575  24.083  23.945  1.00  0.00    -0.274 OA
ATOM     21  O   UNL A   1      34.839  24.098  22.748  1.00  0.00    -0.274 OA
ENDBRANCH   8   9
ENDBRANCH   5   8
ENDBRANCH   3   4
ENDBRANCH   2   3
ENDBRANCH   1   2
BRANCH   1  22
ATOM     22  C   UNL A   1      32.734  29.474  25.942  1.00  0.00     0.116 C 
BRANCH  22  23
ATOM     23  N   UNL A   1      32.418  30.799  26.475  1.00  0.00    -0.352 N 
ATOM     24  C   UNL A   1      33.208  31.643  27.231  1.00  0.00     0.251 C 
ATOM     25  H   UNL A   1      31.516  31.136  26.268  1.00  0.00     0.163 HD
ATOM     26  O   UNL A   1      32.757  32.720  27.620  1.00  0.00    -0.269 OA
BRANCH  24  27
ATOM     27  C   UNL A   1      34.567  31.210  27.627  1.00  0.00     0.039 A 
ATOM     28  C   UNL A   1      35.570  32.163  27.812  1.00  0.00     0.014 A 
ATOM     29  C   UNL A   1      34.818  29.873  27.926  1.00  0.00     0.014 A 
ATOM     30  C   UNL A   1      36.774  31.782  28.407  1.00  0.00     0.010 A 
ATOM     31  C   UNL A   1      35.931  29.535  28.677  1.00  0.00     0.010 A 
ATOM     32  C   UNL A   1      36.937  30.478  28.908  1.00  0.00    -0.014 A 
BRANCH  32  33
ATOM     33  C   UNL A   1      38.158  30.074  29.653  1.00  0.00     0.031 A 
ATOM     34  C   UNL A   1      38.379  30.570  31.058  1.00  0.00     0.074 A 
ATOM     35  C   UNL A   1      39.087  29.312  29.041  1.00  0.00     0.049 A 
ATOM     36  N   UNL A   1      39.382  30.345  31.867  1.00  0.00    -0.248 NA
ATOM     37  C   UNL A   1      37.367  31.484  31.614  1.00  0.00     0.031 C 
ATOM     38  C   UNL A   1      39.026  28.856  27.648  1.00  0.00     0.029 A 
ATOM     39  N   UNL A   1      40.259  28.776  29.509  1.00  0.00    -0.354 N 
ATOM     40  C   UNL A   1      39.121  31.091  33.011  1.00  0.00     0.074 A 
ATOM     41  C   UNL A   1      37.929  31.861  32.748  1.00  0.00     0.031 C 
ATOM     42  C   UNL A   1      40.075  28.057  27.399  1.00  0.00     0.029 A 
ATOM     43  C   UNL A   1      40.910  27.982  28.592  1.00  0.00     0.049 A 
ATOM     44  H   UNL A   1      40.604  28.946  30.415  1.00  0.00     0.167 HD
ATOM     45  C   UNL A   1      39.783  31.095  34.195  1.00  0.00     0.034 A 
ATOM     46  C   UNL A   1      42.045  27.266  28.707  1.00  0.00     0.034 A 
ATOM     47  C   UNL A   1      40.961  30.303  34.440  1.00  0.00     0.049 A 
ATOM     48  C   UNL A   1      42.759  27.269  30.034  1.00  0.00     0.074 A 
ATOM     49  C   UNL A   1      41.696  30.185  35.605  1.00  0.00     0.029 A 
ATOM     50  N   UNL A   1      41.578  29.490  33.494  1.00  0.00    -0.354 N 
ATOM     51  N   UNL A   1      42.458  27.925  31.134  1.00  0.00    -0.248 NA
ATOM     52  C   UNL A   1      43.948  26.417  30.145  1.00  0.00     0.031 C 
ATOM     53  C   UNL A   1      42.795  29.359  35.345  1.00  0.00     0.029 A 
ATOM     54  C   UNL A   1      42.699  28.889  34.045  1.00  0.00     0.049 A 
ATOM     55  H   UNL A   1      41.266  29.362  32.570  1.00  0.00     0.167 HD
ATOM     56  C   UNL A   1      43.407  27.540  32.076  1.00  0.00     0.074 A 
ATOM     57  C   UNL A   1      44.270  26.576  31.420  1.00  0.00     0.031 C 
ATOM     58  C   UNL A   1      43.555  27.943  33.366  1.00  0.00     0.034 A 
BRANCH  45  59
ATOM     59  C   UNL A   1      39.242  31.989  35.288  1.00  0.00     0.023 A 
ATOM     60  C   UNL A   1      39.656  33.329  35.417  1.00  0.00     0.031 A 
ATOM     61  C   UNL A   1      38.345  31.489  36.247  1.00  0.00     0.131 A 
ATOM     62  C   UNL A   1      39.250  34.088  36.525  1.00  0.00     0.055 A 
ATOM     63  C   UNL A   1      37.867  32.281  37.294  1.00  0.00     0.041 A 
ATOM     64  F   UNL A   1      37.931  30.213  36.196  1.00  0.00    -0.206 F 
ATOM     65  C   UNL A   1      38.335  33.583  37.449  1.00  0.00     0.022 A 
BRANCH  62  66
ATOM     66  S   UNL A   1      40.069  35.679  36.831  1.00  0.00     0.124 S 
ATOM     67  O   UNL A   1      39.489  36.063  38.117  1.00  0.00    -0.237 OA
ATOM     68  O   UNL A   1      41.479  35.310  36.851  1.00  0.00    -0.237 OA
ATOM     69  O   UNL A   1      39.653  36.503  35.698  1.00  0.00    -0.744 OA
ENDBRANCH  62  66
ENDBRANCH  45  59
BRANCH  46  70
ATOM     70  C   UNL A   1      42.563  26.476  27.551  1.00  0.00     0.023 A 
ATOM     71  C   UNL A   1      42.173  25.143  27.344  1.00  0.00     0.031 A 
ATOM     72  C   UNL A   1      43.479  27.040  26.644  1.00  0.00     0.131 A 
ATOM     73  C   UNL A   1      42.731  24.405  26.286  1.00  0.00     0.055 A 
ATOM     74  C   UNL A   1      43.987  26.320  25.562  1.00  0.00     0.041 A 
ATOM     75  F   UNL A   1      43.881  28.313  26.789  1.00  0.00    -0.206 F 
ATOM     76  C   UNL A   1      43.624  24.989  25.386  1.00  0.00     0.022 A 
BRANCH  73  77
ATOM     77  S   UNL A   1      42.335  22.639  26.152  1.00  0.00     0.124 S 
ATOM     78  O   UNL A   1      42.897  22.306  24.848  1.00  0.00    -0.237 OA
ATOM     79  O   UNL A   1      43.029  22.085  27.309  1.00  0.00    -0.237 OA
ATOM     80  O   UNL A   1      40.876  22.611  26.230  1.00  0.00    -0.744 OA
ENDBRANCH  73  77
ENDBRANCH  46  70
BRANCH  58  81
ATOM     81  C   UNL A   1      44.671  27.300  34.155  1.00  0.00     0.023 A 
ATOM     82  C   UNL A   1      44.484  26.097  34.855  1.00  0.00     0.031 A 
ATOM     83  C   UNL A   1      45.931  27.920  34.229  1.00  0.00     0.131 A 
ATOM     84  C   UNL A   1      45.511  25.596  35.668  1.00  0.00     0.055 A 
ATOM     85  C   UNL A   1      46.976  27.374  34.976  1.00  0.00     0.041 A 
ATOM     86  F   UNL A   1      46.168  29.072  33.581  1.00  0.00    -0.206 F 
ATOM     87  C   UNL A   1      46.762  26.216  35.717  1.00  0.00     0.022 A 
BRANCH  84  88
ATOM     88  S   UNL A   1      45.143  24.201  36.767  1.00  0.00     0.124 S 
ATOM     89  O   UNL A   1      44.456  24.861  37.872  1.00  0.00    -0.237 OA
ATOM     90  O   UNL A   1      44.314  23.349  35.921  1.00  0.00    -0.237 OA
ATOM     91  O   UNL A   1      46.462  23.662  37.089  1.00  0.00    -0.744 OA
ENDBRANCH  84  88
ENDBRANCH  58  81
ENDBRANCH  32  33
ENDBRANCH  24  27
ENDBRANCH  22  23
ENDBRANCH   1  22
TORSDOF 15
ENDMDL
MODEL 2
REMARK VINA RESULT:     -12.3      4.908     10.042
REMARK SMILES CC1(C)[C@H]2CC[C@]1(C)C(=O)N(CC(=O)NCCCCNC(=O)c1ccc(-c3c4nc(c(-c5cc(S(=O)(=O)[O-])ccc5F)c5ccc([nH]5)c(-c5cc(S(=O)(=O)[O-])ccc5F)c5nc(c(-c6cc(S(=O)(=O)[O-])ccc6F)c6ccc3[nH]6)C=C5)C=C4)cc1)C2=O
REMARK SMILES IDX 18 1 17 2 16 3 15 4 13 5 14 6 12 8 11 9 1 10 2 11 4 12 7 13
REMARK SMILES IDX 3 14 5 15 86 16 6 17 9 18 8 19 87 20 10 21 19 22 20 23 21 24
REMARK SMILES IDX 22 26 23 27 24 28 85 29 25 30 84 31 26 32 27 33 28 34 78 35
REMARK SMILES IDX 29 36 83 37 77 38 79 39 30 40 82 41 76 42 75 43 31 45 63 46
REMARK SMILES IDX 43 47 62 48 44 49 47 50 61 51 80 52 45 53 46 54 60 56 81 57
REMARK SMILES IDX 48 58 32 59 33 60 41 61 34 62 40 63 42 64 39 65 35 66 36 67
REMARK SMILES IDX 37 68 38 69 64 70 65 71 73 72 66 73 72 74 74 75 71 76 67 77
REMARK SMILES IDX 68 78 69 79 70 80 49 81 50 82 58 83 51 84 57 85 59 86 56 87
REMARK SMILES IDX 52 88 53 89 54 90 55 91
REMARK H PARENT 15 7 20 25 79 44 47 55
REMARK Flexibility Score: inf
ROOT
ATOM      1  C   UNL A   1      35.902  21.808  25.966  1.00  0.00     0.023 C 
ENDROOT
BRANCH   1   2
ATOM      2  C   UNL A   1      34.927  21.106  25.043  1.00  0.00     0.023 C 
BRANCH   2   3
ATOM      3  C   UNL A   1      33.699  20.426  25.617  1.00  0.00     0.116 C 
BRANCH   3   4
ATOM      4  N   UNL A   1      33.421  21.000  26.928  1.00  0.00    -0.355 N 
ATOM      5  C   UNL A   1      32.616  22.061  27.260  1.00  0.00     0.240 C 
ATOM      6  O   UNL A   1      32.786  22.564  28.375  1.00  0.00    -0.273 OA
ATOM      7  H   UNL A   1      33.876  20.564  27.683  1.00  0.00     0.163 HD
BRANCH   5   8
ATOM      8  C   UNL A   1      31.572  22.638  26.279  1.00  0.00     0.228 C 
BRANCH   8   9
ATOM      9  N   UNL A   1      32.112  23.721  25.447  1.00  0.00    -0.272 N 
ATOM     10  C   UNL A   1      33.265  26.822  22.519  1.00  0.00     0.013 C 
ATOM     11  C   UNL A   1      32.587  25.874  23.541  1.00  0.00    -0.010 C 
ATOM     12  C   UNL A   1      33.187  24.477  23.345  1.00  0.00     0.086 C 
ATOM     13  C   UNL A   1      32.958  26.026  25.060  1.00  0.00     0.053 C 
ATOM     14  C   UNL A   1      31.075  25.955  23.243  1.00  0.00     0.013 C 
ATOM     15  C   UNL A   1      34.603  24.671  23.927  1.00  0.00     0.015 C 
ATOM     16  C   UNL A   1      32.311  23.472  24.102  1.00  0.00     0.233 C 
ATOM     17  C   UNL A   1      34.399  25.467  25.205  1.00  0.00     0.018 C 
ATOM     18  C   UNL A   1      32.096  25.038  25.908  1.00  0.00     0.236 C 
ATOM     19  C   UNL A   1      32.896  27.444  25.608  1.00  0.00     0.022 C 
ATOM     20  O   UNL A   1      31.759  22.549  23.503  1.00  0.00    -0.274 OA
ATOM     21  O   UNL A   1      31.421  25.411  26.865  1.00  0.00    -0.274 OA
ENDBRANCH   8   9
ENDBRANCH   5   8
ENDBRANCH   3   4
ENDBRANCH   2   3
ENDBRANCH   1   2
BRANCH   1  22
ATOM     22  C   UNL A   1      37.208  22.188  25.300  1.00  0.00     0.116 C 
BRANCH  22  23
ATOM     23  N   UNL A   1      38.311  21.242  25.478  1.00  0.00    -0.352 N 
ATOM     24  C   UNL A   1      39.498  21.412  26.163  1.00  0.00     0.251 C 
ATOM     25  H   UNL A   1      38.191  20.364  25.050  1.00  0.00     0.163 HD
ATOM     26  O   UNL A   1      40.330  20.505  26.181  1.00  0.00    -0.269 OA
BRANCH  24  27
ATOM     27  C   UNL A   1      39.789  22.712  26.810  1.00  0.00     0.039 A 
ATOM     28  C   UNL A   1      40.697  22.770  27.867  1.00  0.00     0.014 A 
ATOM     29  C   UNL A   1      39.249  23.887  26.294  1.00  0.00     0.014 A 
ATOM     30  C   UNL A   1      41.145  24.014  28.317  1.00  0.00     0.010 A 
ATOM     31  C   UNL A   1      39.827  25.105  26.613  1.00  0.00     0.010 A 
ATOM     32  C   UNL A   1      40.765  25.190  27.646  1.00  0.00    -0.014 A 
BRANCH  32  33
ATOM     33  C   UNL A   1      41.317  26.517  28.022  1.00  0.00     0.031 A 
ATOM     34  C   UNL A   1      42.734  26.874  27.653  1.00  0.00     0.074 A 
ATOM     35  C   UNL A   1      40.562  27.370  28.744  1.00  0.00     0.049 A 
ATOM     36  N   UNL A   1      43.402  27.971  27.901  1.00  0.00    -0.248 NA
ATOM     37  C   UNL A   1      43.525  25.845  26.957  1.00  0.00     0.031 C 
ATOM     38  C   UNL A   1      39.211  27.091  29.244  1.00  0.00     0.029 A 
ATOM     39  N   UNL A   1      40.813  28.646  29.176  1.00  0.00    -0.354 N 
ATOM     40  C   UNL A   1      44.682  27.755  27.401  1.00  0.00     0.074 A 
ATOM     41  C   UNL A   1      44.729  26.388  26.940  1.00  0.00     0.031 C 
ATOM     42  C   UNL A   1      38.731  28.185  29.854  1.00  0.00     0.029 A 
ATOM     43  C   UNL A   1      39.751  29.227  29.834  1.00  0.00     0.049 A 
ATOM     44  H   UNL A   1      41.672  29.105  29.032  1.00  0.00     0.167 HD
ATOM     45  C   UNL A   1      45.710  28.632  27.287  1.00  0.00     0.034 A 
ATOM     46  C   UNL A   1      39.615  30.463  30.351  1.00  0.00     0.034 A 
ATOM     47  C   UNL A   1      45.634  29.998  27.738  1.00  0.00     0.049 A 
ATOM     48  C   UNL A   1      40.762  31.430  30.200  1.00  0.00     0.074 A 
ATOM     49  C   UNL A   1      46.586  30.994  27.641  1.00  0.00     0.029 A 
ATOM     50  N   UNL A   1      44.533  30.558  28.379  1.00  0.00    -0.354 N 
ATOM     51  N   UNL A   1      41.944  31.233  29.658  1.00  0.00    -0.248 NA
ATOM     52  C   UNL A   1      40.549  32.790  30.706  1.00  0.00     0.031 C 
ATOM     53  C   UNL A   1      46.090  32.135  28.283  1.00  0.00     0.029 A 
ATOM     54  C   UNL A   1      44.795  31.880  28.703  1.00  0.00     0.049 A 
ATOM     55  H   UNL A   1      43.692  30.086  28.573  1.00  0.00     0.167 HD
ATOM     56  C   UNL A   1      42.603  32.456  29.733  1.00  0.00     0.074 A 
ATOM     57  C   UNL A   1      41.676  33.386  30.348  1.00  0.00     0.031 C 
ATOM     58  C   UNL A   1      43.860  32.785  29.331  1.00  0.00     0.034 A 
BRANCH  45  59
ATOM     59  C   UNL A   1      46.989  28.122  26.660  1.00  0.00     0.023 A 
ATOM     60  C   UNL A   1      47.216  28.206  25.273  1.00  0.00     0.031 A 
ATOM     61  C   UNL A   1      47.972  27.496  27.445  1.00  0.00     0.131 A 
ATOM     62  C   UNL A   1      48.343  27.595  24.705  1.00  0.00     0.055 A 
ATOM     63  C   UNL A   1      49.141  26.975  26.884  1.00  0.00     0.041 A 
ATOM     64  F   UNL A   1      47.806  27.360  28.769  1.00  0.00    -0.206 F 
ATOM     65  C   UNL A   1      49.323  27.006  25.504  1.00  0.00     0.022 A 
BRANCH  62  66
ATOM     66  S   UNL A   1      48.423  27.433  22.899  1.00  0.00     0.124 S 
ATOM     67  O   UNL A   1      48.322  25.984  22.731  1.00  0.00    -0.237 OA
ATOM     68  O   UNL A   1      47.269  28.208  22.461  1.00  0.00    -0.237 OA
ATOM     69  O   UNL A   1      49.726  28.002  22.560  1.00  0.00    -0.744 OA
ENDBRANCH  62  66
ENDBRANCH  45  59
BRANCH  46  70
ATOM     70  C   UNL A   1      38.349  30.864  31.034  1.00  0.00     0.023 A 
ATOM     71  C   UNL A   1      37.317  31.512  30.337  1.00  0.00     0.031 A 
ATOM     72  C   UNL A   1      38.164  30.622  32.407  1.00  0.00     0.131 A 
ATOM     73  C   UNL A   1      36.167  31.937  31.023  1.00  0.00     0.055 A 
ATOM     74  C   UNL A   1      36.995  30.997  33.072  1.00  0.00     0.041 A 
ATOM     75  F   UNL A   1      39.114  29.999  33.122  1.00  0.00    -0.206 F 
ATOM     76  C   UNL A   1      35.993  31.671  32.383  1.00  0.00     0.022 A 
BRANCH  73  77
ATOM     77  S   UNL A   1      34.932  32.922  30.129  1.00  0.00     0.124 S 
ATOM     78  O   UNL A   1      34.412  31.950  29.173  1.00  0.00    -0.237 OA
ATOM     79  O   UNL A   1      34.025  33.315  31.201  1.00  0.00    -0.237 OA
ATOM     80  O   UNL A   1      35.719  34.009  29.550  1.00  0.00    -0.744 OA
ENDBRANCH  73  77
ENDBRANCH  46  70
BRANCH  58  81
ATOM     81  C   UNL A   1      44.275  34.225  29.512  1.00  0.00     0.023 A 
ATOM     82  C   UNL A   1      43.934  35.216  28.576  1.00  0.00     0.031 A 
ATOM     83  C   UNL A   1      45.051  34.603  30.622  1.00  0.00     0.131 A 
ATOM     84  C   UNL A   1      44.437  36.516  28.722  1.00  0.00     0.055 A 
ATOM     85  C   UNL A   1      45.483  35.917  30.804  1.00  0.00     0.041 A 
ATOM     86  F   UNL A   1      45.409  33.698  31.548  1.00  0.00    -0.206 F 
ATOM     87  C   UNL A   1      45.193  36.878  29.841  1.00  0.00     0.022 A 
BRANCH  84  88
ATOM     88  S   UNL A   1      44.207  37.692  27.361  1.00  0.00     0.124 S 
ATOM     89  O   UNL A   1      43.065  37.118  26.656  1.00  0.00    -0.237 OA
ATOM     90  O   UNL A   1      43.954  38.942  28.069  1.00  0.00    -0.237 OA
ATOM     91  O   UNL A   1      45.476  37.632  26.639  1.00  0.00    -0.744 OA
ENDBRANCH  84  88
ENDBRANCH  58  81
ENDBRANCH  32  33
ENDBRANCH  24  27
ENDBRANCH  22  23
ENDBRANCH   1  22
TORSDOF 15
ENDMDL
MODEL 3
REMARK VINA RESULT:     -12.1      4.566     10.016
REMARK SMILES CC1(C)[C@H]2CC[C@]1(C)C(=O)N(CC(=O)NCCCCNC(=O)c1ccc(-c3c4nc(c(-c5cc(S(=O)(=O)[O-])ccc5F)c5ccc([nH]5)c(-c5cc(S(=O)(=O)[O-])ccc5F)c5nc(c(-c6cc(S(=O)(=O)[O-])ccc6F)c6ccc3[nH]6)C=C5)C=C4)cc1)C2=O
REMARK SMILES IDX 18 1 17 2 16 3 15 4 13 5 14 6 12 8 11 9 1 10 2 11 4 12 7 13
REMARK SMILES IDX 3 14 5 15 86 16 6 17 9 18 8 19 87 20 10 21 19 22 20 23 21 24
REMARK SMILES IDX 22 26 23 27 24 28 85 29 25 30 84 31 26 32 27 33 28 34 78 35
REMARK SMILES IDX 29 36 83 37 77 38 79 39 30 40 82 41 76 42 75 43 31 45 63 46
REMARK SMILES IDX 43 47 62 48 44 49 47 50 61 51 80 52 45 53 46 54 60 56 81 57
REMARK SMILES IDX 48 58 32 59 33 60 41 61 34 62 40 63 42 64 39 65 35 66 36 67
REMARK SMILES IDX 37 68 38 69 64 70 65 71 73 72 66 73 72 74 74 75 71 76 67 77
REMARK SMILES IDX 68 78 69 79 70 80 49 81 50 82 58 83 51 84 57 85 59 86 56 87
REMARK SMILES IDX 52 88 53 89 54 90 55 91
REMARK H PARENT 15 7 20 25 79 44 47 55
REMARK Flexibility Score: inf
ROOT
ATOM      1  C   UNL A   1      35.484  20.920  25.037  1.00  0.00     0.023 C 
ENDROOT
BRANCH   1   2
ATOM      2  C   UNL A   1      34.409  21.367  26.006  1.00  0.00     0.023 C 
BRANCH   2   3
ATOM      3  C   UNL A   1      32.947  21.135  25.672  1.00  0.00     0.116 C 
BRANCH   3   4
ATOM      4  N   UNL A   1      32.132  21.942  26.572  1.00  0.00    -0.355 N 
ATOM      5  C   UNL A   1      31.477  23.124  26.329  1.00  0.00     0.240 C 
ATOM      6  O   UNL A   1      31.126  23.781  27.314  1.00  0.00    -0.273 OA
ATOM      7  H   UNL A   1      32.038  21.589  27.486  1.00  0.00     0.163 HD
BRANCH   5   8
ATOM      8  C   UNL A   1      31.224  23.642  24.897  1.00  0.00     0.228 C 
BRANCH   8   9
ATOM      9  N   UNL A   1      31.839  24.953  24.649  1.00  0.00    -0.272 N 
ATOM     10  C   UNL A   1      33.941  28.621  23.367  1.00  0.00     0.013 C 
ATOM     11  C   UNL A   1      33.068  27.352  23.541  1.00  0.00    -0.010 C 
ATOM     12  C   UNL A   1      33.868  26.353  24.387  1.00  0.00     0.086 C 
ATOM     13  C   UNL A   1      31.813  27.432  24.483  1.00  0.00     0.053 C 
ATOM     14  C   UNL A   1      32.762  26.859  22.112  1.00  0.00     0.013 C 
ATOM     15  C   UNL A   1      33.808  27.018  25.779  1.00  0.00     0.015 C 
ATOM     16  C   UNL A   1      33.174  24.989  24.294  1.00  0.00     0.233 C 
ATOM     17  C   UNL A   1      32.370  27.485  25.932  1.00  0.00     0.018 C 
ATOM     18  C   UNL A   1      31.040  26.077  24.438  1.00  0.00     0.236 C 
ATOM     19  C   UNL A   1      30.891  28.618  24.241  1.00  0.00     0.022 C 
ATOM     20  O   UNL A   1      33.775  24.012  23.846  1.00  0.00    -0.274 OA
ATOM     21  O   UNL A   1      29.839  26.014  24.181  1.00  0.00    -0.274 OA
ENDBRANCH   8   9
ENDBRANCH   5   8
ENDBRANCH   3   4
ENDBRANCH   2   3
ENDBRANCH   1   2
BRANCH   1  22
ATOM     22  C   UNL A   1      36.854  21.494  25.337  1.00  0.00     0.116 C 
BRANCH  22  23
ATOM     23  N   UNL A   1      37.958  20.534  25.336  1.00  0.00    -0.352 N 
ATOM     24  C   UNL A   1      39.224  20.665  25.873  1.00  0.00     0.251 C 
ATOM     25  H   UNL A   1      37.775  19.676  24.888  1.00  0.00     0.163 HD
ATOM     26  O   UNL A   1      40.040  19.752  25.748  1.00  0.00    -0.269 OA
BRANCH  24  27
ATOM     27  C   UNL A   1      39.609  21.933  26.533  1.00  0.00     0.039 A 
ATOM     28  C   UNL A   1      40.599  21.928  27.516  1.00  0.00     0.014 A 
ATOM     29  C   UNL A   1      39.071  23.141  26.097  1.00  0.00     0.014 A 
ATOM     30  C   UNL A   1      41.123  23.142  27.966  1.00  0.00     0.010 A 
ATOM     31  C   UNL A   1      39.714  24.329  26.405  1.00  0.00     0.010 A 
ATOM     32  C   UNL A   1      40.732  24.350  27.362  1.00  0.00    -0.014 A 
BRANCH  32  33
ATOM     33  C   UNL A   1      41.357  25.646  27.733  1.00  0.00     0.031 A 
ATOM     34  C   UNL A   1      42.767  25.953  27.297  1.00  0.00     0.074 A 
ATOM     35  C   UNL A   1      40.676  26.514  28.508  1.00  0.00     0.049 A 
ATOM     36  N   UNL A   1      43.492  27.017  27.530  1.00  0.00    -0.248 NA
ATOM     37  C   UNL A   1      43.477  24.907  26.543  1.00  0.00     0.031 C 
ATOM     38  C   UNL A   1      39.342  26.280  29.073  1.00  0.00     0.029 A 
ATOM     39  N   UNL A   1      41.001  27.771  28.950  1.00  0.00    -0.354 N 
ATOM     40  C   UNL A   1      44.734  26.759  26.960  1.00  0.00     0.074 A 
ATOM     41  C   UNL A   1      44.701  25.401  26.473  1.00  0.00     0.031 C 
ATOM     42  C   UNL A   1      38.940  27.381  29.726  1.00  0.00     0.029 A 
ATOM     43  C   UNL A   1      40.000  28.381  29.671  1.00  0.00     0.049 A 
ATOM     44  H   UNL A   1      41.870  28.197  28.769  1.00  0.00     0.167 HD
ATOM     45  C   UNL A   1      45.790  27.595  26.808  1.00  0.00     0.034 A 
ATOM     46  C   UNL A   1      39.941  29.611  30.217  1.00  0.00     0.034 A 
ATOM     47  C   UNL A   1      45.794  28.954  27.287  1.00  0.00     0.049 A 
ATOM     48  C   UNL A   1      41.118  30.533  30.024  1.00  0.00     0.074 A 
ATOM     49  C   UNL A   1      46.781  29.913  27.158  1.00  0.00     0.029 A 
ATOM     50  N   UNL A   1      44.752  29.546  27.993  1.00  0.00    -0.354 N 
ATOM     51  N   UNL A   1      42.262  30.300  29.418  1.00  0.00    -0.248 NA
ATOM     52  C   UNL A   1      40.988  31.890  30.565  1.00  0.00     0.031 C 
ATOM     53  C   UNL A   1      46.366  31.060  27.845  1.00  0.00     0.029 A 
ATOM     54  C   UNL A   1      45.085  30.849  28.327  1.00  0.00     0.049 A 
ATOM     55  H   UNL A   1      43.903  29.104  28.223  1.00  0.00     0.167 HD
ATOM     56  C   UNL A   1      42.974  31.493  29.480  1.00  0.00     0.074 A 
ATOM     57  C   UNL A   1      42.119  32.447  30.159  1.00  0.00     0.031 C 
ATOM     58  C   UNL A   1      44.221  31.778  29.019  1.00  0.00     0.034 A 
BRANCH  45  59
ATOM     59  C   UNL A   1      47.013  27.047  26.107  1.00  0.00     0.023 A 
ATOM     60  C   UNL A   1      48.006  26.332  26.805  1.00  0.00     0.031 A 
ATOM     61  C   UNL A   1      47.222  27.283  24.737  1.00  0.00     0.131 A 
ATOM     62  C   UNL A   1      49.195  25.964  26.158  1.00  0.00     0.055 A 
ATOM     63  C   UNL A   1      48.365  26.828  24.076  1.00  0.00     0.041 A 
ATOM     64  F   UNL A   1      46.327  27.980  24.020  1.00  0.00    -0.206 F 
ATOM     65  C   UNL A   1      49.369  26.181  24.791  1.00  0.00     0.022 A 
BRANCH  62  66
ATOM     66  S   UNL A   1      50.576  25.355  27.166  1.00  0.00     0.124 S 
ATOM     67  O   UNL A   1      50.960  26.561  27.897  1.00  0.00    -0.237 OA
ATOM     68  O   UNL A   1      49.950  24.302  27.956  1.00  0.00    -0.237 OA
ATOM     69  O   UNL A   1      51.549  24.900  26.176  1.00  0.00    -0.744 OA
ENDBRANCH  62  66
ENDBRANCH  45  59
BRANCH  46  70
ATOM     70  C   UNL A   1      38.730  30.048  30.972  1.00  0.00     0.023 A 
ATOM     71  C   UNL A   1      37.718  30.802  30.355  1.00  0.00     0.031 A 
ATOM     72  C   UNL A   1      38.579  29.737  32.335  1.00  0.00     0.131 A 
ATOM     73  C   UNL A   1      36.624  31.257  31.111  1.00  0.00     0.055 A 
ATOM     74  C   UNL A   1      37.462  30.143  33.067  1.00  0.00     0.041 A 
ATOM     75  F   UNL A   1      39.511  29.012  32.974  1.00  0.00    -0.206 F 
ATOM     76  C   UNL A   1      36.482  30.920  32.458  1.00  0.00     0.022 A 
BRANCH  73  77
ATOM     77  S   UNL A   1      35.425  32.370  30.325  1.00  0.00     0.124 S 
ATOM     78  O   UNL A   1      36.247  33.543  30.044  1.00  0.00    -0.237 OA
ATOM     79  O   UNL A   1      35.003  31.591  29.166  1.00  0.00    -0.237 OA
ATOM     80  O   UNL A   1      34.406  32.553  31.355  1.00  0.00    -0.744 OA
ENDBRANCH  73  77
ENDBRANCH  46  70
BRANCH  58  81
ATOM     81  C   UNL A   1      44.705  33.197  29.203  1.00  0.00     0.023 A 
ATOM     82  C   UNL A   1      44.314  34.230  28.335  1.00  0.00     0.031 A 
ATOM     83  C   UNL A   1      45.594  33.511  30.247  1.00  0.00     0.131 A 
ATOM     84  C   UNL A   1      44.877  35.507  28.472  1.00  0.00     0.055 A 
ATOM     85  C   UNL A   1      46.090  34.802  30.427  1.00  0.00     0.041 A 
ATOM     86  F   UNL A   1      46.003  32.564  31.107  1.00  0.00    -0.206 F 
ATOM     87  C   UNL A   1      45.747  35.805  29.525  1.00  0.00     0.022 A 
BRANCH  84  88
ATOM     88  S   UNL A   1      44.565  36.735  27.175  1.00  0.00     0.124 S 
ATOM     89  O   UNL A   1      45.820  36.713  26.431  1.00  0.00    -0.237 OA
ATOM     90  O   UNL A   1      43.407  36.173  26.487  1.00  0.00    -0.237 OA
ATOM     91  O   UNL A   1      44.308  37.964  27.922  1.00  0.00    -0.744 OA
ENDBRANCH  84  88
ENDBRANCH  58  81
ENDBRANCH  32  33
ENDBRANCH  24  27
ENDBRANCH  22  23
ENDBRANCH   1  22
TORSDOF 15
ENDMDL
