MODEL 1
REMARK VINA RESULT:     -11.1      0.000      0.000
REMARK SMILES COCC[C@H](NC(=O)c1ccc(Br)nc1)C(=O)NCCCCNC(=O)c1ccc(-c2c3nc(c(-c4cc(S(=O)(=O)[O-])ccc4F)c4ccc([nH]4)c(-c4cc(S(=O)(=O)[O-])ccc4F)c4nc(c(-c5cc(S(=O)(=O)[O-])ccc5F)c5ccc2[nH]5)C=C4)C=C3)cc1
REMARK SMILES IDX 20 1 19 2 18 3 16 4 17 5 5 7 4 8 3 9 2 10 1 11 6 12 7 13
REMARK SMILES IDX 8 15 9 16 10 17 15 18 11 19 14 20 12 21 13 22 21 23 22 24
REMARK SMILES IDX 23 25 24 26 25 28 26 29 27 30 88 31 28 32 87 33 29 34 30 35
REMARK SMILES IDX 31 36 81 37 32 38 86 39 80 40 82 41 33 42 85 43 79 44 78 45
REMARK SMILES IDX 34 47 66 48 46 49 65 50 47 51 50 52 64 53 83 54 48 55 49 56
REMARK SMILES IDX 63 58 84 59 51 60 35 61 36 62 44 63 37 64 43 65 45 66 42 67
REMARK SMILES IDX 38 68 39 69 40 70 41 71 67 72 68 73 76 74 69 75 75 76 77 77
REMARK SMILES IDX 74 78 70 79 71 80 72 81 73 82 52 83 53 84 61 85 54 86 60 87
REMARK SMILES IDX 62 88 59 89 55 90 56 91 57 92 58 93
REMARK H PARENT 18 6 6 14 23 27 82 46 50 57
REMARK Flexibility Score: inf
ROOT
ATOM      1  C   UNL A   1      30.880  29.281  24.239  1.00  0.00     0.023 C 
ENDROOT
BRANCH   1   2
ATOM      2  C   UNL A   1      30.267  28.737  22.952  1.00  0.00     0.116 C 
BRANCH   2   3
ATOM      3  N   UNL A   1      29.145  27.853  23.191  1.00  0.00    -0.354 N 
ATOM      4  C   UNL A   1      29.016  26.704  23.902  1.00  0.00     0.242 C 
ATOM      5  O   UNL A   1      27.847  26.362  24.137  1.00  0.00    -0.273 OA
ATOM      6  H   UNL A   1      28.313  28.141  22.751  1.00  0.00     0.163 HD
BRANCH   4   7
ATOM      7  C   UNL A   1      30.180  25.776  24.360  1.00  0.00     0.173 C 
BRANCH   7   8
ATOM      8  C   UNL A   1      30.736  24.846  23.249  1.00  0.00     0.063 C 
BRANCH   8   9
ATOM      9  C   UNL A   1      31.790  25.393  22.263  1.00  0.00     0.162 C 
BRANCH   9  10
ATOM     10  O   UNL A   1      33.108  24.908  22.490  1.00  0.00    -0.385 OA
ATOM     11  C   UNL A   1      33.322  23.514  22.300  1.00  0.00     0.194 C 
ENDBRANCH   9  10
ENDBRANCH   8   9
ENDBRANCH   7   8
BRANCH   7  12
ATOM     12  N   UNL A   1      30.002  25.085  25.643  1.00  0.00    -0.340 N 
ATOM     13  C   UNL A   1      30.730  24.252  26.437  1.00  0.00     0.253 C 
ATOM     14  H   UNL A   1      29.118  25.275  26.034  1.00  0.00     0.164 HD
ATOM     15  O   UNL A   1      30.103  23.621  27.292  1.00  0.00    -0.269 OA
BRANCH  13  16
ATOM     16  C   UNL A   1      32.176  24.027  26.337  1.00  0.00     0.058 A 
ATOM     17  C   UNL A   1      32.786  22.784  26.420  1.00  0.00     0.018 A 
ATOM     18  C   UNL A   1      32.971  25.109  25.966  1.00  0.00     0.126 A 
ATOM     19  C   UNL A   1      34.164  22.680  26.215  1.00  0.00     0.037 A 
ATOM     20  N   UNL A   1      34.309  25.041  25.754  1.00  0.00    -0.249 NA
ATOM     21  C   UNL A   1      34.878  23.825  25.891  1.00  0.00     0.106 A 
ATOM     22  Br  UNL A   1      36.745  23.691  25.587  1.00  0.00    -0.029 Br
ENDBRANCH  13  16
ENDBRANCH   7  12
ENDBRANCH   4   7
ENDBRANCH   2   3
ENDBRANCH   1   2
BRANCH   1  23
ATOM     23  C   UNL A   1      32.388  29.070  24.363  1.00  0.00     0.023 C 
BRANCH  23  24
ATOM     24  C   UNL A   1      32.981  29.432  25.722  1.00  0.00     0.116 C 
BRANCH  24  25
ATOM     25  N   UNL A   1      32.545  30.720  26.245  1.00  0.00    -0.352 N 
ATOM     26  C   UNL A   1      33.185  31.531  27.157  1.00  0.00     0.251 C 
ATOM     27  H   UNL A   1      31.684  31.052  25.903  1.00  0.00     0.163 HD
ATOM     28  O   UNL A   1      32.638  32.553  27.561  1.00  0.00    -0.269 OA
BRANCH  26  29
ATOM     29  C   UNL A   1      34.511  31.130  27.678  1.00  0.00     0.039 A 
ATOM     30  C   UNL A   1      35.483  32.110  27.883  1.00  0.00     0.014 A 
ATOM     31  C   UNL A   1      34.768  29.801  28.023  1.00  0.00     0.014 A 
ATOM     32  C   UNL A   1      36.686  31.765  28.504  1.00  0.00     0.010 A 
ATOM     33  C   UNL A   1      35.919  29.483  28.736  1.00  0.00     0.010 A 
ATOM     34  C   UNL A   1      36.896  30.457  28.976  1.00  0.00    -0.014 A 
BRANCH  34  35
ATOM     35  C   UNL A   1      38.143  30.099  29.702  1.00  0.00     0.031 A 
ATOM     36  C   UNL A   1      38.385  30.623  31.093  1.00  0.00     0.074 A 
ATOM     37  C   UNL A   1      39.071  29.334  29.092  1.00  0.00     0.049 A 
ATOM     38  N   UNL A   1      39.402  30.415  31.891  1.00  0.00    -0.248 NA
ATOM     39  C   UNL A   1      37.372  31.536  31.643  1.00  0.00     0.031 C 
ATOM     40  C   UNL A   1      38.984  28.834  27.716  1.00  0.00     0.029 A 
ATOM     41  N   UNL A   1      40.265  28.834  29.547  1.00  0.00    -0.354 N 
ATOM     42  C   UNL A   1      39.153  31.177  33.028  1.00  0.00     0.074 A 
ATOM     43  C   UNL A   1      37.937  31.918  32.777  1.00  0.00     0.031 C 
ATOM     44  C   UNL A   1      40.048  28.058  27.461  1.00  0.00     0.029 A 
ATOM     45  C   UNL A   1      40.911  28.029  28.636  1.00  0.00     0.049 A 
ATOM     46  H   UNL A   1      40.625  29.031  30.441  1.00  0.00     0.167 HD
ATOM     47  C   UNL A   1      39.851  31.226  34.190  1.00  0.00     0.034 A 
ATOM     48  C   UNL A   1      42.062  27.334  28.745  1.00  0.00     0.034 A 
ATOM     49  C   UNL A   1      41.052  30.462  34.427  1.00  0.00     0.049 A 
ATOM     50  C   UNL A   1      42.805  27.377  30.055  1.00  0.00     0.074 A 
ATOM     51  C   UNL A   1      41.819  30.390  35.576  1.00  0.00     0.029 A 
ATOM     52  N   UNL A   1      41.663  29.636  33.491  1.00  0.00    -0.354 N 
ATOM     53  N   UNL A   1      42.519  28.047  31.148  1.00  0.00    -0.248 NA
ATOM     54  C   UNL A   1      44.012  26.549  30.154  1.00  0.00     0.031 C 
ATOM     55  C   UNL A   1      42.923  29.571  35.316  1.00  0.00     0.029 A 
ATOM     56  C   UNL A   1      42.806  29.066  34.030  1.00  0.00     0.049 A 
ATOM     57  H   UNL A   1      41.332  29.478  32.578  1.00  0.00     0.167 HD
ATOM     58  C   UNL A   1      43.494  27.693  32.076  1.00  0.00     0.074 A 
ATOM     59  C   UNL A   1      44.359  26.734  31.419  1.00  0.00     0.031 C 
ATOM     60  C   UNL A   1      43.662  28.119  33.355  1.00  0.00     0.034 A 
BRANCH  47  61
ATOM     61  C   UNL A   1      39.332  32.144  35.273  1.00  0.00     0.023 A 
ATOM     62  C   UNL A   1      39.689  33.504  35.325  1.00  0.00     0.031 A 
ATOM     63  C   UNL A   1      38.505  31.648  36.297  1.00  0.00     0.131 A 
ATOM     64  C   UNL A   1      39.302  34.293  36.417  1.00  0.00     0.055 A 
ATOM     65  C   UNL A   1      38.047  32.463  37.335  1.00  0.00     0.041 A 
ATOM     66  F   UNL A   1      38.146  30.354  36.320  1.00  0.00    -0.206 F 
ATOM     67  C   UNL A   1      38.460  33.790  37.410  1.00  0.00     0.022 A 
BRANCH  64  68
ATOM     68  S   UNL A   1      40.048  35.936  36.606  1.00  0.00     0.124 S 
ATOM     69  O   UNL A   1      39.640  36.589  35.364  1.00  0.00    -0.237 OA
ATOM     70  O   UNL A   1      39.418  36.431  37.826  1.00  0.00    -0.237 OA
ATOM     71  O   UNL A   1      41.478  35.654  36.711  1.00  0.00    -0.744 OA
ENDBRANCH  64  68
ENDBRANCH  47  61
BRANCH  48  72
ATOM     72  C   UNL A   1      42.568  26.518  27.601  1.00  0.00     0.023 A 
ATOM     73  C   UNL A   1      42.129  25.199  27.402  1.00  0.00     0.031 A 
ATOM     74  C   UNL A   1      43.526  27.034  26.712  1.00  0.00     0.131 A 
ATOM     75  C   UNL A   1      42.683  24.423  26.373  1.00  0.00     0.055 A 
ATOM     76  C   UNL A   1      44.035  26.275  25.655  1.00  0.00     0.041 A 
ATOM     77  F   UNL A   1      43.973  28.292  26.849  1.00  0.00    -0.206 F 
ATOM     78  C   UNL A   1      43.625  24.956  25.490  1.00  0.00     0.022 A 
BRANCH  75  79
ATOM     79  S   UNL A   1      42.218  22.673  26.254  1.00  0.00     0.124 S 
ATOM     80  O   UNL A   1      42.855  22.280  25.003  1.00  0.00    -0.237 OA
ATOM     81  O   UNL A   1      42.801  22.122  27.473  1.00  0.00    -0.237 OA
ATOM     82  O   UNL A   1      40.757  22.711  26.227  1.00  0.00    -0.744 OA
ENDBRANCH  75  79
ENDBRANCH  48  72
BRANCH  60  83
ATOM     83  C   UNL A   1      44.803  27.506  34.130  1.00  0.00     0.023 A 
ATOM     84  C   UNL A   1      44.613  26.404  34.982  1.00  0.00     0.031 A 
ATOM     85  C   UNL A   1      46.094  28.059  34.044  1.00  0.00     0.131 A 
ATOM     86  C   UNL A   1      45.673  25.940  35.774  1.00  0.00     0.055 A 
ATOM     87  C   UNL A   1      47.163  27.546  34.780  1.00  0.00     0.041 A 
ATOM     88  F   UNL A   1      46.335  29.112  33.248  1.00  0.00    -0.206 F 
ATOM     89  C   UNL A   1      46.952  26.494  35.665  1.00  0.00     0.022 A 
BRANCH  86  90
ATOM     90  S   UNL A   1      45.327  24.690  37.041  1.00  0.00     0.124 S 
ATOM     91  O   UNL A   1      43.867  24.690  37.076  1.00  0.00    -0.237 OA
ATOM     92  O   UNL A   1      45.952  23.498  36.481  1.00  0.00    -0.237 OA
ATOM     93  O   UNL A   1      45.976  25.227  38.237  1.00  0.00    -0.744 OA
ENDBRANCH  86  90
ENDBRANCH  60  83
ENDBRANCH  34  35
ENDBRANCH  26  29
ENDBRANCH  24  25
ENDBRANCH  23  24
ENDBRANCH   1  23
TORSDOF 19
ENDMDL
MODEL 2
REMARK VINA RESULT:     -11.1      5.009     10.042
REMARK SMILES COCC[C@H](NC(=O)c1ccc(Br)nc1)C(=O)NCCCCNC(=O)c1ccc(-c2c3nc(c(-c4cc(S(=O)(=O)[O-])ccc4F)c4ccc([nH]4)c(-c4cc(S(=O)(=O)[O-])ccc4F)c4nc(c(-c5cc(S(=O)(=O)[O-])ccc5F)c5ccc2[nH]5)C=C4)C=C3)cc1
REMARK SMILES IDX 20 1 19 2 18 3 16 4 17 5 5 7 4 8 3 9 2 10 1 11 6 12 7 13
REMARK SMILES IDX 8 15 9 16 10 17 15 18 11 19 14 20 12 21 13 22 21 23 22 24
REMARK SMILES IDX 23 25 24 26 25 28 26 29 27 30 88 31 28 32 87 33 29 34 30 35
REMARK SMILES IDX 31 36 81 37 32 38 86 39 80 40 82 41 33 42 85 43 79 44 78 45
REMARK SMILES IDX 34 47 66 48 46 49 65 50 47 51 50 52 64 53 83 54 48 55 49 56
REMARK SMILES IDX 63 58 84 59 51 60 35 61 36 62 44 63 37 64 43 65 45 66 42 67
REMARK SMILES IDX 38 68 39 69 40 70 41 71 67 72 68 73 76 74 69 75 75 76 77 77
REMARK SMILES IDX 74 78 70 79 71 80 72 81 73 82 52 83 53 84 61 85 54 86 60 87
REMARK SMILES IDX 62 88 59 89 55 90 56 91 57 92 58 93
REMARK H PARENT 18 6 6 14 23 27 82 46 50 57
REMARK Flexibility Score: inf
ROOT
ATOM      1  C   UNL A   1      35.633  23.486  23.745  1.00  0.00     0.023 C 
ENDROOT
BRANCH   1   2
ATOM      2  C   UNL A   1      34.150  23.842  23.709  1.00  0.00     0.116 C 
BRANCH   2   3
ATOM      3  N   UNL A   1      33.713  24.311  22.410  1.00  0.00    -0.354 N 
ATOM      4  C   UNL A   1      33.220  25.500  21.981  1.00  0.00     0.242 C 
ATOM      5  O   UNL A   1      33.223  25.655  20.751  1.00  0.00    -0.273 OA
ATOM      6  H   UNL A   1      33.789  23.635  21.699  1.00  0.00     0.163 HD
BRANCH   4   7
ATOM      7  C   UNL A   1      32.600  26.611  22.880  1.00  0.00     0.173 C 
BRANCH   7   8
ATOM      8  C   UNL A   1      33.630  27.398  23.732  1.00  0.00     0.063 C 
BRANCH   8   9
ATOM      9  C   UNL A   1      33.667  27.185  25.260  1.00  0.00     0.162 C 
BRANCH   9  10
ATOM     10  O   UNL A   1      32.821  28.063  25.993  1.00  0.00    -0.385 OA
ATOM     11  C   UNL A   1      33.248  29.414  26.117  1.00  0.00     0.194 C 
ENDBRANCH   9  10
ENDBRANCH   8   9
ENDBRANCH   7   8
BRANCH   7  12
ATOM     12  N   UNL A   1      31.396  26.246  23.638  1.00  0.00    -0.340 N 
ATOM     13  C   UNL A   1      30.171  26.786  23.886  1.00  0.00     0.253 C 
ATOM     14  H   UNL A   1      31.505  25.378  24.089  1.00  0.00     0.164 HD
ATOM     15  O   UNL A   1      29.550  26.322  24.845  1.00  0.00    -0.269 OA
BRANCH  13  16
ATOM     16  C   UNL A   1      29.555  27.882  23.131  1.00  0.00     0.058 A 
ATOM     17  C   UNL A   1      28.230  28.274  23.253  1.00  0.00     0.018 A 
ATOM     18  C   UNL A   1      30.395  28.691  22.369  1.00  0.00     0.126 A 
ATOM     19  C   UNL A   1      27.776  29.394  22.552  1.00  0.00     0.037 A 
ATOM     20  N   UNL A   1      29.989  29.787  21.681  1.00  0.00    -0.249 NA
ATOM     21  C   UNL A   1      28.683  30.111  21.783  1.00  0.00     0.106 A 
ATOM     22  Br  UNL A   1      28.084  31.647  20.847  1.00  0.00    -0.029 Br
ENDBRANCH  13  16
ENDBRANCH   7  12
ENDBRANCH   4   7
ENDBRANCH   2   3
ENDBRANCH   1   2
BRANCH   1  23
ATOM     23  C   UNL A   1      35.964  22.219  24.530  1.00  0.00     0.023 C 
BRANCH  23  24
ATOM     24  C   UNL A   1      36.934  22.413  25.693  1.00  0.00     0.116 C 
BRANCH  24  25
ATOM     25  N   UNL A   1      38.021  21.445  25.738  1.00  0.00    -0.352 N 
ATOM     26  C   UNL A   1      39.311  21.630  26.187  1.00  0.00     0.251 C 
ATOM     27  H   UNL A   1      37.807  20.543  25.405  1.00  0.00     0.163 HD
ATOM     28  O   UNL A   1      40.136  20.729  26.076  1.00  0.00    -0.269 OA
BRANCH  26  29
ATOM     29  C   UNL A   1      39.699  22.941  26.754  1.00  0.00     0.039 A 
ATOM     30  C   UNL A   1      40.570  22.977  27.843  1.00  0.00     0.014 A 
ATOM     31  C   UNL A   1      39.253  24.130  26.170  1.00  0.00     0.014 A 
ATOM     32  C   UNL A   1      41.052  24.207  28.297  1.00  0.00     0.010 A 
ATOM     33  C   UNL A   1      39.817  25.342  26.554  1.00  0.00     0.010 A 
ATOM     34  C   UNL A   1      40.715  25.397  27.628  1.00  0.00    -0.014 A 
BRANCH  34  35
ATOM     35  C   UNL A   1      41.280  26.703  28.060  1.00  0.00     0.031 A 
ATOM     36  C   UNL A   1      42.715  27.043  27.754  1.00  0.00     0.074 A 
ATOM     37  C   UNL A   1      40.511  27.561  28.760  1.00  0.00     0.049 A 
ATOM     38  N   UNL A   1      43.386  28.131  28.036  1.00  0.00    -0.248 NA
ATOM     39  C   UNL A   1      43.513  26.008  27.080  1.00  0.00     0.031 C 
ATOM     40  C   UNL A   1      39.131  27.306  29.186  1.00  0.00     0.029 A 
ATOM     41  N   UNL A   1      40.772  28.823  29.230  1.00  0.00    -0.354 N 
ATOM     42  C   UNL A   1      44.682  27.905  27.583  1.00  0.00     0.074 A 
ATOM     43  C   UNL A   1      44.722  26.546  27.091  1.00  0.00     0.031 C 
ATOM     44  C   UNL A   1      38.653  28.397  29.805  1.00  0.00     0.029 A 
ATOM     45  C   UNL A   1      39.696  29.416  29.853  1.00  0.00     0.049 A 
ATOM     46  H   UNL A   1      41.646  29.264  29.132  1.00  0.00     0.167 HD
ATOM     47  C   UNL A   1      45.733  28.762  27.544  1.00  0.00     0.034 A 
ATOM     48  C   UNL A   1      39.563  30.646  30.386  1.00  0.00     0.034 A 
ATOM     49  C   UNL A   1      45.665  30.121  28.023  1.00  0.00     0.049 A 
ATOM     50  C   UNL A   1      40.732  31.595  30.304  1.00  0.00     0.074 A 
ATOM     51  C   UNL A   1      46.644  31.099  27.993  1.00  0.00     0.029 A 
ATOM     52  N   UNL A   1      44.550  30.696  28.622  1.00  0.00    -0.354 N 
ATOM     53  N   UNL A   1      41.931  31.390  29.807  1.00  0.00    -0.248 NA
ATOM     54  C   UNL A   1      40.520  32.947  30.831  1.00  0.00     0.031 C 
ATOM     55  C   UNL A   1      46.143  32.242  28.627  1.00  0.00     0.029 A 
ATOM     56  C   UNL A   1      44.824  32.007  28.983  1.00  0.00     0.049 A 
ATOM     57  H   UNL A   1      43.691  30.240  28.769  1.00  0.00     0.167 HD
ATOM     58  C   UNL A   1      42.605  32.601  29.932  1.00  0.00     0.074 A 
ATOM     59  C   UNL A   1      41.669  33.533  30.529  1.00  0.00     0.031 C 
ATOM     60  C   UNL A   1      43.880  32.918  29.587  1.00  0.00     0.034 A 
BRANCH  47  61
ATOM     61  C   UNL A   1      47.033  28.240  26.977  1.00  0.00     0.023 A 
ATOM     62  C   UNL A   1      47.230  28.094  25.591  1.00  0.00     0.031 A 
ATOM     63  C   UNL A   1      48.077  27.838  27.830  1.00  0.00     0.131 A 
ATOM     64  C   UNL A   1      48.393  27.479  25.106  1.00  0.00     0.055 A 
ATOM     65  C   UNL A   1      49.272  27.311  27.335  1.00  0.00     0.041 A 
ATOM     66  F   UNL A   1      47.944  27.930  29.163  1.00  0.00    -0.206 F 
ATOM     67  C   UNL A   1      49.429  27.111  25.967  1.00  0.00     0.022 A 
BRANCH  64  68
ATOM     68  S   UNL A   1      48.463  27.020  23.353  1.00  0.00     0.124 S 
ATOM     69  O   UNL A   1      49.897  27.110  23.082  1.00  0.00    -0.237 OA
ATOM     70  O   UNL A   1      47.896  25.676  23.355  1.00  0.00    -0.237 OA
ATOM     71  O   UNL A   1      47.648  28.041  22.697  1.00  0.00    -0.744 OA
ENDBRANCH  64  68
ENDBRANCH  47  61
BRANCH  48  72
ATOM     72  C   UNL A   1      38.276  31.068  31.015  1.00  0.00     0.023 A 
ATOM     73  C   UNL A   1      37.263  31.674  30.255  1.00  0.00     0.031 A 
ATOM     74  C   UNL A   1      38.055  30.903  32.393  1.00  0.00     0.131 A 
ATOM     75  C   UNL A   1      36.097  32.140  30.884  1.00  0.00     0.055 A 
ATOM     76  C   UNL A   1      36.872  31.320  33.005  1.00  0.00     0.041 A 
ATOM     77  F   UNL A   1      38.987  30.321  33.165  1.00  0.00    -0.206 F 
ATOM     78  C   UNL A   1      35.890  31.956  32.252  1.00  0.00     0.022 A 
BRANCH  75  79
ATOM     79  S   UNL A   1      34.889  33.070  29.899  1.00  0.00     0.124 S 
ATOM     80  O   UNL A   1      33.932  33.484  30.918  1.00  0.00    -0.237 OA
ATOM     81  O   UNL A   1      35.715  34.126  29.327  1.00  0.00    -0.237 OA
ATOM     82  O   UNL A   1      34.396  32.080  28.944  1.00  0.00    -0.744 OA
ENDBRANCH  75  79
ENDBRANCH  48  72
BRANCH  60  83
ATOM     83  C   UNL A   1      44.308  34.349  29.809  1.00  0.00     0.023 A 
ATOM     84  C   UNL A   1      44.010  35.363  28.883  1.00  0.00     0.031 A 
ATOM     85  C   UNL A   1      45.059  34.693  30.947  1.00  0.00     0.131 A 
ATOM     86  C   UNL A   1      44.527  36.654  29.068  1.00  0.00     0.055 A 
ATOM     87  C   UNL A   1      45.510  35.997  31.163  1.00  0.00     0.041 A 
ATOM     88  F   UNL A   1      45.374  33.766  31.865  1.00  0.00    -0.206 F 
ATOM     89  C   UNL A   1      45.261  36.980  30.211  1.00  0.00     0.022 A 
BRANCH  86  90
ATOM     90  S   UNL A   1      44.339  37.864  27.730  1.00  0.00     0.124 S 
ATOM     91  O   UNL A   1      43.366  37.208  26.862  1.00  0.00    -0.237 OA
ATOM     92  O   UNL A   1      43.864  39.044  28.444  1.00  0.00    -0.237 OA
ATOM     93  O   UNL A   1      45.688  37.975  27.177  1.00  0.00    -0.744 OA
ENDBRANCH  86  90
ENDBRANCH  60  83
ENDBRANCH  34  35
ENDBRANCH  26  29
ENDBRANCH  24  25
ENDBRANCH  23  24
ENDBRANCH   1  23
TORSDOF 19
ENDMDL
MODEL 3
REMARK VINA RESULT:     -11.0      1.310      2.056
REMARK SMILES COCC[C@H](NC(=O)c1ccc(Br)nc1)C(=O)NCCCCNC(=O)c1ccc(-c2c3nc(c(-c4cc(S(=O)(=O)[O-])ccc4F)c4ccc([nH]4)c(-c4cc(S(=O)(=O)[O-])ccc4F)c4nc(c(-c5cc(S(=O)(=O)[O-])ccc5F)c5ccc2[nH]5)C=C4)C=C3)cc1
REMARK SMILES IDX 20 1 19 2 18 3 16 4 17 5 5 7 4 8 3 9 2 10 1 11 6 12 7 13
REMARK SMILES IDX 8 15 9 16 10 17 15 18 11 19 14 20 12 21 13 22 21 23 22 24
REMARK SMILES IDX 23 25 24 26 25 28 26 29 27 30 88 31 28 32 87 33 29 34 30 35
REMARK SMILES IDX 31 36 81 37 32 38 86 39 80 40 82 41 33 42 85 43 79 44 78 45
REMARK SMILES IDX 34 47 66 48 46 49 65 50 47 51 50 52 64 53 83 54 48 55 49 56
REMARK SMILES IDX 63 58 84 59 51 60 35 61 36 62 44 63 37 64 43 65 45 66 42 67
REMARK SMILES IDX 38 68 39 69 40 70 41 71 67 72 68 73 76 74 69 75 75 76 77 77
REMARK SMILES IDX 74 78 70 79 71 80 72 81 73 82 52 83 53 84 61 85 54 86 60 87
REMARK SMILES IDX 62 88 59 89 55 90 56 91 57 92 58 93
REMARK H PARENT 18 6 6 14 23 27 82 46 50 57
REMARK Flexibility Score: inf
ROOT
ATOM      1  C   UNL A   1      31.909  28.563  27.482  1.00  0.00     0.023 C 
ENDROOT
BRANCH   1   2
ATOM      2  C   UNL A   1      32.329  27.272  26.785  1.00  0.00     0.116 C 
BRANCH   2   3
ATOM      3  N   UNL A   1      31.271  26.284  26.740  1.00  0.00    -0.354 N 
ATOM      4  C   UNL A   1      31.061  25.198  25.954  1.00  0.00     0.242 C 
ATOM      5  O   UNL A   1      30.208  24.403  26.375  1.00  0.00    -0.273 OA
ATOM      6  H   UNL A   1      30.566  26.428  27.411  1.00  0.00     0.163 HD
BRANCH   4   7
ATOM      7  C   UNL A   1      31.729  24.926  24.573  1.00  0.00     0.173 C 
BRANCH   7   8
ATOM      8  C   UNL A   1      31.622  26.099  23.564  1.00  0.00     0.063 C 
BRANCH   8   9
ATOM      9  C   UNL A   1      30.260  26.794  23.353  1.00  0.00     0.162 C 
BRANCH   9  10
ATOM     10  O   UNL A   1      30.273  28.193  23.608  1.00  0.00    -0.385 OA
ATOM     11  C   UNL A   1      29.261  28.970  22.977  1.00  0.00     0.194 C 
ENDBRANCH   9  10
ENDBRANCH   8   9
ENDBRANCH   7   8
BRANCH   7  12
ATOM     12  N   UNL A   1      31.456  23.621  23.958  1.00  0.00    -0.340 N 
ATOM     13  C   UNL A   1      32.181  22.571  23.481  1.00  0.00     0.253 C 
ATOM     14  H   UNL A   1      30.489  23.463  23.865  1.00  0.00     0.164 HD
ATOM     15  O   UNL A   1      31.586  21.786  22.739  1.00  0.00    -0.269 OA
BRANCH  13  16
ATOM     16  C   UNL A   1      33.601  22.323  23.753  1.00  0.00     0.058 A 
ATOM     17  C   UNL A   1      34.641  23.109  23.281  1.00  0.00     0.018 A 
ATOM     18  C   UNL A   1      33.915  21.334  24.682  1.00  0.00     0.126 A 
ATOM     19  C   UNL A   1      35.951  22.831  23.682  1.00  0.00     0.037 A 
ATOM     20  N   UNL A   1      35.173  21.042  25.098  1.00  0.00    -0.249 NA
ATOM     21  C   UNL A   1      36.166  21.795  24.581  1.00  0.00     0.106 A 
ATOM     22  Br  UNL A   1      37.935  21.425  25.152  1.00  0.00    -0.029 Br
ENDBRANCH  13  16
ENDBRANCH   7  12
ENDBRANCH   4   7
ENDBRANCH   2   3
ENDBRANCH   1   2
BRANCH   1  23
ATOM     23  C   UNL A   1      31.419  29.662  26.543  1.00  0.00     0.023 C 
BRANCH  23  24
ATOM     24  C   UNL A   1      32.482  30.676  26.125  1.00  0.00     0.116 C 
BRANCH  24  25
ATOM     25  N   UNL A   1      32.248  32.029  26.611  1.00  0.00    -0.352 N 
ATOM     26  C   UNL A   1      33.033  32.778  27.460  1.00  0.00     0.251 C 
ATOM     27  H   UNL A   1      31.422  32.462  26.294  1.00  0.00     0.163 HD
ATOM     28  O   UNL A   1      32.648  33.878  27.844  1.00  0.00    -0.269 OA
BRANCH  26  29
ATOM     29  C   UNL A   1      34.318  32.220  27.939  1.00  0.00     0.039 A 
ATOM     30  C   UNL A   1      35.432  33.056  28.022  1.00  0.00     0.014 A 
ATOM     31  C   UNL A   1      34.402  30.892  28.365  1.00  0.00     0.014 A 
ATOM     32  C   UNL A   1      36.608  32.579  28.603  1.00  0.00     0.010 A 
ATOM     33  C   UNL A   1      35.537  30.453  29.039  1.00  0.00     0.010 A 
ATOM     34  C   UNL A   1      36.658  31.287  29.157  1.00  0.00    -0.014 A 
BRANCH  34  35
ATOM     35  C   UNL A   1      37.883  30.795  29.841  1.00  0.00     0.031 A 
ATOM     36  C   UNL A   1      38.167  31.199  31.264  1.00  0.00     0.074 A 
ATOM     37  C   UNL A   1      38.755  30.019  29.166  1.00  0.00     0.049 A 
ATOM     38  N   UNL A   1      39.172  30.867  32.033  1.00  0.00    -0.248 NA
ATOM     39  C   UNL A   1      37.219  32.132  31.890  1.00  0.00     0.031 C 
ATOM     40  C   UNL A   1      38.627  29.629  27.758  1.00  0.00     0.029 A 
ATOM     41  N   UNL A   1      39.916  29.410  29.571  1.00  0.00    -0.354 N 
ATOM     42  C   UNL A   1      38.981  31.557  33.226  1.00  0.00     0.074 A 
ATOM     43  C   UNL A   1      37.815  32.393  33.043  1.00  0.00     0.031 C 
ATOM     44  C   UNL A   1      39.636  28.806  27.436  1.00  0.00     0.029 A 
ATOM     45  C   UNL A   1      40.503  28.634  28.596  1.00  0.00     0.049 A 
ATOM     46  H   UNL A   1      40.294  29.517  30.473  1.00  0.00     0.167 HD
ATOM     47  C   UNL A   1      39.688  31.475  34.381  1.00  0.00     0.034 A 
ATOM     48  C   UNL A   1      41.606  27.861  28.641  1.00  0.00     0.034 A 
ATOM     49  C   UNL A   1      40.837  30.620  34.548  1.00  0.00     0.049 A 
ATOM     50  C   UNL A   1      42.358  27.758  29.943  1.00  0.00     0.074 A 
ATOM     51  C   UNL A   1      41.604  30.413  35.681  1.00  0.00     0.029 A 
ATOM     52  N   UNL A   1      41.387  29.826  33.548  1.00  0.00    -0.354 N 
ATOM     53  N   UNL A   1      42.123  28.363  31.086  1.00  0.00    -0.248 NA
ATOM     54  C   UNL A   1      43.509  26.848  29.968  1.00  0.00     0.031 C 
ATOM     55  C   UNL A   1      42.651  29.545  35.350  1.00  0.00     0.029 A 
ATOM     56  C   UNL A   1      42.494  29.146  34.032  1.00  0.00     0.049 A 
ATOM     57  H   UNL A   1      41.041  29.758  32.629  1.00  0.00     0.167 HD
ATOM     58  C   UNL A   1      43.078  27.879  31.975  1.00  0.00     0.074 A 
ATOM     59  C   UNL A   1      43.875  26.916  31.240  1.00  0.00     0.031 C 
ATOM     60  C   UNL A   1      43.282  28.198  33.280  1.00  0.00     0.034 A 
BRANCH  47  61
ATOM     61  C   UNL A   1      39.236  32.343  35.534  1.00  0.00     0.023 A 
ATOM     62  C   UNL A   1      39.622  33.692  35.641  1.00  0.00     0.031 A 
ATOM     63  C   UNL A   1      38.446  31.807  36.567  1.00  0.00     0.131 A 
ATOM     64  C   UNL A   1      39.301  34.427  36.790  1.00  0.00     0.055 A 
ATOM     65  C   UNL A   1      38.052  32.573  37.667  1.00  0.00     0.041 A 
ATOM     66  F   UNL A   1      38.062  30.520  36.537  1.00  0.00    -0.206 F 
ATOM     67  C   UNL A   1      38.494  33.886  37.793  1.00  0.00     0.022 A 
BRANCH  64  68
ATOM     68  S   UNL A   1      40.087  36.045  37.031  1.00  0.00     0.124 S 
ATOM     69  O   UNL A   1      41.461  35.659  37.347  1.00  0.00    -0.237 OA
ATOM     70  O   UNL A   1      39.885  36.691  35.739  1.00  0.00    -0.237 OA
ATOM     71  O   UNL A   1      39.341  36.627  38.145  1.00  0.00    -0.744 OA
ENDBRANCH  64  68
ENDBRANCH  47  61
BRANCH  48  72
ATOM     72  C   UNL A   1      42.050  27.100  27.436  1.00  0.00     0.023 A 
ATOM     73  C   UNL A   1      41.861  25.711  27.345  1.00  0.00     0.031 A 
ATOM     74  C   UNL A   1      42.704  27.745  26.373  1.00  0.00     0.131 A 
ATOM     75  C   UNL A   1      42.365  25.005  26.241  1.00  0.00     0.055 A 
ATOM     76  C   UNL A   1      43.156  27.047  25.251  1.00  0.00     0.041 A 
ATOM     77  F   UNL A   1      42.903  29.073  26.403  1.00  0.00    -0.206 F 
ATOM     78  C   UNL A   1      43.000  25.665  25.188  1.00  0.00     0.022 A 
BRANCH  75  79
ATOM     79  S   UNL A   1      42.253  23.194  26.242  1.00  0.00     0.124 S 
ATOM     80  O   UNL A   1      43.123  22.842  27.358  1.00  0.00    -0.237 OA
ATOM     81  O   UNL A   1      40.825  22.980  26.449  1.00  0.00    -0.237 OA
ATOM     82  O   UNL A   1      42.751  22.822  24.919  1.00  0.00    -0.744 OA
ENDBRANCH  75  79
ENDBRANCH  48  72
BRANCH  60  83
ATOM     83  C   UNL A   1      44.385  27.456  33.996  1.00  0.00     0.023 A 
ATOM     84  C   UNL A   1      44.137  26.273  34.713  1.00  0.00     0.031 A 
ATOM     85  C   UNL A   1      45.696  27.964  33.991  1.00  0.00     0.131 A 
ATOM     86  C   UNL A   1      45.165  25.681  35.461  1.00  0.00     0.055 A 
ATOM     87  C   UNL A   1      46.732  27.329  34.678  1.00  0.00     0.041 A 
ATOM     88  F   UNL A   1      45.991  29.090  33.323  1.00  0.00    -0.206 F 
ATOM     89  C   UNL A   1      46.465  26.193  35.434  1.00  0.00     0.022 A 
BRANCH  86  90
ATOM     90  S   UNL A   1      44.749  24.310  36.574  1.00  0.00     0.124 S 
ATOM     91  O   UNL A   1      44.161  25.010  37.712  1.00  0.00    -0.237 OA
ATOM     92  O   UNL A   1      43.826  23.522  35.764  1.00  0.00    -0.237 OA
ATOM     93  O   UNL A   1      46.041  23.677  36.834  1.00  0.00    -0.744 OA
ENDBRANCH  86  90
ENDBRANCH  60  83
ENDBRANCH  34  35
ENDBRANCH  26  29
ENDBRANCH  24  25
ENDBRANCH  23  24
ENDBRANCH   1  23
TORSDOF 19
ENDMDL
