MODEL 1
REMARK VINA RESULT:     -13.5      0.000      0.000
REMARK SMILES Cc1ccccc1/C=C1\SC(=O)N(CC(=O)Nc2ccccc2C(=O)NCCCCNC(=O)c2ccc(-c3c4nc(c(-c5cc(S(=O)(=O)[O-])ccc5F)c5ccc([nH]5)c(-c5cc(S(=O)(=O)[O-])ccc5F)c5nc(c(-c6cc(S(=O)(=O)[O-])ccc6F)c6ccc3[nH]6)C=C5)C=C4)cc2)C1=O
REMARK SMILES IDX 28 1 27 2 26 3 24 4 25 5 23 7 18 8 19 9 20 10 22 11 21 12
REMARK SMILES IDX 17 13 15 14 16 15 14 17 13 18 8 19 9 20 10 21 97 22 11 23
REMARK SMILES IDX 98 24 12 25 7 26 1 27 2 28 3 29 4 30 6 31 5 32 29 33 30 34
REMARK SMILES IDX 31 35 32 36 33 38 34 39 35 40 96 41 36 42 95 43 37 44 38 45
REMARK SMILES IDX 39 46 89 47 40 48 94 49 88 50 90 51 41 52 93 53 87 54 86 55
REMARK SMILES IDX 42 57 74 58 54 59 73 60 55 61 58 62 72 63 91 64 56 65 57 66
REMARK SMILES IDX 71 68 92 69 59 70 43 71 44 72 52 73 45 74 51 75 53 76 50 77
REMARK SMILES IDX 46 78 47 79 48 80 49 81 75 82 76 83 84 84 77 85 83 86 85 87
REMARK SMILES IDX 82 88 78 89 79 90 80 91 81 92 60 93 61 94 69 95 62 96 68 97
REMARK SMILES IDX 70 98 67 99 63 100 64 101 65 102 66 103
REMARK H PARENT 26 6 17 16 31 37 90 56 58 67
REMARK Flexibility Score: inf
ROOT
ATOM      1  C   UNL A   1      31.677  31.050  26.329  1.00  0.00     0.023 C 
ENDROOT
BRANCH   1   2
ATOM      2  C   UNL A   1      32.074  29.600  25.990  1.00  0.00     0.116 C 
BRANCH   2   3
ATOM      3  N   UNL A   1      32.331  29.261  24.578  1.00  0.00    -0.352 N 
ATOM      4  C   UNL A   1      31.550  29.158  23.436  1.00  0.00     0.253 C 
ATOM      5  O   UNL A   1      32.125  29.022  22.355  1.00  0.00    -0.269 OA
ATOM      6  H   UNL A   1      33.279  29.062  24.406  1.00  0.00     0.163 HD
BRANCH   4   7
ATOM      7  C   UNL A   1      30.063  29.167  23.424  1.00  0.00     0.063 A 
ATOM      8  C   UNL A   1      29.263  27.995  23.380  1.00  0.00     0.054 A 
ATOM      9  C   UNL A   1      27.863  28.128  23.234  1.00  0.00     0.027 A 
ATOM     10  C   UNL A   1      27.247  29.374  23.144  1.00  0.00     0.002 A 
ATOM     11  C   UNL A   1      29.421  30.398  23.198  1.00  0.00     0.016 A 
ATOM     12  C   UNL A   1      28.032  30.511  23.106  1.00  0.00     0.001 A 
BRANCH   8  13
ATOM     13  N   UNL A   1      29.697  26.673  23.141  1.00  0.00    -0.324 N 
ATOM     14  C   UNL A   1      30.360  25.737  23.867  1.00  0.00     0.244 C 
ATOM     15  O   UNL A   1      30.352  24.584  23.410  1.00  0.00    -0.273 OA
ATOM     16  H   UNL A   1      29.464  26.356  22.238  1.00  0.00     0.170 HD
BRANCH  14  17
ATOM     17  C   UNL A   1      30.966  25.988  25.235  1.00  0.00     0.230 C 
BRANCH  17  18
ATOM     18  N   UNL A   1      32.147  25.216  25.498  1.00  0.00    -0.259 N 
ATOM     19  C   UNL A   1      33.503  22.165  26.420  1.00  0.00     0.029 C 
ATOM     20  C   UNL A   1      33.480  23.496  26.297  1.00  0.00     0.083 C 
ATOM     21  S   UNL A   1      34.608  24.557  25.583  1.00  0.00    -0.022 SA
ATOM     22  C   UNL A   1      32.188  24.218  26.445  1.00  0.00     0.268 C 
ATOM     23  C   UNL A   1      33.353  25.618  24.994  1.00  0.00     0.294 C 
ATOM     24  O   UNL A   1      31.343  23.959  27.288  1.00  0.00    -0.268 OA
ATOM     25  O   UNL A   1      33.574  26.596  24.308  1.00  0.00    -0.261 OA
BRANCH  19  26
ATOM     26  C   UNL A   1      34.462  21.184  25.884  1.00  0.00    -0.021 A 
ATOM     27  C   UNL A   1      32.819  19.312  25.212  1.00  0.00     0.045 C 
ATOM     28  C   UNL A   1      34.172  19.959  25.264  1.00  0.00    -0.044 A 
ATOM     29  C   UNL A   1      35.229  19.238  24.689  1.00  0.00     0.004 A 
ATOM     30  C   UNL A   1      36.546  19.683  24.762  1.00  0.00     0.000 A 
ATOM     31  C   UNL A   1      35.812  21.605  25.966  1.00  0.00     0.008 A 
ATOM     32  C   UNL A   1      36.848  20.854  25.425  1.00  0.00     0.001 A 
ENDBRANCH  19  26
ENDBRANCH  17  18
ENDBRANCH  14  17
ENDBRANCH   8  13
ENDBRANCH   4   7
ENDBRANCH   2   3
ENDBRANCH   1   2
BRANCH   1  33
ATOM     33  C   UNL A   1      32.488  31.891  27.329  1.00  0.00     0.023 C 
BRANCH  33  34
ATOM     34  C   UNL A   1      33.868  31.380  27.700  1.00  0.00     0.116 C 
BRANCH  34  35
ATOM     35  N   UNL A   1      34.820  32.392  28.161  1.00  0.00    -0.352 N 
ATOM     36  C   UNL A   1      35.936  32.250  28.980  1.00  0.00     0.251 C 
ATOM     37  H   UNL A   1      34.647  33.308  27.845  1.00  0.00     0.163 HD
ATOM     38  O   UNL A   1      36.426  33.207  29.575  1.00  0.00    -0.269 OA
BRANCH  36  39
ATOM     39  C   UNL A   1      36.602  30.927  29.116  1.00  0.00     0.039 A 
ATOM     40  C   UNL A   1      36.541  30.163  30.302  1.00  0.00     0.014 A 
ATOM     41  C   UNL A   1      37.601  30.599  28.225  1.00  0.00     0.014 A 
ATOM     42  C   UNL A   1      37.606  29.278  30.586  1.00  0.00     0.010 A 
ATOM     43  C   UNL A   1      38.105  29.343  28.293  1.00  0.00     0.010 A 
ATOM     44  C   UNL A   1      38.512  29.032  29.567  1.00  0.00    -0.014 A 
BRANCH  44  45
ATOM     45  C   UNL A   1      39.910  28.629  29.563  1.00  0.00     0.031 A 
ATOM     46  C   UNL A   1      40.262  27.267  29.131  1.00  0.00     0.074 A 
ATOM     47  C   UNL A   1      40.817  29.634  29.432  1.00  0.00     0.049 A 
ATOM     48  N   UNL A   1      41.455  26.800  29.104  1.00  0.00    -0.248 NA
ATOM     49  C   UNL A   1      39.275  26.332  28.607  1.00  0.00     0.031 C 
ATOM     50  C   UNL A   1      42.184  29.605  28.911  1.00  0.00     0.029 A 
ATOM     51  N   UNL A   1      40.689  30.945  29.899  1.00  0.00    -0.354 N 
ATOM     52  C   UNL A   1      41.460  25.678  28.304  1.00  0.00     0.074 A 
ATOM     53  C   UNL A   1      40.064  25.386  28.088  1.00  0.00     0.031 C 
ATOM     54  C   UNL A   1      42.854  30.673  29.380  1.00  0.00     0.029 A 
ATOM     55  C   UNL A   1      41.979  31.332  30.331  1.00  0.00     0.049 A 
ATOM     56  H   UNL A   1      39.868  31.487  29.921  1.00  0.00     0.167 HD
ATOM     57  C   UNL A   1      42.665  25.222  27.846  1.00  0.00     0.034 A 
ATOM     58  C   UNL A   1      42.181  31.431  31.680  1.00  0.00     0.034 A 
ATOM     59  C   UNL A   1      43.762  25.999  28.450  1.00  0.00     0.049 A 
ATOM     60  C   UNL A   1      43.028  30.283  32.218  1.00  0.00     0.074 A 
ATOM     61  C   UNL A   1      44.624  26.992  28.016  1.00  0.00     0.029 A 
ATOM     62  N   UNL A   1      43.875  25.986  29.828  1.00  0.00    -0.354 N 
ATOM     63  N   UNL A   1      43.538  29.333  31.478  1.00  0.00    -0.248 NA
ATOM     64  C   UNL A   1      43.332  30.091  33.632  1.00  0.00     0.031 C 
ATOM     65  C   UNL A   1      45.139  27.658  29.178  1.00  0.00     0.029 A 
ATOM     66  C   UNL A   1      44.635  27.032  30.307  1.00  0.00     0.049 A 
ATOM     67  H   UNL A   1      43.459  25.305  30.404  1.00  0.00     0.167 HD
ATOM     68  C   UNL A   1      44.140  28.386  32.261  1.00  0.00     0.074 A 
ATOM     69  C   UNL A   1      43.977  28.909  33.612  1.00  0.00     0.031 C 
ATOM     70  C   UNL A   1      44.702  27.241  31.752  1.00  0.00     0.034 A 
BRANCH  57  71
ATOM     71  C   UNL A   1      42.914  24.185  26.768  1.00  0.00     0.023 A 
ATOM     72  C   UNL A   1      42.326  22.911  26.927  1.00  0.00     0.031 A 
ATOM     73  C   UNL A   1      43.707  24.325  25.609  1.00  0.00     0.131 A 
ATOM     74  C   UNL A   1      42.562  21.859  26.021  1.00  0.00     0.055 A 
ATOM     75  C   UNL A   1      43.946  23.277  24.705  1.00  0.00     0.041 A 
ATOM     76  F   UNL A   1      44.286  25.475  25.263  1.00  0.00    -0.206 F 
ATOM     77  C   UNL A   1      43.380  22.032  24.911  1.00  0.00     0.022 A 
BRANCH  74  78
ATOM     78  S   UNL A   1      41.791  20.249  26.330  1.00  0.00     0.124 S 
ATOM     79  O   UNL A   1      42.371  19.425  25.275  1.00  0.00    -0.237 OA
ATOM     80  O   UNL A   1      42.225  19.957  27.692  1.00  0.00    -0.237 OA
ATOM     81  O   UNL A   1      40.362  20.524  26.184  1.00  0.00    -0.744 OA
ENDBRANCH  74  78
ENDBRANCH  57  71
BRANCH  58  82
ATOM     82  C   UNL A   1      40.975  32.085  32.313  1.00  0.00     0.023 A 
ATOM     83  C   UNL A   1      40.257  31.271  33.229  1.00  0.00     0.031 A 
ATOM     84  C   UNL A   1      40.914  33.475  32.500  1.00  0.00     0.131 A 
ATOM     85  C   UNL A   1      39.741  31.821  34.417  1.00  0.00     0.055 A 
ATOM     86  C   UNL A   1      40.293  34.025  33.634  1.00  0.00     0.041 A 
ATOM     87  F   UNL A   1      41.595  34.305  31.695  1.00  0.00    -0.206 F 
ATOM     88  C   UNL A   1      39.759  33.198  34.629  1.00  0.00     0.022 A 
BRANCH  85  89
ATOM     89  S   UNL A   1      39.366  30.676  35.791  1.00  0.00     0.124 S 
ATOM     90  O   UNL A   1      40.506  29.767  35.753  1.00  0.00    -0.237 OA
ATOM     91  O   UNL A   1      39.302  31.571  36.946  1.00  0.00    -0.237 OA
ATOM     92  O   UNL A   1      38.078  30.083  35.443  1.00  0.00    -0.744 OA
ENDBRANCH  85  89
ENDBRANCH  58  82
BRANCH  70  93
ATOM     93  C   UNL A   1      45.353  26.199  32.631  1.00  0.00     0.023 A 
ATOM     94  C   UNL A   1      44.611  25.529  33.610  1.00  0.00     0.031 A 
ATOM     95  C   UNL A   1      46.726  25.864  32.562  1.00  0.00     0.131 A 
ATOM     96  C   UNL A   1      45.179  24.484  34.352  1.00  0.00     0.055 A 
ATOM     97  C   UNL A   1      47.321  24.916  33.398  1.00  0.00     0.041 A 
ATOM     98  F   UNL A   1      47.549  26.392  31.645  1.00  0.00    -0.206 F 
ATOM     99  C   UNL A   1      46.538  24.192  34.281  1.00  0.00     0.022 A 
BRANCH  96 100
ATOM    100  S   UNL A   1      44.061  23.420  35.293  1.00  0.00     0.124 S 
ATOM    101  O   UNL A   1      43.812  24.204  36.498  1.00  0.00    -0.237 OA
ATOM    102  O   UNL A   1      42.934  23.299  34.372  1.00  0.00    -0.237 OA
ATOM    103  O   UNL A   1      44.837  22.198  35.491  1.00  0.00    -0.744 OA
ENDBRANCH  96 100
ENDBRANCH  70  93
ENDBRANCH  44  45
ENDBRANCH  36  39
ENDBRANCH  34  35
ENDBRANCH  33  34
ENDBRANCH   1  33
TORSDOF 18
ENDMDL
MODEL 2
REMARK VINA RESULT:     -13.3      2.777      4.673
REMARK SMILES Cc1ccccc1/C=C1\SC(=O)N(CC(=O)Nc2ccccc2C(=O)NCCCCNC(=O)c2ccc(-c3c4nc(c(-c5cc(S(=O)(=O)[O-])ccc5F)c5ccc([nH]5)c(-c5cc(S(=O)(=O)[O-])ccc5F)c5nc(c(-c6cc(S(=O)(=O)[O-])ccc6F)c6ccc3[nH]6)C=C5)C=C4)cc2)C1=O
REMARK SMILES IDX 28 1 27 2 26 3 24 4 25 5 23 7 18 8 19 9 20 10 22 11 21 12
REMARK SMILES IDX 17 13 15 14 16 15 14 17 13 18 8 19 9 20 10 21 97 22 11 23
REMARK SMILES IDX 98 24 12 25 7 26 1 27 2 28 3 29 4 30 6 31 5 32 29 33 30 34
REMARK SMILES IDX 31 35 32 36 33 38 34 39 35 40 96 41 36 42 95 43 37 44 38 45
REMARK SMILES IDX 39 46 89 47 40 48 94 49 88 50 90 51 41 52 93 53 87 54 86 55
REMARK SMILES IDX 42 57 74 58 54 59 73 60 55 61 58 62 72 63 91 64 56 65 57 66
REMARK SMILES IDX 71 68 92 69 59 70 43 71 44 72 52 73 45 74 51 75 53 76 50 77
REMARK SMILES IDX 46 78 47 79 48 80 49 81 75 82 76 83 84 84 77 85 83 86 85 87
REMARK SMILES IDX 82 88 78 89 79 90 80 91 81 92 60 93 61 94 69 95 62 96 68 97
REMARK SMILES IDX 70 98 67 99 63 100 64 101 65 102 66 103
REMARK H PARENT 26 6 17 16 31 37 90 56 58 67
REMARK Flexibility Score: inf
ROOT
ATOM      1  C   UNL A   1      32.825  36.043  30.563  1.00  0.00     0.023 C 
ENDROOT
BRANCH   1   2
ATOM      2  C   UNL A   1      33.494  35.553  29.263  1.00  0.00     0.116 C 
BRANCH   2   3
ATOM      3  N   UNL A   1      32.680  34.771  28.315  1.00  0.00    -0.352 N 
ATOM      4  C   UNL A   1      32.805  33.531  27.705  1.00  0.00     0.253 C 
ATOM      5  O   UNL A   1      31.834  33.092  27.087  1.00  0.00    -0.269 OA
ATOM      6  H   UNL A   1      31.854  35.238  28.053  1.00  0.00     0.163 HD
BRANCH   4   7
ATOM      7  C   UNL A   1      34.040  32.703  27.717  1.00  0.00     0.063 A 
ATOM      8  C   UNL A   1      34.044  31.283  27.671  1.00  0.00     0.054 A 
ATOM      9  C   UNL A   1      35.272  30.599  27.826  1.00  0.00     0.027 A 
ATOM     10  C   UNL A   1      36.475  31.275  28.009  1.00  0.00     0.002 A 
ATOM     11  C   UNL A   1      35.251  33.344  28.035  1.00  0.00     0.016 A 
ATOM     12  C   UNL A   1      36.460  32.651  28.134  1.00  0.00     0.001 A 
BRANCH   8  13
ATOM     13  N   UNL A   1      32.936  30.421  27.810  1.00  0.00    -0.324 N 
ATOM     14  C   UNL A   1      32.147  29.730  26.947  1.00  0.00     0.244 C 
ATOM     15  O   UNL A   1      31.409  28.870  27.451  1.00  0.00    -0.273 OA
ATOM     16  H   UNL A   1      32.674  30.289  28.750  1.00  0.00     0.170 HD
BRANCH  14  17
ATOM     17  C   UNL A   1      32.222  29.850  25.437  1.00  0.00     0.230 C 
BRANCH  17  18
ATOM     18  N   UNL A   1      32.165  28.591  24.750  1.00  0.00    -0.259 N 
ATOM     19  C   UNL A   1      33.379  25.359  24.461  1.00  0.00     0.029 C 
ATOM     20  C   UNL A   1      32.813  26.488  24.021  1.00  0.00     0.083 C 
ATOM     21  S   UNL A   1      31.334  26.736  23.211  1.00  0.00    -0.022 SA
ATOM     22  C   UNL A   1      33.273  27.792  24.568  1.00  0.00     0.268 C 
ATOM     23  C   UNL A   1      31.056  28.256  24.025  1.00  0.00     0.294 C 
ATOM     24  O   UNL A   1      34.440  28.081  24.784  1.00  0.00    -0.268 OA
ATOM     25  O   UNL A   1      30.047  28.916  23.877  1.00  0.00    -0.261 OA
BRANCH  19  26
ATOM     26  C   UNL A   1      32.851  23.984  24.479  1.00  0.00    -0.021 A 
ATOM     27  C   UNL A   1      33.301  23.328  22.025  1.00  0.00     0.045 C 
ATOM     28  C   UNL A   1      32.891  23.042  23.439  1.00  0.00    -0.044 A 
ATOM     29  C   UNL A   1      32.462  21.735  23.710  1.00  0.00     0.004 A 
ATOM     30  C   UNL A   1      31.961  21.369  24.957  1.00  0.00     0.000 A 
ATOM     31  C   UNL A   1      32.317  23.596  25.732  1.00  0.00     0.008 A 
ATOM     32  C   UNL A   1      31.860  22.305  25.966  1.00  0.00     0.001 A 
ENDBRANCH  19  26
ENDBRANCH  17  18
ENDBRANCH  14  17
ENDBRANCH   8  13
ENDBRANCH   4   7
ENDBRANCH   2   3
ENDBRANCH   1   2
BRANCH   1  33
ATOM     33  C   UNL A   1      33.658  36.460  31.785  1.00  0.00     0.023 C 
BRANCH  33  34
ATOM     34  C   UNL A   1      34.050  35.365  32.760  1.00  0.00     0.116 C 
BRANCH  34  35
ATOM     35  N   UNL A   1      33.798  33.993  32.315  1.00  0.00    -0.352 N 
ATOM     36  C   UNL A   1      34.691  33.043  31.828  1.00  0.00     0.251 C 
ATOM     37  H   UNL A   1      32.860  33.700  32.366  1.00  0.00     0.163 HD
ATOM     38  O   UNL A   1      34.310  32.082  31.162  1.00  0.00    -0.269 OA
BRANCH  36  39
ATOM     39  C   UNL A   1      36.139  33.140  32.152  1.00  0.00     0.039 A 
ATOM     40  C   UNL A   1      37.024  33.972  31.435  1.00  0.00     0.014 A 
ATOM     41  C   UNL A   1      36.713  32.139  32.906  1.00  0.00     0.014 A 
ATOM     42  C   UNL A   1      38.388  33.606  31.370  1.00  0.00     0.010 A 
ATOM     43  C   UNL A   1      38.001  32.312  33.289  1.00  0.00     0.010 A 
ATOM     44  C   UNL A   1      38.811  32.596  32.218  1.00  0.00    -0.014 A 
BRANCH  44  45
ATOM     45  C   UNL A   1      39.903  31.636  32.147  1.00  0.00     0.031 A 
ATOM     46  C   UNL A   1      39.756  30.447  31.294  1.00  0.00     0.074 A 
ATOM     47  C   UNL A   1      41.143  32.127  32.414  1.00  0.00     0.049 A 
ATOM     48  N   UNL A   1      40.643  29.530  31.169  1.00  0.00    -0.248 NA
ATOM     49  C   UNL A   1      38.600  30.238  30.432  1.00  0.00     0.031 C 
ATOM     50  C   UNL A   1      42.457  31.647  31.984  1.00  0.00     0.029 A 
ATOM     51  N   UNL A   1      41.463  33.165  33.293  1.00  0.00    -0.354 N 
ATOM     52  C   UNL A   1      40.354  28.803  30.035  1.00  0.00     0.074 A 
ATOM     53  C   UNL A   1      39.029  29.233  29.662  1.00  0.00     0.031 C 
ATOM     54  C   UNL A   1      43.394  32.125  32.823  1.00  0.00     0.029 A 
ATOM     55  C   UNL A   1      42.689  32.801  33.896  1.00  0.00     0.049 A 
ATOM     56  H   UNL A   1      40.940  33.983  33.458  1.00  0.00     0.167 HD
ATOM     57  C   UNL A   1      41.339  28.014  29.510  1.00  0.00     0.034 A 
ATOM     58  C   UNL A   1      42.648  32.409  35.206  1.00  0.00     0.034 A 
ATOM     59  C   UNL A   1      42.516  28.016  30.398  1.00  0.00     0.049 A 
ATOM     60  C   UNL A   1      42.842  30.905  35.362  1.00  0.00     0.074 A 
ATOM     61  C   UNL A   1      43.769  28.603  30.374  1.00  0.00     0.029 A 
ATOM     62  N   UNL A   1      42.344  27.561  31.693  1.00  0.00    -0.354 N 
ATOM     63  N   UNL A   1      43.062  30.083  34.368  1.00  0.00    -0.248 NA
ATOM     64  C   UNL A   1      42.763  30.203  36.638  1.00  0.00     0.031 C 
ATOM     65  C   UNL A   1      44.271  28.609  31.718  1.00  0.00     0.029 A 
ATOM     66  C   UNL A   1      43.350  27.978  32.538  1.00  0.00     0.049 A 
ATOM     67  H   UNL A   1      41.587  27.001  31.979  1.00  0.00     0.167 HD
ATOM     68  C   UNL A   1      43.070  28.789  34.809  1.00  0.00     0.074 A 
ATOM     69  C   UNL A   1      42.871  28.919  36.248  1.00  0.00     0.031 C 
ATOM     70  C   UNL A   1      43.213  27.712  33.968  1.00  0.00     0.034 A 
BRANCH  57  71
ATOM     71  C   UNL A   1      41.356  27.330  28.156  1.00  0.00     0.023 A 
ATOM     72  C   UNL A   1      41.390  25.918  28.128  1.00  0.00     0.031 A 
ATOM     73  C   UNL A   1      41.375  27.943  26.885  1.00  0.00     0.131 A 
ATOM     74  C   UNL A   1      41.486  25.196  26.923  1.00  0.00     0.055 A 
ATOM     75  C   UNL A   1      41.473  27.226  25.683  1.00  0.00     0.041 A 
ATOM     76  F   UNL A   1      41.283  29.263  26.718  1.00  0.00    -0.206 F 
ATOM     77  C   UNL A   1      41.538  25.844  25.695  1.00  0.00     0.022 A 
BRANCH  74  78
ATOM     78  S   UNL A   1      41.560  23.388  26.992  1.00  0.00     0.124 S 
ATOM     79  O   UNL A   1      40.232  23.009  26.519  1.00  0.00    -0.237 OA
ATOM     80  O   UNL A   1      42.674  23.091  26.098  1.00  0.00    -0.237 OA
ATOM     81  O   UNL A   1      41.814  23.112  28.406  1.00  0.00    -0.744 OA
ENDBRANCH  74  78
ENDBRANCH  57  71
BRANCH  58  82
ATOM     82  C   UNL A   1      41.707  33.318  35.963  1.00  0.00     0.023 A 
ATOM     83  C   UNL A   1      40.351  32.895  35.991  1.00  0.00     0.031 A 
ATOM     84  C   UNL A   1      42.158  34.108  37.031  1.00  0.00     0.131 A 
ATOM     85  C   UNL A   1      39.586  33.035  37.164  1.00  0.00     0.055 A 
ATOM     86  C   UNL A   1      41.344  34.341  38.153  1.00  0.00     0.041 A 
ATOM     87  F   UNL A   1      43.435  34.515  37.090  1.00  0.00    -0.206 F 
ATOM     88  C   UNL A   1      40.078  33.754  38.251  1.00  0.00     0.022 A 
BRANCH  85  89
ATOM     89  S   UNL A   1      38.103  31.982  37.342  1.00  0.00     0.124 S 
ATOM     90  O   UNL A   1      37.978  31.870  38.791  1.00  0.00    -0.237 OA
ATOM     91  O   UNL A   1      37.069  32.769  36.671  1.00  0.00    -0.237 OA
ATOM     92  O   UNL A   1      38.437  30.744  36.643  1.00  0.00    -0.744 OA
ENDBRANCH  85  89
ENDBRANCH  58  82
BRANCH  70  93
ATOM     93  C   UNL A   1      43.208  26.287  34.470  1.00  0.00     0.023 A 
ATOM     94  C   UNL A   1      44.332  25.470  34.305  1.00  0.00     0.031 A 
ATOM     95  C   UNL A   1      42.089  25.678  35.086  1.00  0.00     0.131 A 
ATOM     96  C   UNL A   1      44.376  24.186  34.866  1.00  0.00     0.055 A 
ATOM     97  C   UNL A   1      42.090  24.351  35.523  1.00  0.00     0.041 A 
ATOM     98  F   UNL A   1      40.959  26.349  35.349  1.00  0.00    -0.206 F 
ATOM     99  C   UNL A   1      43.252  23.603  35.445  1.00  0.00     0.022 A 
BRANCH  96 100
ATOM    100  S   UNL A   1      45.983  23.364  34.955  1.00  0.00     0.124 S 
ATOM    101  O   UNL A   1      45.671  22.004  34.529  1.00  0.00    -0.237 OA
ATOM    102  O   UNL A   1      46.766  24.159  34.012  1.00  0.00    -0.237 OA
ATOM    103  O   UNL A   1      46.364  23.509  36.358  1.00  0.00    -0.744 OA
ENDBRANCH  96 100
ENDBRANCH  70  93
ENDBRANCH  44  45
ENDBRANCH  36  39
ENDBRANCH  34  35
ENDBRANCH  33  34
ENDBRANCH   1  33
TORSDOF 18
ENDMDL
MODEL 3
REMARK VINA RESULT:     -13.3      2.045      2.525
REMARK SMILES Cc1ccccc1/C=C1\SC(=O)N(CC(=O)Nc2ccccc2C(=O)NCCCCNC(=O)c2ccc(-c3c4nc(c(-c5cc(S(=O)(=O)[O-])ccc5F)c5ccc([nH]5)c(-c5cc(S(=O)(=O)[O-])ccc5F)c5nc(c(-c6cc(S(=O)(=O)[O-])ccc6F)c6ccc3[nH]6)C=C5)C=C4)cc2)C1=O
REMARK SMILES IDX 28 1 27 2 26 3 24 4 25 5 23 7 18 8 19 9 20 10 22 11 21 12
REMARK SMILES IDX 17 13 15 14 16 15 14 17 13 18 8 19 9 20 10 21 97 22 11 23
REMARK SMILES IDX 98 24 12 25 7 26 1 27 2 28 3 29 4 30 6 31 5 32 29 33 30 34
REMARK SMILES IDX 31 35 32 36 33 38 34 39 35 40 96 41 36 42 95 43 37 44 38 45
REMARK SMILES IDX 39 46 89 47 40 48 94 49 88 50 90 51 41 52 93 53 87 54 86 55
REMARK SMILES IDX 42 57 74 58 54 59 73 60 55 61 58 62 72 63 91 64 56 65 57 66
REMARK SMILES IDX 71 68 92 69 59 70 43 71 44 72 52 73 45 74 51 75 53 76 50 77
REMARK SMILES IDX 46 78 47 79 48 80 49 81 75 82 76 83 84 84 77 85 83 86 85 87
REMARK SMILES IDX 82 88 78 89 79 90 80 91 81 92 60 93 61 94 69 95 62 96 68 97
REMARK SMILES IDX 70 98 67 99 63 100 64 101 65 102 66 103
REMARK H PARENT 26 6 17 16 31 37 90 56 58 67
REMARK Flexibility Score: inf
ROOT
ATOM      1  C   UNL A   1      32.426  30.723  26.491  1.00  0.00     0.023 C 
ENDROOT
BRANCH   1   2
ATOM      2  C   UNL A   1      32.163  29.323  25.904  1.00  0.00     0.116 C 
BRANCH   2   3
ATOM      3  N   UNL A   1      32.385  29.121  24.461  1.00  0.00    -0.352 N 
ATOM      4  C   UNL A   1      31.580  29.148  23.330  1.00  0.00     0.253 C 
ATOM      5  O   UNL A   1      32.131  29.109  22.229  1.00  0.00    -0.269 OA
ATOM      6  H   UNL A   1      33.325  28.921  24.249  1.00  0.00     0.163 HD
BRANCH   4   7
ATOM      7  C   UNL A   1      30.094  29.188  23.351  1.00  0.00     0.063 A 
ATOM      8  C   UNL A   1      29.268  28.033  23.323  1.00  0.00     0.054 A 
ATOM      9  C   UNL A   1      27.869  28.196  23.208  1.00  0.00     0.027 A 
ATOM     10  C   UNL A   1      27.277  29.455  23.134  1.00  0.00     0.002 A 
ATOM     11  C   UNL A   1      29.473  30.433  23.141  1.00  0.00     0.016 A 
ATOM     12  C   UNL A   1      28.085  30.575  23.080  1.00  0.00     0.001 A 
BRANCH   8  13
ATOM     13  N   UNL A   1      29.669  26.703  23.072  1.00  0.00    -0.324 N 
ATOM     14  C   UNL A   1      30.322  25.750  23.785  1.00  0.00     0.244 C 
ATOM     15  O   UNL A   1      30.282  24.599  23.324  1.00  0.00    -0.273 OA
ATOM     16  H   UNL A   1      29.415  26.395  22.172  1.00  0.00     0.170 HD
BRANCH  14  17
ATOM     17  C   UNL A   1      30.955  25.982  25.144  1.00  0.00     0.230 C 
BRANCH  17  18
ATOM     18  N   UNL A   1      32.128  25.191  25.381  1.00  0.00    -0.259 N 
ATOM     19  C   UNL A   1      33.453  22.142  26.355  1.00  0.00     0.029 C 
ATOM     20  C   UNL A   1      33.456  23.468  26.183  1.00  0.00     0.083 C 
ATOM     21  S   UNL A   1      34.575  24.473  25.380  1.00  0.00    -0.022 SA
ATOM     22  C   UNL A   1      32.190  24.227  26.363  1.00  0.00     0.268 C 
ATOM     23  C   UNL A   1      33.319  25.543  24.808  1.00  0.00     0.294 C 
ATOM     24  O   UNL A   1      31.378  24.020  27.252  1.00  0.00    -0.268 OA
ATOM     25  O   UNL A   1      33.531  26.490  24.078  1.00  0.00    -0.261 OA
BRANCH  19  26
ATOM     26  C   UNL A   1      34.364  21.118  25.812  1.00  0.00    -0.021 A 
ATOM     27  C   UNL A   1      32.636  19.307  25.186  1.00  0.00     0.045 C 
ATOM     28  C   UNL A   1      34.014  19.900  25.209  1.00  0.00    -0.044 A 
ATOM     29  C   UNL A   1      35.031  19.131  24.625  1.00  0.00     0.004 A 
ATOM     30  C   UNL A   1      36.366  19.524  24.671  1.00  0.00     0.000 A 
ATOM     31  C   UNL A   1      35.730  21.485  25.868  1.00  0.00     0.008 A 
ATOM     32  C   UNL A   1      36.726  20.688  25.317  1.00  0.00     0.001 A 
ENDBRANCH  19  26
ENDBRANCH  17  18
ENDBRANCH  14  17
ENDBRANCH   8  13
ENDBRANCH   4   7
ENDBRANCH   2   3
ENDBRANCH   1   2
BRANCH   1  33
ATOM     33  C   UNL A   1      33.423  30.936  27.642  1.00  0.00     0.023 C 
BRANCH  33  34
ATOM     34  C   UNL A   1      34.843  30.446  27.425  1.00  0.00     0.116 C 
BRANCH  34  35
ATOM     35  N   UNL A   1      35.902  31.424  27.676  1.00  0.00    -0.352 N 
ATOM     36  C   UNL A   1      37.129  31.257  28.310  1.00  0.00     0.251 C 
ATOM     37  H   UNL A   1      35.720  32.335  27.350  1.00  0.00     0.163 HD
ATOM     38  O   UNL A   1      37.753  32.210  28.771  1.00  0.00    -0.269 OA
BRANCH  36  39
ATOM     39  C   UNL A   1      37.749  29.907  28.399  1.00  0.00     0.039 A 
ATOM     40  C   UNL A   1      37.355  28.952  29.360  1.00  0.00     0.014 A 
ATOM     41  C   UNL A   1      38.971  29.704  27.796  1.00  0.00     0.014 A 
ATOM     42  C   UNL A   1      38.304  27.994  29.783  1.00  0.00     0.010 A 
ATOM     43  C   UNL A   1      39.455  28.438  27.786  1.00  0.00     0.010 A 
ATOM     44  C   UNL A   1      39.474  27.896  29.048  1.00  0.00    -0.014 A 
BRANCH  44  45
ATOM     45  C   UNL A   1      40.819  27.450  29.381  1.00  0.00     0.031 A 
ATOM     46  C   UNL A   1      41.345  26.228  28.753  1.00  0.00     0.074 A 
ATOM     47  C   UNL A   1      41.678  28.418  29.801  1.00  0.00     0.049 A 
ATOM     48  N   UNL A   1      42.505  25.735  28.986  1.00  0.00    -0.248 NA
ATOM     49  C   UNL A   1      40.613  25.497  27.727  1.00  0.00     0.031 C 
ATOM     50  C   UNL A   1      43.139  28.466  29.746  1.00  0.00     0.029 A 
ATOM     51  N   UNL A   1      41.355  29.572  30.518  1.00  0.00    -0.354 N 
ATOM     52  C   UNL A   1      42.808  24.852  27.973  1.00  0.00     0.074 A 
ATOM     53  C   UNL A   1      41.565  24.682  27.262  1.00  0.00     0.031 C 
ATOM     54  C   UNL A   1      43.582  29.353  30.656  1.00  0.00     0.029 A 
ATOM     55  C   UNL A   1      42.425  29.786  31.417  1.00  0.00     0.049 A 
ATOM     56  H   UNL A   1      40.545  30.125  30.417  1.00  0.00     0.167 HD
ATOM     57  C   UNL A   1      44.114  24.478  27.817  1.00  0.00     0.034 A 
ATOM     58  C   UNL A   1      42.189  29.532  32.740  1.00  0.00     0.034 A 
ATOM     59  C   UNL A   1      44.932  25.032  28.911  1.00  0.00     0.049 A 
ATOM     60  C   UNL A   1      42.871  28.252  33.210  1.00  0.00     0.074 A 
ATOM     61  C   UNL A   1      45.844  26.066  29.035  1.00  0.00     0.029 A 
ATOM     62  N   UNL A   1      44.606  24.666  30.205  1.00  0.00    -0.354 N 
ATOM     63  N   UNL A   1      43.627  27.499  32.453  1.00  0.00    -0.248 NA
ATOM     64  C   UNL A   1      42.723  27.696  34.551  1.00  0.00     0.031 C 
ATOM     65  C   UNL A   1      45.939  26.395  30.429  1.00  0.00     0.029 A 
ATOM     66  C   UNL A   1      45.133  25.526  31.145  1.00  0.00     0.049 A 
ATOM     67  H   UNL A   1      44.060  23.879  30.429  1.00  0.00     0.167 HD
ATOM     68  C   UNL A   1      43.992  26.362  33.120  1.00  0.00     0.074 A 
ATOM     69  C   UNL A   1      43.390  26.533  34.437  1.00  0.00     0.031 C 
ATOM     70  C   UNL A   1      44.733  25.360  32.541  1.00  0.00     0.034 A 
BRANCH  57  71
ATOM     71  C   UNL A   1      44.732  23.737  26.647  1.00  0.00     0.023 A 
ATOM     72  C   UNL A   1      44.323  22.405  26.416  1.00  0.00     0.031 A 
ATOM     73  C   UNL A   1      45.717  24.212  25.754  1.00  0.00     0.131 A 
ATOM     74  C   UNL A   1      44.896  21.611  25.405  1.00  0.00     0.055 A 
ATOM     75  C   UNL A   1      46.291  23.422  24.746  1.00  0.00     0.041 A 
ATOM     76  F   UNL A   1      46.174  25.464  25.782  1.00  0.00    -0.206 F 
ATOM     77  C   UNL A   1      45.889  22.110  24.570  1.00  0.00     0.022 A 
BRANCH  74  78
ATOM     78  S   UNL A   1      44.330  19.902  25.209  1.00  0.00     0.124 S 
ATOM     79  O   UNL A   1      43.112  19.889  26.013  1.00  0.00    -0.237 OA
ATOM     80  O   UNL A   1      44.153  19.799  23.765  1.00  0.00    -0.237 OA
ATOM     81  O   UNL A   1      45.437  19.114  25.751  1.00  0.00    -0.744 OA
ENDBRANCH  74  78
ENDBRANCH  57  71
BRANCH  58  82
ATOM     82  C   UNL A   1      40.819  30.054  33.105  1.00  0.00     0.023 A 
ATOM     83  C   UNL A   1      40.682  31.468  33.070  1.00  0.00     0.031 A 
ATOM     84  C   UNL A   1      39.664  29.288  32.883  1.00  0.00     0.131 A 
ATOM     85  C   UNL A   1      39.506  32.056  32.568  1.00  0.00     0.055 A 
ATOM     86  C   UNL A   1      38.458  29.895  32.493  1.00  0.00     0.041 A 
ATOM     87  F   UNL A   1      39.723  27.948  32.867  1.00  0.00    -0.206 F 
ATOM     88  C   UNL A   1      38.391  31.275  32.274  1.00  0.00     0.022 A 
BRANCH  85  89
ATOM     89  S   UNL A   1      39.600  33.792  32.004  1.00  0.00     0.124 S 
ATOM     90  O   UNL A   1      40.708  33.748  31.057  1.00  0.00    -0.237 OA
ATOM     91  O   UNL A   1      38.274  34.012  31.426  1.00  0.00    -0.237 OA
ATOM     92  O   UNL A   1      39.841  34.567  33.218  1.00  0.00    -0.744 OA
ENDBRANCH  85  89
ENDBRANCH  58  82
BRANCH  70  93
ATOM     93  C   UNL A   1      45.118  24.104  33.288  1.00  0.00     0.023 A 
ATOM     94  C   UNL A   1      46.377  23.988  33.885  1.00  0.00     0.031 A 
ATOM     95  C   UNL A   1      44.276  22.971  33.399  1.00  0.00     0.131 A 
ATOM     96  C   UNL A   1      46.700  22.874  34.673  1.00  0.00     0.055 A 
ATOM     97  C   UNL A   1      44.655  21.806  34.072  1.00  0.00     0.041 A 
ATOM     98  F   UNL A   1      43.027  22.953  32.916  1.00  0.00    -0.206 F 
ATOM     99  C   UNL A   1      45.864  21.764  34.745  1.00  0.00     0.022 A 
BRANCH  96 100
ATOM    100  S   UNL A   1      48.168  22.985  35.720  1.00  0.00     0.124 S 
ATOM    101  O   UNL A   1      47.929  21.949  36.718  1.00  0.00    -0.237 OA
ATOM    102  O   UNL A   1      49.231  22.703  34.758  1.00  0.00    -0.237 OA
ATOM    103  O   UNL A   1      48.129  24.357  36.220  1.00  0.00    -0.744 OA
ENDBRANCH  96 100
ENDBRANCH  70  93
ENDBRANCH  44  45
ENDBRANCH  36  39
ENDBRANCH  34  35
ENDBRANCH  33  34
ENDBRANCH   1  33
TORSDOF 18
ENDMDL
