MODEL 1
REMARK VINA RESULT:     -11.7      0.000      0.000
REMARK SMILES O=C(NCCCCNC(=O)[C@@H]1CC=CC[C@@H]1C(=O)Nc1sc2c(c1C(=O)N1CCCCC1)CCCC2)c1ccc(-c2c3nc(c(-c4cc(S(=O)(=O)[O-])ccc4F)c4ccc([nH]4)c(-c4cc(S(=O)(=O)[O-])ccc4F)c4nc(c(-c5cc(S(=O)(=O)[O-])ccc5F)c5ccc2[nH]5)C=C4)C=C3)cc1
REMARK SMILES IDX 5 1 4 2 3 3 1 4 2 5 37 7 38 8 99 9 39 10 98 11 40 12 41 13
REMARK SMILES IDX 42 14 92 15 43 16 97 17 91 18 93 19 44 20 96 21 90 22 89 23
REMARK SMILES IDX 45 25 77 26 57 27 76 28 58 29 61 30 75 31 94 32 59 33 60 34
REMARK SMILES IDX 74 36 95 37 62 38 46 39 47 40 55 41 48 42 54 43 56 44 53 45
REMARK SMILES IDX 49 46 50 47 51 48 52 49 78 50 79 51 87 52 80 53 86 54 88 55
REMARK SMILES IDX 85 56 81 57 82 58 83 59 84 60 63 61 64 62 72 63 65 64 71 65
REMARK SMILES IDX 73 66 70 67 66 68 67 69 68 70 69 71 6 72 7 73 8 74 9 75
REMARK SMILES IDX 10 77 11 78 12 79 16 80 13 81 15 82 14 83 17 84 18 85 19 86
REMARK SMILES IDX 20 88 21 89 24 90 22 91 23 92 36 93 33 94 35 95 34 96 25 97
REMARK SMILES IDX 26 98 27 99 28 100 32 101 29 102 31 103 30 104
REMARK H PARENT 3 6 93 24 61 35 8 76 19 87
REMARK Flexibility Score: inf
ROOT
ATOM      1  C   UNL A   1      39.289  21.179  25.665  1.00  0.00     0.023 C 
ENDROOT
BRANCH   1   2
ATOM      2  C   UNL A   1      39.883  20.227  26.696  1.00  0.00     0.116 C 
BRANCH   2   3
ATOM      3  N   UNL A   1      41.002  19.458  26.167  1.00  0.00    -0.352 N 
ATOM      4  O   UNL A   1      43.015  19.129  25.203  1.00  0.00    -0.269 OA
ATOM      5  C   UNL A   1      42.250  19.891  25.791  1.00  0.00     0.251 C 
ATOM      6  H   UNL A   1      40.840  18.491  26.062  1.00  0.00     0.163 HD
BRANCH   5   7
ATOM      7  C   UNL A   1      42.663  21.278  26.088  1.00  0.00     0.039 A 
ATOM      8  C   UNL A   1      42.910  21.673  27.405  1.00  0.00     0.014 A 
ATOM      9  C   UNL A   1      42.805  22.191  25.041  1.00  0.00     0.014 A 
ATOM     10  C   UNL A   1      43.167  23.010  27.690  1.00  0.00     0.010 A 
ATOM     11  C   UNL A   1      43.148  23.517  25.322  1.00  0.00     0.010 A 
ATOM     12  C   UNL A   1      43.310  23.942  26.651  1.00  0.00    -0.014 A 
BRANCH  12  13
ATOM     13  C   UNL A   1      43.692  25.342  26.965  1.00  0.00     0.031 A 
ATOM     14  C   UNL A   1      45.109  25.813  26.805  1.00  0.00     0.074 A 
ATOM     15  C   UNL A   1      42.745  26.185  27.419  1.00  0.00     0.049 A 
ATOM     16  N   UNL A   1      45.632  26.976  27.101  1.00  0.00    -0.248 NA
ATOM     17  C   UNL A   1      46.067  24.846  26.252  1.00  0.00     0.031 C 
ATOM     18  C   UNL A   1      41.336  25.834  27.618  1.00  0.00     0.029 A 
ATOM     19  N   UNL A   1      42.817  27.499  27.804  1.00  0.00    -0.354 N 
ATOM     20  C   UNL A   1      46.984  26.877  26.791  1.00  0.00     0.074 A 
ATOM     21  C   UNL A   1      47.202  25.525  26.319  1.00  0.00     0.031 C 
ATOM     22  C   UNL A   1      40.676  26.906  28.075  1.00  0.00     0.029 A 
ATOM     23  C   UNL A   1      41.625  27.995  28.278  1.00  0.00     0.049 A 
ATOM     24  H   UNL A   1      43.641  28.035  27.748  1.00  0.00     0.167 HD
ATOM     25  C   UNL A   1      47.947  27.831  26.888  1.00  0.00     0.034 A 
ATOM     26  C   UNL A   1      41.331  29.174  28.859  1.00  0.00     0.034 A 
ATOM     27  C   UNL A   1      47.699  29.171  27.374  1.00  0.00     0.049 A 
ATOM     28  C   UNL A   1      42.423  30.195  29.018  1.00  0.00     0.074 A 
ATOM     29  C   UNL A   1      48.585  30.230  27.470  1.00  0.00     0.029 A 
ATOM     30  N   UNL A   1      46.483  29.629  27.869  1.00  0.00    -0.354 N 
ATOM     31  N   UNL A   1      43.690  30.102  28.690  1.00  0.00    -0.248 NA
ATOM     32  C   UNL A   1      42.046  31.479  29.620  1.00  0.00     0.031 C 
ATOM     33  C   UNL A   1      47.933  31.293  28.104  1.00  0.00     0.029 A 
ATOM     34  C   UNL A   1      46.610  30.937  28.315  1.00  0.00     0.049 A 
ATOM     35  H   UNL A   1      45.651  29.102  27.899  1.00  0.00     0.167 HD
ATOM     36  C   UNL A   1      44.260  31.326  29.024  1.00  0.00     0.074 A 
ATOM     37  C   UNL A   1      43.195  32.141  29.573  1.00  0.00     0.031 C 
ATOM     38  C   UNL A   1      45.545  31.739  28.879  1.00  0.00     0.034 A 
BRANCH  25  39
ATOM     39  C   UNL A   1      49.359  27.435  26.519  1.00  0.00     0.023 A 
ATOM     40  C   UNL A   1      49.920  27.753  25.269  1.00  0.00     0.031 A 
ATOM     41  C   UNL A   1      50.145  26.686  27.415  1.00  0.00     0.131 A 
ATOM     42  C   UNL A   1      51.177  27.241  24.912  1.00  0.00     0.055 A 
ATOM     43  C   UNL A   1      51.435  26.262  27.090  1.00  0.00     0.041 A 
ATOM     44  F   UNL A   1      49.663  26.332  28.616  1.00  0.00    -0.206 F 
ATOM     45  C   UNL A   1      51.950  26.520  25.825  1.00  0.00     0.022 A 
BRANCH  42  46
ATOM     46  S   UNL A   1      51.702  27.370  23.180  1.00  0.00     0.124 S 
ATOM     47  O   UNL A   1      50.452  27.096  22.472  1.00  0.00    -0.237 OA
ATOM     48  O   UNL A   1      52.194  28.740  23.101  1.00  0.00    -0.237 OA
ATOM     49  O   UNL A   1      52.719  26.329  23.052  1.00  0.00    -0.744 OA
ENDBRANCH  42  46
ENDBRANCH  25  39
BRANCH  26  50
ATOM     50  C   UNL A   1      39.956  29.409  29.381  1.00  0.00     0.023 A 
ATOM     51  C   UNL A   1      39.685  29.415  30.757  1.00  0.00     0.031 A 
ATOM     52  C   UNL A   1      38.891  29.658  28.495  1.00  0.00     0.131 A 
ATOM     53  C   UNL A   1      38.375  29.641  31.206  1.00  0.00     0.055 A 
ATOM     54  C   UNL A   1      37.602  29.935  28.949  1.00  0.00     0.041 A 
ATOM     55  F   UNL A   1      39.100  29.672  27.168  1.00  0.00    -0.206 F 
ATOM     56  C   UNL A   1      37.336  29.919  30.314  1.00  0.00     0.022 A 
BRANCH  53  57
ATOM     57  S   UNL A   1      38.031  29.519  32.983  1.00  0.00     0.124 S 
ATOM     58  O   UNL A   1      37.215  30.706  33.209  1.00  0.00    -0.237 OA
ATOM     59  O   UNL A   1      37.339  28.236  33.070  1.00  0.00    -0.237 OA
ATOM     60  O   UNL A   1      39.360  29.550  33.590  1.00  0.00    -0.744 OA
ENDBRANCH  53  57
ENDBRANCH  26  50
BRANCH  38  61
ATOM     61  C   UNL A   1      45.863  33.160  29.274  1.00  0.00     0.023 A 
ATOM     62  C   UNL A   1      45.702  34.236  28.384  1.00  0.00     0.031 A 
ATOM     63  C   UNL A   1      46.316  33.440  30.576  1.00  0.00     0.131 A 
ATOM     64  C   UNL A   1      46.027  35.538  28.798  1.00  0.00     0.055 A 
ATOM     65  C   UNL A   1      46.580  34.742  31.000  1.00  0.00     0.041 A 
ATOM     66  F   UNL A   1      46.495  32.449  31.464  1.00  0.00    -0.206 F 
ATOM     67  C   UNL A   1      46.443  35.800  30.105  1.00  0.00     0.022 A 
BRANCH  64  68
ATOM     68  S   UNL A   1      45.963  36.885  27.583  1.00  0.00     0.124 S 
ATOM     69  O   UNL A   1      46.305  38.045  28.400  1.00  0.00    -0.237 OA
ATOM     70  O   UNL A   1      46.967  36.474  26.607  1.00  0.00    -0.237 OA
ATOM     71  O   UNL A   1      44.583  36.849  27.104  1.00  0.00    -0.744 OA
ENDBRANCH  64  68
ENDBRANCH  38  61
ENDBRANCH  12  13
ENDBRANCH   5   7
ENDBRANCH   2   3
ENDBRANCH   1   2
BRANCH   1  72
ATOM     72  C   UNL A   1      39.047  22.603  26.165  1.00  0.00     0.023 C 
BRANCH  72  73
ATOM     73  C   UNL A   1      37.632  23.129  25.945  1.00  0.00     0.116 C 
BRANCH  73  74
ATOM     74  N   UNL A   1      37.319  23.330  24.543  1.00  0.00    -0.356 N 
ATOM     75  C   UNL A   1      36.164  23.011  23.880  1.00  0.00     0.224 C 
ATOM     76  H   UNL A   1      38.027  23.747  24.001  1.00  0.00     0.163 HD
ATOM     77  O   UNL A   1      36.181  23.020  22.651  1.00  0.00    -0.275 OA
BRANCH  75  78
ATOM     78  C   UNL A   1      34.938  22.629  24.699  1.00  0.00     0.095 C 
ATOM     79  C   UNL A   1      34.286  21.331  24.203  1.00  0.00     0.041 C 
ATOM     80  C   UNL A   1      33.926  23.790  24.833  1.00  0.00     0.095 C 
ATOM     81  C   UNL A   1      32.998  21.040  24.925  1.00  0.00    -0.030 C 
ATOM     82  C   UNL A   1      32.818  23.372  25.825  1.00  0.00     0.041 C 
ATOM     83  C   UNL A   1      32.355  21.949  25.671  1.00  0.00    -0.030 C 
BRANCH  80  84
ATOM     84  C   UNL A   1      33.313  24.264  23.503  1.00  0.00     0.229 C 
ATOM     85  O   UNL A   1      33.149  23.489  22.557  1.00  0.00    -0.274 OA
ATOM     86  N   UNL A   1      32.817  25.533  23.354  1.00  0.00    -0.317 N 
ATOM     87  H   UNL A   1      32.289  25.672  22.535  1.00  0.00     0.170 HD
BRANCH  86  88
ATOM     88  C   UNL A   1      32.934  26.650  24.160  1.00  0.00     0.108 A 
ATOM     89  S   UNL A   1      34.371  26.893  25.022  1.00  0.00    -0.122 S 
ATOM     90  C   UNL A   1      32.020  27.701  24.287  1.00  0.00     0.078 A 
ATOM     91  C   UNL A   1      33.731  28.232  25.824  1.00  0.00     0.011 A 
ATOM     92  C   UNL A   1      32.501  28.624  25.319  1.00  0.00    -0.019 A 
ATOM     93  C   UNL A   1      34.485  28.886  26.943  1.00  0.00     0.047 C 
ATOM     94  C   UNL A   1      31.806  29.816  25.918  1.00  0.00     0.037 C 
ATOM     95  C   UNL A   1      33.554  29.784  27.762  1.00  0.00     0.006 C 
ATOM     96  C   UNL A   1      32.701  30.653  26.844  1.00  0.00     0.005 C 
BRANCH  90  97
ATOM     97  C   UNL A   1      30.719  27.630  23.570  1.00  0.00     0.257 C 
ATOM     98  O   UNL A   1      30.265  26.550  23.186  1.00  0.00    -0.269 OA
ATOM     99  N   UNL A   1      29.936  28.772  23.464  1.00  0.00    -0.339 N 
ATOM    100  C   UNL A   1      28.514  28.659  23.770  1.00  0.00     0.120 C 
ATOM    101  C   UNL A   1      30.338  29.906  22.639  1.00  0.00     0.120 C 
ATOM    102  C   UNL A   1      27.625  28.829  22.542  1.00  0.00     0.022 C 
ATOM    103  C   UNL A   1      29.464  30.064  21.395  1.00  0.00     0.022 C 
ATOM    104  C   UNL A   1      27.988  30.099  21.780  1.00  0.00     0.004 C 
ENDBRANCH  90  97
ENDBRANCH  86  88
ENDBRANCH  80  84
ENDBRANCH  75  78
ENDBRANCH  73  74
ENDBRANCH  72  73
ENDBRANCH   1  72
TORSDOF 17
ENDMDL
MODEL 2
REMARK VINA RESULT:     -11.7      1.257      7.470
REMARK SMILES O=C(NCCCCNC(=O)[C@@H]1CC=CC[C@@H]1C(=O)Nc1sc2c(c1C(=O)N1CCCCC1)CCCC2)c1ccc(-c2c3nc(c(-c4cc(S(=O)(=O)[O-])ccc4F)c4ccc([nH]4)c(-c4cc(S(=O)(=O)[O-])ccc4F)c4nc(c(-c5cc(S(=O)(=O)[O-])ccc5F)c5ccc2[nH]5)C=C4)C=C3)cc1
REMARK SMILES IDX 5 1 4 2 3 3 1 4 2 5 37 7 38 8 99 9 39 10 98 11 40 12 41 13
REMARK SMILES IDX 42 14 92 15 43 16 97 17 91 18 93 19 44 20 96 21 90 22 89 23
REMARK SMILES IDX 45 25 77 26 57 27 76 28 58 29 61 30 75 31 94 32 59 33 60 34
REMARK SMILES IDX 74 36 95 37 62 38 46 39 47 40 55 41 48 42 54 43 56 44 53 45
REMARK SMILES IDX 49 46 50 47 51 48 52 49 78 50 79 51 87 52 80 53 86 54 88 55
REMARK SMILES IDX 85 56 81 57 82 58 83 59 84 60 63 61 64 62 72 63 65 64 71 65
REMARK SMILES IDX 73 66 70 67 66 68 67 69 68 70 69 71 6 72 7 73 8 74 9 75
REMARK SMILES IDX 10 77 11 78 12 79 16 80 13 81 15 82 14 83 17 84 18 85 19 86
REMARK SMILES IDX 20 88 21 89 24 90 22 91 23 92 36 93 33 94 35 95 34 96 25 97
REMARK SMILES IDX 26 98 27 99 28 100 32 101 29 102 31 103 30 104
REMARK H PARENT 3 6 93 24 61 35 8 76 19 87
REMARK Flexibility Score: inf
ROOT
ATOM      1  C   UNL A   1      39.091  21.411  25.630  1.00  0.00     0.023 C 
ENDROOT
BRANCH   1   2
ATOM      2  C   UNL A   1      39.604  20.379  26.628  1.00  0.00     0.116 C 
BRANCH   2   3
ATOM      3  N   UNL A   1      40.693  19.575  26.090  1.00  0.00    -0.352 N 
ATOM      4  O   UNL A   1      42.714  19.181  25.169  1.00  0.00    -0.269 OA
ATOM      5  C   UNL A   1      41.975  19.954  25.775  1.00  0.00     0.251 C 
ATOM      6  H   UNL A   1      40.480  18.627  25.928  1.00  0.00     0.163 HD
BRANCH   5   7
ATOM      7  C   UNL A   1      42.457  21.297  26.160  1.00  0.00     0.039 A 
ATOM      8  C   UNL A   1      42.703  21.599  27.501  1.00  0.00     0.014 A 
ATOM      9  C   UNL A   1      42.663  22.261  25.170  1.00  0.00     0.014 A 
ATOM     10  C   UNL A   1      43.026  22.901  27.868  1.00  0.00     0.010 A 
ATOM     11  C   UNL A   1      43.072  23.547  25.534  1.00  0.00     0.010 A 
ATOM     12  C   UNL A   1      43.235  23.884  26.889  1.00  0.00    -0.014 A 
BRANCH  12  13
ATOM     13  C   UNL A   1      43.687  25.240  27.291  1.00  0.00     0.031 A 
ATOM     14  C   UNL A   1      42.716  26.254  27.826  1.00  0.00     0.074 A 
ATOM     15  C   UNL A   1      44.988  25.557  27.148  1.00  0.00     0.049 A 
ATOM     16  N   UNL A   1      42.924  27.504  28.155  1.00  0.00    -0.248 NA
ATOM     17  C   UNL A   1      41.328  25.808  28.000  1.00  0.00     0.031 C 
ATOM     18  C   UNL A   1      46.019  24.652  26.634  1.00  0.00     0.029 A 
ATOM     19  N   UNL A   1      45.666  26.719  27.410  1.00  0.00    -0.354 N 
ATOM     20  C   UNL A   1      41.690  28.003  28.557  1.00  0.00     0.074 A 
ATOM     21  C   UNL A   1      40.734  26.926  28.392  1.00  0.00     0.031 C 
ATOM     22  C   UNL A   1      47.199  25.288  26.630  1.00  0.00     0.029 A 
ATOM     23  C   UNL A   1      46.996  26.665  27.062  1.00  0.00     0.049 A 
ATOM     24  H   UNL A   1      45.244  27.515  27.806  1.00  0.00     0.167 HD
ATOM     25  C   UNL A   1      41.390  29.243  29.024  1.00  0.00     0.034 A 
ATOM     26  C   UNL A   1      47.941  27.625  27.043  1.00  0.00     0.034 A 
ATOM     27  C   UNL A   1      42.365  30.301  29.167  1.00  0.00     0.049 A 
ATOM     28  C   UNL A   1      47.576  29.010  27.501  1.00  0.00     0.074 A 
ATOM     29  C   UNL A   1      42.184  31.578  29.672  1.00  0.00     0.029 A 
ATOM     30  N   UNL A   1      43.698  30.217  28.780  1.00  0.00    -0.354 N 
ATOM     31  N   UNL A   1      46.413  29.461  27.911  1.00  0.00    -0.248 NA
ATOM     32  C   UNL A   1      48.647  30.012  27.500  1.00  0.00     0.031 C 
ATOM     33  C   UNL A   1      43.378  32.289  29.508  1.00  0.00     0.029 A 
ATOM     34  C   UNL A   1      44.337  31.431  28.992  1.00  0.00     0.049 A 
ATOM     35  H   UNL A   1      44.129  29.412  28.410  1.00  0.00     0.167 HD
ATOM     36  C   UNL A   1      46.619  30.797  28.240  1.00  0.00     0.074 A 
ATOM     37  C   UNL A   1      48.019  31.074  27.986  1.00  0.00     0.031 C 
ATOM     38  C   UNL A   1      45.731  31.705  28.719  1.00  0.00     0.034 A 
BRANCH  25  39
ATOM     39  C   UNL A   1      39.942  29.532  29.352  1.00  0.00     0.023 A 
ATOM     40  C   UNL A   1      39.486  29.648  30.677  1.00  0.00     0.031 A 
ATOM     41  C   UNL A   1      38.989  29.649  28.322  1.00  0.00     0.131 A 
ATOM     42  C   UNL A   1      38.114  29.771  30.940  1.00  0.00     0.055 A 
ATOM     43  C   UNL A   1      37.636  29.868  28.589  1.00  0.00     0.041 A 
ATOM     44  F   UNL A   1      39.353  29.529  27.037  1.00  0.00    -0.206 F 
ATOM     45  C   UNL A   1      37.187  29.908  29.904  1.00  0.00     0.022 A 
BRANCH  42  46
ATOM     46  S   UNL A   1      37.539  29.556  32.648  1.00  0.00     0.124 S 
ATOM     47  O   UNL A   1      37.653  28.108  32.819  1.00  0.00    -0.237 OA
ATOM     48  O   UNL A   1      38.489  30.365  33.404  1.00  0.00    -0.237 OA
ATOM     49  O   UNL A   1      36.170  30.064  32.616  1.00  0.00    -0.744 OA
ENDBRANCH  42  46
ENDBRANCH  25  39
BRANCH  26  50
ATOM     50  C   UNL A   1      49.296  27.307  26.512  1.00  0.00     0.023 A 
ATOM     51  C   UNL A   1      49.704  27.738  25.241  1.00  0.00     0.031 A 
ATOM     52  C   UNL A   1      50.213  26.580  27.292  1.00  0.00     0.131 A 
ATOM     53  C   UNL A   1      50.991  27.417  24.780  1.00  0.00     0.055 A 
ATOM     54  C   UNL A   1      51.508  26.310  26.851  1.00  0.00     0.041 A 
ATOM     55  F   UNL A   1      49.873  26.153  28.520  1.00  0.00    -0.206 F 
ATOM     56  C   UNL A   1      51.900  26.723  25.581  1.00  0.00     0.022 A 
BRANCH  53  57
ATOM     57  S   UNL A   1      51.448  27.878  23.087  1.00  0.00     0.124 S 
ATOM     58  O   UNL A   1      52.304  29.036  23.315  1.00  0.00    -0.237 OA
ATOM     59  O   UNL A   1      52.114  26.669  22.612  1.00  0.00    -0.237 OA
ATOM     60  O   UNL A   1      50.162  28.167  22.454  1.00  0.00    -0.744 OA
ENDBRANCH  53  57
ENDBRANCH  26  50
BRANCH  38  61
ATOM     61  C   UNL A   1      46.260  33.079  29.051  1.00  0.00     0.023 A 
ATOM     62  C   UNL A   1      46.789  33.390  30.315  1.00  0.00     0.031 A 
ATOM     63  C   UNL A   1      46.251  34.088  28.070  1.00  0.00     0.131 A 
ATOM     64  C   UNL A   1      47.255  34.689  30.577  1.00  0.00     0.055 A 
ATOM     65  C   UNL A   1      46.770  35.359  28.317  1.00  0.00     0.041 A 
ATOM     66  F   UNL A   1      45.750  33.848  26.848  1.00  0.00    -0.206 F 
ATOM     67  C   UNL A   1      47.268  35.668  29.580  1.00  0.00     0.022 A 
BRANCH  64  68
ATOM     68  S   UNL A   1      47.782  35.108  32.261  1.00  0.00     0.124 S 
ATOM     69  O   UNL A   1      49.003  34.320  32.400  1.00  0.00    -0.237 OA
ATOM     70  O   UNL A   1      47.961  36.554  32.183  1.00  0.00    -0.237 OA
ATOM     71  O   UNL A   1      46.663  34.666  33.091  1.00  0.00    -0.744 OA
ENDBRANCH  64  68
ENDBRANCH  38  61
ENDBRANCH  12  13
ENDBRANCH   5   7
ENDBRANCH   2   3
ENDBRANCH   1   2
BRANCH   1  72
ATOM     72  C   UNL A   1      38.887  22.814  26.201  1.00  0.00     0.023 C 
BRANCH  72  73
ATOM     73  C   UNL A   1      37.511  23.419  25.939  1.00  0.00     0.116 C 
BRANCH  73  74
ATOM     74  N   UNL A   1      37.194  23.502  24.526  1.00  0.00    -0.356 N 
ATOM     75  C   UNL A   1      36.073  23.049  23.882  1.00  0.00     0.224 C 
ATOM     76  H   UNL A   1      37.870  23.938  23.959  1.00  0.00     0.163 HD
ATOM     77  O   UNL A   1      36.098  22.978  22.656  1.00  0.00    -0.275 OA
BRANCH  75  78
ATOM     78  C   UNL A   1      34.875  22.625  24.722  1.00  0.00     0.095 C 
ATOM     79  C   UNL A   1      34.260  21.305  24.236  1.00  0.00     0.041 C 
ATOM     80  C   UNL A   1      33.825  23.750  24.874  1.00  0.00     0.095 C 
ATOM     81  C   UNL A   1      32.996  20.969  24.980  1.00  0.00    -0.030 C 
ATOM     82  C   UNL A   1      32.749  23.293  25.884  1.00  0.00     0.041 C 
ATOM     83  C   UNL A   1      32.334  21.855  25.737  1.00  0.00    -0.030 C 
BRANCH  80  84
ATOM     84  C   UNL A   1      33.174  24.202  23.554  1.00  0.00     0.229 C 
ATOM     85  O   UNL A   1      32.979  23.410  22.628  1.00  0.00    -0.274 OA
ATOM     86  N   UNL A   1      32.678  25.470  23.397  1.00  0.00    -0.317 N 
ATOM     87  H   UNL A   1      32.126  25.597  22.592  1.00  0.00     0.170 HD
BRANCH  86  88
ATOM     88  C   UNL A   1      32.823  26.601  24.179  1.00  0.00     0.108 A 
ATOM     89  S   UNL A   1      34.259  26.817  25.049  1.00  0.00    -0.122 S 
ATOM     90  C   UNL A   1      31.943  27.683  24.273  1.00  0.00     0.078 A 
ATOM     91  C   UNL A   1      33.656  28.194  25.815  1.00  0.00     0.011 A 
ATOM     92  C   UNL A   1      32.443  28.614  25.288  1.00  0.00    -0.019 A 
ATOM     93  C   UNL A   1      34.420  28.849  26.926  1.00  0.00     0.047 C 
ATOM     94  C   UNL A   1      31.781  29.841  25.853  1.00  0.00     0.037 C 
ATOM     95  C   UNL A   1      33.510  29.795  27.715  1.00  0.00     0.006 C 
ATOM     96  C   UNL A   1      32.694  30.670  26.769  1.00  0.00     0.005 C 
BRANCH  90  97
ATOM     97  C   UNL A   1      30.647  27.638  23.545  1.00  0.00     0.257 C 
ATOM     98  O   UNL A   1      30.174  26.566  23.158  1.00  0.00    -0.269 OA
ATOM     99  N   UNL A   1      29.888  28.795  23.429  1.00  0.00    -0.339 N 
ATOM    100  C   UNL A   1      28.461  28.711  23.723  1.00  0.00     0.120 C 
ATOM    101  C   UNL A   1      30.320  29.919  22.606  1.00  0.00     0.120 C 
ATOM    102  C   UNL A   1      27.586  28.897  22.487  1.00  0.00     0.022 C 
ATOM    103  C   UNL A   1      29.461  30.092  21.355  1.00  0.00     0.022 C 
ATOM    104  C   UNL A   1      27.982  30.158  21.726  1.00  0.00     0.004 C 
ENDBRANCH  90  97
ENDBRANCH  86  88
ENDBRANCH  80  84
ENDBRANCH  75  78
ENDBRANCH  73  74
ENDBRANCH  72  73
ENDBRANCH   1  72
TORSDOF 17
ENDMDL
MODEL 3
REMARK VINA RESULT:     -11.7      5.935     12.117
REMARK SMILES O=C(NCCCCNC(=O)[C@@H]1CC=CC[C@@H]1C(=O)Nc1sc2c(c1C(=O)N1CCCCC1)CCCC2)c1ccc(-c2c3nc(c(-c4cc(S(=O)(=O)[O-])ccc4F)c4ccc([nH]4)c(-c4cc(S(=O)(=O)[O-])ccc4F)c4nc(c(-c5cc(S(=O)(=O)[O-])ccc5F)c5ccc2[nH]5)C=C4)C=C3)cc1
REMARK SMILES IDX 5 1 4 2 3 3 1 4 2 5 37 7 38 8 99 9 39 10 98 11 40 12 41 13
REMARK SMILES IDX 42 14 92 15 43 16 97 17 91 18 93 19 44 20 96 21 90 22 89 23
REMARK SMILES IDX 45 25 77 26 57 27 76 28 58 29 61 30 75 31 94 32 59 33 60 34
REMARK SMILES IDX 74 36 95 37 62 38 46 39 47 40 55 41 48 42 54 43 56 44 53 45
REMARK SMILES IDX 49 46 50 47 51 48 52 49 78 50 79 51 87 52 80 53 86 54 88 55
REMARK SMILES IDX 85 56 81 57 82 58 83 59 84 60 63 61 64 62 72 63 65 64 71 65
REMARK SMILES IDX 73 66 70 67 66 68 67 69 68 70 69 71 6 72 7 73 8 74 9 75
REMARK SMILES IDX 10 77 11 78 12 79 16 80 13 81 15 82 14 83 17 84 18 85 19 86
REMARK SMILES IDX 20 88 21 89 24 90 22 91 23 92 36 93 33 94 35 95 34 96 25 97
REMARK SMILES IDX 26 98 27 99 28 100 32 101 29 102 31 103 30 104
REMARK H PARENT 3 6 93 24 61 35 8 76 19 87
REMARK Flexibility Score: inf
ROOT
ATOM      1  C   UNL A   1      47.288  32.409  26.888  1.00  0.00     0.023 C 
ENDROOT
BRANCH   1   2
ATOM      2  C   UNL A   1      46.857  33.861  27.064  1.00  0.00     0.116 C 
BRANCH   2   3
ATOM      3  N   UNL A   1      45.857  34.269  26.086  1.00  0.00    -0.352 N 
ATOM      4  O   UNL A   1      43.784  34.595  25.260  1.00  0.00    -0.269 OA
ATOM      5  C   UNL A   1      44.499  34.404  26.241  1.00  0.00     0.251 C 
ATOM      6  H   UNL A   1      46.204  34.477  25.188  1.00  0.00     0.163 HD
BRANCH   5   7
ATOM      7  C   UNL A   1      43.904  34.309  27.589  1.00  0.00     0.039 A 
ATOM      8  C   UNL A   1      43.596  33.062  28.138  1.00  0.00     0.014 A 
ATOM      9  C   UNL A   1      43.651  35.477  28.311  1.00  0.00     0.014 A 
ATOM     10  C   UNL A   1      42.914  32.987  29.347  1.00  0.00     0.010 A 
ATOM     11  C   UNL A   1      43.042  35.396  29.567  1.00  0.00     0.010 A 
ATOM     12  C   UNL A   1      42.648  34.151  30.085  1.00  0.00    -0.014 A 
BRANCH  12  13
ATOM     13  C   UNL A   1      42.018  34.045  31.426  1.00  0.00     0.031 A 
ATOM     14  C   UNL A   1      42.834  33.715  32.643  1.00  0.00     0.074 A 
ATOM     15  C   UNL A   1      40.688  34.232  31.531  1.00  0.00     0.049 A 
ATOM     16  N   UNL A   1      42.437  33.512  33.874  1.00  0.00    -0.248 NA
ATOM     17  C   UNL A   1      44.284  33.582  32.448  1.00  0.00     0.031 C 
ATOM     18  C   UNL A   1      39.796  34.552  30.414  1.00  0.00     0.029 A 
ATOM     19  N   UNL A   1      39.853  34.171  32.617  1.00  0.00    -0.354 N 
ATOM     20  C   UNL A   1      43.584  33.208  34.599  1.00  0.00     0.074 A 
ATOM     21  C   UNL A   1      44.684  33.217  33.656  1.00  0.00     0.031 C 
ATOM     22  C   UNL A   1      38.543  34.672  30.874  1.00  0.00     0.029 A 
ATOM     23  C   UNL A   1      38.529  34.359  32.298  1.00  0.00     0.049 A 
ATOM     24  H   UNL A   1      40.170  34.008  33.535  1.00  0.00     0.167 HD
ATOM     25  C   UNL A   1      43.701  32.951  35.928  1.00  0.00     0.034 A 
ATOM     26  C   UNL A   1      37.417  34.245  33.050  1.00  0.00     0.034 A 
ATOM     27  C   UNL A   1      42.581  32.938  36.842  1.00  0.00     0.049 A 
ATOM     28  C   UNL A   1      37.560  33.895  34.505  1.00  0.00     0.074 A 
ATOM     29  C   UNL A   1      42.589  32.738  38.212  1.00  0.00     0.029 A 
ATOM     30  N   UNL A   1      41.250  33.108  36.477  1.00  0.00    -0.354 N 
ATOM     31  N   UNL A   1      38.652  33.642  35.186  1.00  0.00    -0.248 NA
ATOM     32  C   UNL A   1      36.324  33.821  35.293  1.00  0.00     0.031 C 
ATOM     33  C   UNL A   1      41.264  32.697  38.658  1.00  0.00     0.029 A 
ATOM     34  C   UNL A   1      40.427  32.970  37.587  1.00  0.00     0.049 A 
ATOM     35  H   UNL A   1      40.936  33.300  35.564  1.00  0.00     0.167 HD
ATOM     36  C   UNL A   1      38.238  33.401  36.492  1.00  0.00     0.074 A 
ATOM     37  C   UNL A   1      36.796  33.546  36.501  1.00  0.00     0.031 C 
ATOM     38  C   UNL A   1      38.986  33.098  37.584  1.00  0.00     0.034 A 
BRANCH  25  39
ATOM     39  C   UNL A   1      45.078  32.603  36.451  1.00  0.00     0.023 A 
ATOM     40  C   UNL A   1      45.498  31.271  36.616  1.00  0.00     0.031 A 
ATOM     41  C   UNL A   1      45.971  33.621  36.834  1.00  0.00     0.131 A 
ATOM     42  C   UNL A   1      46.724  30.993  37.239  1.00  0.00     0.055 A 
ATOM     43  C   UNL A   1      47.231  33.337  37.365  1.00  0.00     0.041 A 
ATOM     44  F   UNL A   1      45.625  34.912  36.721  1.00  0.00    -0.206 F 
ATOM     45  C   UNL A   1      47.606  32.018  37.591  1.00  0.00     0.022 A 
BRANCH  42  46
ATOM     46  S   UNL A   1      47.063  29.287  37.755  1.00  0.00     0.124 S 
ATOM     47  O   UNL A   1      48.220  29.468  38.631  1.00  0.00    -0.237 OA
ATOM     48  O   UNL A   1      45.819  28.903  38.411  1.00  0.00    -0.237 OA
ATOM     49  O   UNL A   1      47.348  28.599  36.498  1.00  0.00    -0.744 OA
ENDBRANCH  42  46
ENDBRANCH  25  39
BRANCH  26  50
ATOM     50  C   UNL A   1      36.081  34.404  32.410  1.00  0.00     0.023 A 
ATOM     51  C   UNL A   1      35.361  35.604  32.505  1.00  0.00     0.031 A 
ATOM     52  C   UNL A   1      35.518  33.350  31.666  1.00  0.00     0.131 A 
ATOM     53  C   UNL A   1      34.107  35.712  31.885  1.00  0.00     0.055 A 
ATOM     54  C   UNL A   1      34.296  33.481  31.008  1.00  0.00     0.041 A 
ATOM     55  F   UNL A   1      36.173  32.184  31.537  1.00  0.00    -0.206 F 
ATOM     56  C   UNL A   1      33.578  34.667  31.123  1.00  0.00     0.022 A 
BRANCH  53  57
ATOM     57  S   UNL A   1      33.143  37.228  32.129  1.00  0.00     0.124 S 
ATOM     58  O   UNL A   1      32.904  37.653  30.755  1.00  0.00    -0.237 OA
ATOM     59  O   UNL A   1      31.980  36.735  32.861  1.00  0.00    -0.237 OA
ATOM     60  O   UNL A   1      34.044  38.084  32.900  1.00  0.00    -0.744 OA
ENDBRANCH  53  57
ENDBRANCH  26  50
BRANCH  38  61
ATOM     61  C   UNL A   1      38.261  32.953  38.900  1.00  0.00     0.023 A 
ATOM     62  C   UNL A   1      38.381  33.904  39.928  1.00  0.00     0.031 A 
ATOM     63  C   UNL A   1      37.416  31.849  39.115  1.00  0.00     0.131 A 
ATOM     64  C   UNL A   1      37.696  33.713  41.138  1.00  0.00     0.055 A 
ATOM     65  C   UNL A   1      36.691  31.695  40.296  1.00  0.00     0.041 A 
ATOM     66  F   UNL A   1      37.270  30.906  38.170  1.00  0.00    -0.206 F 
ATOM     67  C   UNL A   1      36.836  32.627  41.320  1.00  0.00     0.022 A 
BRANCH  64  68
ATOM     68  S   UNL A   1      37.994  34.868  42.505  1.00  0.00     0.124 S 
ATOM     69  O   UNL A   1      36.675  34.952  43.124  1.00  0.00    -0.237 OA
ATOM     70  O   UNL A   1      39.020  34.178  43.281  1.00  0.00    -0.237 OA
ATOM     71  O   UNL A   1      38.441  36.087  41.833  1.00  0.00    -0.744 OA
ENDBRANCH  64  68
ENDBRANCH  38  61
ENDBRANCH  12  13
ENDBRANCH   5   7
ENDBRANCH   2   3
ENDBRANCH   1   2
BRANCH   1  72
ATOM     72  C   UNL A   1      46.188  31.464  26.404  1.00  0.00     0.023 C 
BRANCH  72  73
ATOM     73  C   UNL A   1      46.540  29.981  26.470  1.00  0.00     0.116 C 
BRANCH  73  74
ATOM     74  N   UNL A   1      46.403  29.315  25.188  1.00  0.00    -0.356 N 
ATOM     75  C   UNL A   1      46.729  28.024  24.867  1.00  0.00     0.224 C 
ATOM     76  H   UNL A   1      46.030  29.860  24.459  1.00  0.00     0.163 HD
ATOM     77  O   UNL A   1      46.782  27.719  23.678  1.00  0.00    -0.275 OA
BRANCH  75  78
ATOM     78  C   UNL A   1      47.042  27.051  25.996  1.00  0.00     0.095 C 
ATOM     79  C   UNL A   1      48.244  26.153  25.677  1.00  0.00     0.041 C 
ATOM     80  C   UNL A   1      45.802  26.247  26.451  1.00  0.00     0.095 C 
ATOM     81  C   UNL A   1      48.456  25.103  26.734  1.00  0.00    -0.030 C 
ATOM     82  C   UNL A   1      46.172  25.432  27.710  1.00  0.00     0.041 C 
ATOM     83  C   UNL A   1      47.535  24.799  27.659  1.00  0.00    -0.030 C 
BRANCH  80  84
ATOM     84  C   UNL A   1      45.200  25.331  25.369  1.00  0.00     0.229 C 
ATOM     85  O   UNL A   1      45.916  24.656  24.625  1.00  0.00    -0.274 OA
ATOM     86  N   UNL A   1      43.847  25.138  25.266  1.00  0.00    -0.317 N 
ATOM     87  H   UNL A   1      43.584  24.401  24.668  1.00  0.00     0.170 HD
BRANCH  86  88
ATOM     88  C   UNL A   1      42.790  25.802  25.859  1.00  0.00     0.108 A 
ATOM     89  S   UNL A   1      42.362  27.337  25.287  1.00  0.00    -0.122 S 
ATOM     90  C   UNL A   1      41.930  25.313  26.847  1.00  0.00     0.078 A 
ATOM     91  C   UNL A   1      41.221  27.540  26.513  1.00  0.00     0.011 A 
ATOM     92  C   UNL A   1      41.016  26.384  27.252  1.00  0.00    -0.019 A 
ATOM     93  C   UNL A   1      40.529  28.856  26.705  1.00  0.00     0.047 C 
ATOM     94  C   UNL A   1      40.014  26.397  28.374  1.00  0.00     0.037 C 
ATOM     95  C   UNL A   1      39.874  28.918  28.087  1.00  0.00     0.006 C 
ATOM     96  C   UNL A   1      39.103  27.634  28.376  1.00  0.00     0.005 C 
BRANCH  90  97
ATOM     97  C   UNL A   1      42.176  23.967  27.430  1.00  0.00     0.257 C 
ATOM     98  O   UNL A   1      42.667  23.845  28.556  1.00  0.00    -0.269 OA
ATOM     99  N   UNL A   1      41.712  22.840  26.765  1.00  0.00    -0.339 N 
ATOM    100  C   UNL A   1      41.003  21.829  27.542  1.00  0.00     0.120 C 
ATOM    101  C   UNL A   1      42.288  22.404  25.497  1.00  0.00     0.120 C 
ATOM    102  C   UNL A   1      41.781  20.524  27.675  1.00  0.00     0.022 C 
ATOM    103  C   UNL A   1      43.089  21.110  25.633  1.00  0.00     0.022 C 
ATOM    104  C   UNL A   1      42.251  20.031  26.311  1.00  0.00     0.004 C 
ENDBRANCH  90  97
ENDBRANCH  86  88
ENDBRANCH  80  84
ENDBRANCH  75  78
ENDBRANCH  73  74
ENDBRANCH  72  73
ENDBRANCH   1  72
TORSDOF 17
ENDMDL
