MODEL 1
REMARK VINA RESULT:     -13.6      0.000      0.000
REMARK SMILES O=C(NCCCCNC(=O)[C@H]1CC=CC[C@@H]1C(=O)Nc1nn(Cc2ccccc2F)cc1Br)c1ccc(-c2c3nc(c(-c4cc(S(=O)(=O)[O-])ccc4F)c4ccc([nH]4)c(-c4cc(S(=O)(=O)[O-])ccc4F)c4nc(c(-c5cc(S(=O)(=O)[O-])ccc5F)c5ccc2[nH]5)C=C4)C=C3)cc1
REMARK SMILES IDX 6 1 5 2 4 3 3 4 1 5 2 6 34 8 35 9 96 10 36 11 95 12 37 13
REMARK SMILES IDX 38 14 39 15 89 16 40 17 94 18 88 19 90 20 41 21 93 22 87 23
REMARK SMILES IDX 86 24 42 26 74 27 54 28 73 29 55 30 58 31 72 32 91 33 56 34
REMARK SMILES IDX 57 35 71 37 92 38 59 39 43 40 44 41 52 42 45 43 51 44 53 45
REMARK SMILES IDX 50 46 46 47 47 48 48 49 49 50 75 51 76 52 84 53 77 54 83 55
REMARK SMILES IDX 85 56 82 57 78 58 79 59 80 60 81 61 60 62 61 63 69 64 62 65
REMARK SMILES IDX 68 66 70 67 67 68 63 69 64 70 65 71 66 72 7 73 8 74 9 75
REMARK SMILES IDX 10 77 11 78 12 79 16 80 13 81 15 82 14 83 17 84 18 85 19 86
REMARK SMILES IDX 20 88 21 89 32 90 22 91 31 92 33 93 23 94 24 95 25 96 29 97
REMARK SMILES IDX 26 98 28 99 30 100 27 101
REMARK H PARENT 3 7 90 25 58 36 8 76 19 87
REMARK Flexibility Score: inf
ROOT
ATOM      1  C   UNL A   1      33.058  27.765  26.864  1.00  0.00     0.023 C 
ENDROOT
BRANCH   1   2
ATOM      2  C   UNL A   1      32.632  29.176  27.239  1.00  0.00     0.023 C 
BRANCH   2   3
ATOM      3  C   UNL A   1      33.682  30.251  26.970  1.00  0.00     0.116 C 
BRANCH   3   4
ATOM      4  N   UNL A   1      33.707  31.297  27.966  1.00  0.00    -0.352 N 
ATOM      5  O   UNL A   1      34.528  32.948  29.190  1.00  0.00    -0.269 OA
ATOM      6  C   UNL A   1      34.730  31.832  28.702  1.00  0.00     0.251 C 
ATOM      7  H   UNL A   1      32.827  31.700  28.148  1.00  0.00     0.163 HD
BRANCH   6   8
ATOM      8  C   UNL A   1      36.017  31.134  28.983  1.00  0.00     0.039 A 
ATOM      9  C   UNL A   1      37.217  31.760  29.321  1.00  0.00     0.014 A 
ATOM     10  C   UNL A   1      36.021  29.740  28.791  1.00  0.00     0.014 A 
ATOM     11  C   UNL A   1      38.395  31.033  29.407  1.00  0.00     0.010 A 
ATOM     12  C   UNL A   1      37.199  29.003  28.880  1.00  0.00     0.010 A 
ATOM     13  C   UNL A   1      38.390  29.659  29.165  1.00  0.00    -0.014 A 
BRANCH  13  14
ATOM     14  C   UNL A   1      39.636  28.938  29.396  1.00  0.00     0.031 A 
ATOM     15  C   UNL A   1      39.994  28.813  30.839  1.00  0.00     0.074 A 
ATOM     16  C   UNL A   1      40.383  28.361  28.435  1.00  0.00     0.049 A 
ATOM     17  N   UNL A   1      40.996  29.350  31.451  1.00  0.00    -0.248 NA
ATOM     18  C   UNL A   1      39.041  28.143  31.736  1.00  0.00     0.031 C 
ATOM     19  C   UNL A   1      40.091  28.214  27.011  1.00  0.00     0.029 A 
ATOM     20  N   UNL A   1      41.571  27.707  28.572  1.00  0.00    -0.354 N 
ATOM     21  C   UNL A   1      40.921  28.929  32.775  1.00  0.00     0.074 A 
ATOM     22  C   UNL A   1      39.627  28.315  32.922  1.00  0.00     0.031 C 
ATOM     23  C   UNL A   1      40.962  27.330  26.463  1.00  0.00     0.029 A 
ATOM     24  C   UNL A   1      41.954  26.962  27.460  1.00  0.00     0.049 A 
ATOM     25  H   UNL A   1      42.115  27.758  29.391  1.00  0.00     0.167 HD
ATOM     26  C   UNL A   1      42.009  28.961  33.594  1.00  0.00     0.034 A 
ATOM     27  C   UNL A   1      42.996  26.088  27.384  1.00  0.00     0.034 A 
ATOM     28  C   UNL A   1      43.025  29.846  33.079  1.00  0.00     0.049 A 
ATOM     29  C   UNL A   1      43.974  26.516  28.416  1.00  0.00     0.074 A 
ATOM     30  C   UNL A   1      43.093  31.202  32.822  1.00  0.00     0.029 A 
ATOM     31  N   UNL A   1      44.080  29.292  32.390  1.00  0.00    -0.354 N 
ATOM     32  N   UNL A   1      44.600  27.660  28.370  1.00  0.00    -0.248 NA
ATOM     33  C   UNL A   1      43.891  25.903  29.733  1.00  0.00     0.031 C 
ATOM     34  C   UNL A   1      43.833  31.307  31.606  1.00  0.00     0.029 A 
ATOM     35  C   UNL A   1      44.231  30.020  31.235  1.00  0.00     0.049 A 
ATOM     36  H   UNL A   1      44.623  28.522  32.672  1.00  0.00     0.167 HD
ATOM     37  C   UNL A   1      44.600  28.117  29.678  1.00  0.00     0.074 A 
ATOM     38  C   UNL A   1      44.228  26.955  30.485  1.00  0.00     0.031 C 
ATOM     39  C   UNL A   1      44.635  29.451  29.965  1.00  0.00     0.034 A 
BRANCH  26  40
ATOM     40  C   UNL A   1      42.305  27.944  34.673  1.00  0.00     0.023 A 
ATOM     41  C   UNL A   1      43.047  26.802  34.309  1.00  0.00     0.031 A 
ATOM     42  C   UNL A   1      41.660  27.886  35.928  1.00  0.00     0.131 A 
ATOM     43  C   UNL A   1      43.041  25.650  35.116  1.00  0.00     0.055 A 
ATOM     44  C   UNL A   1      41.702  26.757  36.752  1.00  0.00     0.041 A 
ATOM     45  F   UNL A   1      40.878  28.871  36.384  1.00  0.00    -0.206 F 
ATOM     46  C   UNL A   1      42.368  25.618  36.333  1.00  0.00     0.022 A 
BRANCH  43  47
ATOM     47  S   UNL A   1      43.799  24.138  34.467  1.00  0.00     0.124 S 
ATOM     48  O   UNL A   1      44.163  24.543  33.114  1.00  0.00    -0.237 OA
ATOM     49  O   UNL A   1      44.904  23.932  35.398  1.00  0.00    -0.237 OA
ATOM     50  O   UNL A   1      42.723  23.154  34.556  1.00  0.00    -0.744 OA
ENDBRANCH  43  47
ENDBRANCH  26  40
BRANCH  27  51
ATOM     51  C   UNL A   1      43.006  24.728  26.768  1.00  0.00     0.023 A 
ATOM     52  C   UNL A   1      44.012  24.313  25.863  1.00  0.00     0.031 A 
ATOM     53  C   UNL A   1      42.166  23.715  27.278  1.00  0.00     0.131 A 
ATOM     54  C   UNL A   1      44.150  22.946  25.518  1.00  0.00     0.055 A 
ATOM     55  C   UNL A   1      42.308  22.367  26.937  1.00  0.00     0.041 A 
ATOM     56  F   UNL A   1      41.232  23.982  28.202  1.00  0.00    -0.206 F 
ATOM     57  C   UNL A   1      43.310  21.974  26.064  1.00  0.00     0.022 A 
BRANCH  54  58
ATOM     58  S   UNL A   1      45.512  22.385  24.442  1.00  0.00     0.124 S 
ATOM     59  O   UNL A   1      44.819  21.479  23.523  1.00  0.00    -0.237 OA
ATOM     60  O   UNL A   1      46.008  23.626  23.873  1.00  0.00    -0.237 OA
ATOM     61  O   UNL A   1      46.430  21.725  25.372  1.00  0.00    -0.744 OA
ENDBRANCH  54  58
ENDBRANCH  27  51
BRANCH  39  62
ATOM     62  C   UNL A   1      44.918  30.424  28.837  1.00  0.00     0.023 A 
ATOM     63  C   UNL A   1      46.201  30.910  28.488  1.00  0.00     0.031 A 
ATOM     64  C   UNL A   1      43.842  30.763  28.000  1.00  0.00     0.131 A 
ATOM     65  C   UNL A   1      46.362  31.709  27.337  1.00  0.00     0.055 A 
ATOM     66  C   UNL A   1      44.008  31.538  26.854  1.00  0.00     0.041 A 
ATOM     67  F   UNL A   1      42.606  30.304  28.261  1.00  0.00    -0.206 F 
ATOM     68  C   UNL A   1      45.269  32.018  26.519  1.00  0.00     0.022 A 
BRANCH  65  69
ATOM     69  S   UNL A   1      48.005  32.345  26.864  1.00  0.00     0.124 S 
ATOM     70  O   UNL A   1      47.716  33.215  25.730  1.00  0.00    -0.237 OA
ATOM     71  O   UNL A   1      48.457  33.009  28.084  1.00  0.00    -0.237 OA
ATOM     72  O   UNL A   1      48.757  31.135  26.524  1.00  0.00    -0.744 OA
ENDBRANCH  65  69
ENDBRANCH  39  62
ENDBRANCH  13  14
ENDBRANCH   6   8
ENDBRANCH   3   4
ENDBRANCH   2   3
ENDBRANCH   1   2
BRANCH   1  73
ATOM     73  C   UNL A   1      31.922  26.762  26.611  1.00  0.00     0.116 C 
BRANCH  73  74
ATOM     74  N   UNL A   1      32.268  25.347  26.667  1.00  0.00    -0.356 N 
ATOM     75  C   UNL A   1      33.272  24.650  26.061  1.00  0.00     0.224 C 
ATOM     76  H   UNL A   1      31.679  24.804  27.239  1.00  0.00     0.163 HD
ATOM     77  O   UNL A   1      33.746  23.706  26.708  1.00  0.00    -0.275 OA
BRANCH  75  78
ATOM     78  C   UNL A   1      33.772  24.924  24.627  1.00  0.00     0.095 C 
ATOM     79  C   UNL A   1      35.172  24.379  24.337  1.00  0.00     0.041 C 
ATOM     80  C   UNL A   1      32.748  24.539  23.550  1.00  0.00     0.095 C 
ATOM     81  C   UNL A   1      35.230  23.186  23.437  1.00  0.00    -0.030 C 
ATOM     82  C   UNL A   1      32.761  23.001  23.380  1.00  0.00     0.041 C 
ATOM     83  C   UNL A   1      34.140  22.530  23.022  1.00  0.00    -0.030 C 
BRANCH  80  84
ATOM     84  C   UNL A   1      32.787  25.147  22.122  1.00  0.00     0.229 C 
ATOM     85  O   UNL A   1      33.266  24.429  21.218  1.00  0.00    -0.274 OA
ATOM     86  N   UNL A   1      32.260  26.294  21.640  1.00  0.00    -0.308 N 
ATOM     87  H   UNL A   1      32.390  26.386  20.669  1.00  0.00     0.171 HD
BRANCH  86  88
ATOM     88  C   UNL A   1      31.588  27.362  22.179  1.00  0.00     0.168 A 
ATOM     89  N   UNL A   1      30.278  27.504  22.204  1.00  0.00    -0.153 NA
ATOM     90  C   UNL A   1      32.173  28.478  22.815  1.00  0.00     0.080 A 
ATOM     91  N   UNL A   1      30.012  28.703  22.725  1.00  0.00    -0.265 N 
ATOM     92  C   UNL A   1      31.149  29.350  23.110  1.00  0.00     0.127 A 
ATOM     93  Br  UNL A   1      34.010  28.761  23.024  1.00  0.00    -0.045 Br
BRANCH  91  94
ATOM     94  C   UNL A   1      28.617  29.148  22.810  1.00  0.00     0.182 C 
BRANCH  94  95
ATOM     95  C   UNL A   1      28.416  30.520  22.212  1.00  0.00     0.009 A 
ATOM     96  C   UNL A   1      28.067  30.684  20.863  1.00  0.00     0.008 A 
ATOM     97  C   UNL A   1      28.572  31.673  22.990  1.00  0.00     0.128 A 
ATOM     98  C   UNL A   1      27.850  31.960  20.333  1.00  0.00     0.001 A 
ATOM     99  C   UNL A   1      28.336  32.947  22.474  1.00  0.00     0.039 A 
ATOM    100  F   UNL A   1      28.968  31.569  24.264  1.00  0.00    -0.207 F 
ATOM    101  C   UNL A   1      27.966  33.091  21.141  1.00  0.00     0.003 A 
ENDBRANCH  94  95
ENDBRANCH  91  94
ENDBRANCH  86  88
ENDBRANCH  80  84
ENDBRANCH  75  78
ENDBRANCH  73  74
ENDBRANCH   1  73
TORSDOF 18
ENDMDL
MODEL 2
REMARK VINA RESULT:     -13.3      2.597      4.401
REMARK SMILES O=C(NCCCCNC(=O)[C@H]1CC=CC[C@@H]1C(=O)Nc1nn(Cc2ccccc2F)cc1Br)c1ccc(-c2c3nc(c(-c4cc(S(=O)(=O)[O-])ccc4F)c4ccc([nH]4)c(-c4cc(S(=O)(=O)[O-])ccc4F)c4nc(c(-c5cc(S(=O)(=O)[O-])ccc5F)c5ccc2[nH]5)C=C4)C=C3)cc1
REMARK SMILES IDX 6 1 5 2 4 3 3 4 1 5 2 6 34 8 35 9 96 10 36 11 95 12 37 13
REMARK SMILES IDX 38 14 39 15 89 16 40 17 94 18 88 19 90 20 41 21 93 22 87 23
REMARK SMILES IDX 86 24 42 26 74 27 54 28 73 29 55 30 58 31 72 32 91 33 56 34
REMARK SMILES IDX 57 35 71 37 92 38 59 39 43 40 44 41 52 42 45 43 51 44 53 45
REMARK SMILES IDX 50 46 46 47 47 48 48 49 49 50 75 51 76 52 84 53 77 54 83 55
REMARK SMILES IDX 85 56 82 57 78 58 79 59 80 60 81 61 60 62 61 63 69 64 62 65
REMARK SMILES IDX 68 66 70 67 67 68 63 69 64 70 65 71 66 72 7 73 8 74 9 75
REMARK SMILES IDX 10 77 11 78 12 79 16 80 13 81 15 82 14 83 17 84 18 85 19 86
REMARK SMILES IDX 20 88 21 89 32 90 22 91 31 92 33 93 23 94 24 95 25 96 29 97
REMARK SMILES IDX 26 98 28 99 30 100 27 101
REMARK H PARENT 3 7 90 25 58 36 8 76 19 87
REMARK Flexibility Score: inf
ROOT
ATOM      1  C   UNL A   1      33.197  29.579  27.379  1.00  0.00     0.023 C 
ENDROOT
BRANCH   1   2
ATOM      2  C   UNL A   1      33.253  31.066  27.066  1.00  0.00     0.023 C 
BRANCH   2   3
ATOM      3  C   UNL A   1      34.425  31.808  27.703  1.00  0.00     0.116 C 
BRANCH   3   4
ATOM      4  N   UNL A   1      34.220  32.122  29.098  1.00  0.00    -0.352 N 
ATOM      5  O   UNL A   1      34.722  32.784  31.149  1.00  0.00    -0.269 OA
ATOM      6  C   UNL A   1      35.074  32.121  30.169  1.00  0.00     0.251 C 
ATOM      7  H   UNL A   1      33.297  32.385  29.320  1.00  0.00     0.163 HD
BRANCH   6   8
ATOM      8  C   UNL A   1      36.342  31.342  30.231  1.00  0.00     0.039 A 
ATOM      9  C   UNL A   1      37.623  31.890  30.309  1.00  0.00     0.014 A 
ATOM     10  C   UNL A   1      36.219  29.946  30.100  1.00  0.00     0.014 A 
ATOM     11  C   UNL A   1      38.746  31.082  30.202  1.00  0.00     0.010 A 
ATOM     12  C   UNL A   1      37.342  29.129  29.997  1.00  0.00     0.010 A 
ATOM     13  C   UNL A   1      38.605  29.706  30.023  1.00  0.00    -0.014 A 
BRANCH  13  14
ATOM     14  C   UNL A   1      39.824  28.904  30.046  1.00  0.00     0.031 A 
ATOM     15  C   UNL A   1      40.298  28.578  31.422  1.00  0.00     0.074 A 
ATOM     16  C   UNL A   1      40.450  28.423  28.955  1.00  0.00     0.049 A 
ATOM     17  N   UNL A   1      41.379  28.985  31.999  1.00  0.00    -0.248 NA
ATOM     18  C   UNL A   1      39.390  27.842  32.314  1.00  0.00     0.031 C 
ATOM     19  C   UNL A   1      40.027  28.473  27.557  1.00  0.00     0.029 A 
ATOM     20  N   UNL A   1      41.606  27.702  28.897  1.00  0.00    -0.354 N 
ATOM     21  C   UNL A   1      41.395  28.401  33.262  1.00  0.00     0.074 A 
ATOM     22  C   UNL A   1      40.086  27.833  33.452  1.00  0.00     0.031 C 
ATOM     23  C   UNL A   1      40.794  27.629  26.824  1.00  0.00     0.029 A 
ATOM     24  C   UNL A   1      41.847  27.090  27.670  1.00  0.00     0.049 A 
ATOM     25  H   UNL A   1      42.221  27.622  29.662  1.00  0.00     0.167 HD
ATOM     26  C   UNL A   1      42.551  28.276  33.973  1.00  0.00     0.034 A 
ATOM     27  C   UNL A   1      42.826  26.186  27.389  1.00  0.00     0.034 A 
ATOM     28  C   UNL A   1      43.567  29.172  33.478  1.00  0.00     0.049 A 
ATOM     29  C   UNL A   1      43.913  26.432  28.370  1.00  0.00     0.074 A 
ATOM     30  C   UNL A   1      43.691  30.546  33.387  1.00  0.00     0.029 A 
ATOM     31  N   UNL A   1      44.524  28.664  32.631  1.00  0.00    -0.354 N 
ATOM     32  N   UNL A   1      44.598  27.541  28.408  1.00  0.00    -0.248 NA
ATOM     33  C   UNL A   1      43.910  25.658  29.603  1.00  0.00     0.031 C 
ATOM     34  C   UNL A   1      44.327  30.772  32.130  1.00  0.00     0.029 A 
ATOM     35  C   UNL A   1      44.616  29.527  31.566  1.00  0.00     0.049 A 
ATOM     36  H   UNL A   1      45.045  27.839  32.762  1.00  0.00     0.167 HD
ATOM     37  C   UNL A   1      44.738  27.826  29.757  1.00  0.00     0.074 A 
ATOM     38  C   UNL A   1      44.371  26.588  30.445  1.00  0.00     0.031 C 
ATOM     39  C   UNL A   1      44.875  29.109  30.203  1.00  0.00     0.034 A 
BRANCH  26  40
ATOM     40  C   UNL A   1      42.880  27.116  34.885  1.00  0.00     0.023 A 
ATOM     41  C   UNL A   1      43.663  26.070  34.355  1.00  0.00     0.031 A 
ATOM     42  C   UNL A   1      42.235  26.843  36.111  1.00  0.00     0.131 A 
ATOM     43  C   UNL A   1      43.696  24.808  34.974  1.00  0.00     0.055 A 
ATOM     44  C   UNL A   1      42.316  25.603  36.752  1.00  0.00     0.041 A 
ATOM     45  F   UNL A   1      41.418  27.718  36.708  1.00  0.00    -0.206 F 
ATOM     46  C   UNL A   1      43.023  24.566  36.167  1.00  0.00     0.022 A 
BRANCH  43  47
ATOM     47  S   UNL A   1      44.508  23.441  34.106  1.00  0.00     0.124 S 
ATOM     48  O   UNL A   1      44.031  22.285  34.857  1.00  0.00    -0.237 OA
ATOM     49  O   UNL A   1      43.984  23.591  32.753  1.00  0.00    -0.237 OA
ATOM     50  O   UNL A   1      45.930  23.739  34.258  1.00  0.00    -0.744 OA
ENDBRANCH  43  47
ENDBRANCH  26  40
BRANCH  27  51
ATOM     51  C   UNL A   1      42.704  24.917  26.611  1.00  0.00     0.023 A 
ATOM     52  C   UNL A   1      43.778  24.381  25.862  1.00  0.00     0.031 A 
ATOM     53  C   UNL A   1      41.597  24.065  26.816  1.00  0.00     0.131 A 
ATOM     54  C   UNL A   1      43.720  23.054  25.370  1.00  0.00     0.055 A 
ATOM     55  C   UNL A   1      41.547  22.755  26.332  1.00  0.00     0.041 A 
ATOM     56  F   UNL A   1      40.559  24.441  27.578  1.00  0.00    -0.206 F 
ATOM     57  C   UNL A   1      42.614  22.239  25.616  1.00  0.00     0.022 A 
BRANCH  54  58
ATOM     58  S   UNL A   1      45.145  22.315  24.501  1.00  0.00     0.124 S 
ATOM     59  O   UNL A   1      46.017  21.937  25.615  1.00  0.00    -0.237 OA
ATOM     60  O   UNL A   1      44.539  21.224  23.756  1.00  0.00    -0.237 OA
ATOM     61  O   UNL A   1      45.649  23.415  23.677  1.00  0.00    -0.744 OA
ENDBRANCH  54  58
ENDBRANCH  27  51
BRANCH  39  62
ATOM     62  C   UNL A   1      45.114  30.205  29.183  1.00  0.00     0.023 A 
ATOM     63  C   UNL A   1      46.385  30.603  28.704  1.00  0.00     0.031 A 
ATOM     64  C   UNL A   1      43.981  30.774  28.578  1.00  0.00     0.131 A 
ATOM     65  C   UNL A   1      46.479  31.544  27.658  1.00  0.00     0.055 A 
ATOM     66  C   UNL A   1      44.078  31.690  27.532  1.00  0.00     0.041 A 
ATOM     67  F   UNL A   1      42.747  30.410  28.967  1.00  0.00    -0.206 F 
ATOM     68  C   UNL A   1      45.328  32.082  27.070  1.00  0.00     0.022 A 
BRANCH  65  69
ATOM     69  S   UNL A   1      48.105  32.072  27.021  1.00  0.00     0.124 S 
ATOM     70  O   UNL A   1      47.763  33.021  25.967  1.00  0.00    -0.237 OA
ATOM     71  O   UNL A   1      48.749  32.632  28.205  1.00  0.00    -0.237 OA
ATOM     72  O   UNL A   1      48.708  30.825  26.542  1.00  0.00    -0.744 OA
ENDBRANCH  65  69
ENDBRANCH  39  62
ENDBRANCH  13  14
ENDBRANCH   6   8
ENDBRANCH   3   4
ENDBRANCH   2   3
ENDBRANCH   1   2
BRANCH   1  73
ATOM     73  C   UNL A   1      34.242  28.701  26.673  1.00  0.00     0.116 C 
BRANCH  73  74
ATOM     74  N   UNL A   1      34.353  28.846  25.226  1.00  0.00    -0.356 N 
ATOM     75  C   UNL A   1      33.546  28.399  24.221  1.00  0.00     0.224 C 
ATOM     76  H   UNL A   1      35.143  29.350  24.925  1.00  0.00     0.163 HD
ATOM     77  O   UNL A   1      33.462  29.131  23.226  1.00  0.00    -0.275 OA
BRANCH  75  78
ATOM     78  C   UNL A   1      32.822  27.036  24.234  1.00  0.00     0.095 C 
ATOM     79  C   UNL A   1      33.348  26.057  25.285  1.00  0.00     0.041 C 
ATOM     80  C   UNL A   1      31.293  27.169  24.256  1.00  0.00     0.095 C 
ATOM     81  C   UNL A   1      32.449  25.818  26.456  1.00  0.00    -0.030 C 
ATOM     82  C   UNL A   1      30.848  27.545  25.690  1.00  0.00     0.041 C 
ATOM     83  C   UNL A   1      31.326  26.512  26.669  1.00  0.00    -0.030 C 
BRANCH  80  84
ATOM     84  C   UNL A   1      30.359  26.021  23.785  1.00  0.00     0.229 C 
ATOM     85  O   UNL A   1      29.146  26.295  23.668  1.00  0.00    -0.274 OA
ATOM     86  N   UNL A   1      30.649  24.778  23.339  1.00  0.00    -0.308 N 
ATOM     87  H   UNL A   1      29.847  24.290  23.046  1.00  0.00     0.171 HD
BRANCH  86  88
ATOM     88  C   UNL A   1      31.794  24.035  23.197  1.00  0.00     0.168 A 
ATOM     89  N   UNL A   1      32.175  23.062  24.001  1.00  0.00    -0.153 NA
ATOM     90  C   UNL A   1      32.746  24.163  22.163  1.00  0.00     0.080 A 
ATOM     91  N   UNL A   1      33.374  22.646  23.589  1.00  0.00    -0.265 N 
ATOM     92  C   UNL A   1      33.777  23.301  22.462  1.00  0.00     0.127 A 
ATOM     93  Br  UNL A   1      32.671  25.416  20.776  1.00  0.00    -0.045 Br
BRANCH  91  94
ATOM     94  C   UNL A   1      34.065  21.602  24.353  1.00  0.00     0.182 C 
BRANCH  94  95
ATOM     95  C   UNL A   1      35.421  22.054  24.843  1.00  0.00     0.009 A 
ATOM     96  C   UNL A   1      35.669  23.396  25.166  1.00  0.00     0.008 A 
ATOM     97  C   UNL A   1      36.472  21.142  24.990  1.00  0.00     0.128 A 
ATOM     98  C   UNL A   1      36.920  23.792  25.653  1.00  0.00     0.001 A 
ATOM     99  C   UNL A   1      37.714  21.525  25.494  1.00  0.00     0.039 A 
ATOM    100  F   UNL A   1      36.301  19.863  24.631  1.00  0.00    -0.207 F 
ATOM    101  C   UNL A   1      37.937  22.855  25.834  1.00  0.00     0.003 A 
ENDBRANCH  94  95
ENDBRANCH  91  94
ENDBRANCH  86  88
ENDBRANCH  80  84
ENDBRANCH  75  78
ENDBRANCH  73  74
ENDBRANCH   1  73
TORSDOF 18
ENDMDL
MODEL 3
REMARK VINA RESULT:     -13.0      2.639      5.149
REMARK SMILES O=C(NCCCCNC(=O)[C@H]1CC=CC[C@@H]1C(=O)Nc1nn(Cc2ccccc2F)cc1Br)c1ccc(-c2c3nc(c(-c4cc(S(=O)(=O)[O-])ccc4F)c4ccc([nH]4)c(-c4cc(S(=O)(=O)[O-])ccc4F)c4nc(c(-c5cc(S(=O)(=O)[O-])ccc5F)c5ccc2[nH]5)C=C4)C=C3)cc1
REMARK SMILES IDX 6 1 5 2 4 3 3 4 1 5 2 6 34 8 35 9 96 10 36 11 95 12 37 13
REMARK SMILES IDX 38 14 39 15 89 16 40 17 94 18 88 19 90 20 41 21 93 22 87 23
REMARK SMILES IDX 86 24 42 26 74 27 54 28 73 29 55 30 58 31 72 32 91 33 56 34
REMARK SMILES IDX 57 35 71 37 92 38 59 39 43 40 44 41 52 42 45 43 51 44 53 45
REMARK SMILES IDX 50 46 46 47 47 48 48 49 49 50 75 51 76 52 84 53 77 54 83 55
REMARK SMILES IDX 85 56 82 57 78 58 79 59 80 60 81 61 60 62 61 63 69 64 62 65
REMARK SMILES IDX 68 66 70 67 67 68 63 69 64 70 65 71 66 72 7 73 8 74 9 75
REMARK SMILES IDX 10 77 11 78 12 79 16 80 13 81 15 82 14 83 17 84 18 85 19 86
REMARK SMILES IDX 20 88 21 89 32 90 22 91 31 92 33 93 23 94 24 95 25 96 29 97
REMARK SMILES IDX 26 98 28 99 30 100 27 101
REMARK H PARENT 3 7 90 25 58 36 8 76 19 87
REMARK Flexibility Score: inf
ROOT
ATOM      1  C   UNL A   1      31.800  29.160  27.200  1.00  0.00     0.023 C 
ENDROOT
BRANCH   1   2
ATOM      2  C   UNL A   1      33.314  29.044  27.285  1.00  0.00     0.023 C 
BRANCH   2   3
ATOM      3  C   UNL A   1      34.071  30.338  26.995  1.00  0.00     0.116 C 
BRANCH   3   4
ATOM      4  N   UNL A   1      34.032  31.287  28.083  1.00  0.00    -0.352 N 
ATOM      5  O   UNL A   1      34.758  32.847  29.474  1.00  0.00    -0.269 OA
ATOM      6  C   UNL A   1      35.015  31.789  28.892  1.00  0.00     0.251 C 
ATOM      7  H   UNL A   1      33.132  31.638  28.278  1.00  0.00     0.163 HD
BRANCH   6   8
ATOM      8  C   UNL A   1      36.321  31.117  29.142  1.00  0.00     0.039 A 
ATOM      9  C   UNL A   1      37.484  31.750  29.582  1.00  0.00     0.014 A 
ATOM     10  C   UNL A   1      36.390  29.751  28.807  1.00  0.00     0.014 A 
ATOM     11  C   UNL A   1      38.689  31.064  29.632  1.00  0.00     0.010 A 
ATOM     12  C   UNL A   1      37.595  29.056  28.859  1.00  0.00     0.010 A 
ATOM     13  C   UNL A   1      38.748  29.724  29.249  1.00  0.00    -0.014 A 
BRANCH  13  14
ATOM     14  C   UNL A   1      40.017  29.032  29.446  1.00  0.00     0.031 A 
ATOM     15  C   UNL A   1      40.367  28.824  30.881  1.00  0.00     0.074 A 
ATOM     16  C   UNL A   1      40.792  28.546  28.457  1.00  0.00     0.049 A 
ATOM     17  N   UNL A   1      41.344  29.353  31.538  1.00  0.00    -0.248 NA
ATOM     18  C   UNL A   1      39.430  28.064  31.722  1.00  0.00     0.031 C 
ATOM     19  C   UNL A   1      40.518  28.483  27.023  1.00  0.00     0.029 A 
ATOM     20  N   UNL A   1      42.001  27.925  28.563  1.00  0.00    -0.354 N 
ATOM     21  C   UNL A   1      41.272  28.843  32.831  1.00  0.00     0.074 A 
ATOM     22  C   UNL A   1      39.999  28.177  32.923  1.00  0.00     0.031 C 
ATOM     23  C   UNL A   1      41.423  27.668  26.427  1.00  0.00     0.029 A 
ATOM     24  C   UNL A   1      42.419  27.268  27.409  1.00  0.00     0.049 A 
ATOM     25  H   UNL A   1      42.535  27.940  29.390  1.00  0.00     0.167 HD
ATOM     26  C   UNL A   1      42.352  28.857  33.662  1.00  0.00     0.034 A 
ATOM     27  C   UNL A   1      43.491  26.437  27.287  1.00  0.00     0.034 A 
ATOM     28  C   UNL A   1      43.341  29.808  33.217  1.00  0.00     0.049 A 
ATOM     29  C   UNL A   1      44.444  26.829  28.355  1.00  0.00     0.074 A 
ATOM     30  C   UNL A   1      43.364  31.180  33.051  1.00  0.00     0.029 A 
ATOM     31  N   UNL A   1      44.420  29.338  32.505  1.00  0.00    -0.354 N 
ATOM     32  N   UNL A   1      45.031  27.994  28.392  1.00  0.00    -0.248 NA
ATOM     33  C   UNL A   1      44.372  26.128  29.628  1.00  0.00     0.031 C 
ATOM     34  C   UNL A   1      44.111  31.390  31.853  1.00  0.00     0.029 A 
ATOM     35  C   UNL A   1      44.555  30.145  31.403  1.00  0.00     0.049 A 
ATOM     36  H   UNL A   1      44.987  28.569  32.741  1.00  0.00     0.167 HD
ATOM     37  C   UNL A   1      45.004  28.363  29.727  1.00  0.00     0.074 A 
ATOM     38  C   UNL A   1      44.665  27.138  30.452  1.00  0.00     0.031 C 
ATOM     39  C   UNL A   1      44.990  29.676  30.102  1.00  0.00     0.034 A 
BRANCH  26  40
ATOM     40  C   UNL A   1      42.673  27.782  34.675  1.00  0.00     0.023 A 
ATOM     41  C   UNL A   1      43.442  26.684  34.240  1.00  0.00     0.031 A 
ATOM     42  C   UNL A   1      42.030  27.628  35.922  1.00  0.00     0.131 A 
ATOM     43  C   UNL A   1      43.466  25.483  34.972  1.00  0.00     0.055 A 
ATOM     44  C   UNL A   1      42.101  26.452  36.673  1.00  0.00     0.041 A 
ATOM     45  F   UNL A   1      41.224  28.563  36.440  1.00  0.00    -0.206 F 
ATOM     46  C   UNL A   1      42.794  25.358  36.184  1.00  0.00     0.022 A 
BRANCH  43  47
ATOM     47  S   UNL A   1      44.260  24.034  34.230  1.00  0.00     0.124 S 
ATOM     48  O   UNL A   1      43.546  22.939  34.875  1.00  0.00    -0.237 OA
ATOM     49  O   UNL A   1      43.986  24.235  32.811  1.00  0.00    -0.237 OA
ATOM     50  O   UNL A   1      45.662  24.179  34.617  1.00  0.00    -0.744 OA
ENDBRANCH  43  47
ENDBRANCH  26  40
BRANCH  27  51
ATOM     51  C   UNL A   1      43.553  25.122  26.583  1.00  0.00     0.023 A 
ATOM     52  C   UNL A   1      42.723  24.033  26.938  1.00  0.00     0.031 A 
ATOM     53  C   UNL A   1      44.250  25.007  25.360  1.00  0.00     0.131 A 
ATOM     54  C   UNL A   1      42.608  22.908  26.084  1.00  0.00     0.055 A 
ATOM     55  C   UNL A   1      44.130  23.897  24.520  1.00  0.00     0.041 A 
ATOM     56  F   UNL A   1      45.001  26.012  24.887  1.00  0.00    -0.206 F 
ATOM     57  C   UNL A   1      43.299  22.846  24.872  1.00  0.00     0.022 A 
BRANCH  54  58
ATOM     58  S   UNL A   1      41.455  21.549  26.475  1.00  0.00     0.124 S 
ATOM     59  O   UNL A   1      41.928  20.485  25.587  1.00  0.00    -0.237 OA
ATOM     60  O   UNL A   1      41.668  21.344  27.898  1.00  0.00    -0.237 OA
ATOM     61  O   UNL A   1      40.147  22.102  26.122  1.00  0.00    -0.744 OA
ENDBRANCH  54  58
ENDBRANCH  27  51
BRANCH  39  62
ATOM     62  C   UNL A   1      45.249  30.730  29.044  1.00  0.00     0.023 A 
ATOM     63  C   UNL A   1      46.530  31.174  28.637  1.00  0.00     0.031 A 
ATOM     64  C   UNL A   1      44.137  31.204  28.327  1.00  0.00     0.131 A 
ATOM     65  C   UNL A   1      46.655  32.064  27.551  1.00  0.00     0.055 A 
ATOM     66  C   UNL A   1      44.266  32.070  27.243  1.00  0.00     0.041 A 
ATOM     67  F   UNL A   1      42.898  30.793  28.645  1.00  0.00    -0.206 F 
ATOM     68  C   UNL A   1      45.526  32.507  26.852  1.00  0.00     0.022 A 
BRANCH  65  69
ATOM     69  S   UNL A   1      48.295  32.648  27.006  1.00  0.00     0.124 S 
ATOM     70  O   UNL A   1      48.845  33.275  28.202  1.00  0.00    -0.237 OA
ATOM     71  O   UNL A   1      48.947  31.416  26.569  1.00  0.00    -0.237 OA
ATOM     72  O   UNL A   1      47.985  33.581  25.920  1.00  0.00    -0.744 OA
ENDBRANCH  65  69
ENDBRANCH  39  62
ENDBRANCH  13  14
ENDBRANCH   6   8
ENDBRANCH   3   4
ENDBRANCH   2   3
ENDBRANCH   1   2
BRANCH   1  73
ATOM     73  C   UNL A   1      31.109  28.236  26.186  1.00  0.00     0.116 C 
BRANCH  73  74
ATOM     74  N   UNL A   1      30.863  26.862  26.609  1.00  0.00    -0.356 N 
ATOM     75  C   UNL A   1      31.339  25.680  26.122  1.00  0.00     0.224 C 
ATOM     76  H   UNL A   1      30.250  26.773  27.375  1.00  0.00     0.163 HD
ATOM     77  O   UNL A   1      31.528  24.785  26.956  1.00  0.00    -0.275 OA
BRANCH  75  78
ATOM     78  C   UNL A   1      31.571  25.393  24.623  1.00  0.00     0.095 C 
ATOM     79  C   UNL A   1      30.489  25.962  23.702  1.00  0.00     0.041 C 
ATOM     80  C   UNL A   1      32.991  25.740  24.158  1.00  0.00     0.095 C 
ATOM     81  C   UNL A   1      30.895  27.141  22.876  1.00  0.00    -0.030 C 
ATOM     82  C   UNL A   1      33.100  27.274  23.994  1.00  0.00     0.041 C 
ATOM     83  C   UNL A   1      32.067  27.768  23.024  1.00  0.00    -0.030 C 
BRANCH  80  84
ATOM     84  C   UNL A   1      33.617  25.110  22.884  1.00  0.00     0.229 C 
ATOM     85  O   UNL A   1      33.944  25.896  21.970  1.00  0.00    -0.274 OA
ATOM     86  N   UNL A   1      34.006  23.840  22.631  1.00  0.00    -0.308 N 
ATOM     87  H   UNL A   1      34.435  23.750  21.750  1.00  0.00     0.171 HD
BRANCH  86  88
ATOM     88  C   UNL A   1      33.947  22.648  23.307  1.00  0.00     0.168 A 
ATOM     89  N   UNL A   1      32.965  21.773  23.224  1.00  0.00    -0.153 NA
ATOM     90  C   UNL A   1      34.927  22.141  24.188  1.00  0.00     0.080 A 
ATOM     91  N   UNL A   1      33.224  20.792  24.091  1.00  0.00    -0.265 N 
ATOM     92  C   UNL A   1      34.420  20.977  24.720  1.00  0.00     0.127 A 
ATOM     93  Br  UNL A   1      36.512  23.016  24.657  1.00  0.00    -0.045 Br
BRANCH  91  94
ATOM     94  C   UNL A   1      32.250  19.708  24.251  1.00  0.00     0.182 C 
BRANCH  94  95
ATOM     95  C   UNL A   1      32.907  18.348  24.289  1.00  0.00     0.009 A 
ATOM     96  C   UNL A   1      33.441  17.764  23.132  1.00  0.00     0.008 A 
ATOM     97  C   UNL A   1      33.000  17.629  25.487  1.00  0.00     0.128 A 
ATOM     98  C   UNL A   1      34.078  16.519  23.192  1.00  0.00     0.001 A 
ATOM     99  C   UNL A   1      33.652  16.399  25.557  1.00  0.00     0.039 A 
ATOM    100  F   UNL A   1      32.446  18.118  26.603  1.00  0.00    -0.207 F 
ATOM    101  C   UNL A   1      34.200  15.844  24.406  1.00  0.00     0.003 A 
ENDBRANCH  94  95
ENDBRANCH  91  94
ENDBRANCH  86  88
ENDBRANCH  80  84
ENDBRANCH  75  78
ENDBRANCH  73  74
ENDBRANCH   1  73
TORSDOF 18
ENDMDL
