MODEL 1
REMARK VINA RESULT:     -13.7      0.000      0.000
REMARK SMILES O=C(NCCCCNC(=O)[C@@H](Cc1c[nH]c2ccccc12)Nc1ncnc2ccccc12)c1ccc(-c2c3nc(c(-c4cc(S(=O)(=O)[O-])ccc4F)c4ccc([nH]4)c(-c4cc(S(=O)(=O)[O-])ccc4F)c4nc(c(-c5cc(S(=O)(=O)[O-])ccc5F)c5ccc2[nH]5)C=C4)C=C3)cc1
REMARK SMILES IDX 5 1 4 2 3 3 1 4 2 5 33 7 34 8 95 9 35 10 94 11 36 12 37 13
REMARK SMILES IDX 38 14 88 15 39 16 93 17 87 18 89 19 40 20 92 21 86 22 85 23
REMARK SMILES IDX 41 25 73 26 53 27 72 28 54 29 57 30 71 31 90 32 55 33 56 34
REMARK SMILES IDX 70 36 91 37 58 38 42 39 43 40 51 41 44 42 50 43 52 44 49 45
REMARK SMILES IDX 45 46 46 47 47 48 48 49 74 50 75 51 83 52 76 53 82 54 84 55
REMARK SMILES IDX 81 56 77 57 78 58 79 59 80 60 59 61 60 62 68 63 61 64 67 65
REMARK SMILES IDX 69 66 66 67 62 68 63 69 64 70 65 71 6 72 7 73 8 74 9 75
REMARK SMILES IDX 10 77 11 78 12 79 13 80 14 81 21 82 15 83 16 84 20 85 17 87
REMARK SMILES IDX 19 88 18 89 22 90 23 92 24 93 32 94 25 95 27 96 31 97 26 98
REMARK SMILES IDX 28 99 30 100 29 101
REMARK H PARENT 3 6 89 24 57 35 8 76 15 86 22 91
REMARK Flexibility Score: inf
ROOT
ATOM      1  C   UNL A   1      31.752  28.471  25.717  1.00  0.00     0.023 C 
ENDROOT
BRANCH   1   2
ATOM      2  C   UNL A   1      32.877  29.391  26.159  1.00  0.00     0.116 C 
BRANCH   2   3
ATOM      3  N   UNL A   1      32.453  30.729  26.580  1.00  0.00    -0.352 N 
ATOM      4  O   UNL A   1      32.677  32.730  27.633  1.00  0.00    -0.269 OA
ATOM      5  C   UNL A   1      33.180  31.667  27.287  1.00  0.00     0.251 C 
ATOM      6  H   UNL A   1      31.538  30.991  26.328  1.00  0.00     0.163 HD
BRANCH   5   7
ATOM      7  C   UNL A   1      34.571  31.329  27.651  1.00  0.00     0.039 A 
ATOM      8  C   UNL A   1      34.863  30.023  28.033  1.00  0.00     0.014 A 
ATOM      9  C   UNL A   1      35.529  32.339  27.776  1.00  0.00     0.014 A 
ATOM     10  C   UNL A   1      36.003  29.785  28.781  1.00  0.00     0.010 A 
ATOM     11  C   UNL A   1      36.752  32.051  28.394  1.00  0.00     0.010 A 
ATOM     12  C   UNL A   1      36.975  30.787  28.959  1.00  0.00    -0.014 A 
BRANCH  12  13
ATOM     13  C   UNL A   1      38.204  30.433  29.722  1.00  0.00     0.031 A 
ATOM     14  C   UNL A   1      38.395  30.845  31.159  1.00  0.00     0.074 A 
ATOM     15  C   UNL A   1      39.100  29.622  29.123  1.00  0.00     0.049 A 
ATOM     16  N   UNL A   1      39.381  30.555  31.971  1.00  0.00    -0.248 NA
ATOM     17  C   UNL A   1      37.363  31.702  31.763  1.00  0.00     0.031 C 
ATOM     18  C   UNL A   1      39.017  29.171  27.729  1.00  0.00     0.029 A 
ATOM     19  N   UNL A   1      40.207  28.979  29.608  1.00  0.00    -0.354 N 
ATOM     20  C   UNL A   1      39.112  31.219  33.164  1.00  0.00     0.074 A 
ATOM     21  C   UNL A   1      37.872  31.941  32.964  1.00  0.00     0.031 C 
ATOM     22  C   UNL A   1      39.951  28.239  27.510  1.00  0.00     0.029 A 
ATOM     23  C   UNL A   1      40.776  28.110  28.703  1.00  0.00     0.049 A 
ATOM     24  H   UNL A   1      40.563  29.123  30.515  1.00  0.00     0.167 HD
ATOM     25  C   UNL A   1      39.835  31.224  34.313  1.00  0.00     0.034 A 
ATOM     26  C   UNL A   1      41.853  27.310  28.808  1.00  0.00     0.034 A 
ATOM     27  C   UNL A   1      41.058  30.476  34.495  1.00  0.00     0.049 A 
ATOM     28  C   UNL A   1      42.613  27.314  30.103  1.00  0.00     0.074 A 
ATOM     29  C   UNL A   1      41.881  30.421  35.607  1.00  0.00     0.029 A 
ATOM     30  N   UNL A   1      41.631  29.642  33.541  1.00  0.00    -0.354 N 
ATOM     31  N   UNL A   1      42.365  27.990  31.200  1.00  0.00    -0.248 NA
ATOM     32  C   UNL A   1      43.802  26.459  30.168  1.00  0.00     0.031 C 
ATOM     33  C   UNL A   1      42.973  29.595  35.311  1.00  0.00     0.029 A 
ATOM     34  C   UNL A   1      42.800  29.080  34.035  1.00  0.00     0.049 A 
ATOM     35  H   UNL A   1      41.260  29.473  32.646  1.00  0.00     0.167 HD
ATOM     36  C   UNL A   1      43.383  27.657  32.083  1.00  0.00     0.074 A 
ATOM     37  C   UNL A   1      44.211  26.674  31.410  1.00  0.00     0.031 C 
ATOM     38  C   UNL A   1      43.630  28.135  33.330  1.00  0.00     0.034 A 
BRANCH  25  39
ATOM     39  C   UNL A   1      39.352  32.106  35.442  1.00  0.00     0.023 A 
ATOM     40  C   UNL A   1      39.783  33.435  35.590  1.00  0.00     0.031 A 
ATOM     41  C   UNL A   1      38.442  31.602  36.390  1.00  0.00     0.131 A 
ATOM     42  C   UNL A   1      39.344  34.197  36.686  1.00  0.00     0.055 A 
ATOM     43  C   UNL A   1      37.956  32.386  37.440  1.00  0.00     0.041 A 
ATOM     44  F   UNL A   1      38.009  30.333  36.314  1.00  0.00    -0.206 F 
ATOM     45  C   UNL A   1      38.415  33.689  37.597  1.00  0.00     0.022 A 
BRANCH  42  46
ATOM     46  S   UNL A   1      40.088  35.828  36.968  1.00  0.00     0.124 S 
ATOM     47  O   UNL A   1      39.658  36.558  35.777  1.00  0.00    -0.237 OA
ATOM     48  O   UNL A   1      39.478  36.241  38.226  1.00  0.00    -0.237 OA
ATOM     49  O   UNL A   1      41.521  35.546  37.032  1.00  0.00    -0.744 OA
ENDBRANCH  42  46
ENDBRANCH  25  39
BRANCH  26  50
ATOM     50  C   UNL A   1      42.300  26.499  27.640  1.00  0.00     0.023 A 
ATOM     51  C   UNL A   1      41.917  25.157  27.491  1.00  0.00     0.031 A 
ATOM     52  C   UNL A   1      43.133  27.061  26.654  1.00  0.00     0.131 A 
ATOM     53  C   UNL A   1      42.390  24.415  26.398  1.00  0.00     0.055 A 
ATOM     54  C   UNL A   1      43.549  26.337  25.538  1.00  0.00     0.041 A 
ATOM     55  F   UNL A   1      43.528  28.341  26.747  1.00  0.00    -0.206 F 
ATOM     56  C   UNL A   1      43.188  25.001  25.411  1.00  0.00     0.022 A 
BRANCH  53  57
ATOM     57  S   UNL A   1      42.018  22.642  26.323  1.00  0.00     0.124 S 
ATOM     58  O   UNL A   1      40.560  22.642  26.329  1.00  0.00    -0.237 OA
ATOM     59  O   UNL A   1      42.655  22.253  25.070  1.00  0.00    -0.237 OA
ATOM     60  O   UNL A   1      42.648  22.112  27.531  1.00  0.00    -0.744 OA
ENDBRANCH  53  57
ENDBRANCH  26  50
BRANCH  38  61
ATOM     61  C   UNL A   1      44.854  27.587  34.016  1.00  0.00     0.023 A 
ATOM     62  C   UNL A   1      44.787  26.421  34.797  1.00  0.00     0.031 A 
ATOM     63  C   UNL A   1      46.078  28.272  33.947  1.00  0.00     0.131 A 
ATOM     64  C   UNL A   1      45.903  26.014  35.542  1.00  0.00     0.055 A 
ATOM     65  C   UNL A   1      47.204  27.829  34.643  1.00  0.00     0.041 A 
ATOM     66  F   UNL A   1      46.195  29.393  33.217  1.00  0.00    -0.206 F 
ATOM     67  C   UNL A   1      47.115  26.704  35.460  1.00  0.00     0.022 A 
BRANCH  64  68
ATOM     68  S   UNL A   1      45.712  24.641  36.711  1.00  0.00     0.124 S 
ATOM     69  O   UNL A   1      44.609  23.890  36.120  1.00  0.00    -0.237 OA
ATOM     70  O   UNL A   1      47.021  24.001  36.658  1.00  0.00    -0.237 OA
ATOM     71  O   UNL A   1      45.399  25.308  37.974  1.00  0.00    -0.744 OA
ENDBRANCH  64  68
ENDBRANCH  38  61
ENDBRANCH  12  13
ENDBRANCH   5   7
ENDBRANCH   2   3
ENDBRANCH   1   2
BRANCH   1  72
ATOM     72  C   UNL A   1      31.477  27.336  26.680  1.00  0.00     0.023 C 
BRANCH  72  73
ATOM     73  C   UNL A   1      32.102  25.993  26.324  1.00  0.00     0.116 C 
BRANCH  73  74
ATOM     74  N   UNL A   1      31.439  24.928  27.041  1.00  0.00    -0.354 N 
ATOM     75  C   UNL A   1      30.973  23.726  26.606  1.00  0.00     0.242 C 
ATOM     76  H   UNL A   1      31.301  25.100  28.001  1.00  0.00     0.163 HD
ATOM     77  O   UNL A   1      30.223  23.115  27.379  1.00  0.00    -0.273 OA
BRANCH  75  78
ATOM     78  C   UNL A   1      31.359  23.086  25.246  1.00  0.00     0.174 C 
BRANCH  78  79
ATOM     79  C   UNL A   1      31.436  21.545  25.206  1.00  0.00     0.072 C 
BRANCH  79  80
ATOM     80  C   UNL A   1      32.731  20.778  25.104  1.00  0.00    -0.020 A 
ATOM     81  C   UNL A   1      33.914  21.215  25.684  1.00  0.00     0.087 A 
ATOM     82  C   UNL A   1      33.066  19.573  24.390  1.00  0.00     0.003 A 
ATOM     83  N   UNL A   1      34.889  20.283  25.466  1.00  0.00    -0.361 N 
ATOM     84  C   UNL A   1      34.383  19.241  24.728  1.00  0.00     0.046 A 
ATOM     85  C   UNL A   1      32.379  18.688  23.532  1.00  0.00     0.010 A 
ATOM     86  H   UNL A   1      35.816  20.348  25.788  1.00  0.00     0.166 HD
ATOM     87  C   UNL A   1      34.989  18.033  24.359  1.00  0.00     0.026 A 
ATOM     88  C   UNL A   1      32.968  17.476  23.150  1.00  0.00     0.001 A 
ATOM     89  C   UNL A   1      34.248  17.144  23.580  1.00  0.00     0.002 A 
ENDBRANCH  79  80
ENDBRANCH  78  79
BRANCH  78  90
ATOM     90  N   UNL A   1      30.644  23.700  24.128  1.00  0.00    -0.358 N 
ATOM     91  H   UNL A   1      29.798  23.275  23.857  1.00  0.00     0.162 HD
BRANCH  90  92
ATOM     92  C   UNL A   1      31.030  24.811  23.416  1.00  0.00     0.137 A 
ATOM     93  N   UNL A   1      32.250  24.639  22.877  1.00  0.00    -0.219 NA
ATOM     94  C   UNL A   1      30.323  26.025  23.284  1.00  0.00     0.043 A 
ATOM     95  C   UNL A   1      32.744  25.647  22.154  1.00  0.00     0.224 A 
ATOM     96  C   UNL A   1      30.958  27.001  22.497  1.00  0.00     0.076 A 
ATOM     97  C   UNL A   1      29.082  26.367  23.886  1.00  0.00     0.014 A 
ATOM     98  N   UNL A   1      32.152  26.821  21.930  1.00  0.00    -0.236 NA
ATOM     99  C   UNL A   1      30.336  28.230  22.303  1.00  0.00     0.029 A 
ATOM    100  C   UNL A   1      28.472  27.602  23.677  1.00  0.00     0.001 A 
ATOM    101  C   UNL A   1      29.101  28.538  22.876  1.00  0.00     0.002 A 
ENDBRANCH  90  92
ENDBRANCH  78  90
ENDBRANCH  75  78
ENDBRANCH  73  74
ENDBRANCH  72  73
ENDBRANCH   1  72
TORSDOF 18
ENDMDL
MODEL 2
REMARK VINA RESULT:     -13.5      1.816      2.055
REMARK SMILES O=C(NCCCCNC(=O)[C@@H](Cc1c[nH]c2ccccc12)Nc1ncnc2ccccc12)c1ccc(-c2c3nc(c(-c4cc(S(=O)(=O)[O-])ccc4F)c4ccc([nH]4)c(-c4cc(S(=O)(=O)[O-])ccc4F)c4nc(c(-c5cc(S(=O)(=O)[O-])ccc5F)c5ccc2[nH]5)C=C4)C=C3)cc1
REMARK SMILES IDX 5 1 4 2 3 3 1 4 2 5 33 7 34 8 95 9 35 10 94 11 36 12 37 13
REMARK SMILES IDX 38 14 88 15 39 16 93 17 87 18 89 19 40 20 92 21 86 22 85 23
REMARK SMILES IDX 41 25 73 26 53 27 72 28 54 29 57 30 71 31 90 32 55 33 56 34
REMARK SMILES IDX 70 36 91 37 58 38 42 39 43 40 51 41 44 42 50 43 52 44 49 45
REMARK SMILES IDX 45 46 46 47 47 48 48 49 74 50 75 51 83 52 76 53 82 54 84 55
REMARK SMILES IDX 81 56 77 57 78 58 79 59 80 60 59 61 60 62 68 63 61 64 67 65
REMARK SMILES IDX 69 66 66 67 62 68 63 69 64 70 65 71 6 72 7 73 8 74 9 75
REMARK SMILES IDX 10 77 11 78 12 79 13 80 14 81 21 82 15 83 16 84 20 85 17 87
REMARK SMILES IDX 19 88 18 89 22 90 23 92 24 93 32 94 25 95 27 96 31 97 26 98
REMARK SMILES IDX 28 99 30 100 29 101
REMARK H PARENT 3 6 89 24 57 35 8 76 15 86 22 91
REMARK Flexibility Score: inf
ROOT
ATOM      1  C   UNL A   1      31.906  28.411  25.616  1.00  0.00     0.023 C 
ENDROOT
BRANCH   1   2
ATOM      2  C   UNL A   1      32.998  29.294  26.195  1.00  0.00     0.116 C 
BRANCH   2   3
ATOM      3  N   UNL A   1      32.557  30.626  26.619  1.00  0.00    -0.352 N 
ATOM      4  O   UNL A   1      32.761  32.632  27.665  1.00  0.00    -0.269 OA
ATOM      5  C   UNL A   1      33.276  31.577  27.316  1.00  0.00     0.251 C 
ATOM      6  H   UNL A   1      31.635  30.873  26.376  1.00  0.00     0.163 HD
BRANCH   5   7
ATOM      7  C   UNL A   1      34.677  31.262  27.665  1.00  0.00     0.039 A 
ATOM      8  C   UNL A   1      35.006  29.948  27.986  1.00  0.00     0.014 A 
ATOM      9  C   UNL A   1      35.606  32.291  27.838  1.00  0.00     0.014 A 
ATOM     10  C   UNL A   1      36.152  29.708  28.723  1.00  0.00     0.010 A 
ATOM     11  C   UNL A   1      36.837  32.010  28.443  1.00  0.00     0.010 A 
ATOM     12  C   UNL A   1      37.096  30.727  28.949  1.00  0.00    -0.014 A 
BRANCH  12  13
ATOM     13  C   UNL A   1      38.335  30.374  29.695  1.00  0.00     0.031 A 
ATOM     14  C   UNL A   1      38.540  30.776  31.133  1.00  0.00     0.074 A 
ATOM     15  C   UNL A   1      39.227  29.570  29.081  1.00  0.00     0.049 A 
ATOM     16  N   UNL A   1      39.536  30.485  31.932  1.00  0.00    -0.248 NA
ATOM     17  C   UNL A   1      37.511  31.625  31.754  1.00  0.00     0.031 C 
ATOM     18  C   UNL A   1      39.130  29.127  27.686  1.00  0.00     0.029 A 
ATOM     19  N   UNL A   1      40.342  28.927  29.550  1.00  0.00    -0.354 N 
ATOM     20  C   UNL A   1      39.277  31.140  33.132  1.00  0.00     0.074 A 
ATOM     21  C   UNL A   1      38.033  31.858  32.951  1.00  0.00     0.031 C 
ATOM     22  C   UNL A   1      40.065  28.200  27.450  1.00  0.00     0.029 A 
ATOM     23  C   UNL A   1      40.903  28.067  28.633  1.00  0.00     0.049 A 
ATOM     24  H   UNL A   1      40.708  29.067  30.453  1.00  0.00     0.167 HD
ATOM     25  C   UNL A   1      40.013  31.140  34.273  1.00  0.00     0.034 A 
ATOM     26  C   UNL A   1      41.985  27.270  28.720  1.00  0.00     0.034 A 
ATOM     27  C   UNL A   1      41.241  30.396  34.437  1.00  0.00     0.049 A 
ATOM     28  C   UNL A   1      42.759  27.269  30.006  1.00  0.00     0.074 A 
ATOM     29  C   UNL A   1      42.077  30.336  35.539  1.00  0.00     0.029 A 
ATOM     30  N   UNL A   1      41.806  29.570  33.471  1.00  0.00    -0.354 N 
ATOM     31  N   UNL A   1      42.521  27.937  31.111  1.00  0.00    -0.248 NA
ATOM     32  C   UNL A   1      43.952  26.418  30.053  1.00  0.00     0.031 C 
ATOM     33  C   UNL A   1      43.168  29.516  35.225  1.00  0.00     0.029 A 
ATOM     34  C   UNL A   1      42.983  29.010  33.948  1.00  0.00     0.049 A 
ATOM     35  H   UNL A   1      41.426  29.406  32.579  1.00  0.00     0.167 HD
ATOM     36  C   UNL A   1      43.550  27.602  31.980  1.00  0.00     0.074 A 
ATOM     37  C   UNL A   1      44.374  26.626  31.292  1.00  0.00     0.031 C 
ATOM     38  C   UNL A   1      43.809  28.072  33.228  1.00  0.00     0.034 A 
BRANCH  25  39
ATOM     39  C   UNL A   1      39.539  32.013  35.414  1.00  0.00     0.023 A 
ATOM     40  C   UNL A   1      38.800  31.497  36.492  1.00  0.00     0.031 A 
ATOM     41  C   UNL A   1      39.835  33.389  35.419  1.00  0.00     0.131 A 
ATOM     42  C   UNL A   1      38.339  32.358  37.502  1.00  0.00     0.055 A 
ATOM     43  C   UNL A   1      39.432  34.228  36.460  1.00  0.00     0.041 A 
ATOM     44  F   UNL A   1      40.520  33.943  34.406  1.00  0.00    -0.206 F 
ATOM     45  C   UNL A   1      38.671  33.715  37.505  1.00  0.00     0.022 A 
BRANCH  42  46
ATOM     46  S   UNL A   1      37.206  31.702  38.758  1.00  0.00     0.124 S 
ATOM     47  O   UNL A   1      36.084  32.633  38.659  1.00  0.00    -0.237 OA
ATOM     48  O   UNL A   1      36.956  30.347  38.282  1.00  0.00    -0.237 OA
ATOM     49  O   UNL A   1      37.976  31.796  39.998  1.00  0.00    -0.744 OA
ENDBRANCH  42  46
ENDBRANCH  25  39
BRANCH  26  50
ATOM     50  C   UNL A   1      42.422  26.469  27.542  1.00  0.00     0.023 A 
ATOM     51  C   UNL A   1      42.057  25.122  27.397  1.00  0.00     0.031 A 
ATOM     52  C   UNL A   1      43.228  27.045  26.542  1.00  0.00     0.131 A 
ATOM     53  C   UNL A   1      42.520  24.390  26.293  1.00  0.00     0.055 A 
ATOM     54  C   UNL A   1      43.634  26.331  25.417  1.00  0.00     0.041 A 
ATOM     55  F   UNL A   1      43.605  28.331  26.631  1.00  0.00    -0.206 F 
ATOM     56  C   UNL A   1      43.291  24.989  25.293  1.00  0.00     0.022 A 
BRANCH  53  57
ATOM     57  S   UNL A   1      42.173  22.611  26.221  1.00  0.00     0.124 S 
ATOM     58  O   UNL A   1      40.718  22.586  26.311  1.00  0.00    -0.237 OA
ATOM     59  O   UNL A   1      42.743  22.245  24.929  1.00  0.00    -0.237 OA
ATOM     60  O   UNL A   1      42.880  22.080  27.385  1.00  0.00    -0.744 OA
ENDBRANCH  53  57
ENDBRANCH  26  50
BRANCH  38  61
ATOM     61  C   UNL A   1      45.043  27.525  33.896  1.00  0.00     0.023 A 
ATOM     62  C   UNL A   1      46.292  28.150  33.737  1.00  0.00     0.031 A 
ATOM     63  C   UNL A   1      44.985  26.334  34.637  1.00  0.00     0.131 A 
ATOM     64  C   UNL A   1      47.447  27.542  34.247  1.00  0.00     0.055 A 
ATOM     65  C   UNL A   1      46.130  25.763  35.195  1.00  0.00     0.041 A 
ATOM     66  F   UNL A   1      43.818  25.695  34.816  1.00  0.00    -0.206 F 
ATOM     67  C   UNL A   1      47.373  26.358  34.986  1.00  0.00     0.022 A 
BRANCH  64  68
ATOM     68  S   UNL A   1      49.060  28.256  33.828  1.00  0.00     0.124 S 
ATOM     69  O   UNL A   1      48.722  29.657  33.597  1.00  0.00    -0.237 OA
ATOM     70  O   UNL A   1      49.845  27.978  35.025  1.00  0.00    -0.237 OA
ATOM     71  O   UNL A   1      49.465  27.513  32.636  1.00  0.00    -0.744 OA
ENDBRANCH  64  68
ENDBRANCH  38  61
ENDBRANCH  12  13
ENDBRANCH   5   7
ENDBRANCH   2   3
ENDBRANCH   1   2
BRANCH   1  72
ATOM     72  C   UNL A   1      31.455  27.306  26.547  1.00  0.00     0.023 C 
BRANCH  72  73
ATOM     73  C   UNL A   1      32.148  25.961  26.370  1.00  0.00     0.116 C 
BRANCH  73  74
ATOM     74  N   UNL A   1      31.415  24.927  27.062  1.00  0.00    -0.354 N 
ATOM     75  C   UNL A   1      30.914  23.745  26.610  1.00  0.00     0.242 C 
ATOM     76  H   UNL A   1      31.250  25.106  28.017  1.00  0.00     0.163 HD
ATOM     77  O   UNL A   1      30.110  23.168  27.355  1.00  0.00    -0.273 OA
BRANCH  75  78
ATOM     78  C   UNL A   1      31.321  23.087  25.265  1.00  0.00     0.174 C 
BRANCH  78  79
ATOM     79  C   UNL A   1      31.408  21.546  25.249  1.00  0.00     0.072 C 
BRANCH  79  80
ATOM     80  C   UNL A   1      32.707  20.787  25.151  1.00  0.00    -0.020 A 
ATOM     81  C   UNL A   1      33.880  21.217  25.757  1.00  0.00     0.087 A 
ATOM     82  C   UNL A   1      33.059  19.598  24.418  1.00  0.00     0.003 A 
ATOM     83  N   UNL A   1      34.862  20.293  25.535  1.00  0.00    -0.361 N 
ATOM     84  C   UNL A   1      34.371  19.264  24.769  1.00  0.00     0.046 A 
ATOM     85  C   UNL A   1      32.388  18.728  23.533  1.00  0.00     0.010 A 
ATOM     86  H   UNL A   1      35.784  20.356  25.872  1.00  0.00     0.166 HD
ATOM     87  C   UNL A   1      34.988  18.067  24.385  1.00  0.00     0.026 A 
ATOM     88  C   UNL A   1      32.988  17.526  23.136  1.00  0.00     0.001 A 
ATOM     89  C   UNL A   1      34.263  17.191  23.577  1.00  0.00     0.002 A 
ENDBRANCH  79  80
ENDBRANCH  78  79
BRANCH  78  90
ATOM     90  N   UNL A   1      30.615  23.680  24.129  1.00  0.00    -0.358 N 
ATOM     91  H   UNL A   1      29.778  23.242  23.852  1.00  0.00     0.162 HD
BRANCH  90  92
ATOM     92  C   UNL A   1      31.000  24.786  23.409  1.00  0.00     0.137 A 
ATOM     93  N   UNL A   1      32.214  24.606  22.860  1.00  0.00    -0.219 NA
ATOM     94  C   UNL A   1      30.297  26.002  23.277  1.00  0.00     0.043 A 
ATOM     95  C   UNL A   1      32.706  25.608  22.128  1.00  0.00     0.224 A 
ATOM     96  C   UNL A   1      30.929  26.972  22.480  1.00  0.00     0.076 A 
ATOM     97  C   UNL A   1      29.062  26.352  23.889  1.00  0.00     0.014 A 
ATOM     98  N   UNL A   1      32.117  26.784  21.903  1.00  0.00    -0.236 NA
ATOM     99  C   UNL A   1      30.311  28.202  22.286  1.00  0.00     0.029 A 
ATOM    100  C   UNL A   1      28.457  27.589  23.679  1.00  0.00     0.001 A 
ATOM    101  C   UNL A   1      29.083  28.519  22.869  1.00  0.00     0.002 A 
ENDBRANCH  90  92
ENDBRANCH  78  90
ENDBRANCH  75  78
ENDBRANCH  73  74
ENDBRANCH  72  73
ENDBRANCH   1  72
TORSDOF 18
ENDMDL
MODEL 3
REMARK VINA RESULT:     -13.4      1.495      2.062
REMARK SMILES O=C(NCCCCNC(=O)[C@@H](Cc1c[nH]c2ccccc12)Nc1ncnc2ccccc12)c1ccc(-c2c3nc(c(-c4cc(S(=O)(=O)[O-])ccc4F)c4ccc([nH]4)c(-c4cc(S(=O)(=O)[O-])ccc4F)c4nc(c(-c5cc(S(=O)(=O)[O-])ccc5F)c5ccc2[nH]5)C=C4)C=C3)cc1
REMARK SMILES IDX 5 1 4 2 3 3 1 4 2 5 33 7 34 8 95 9 35 10 94 11 36 12 37 13
REMARK SMILES IDX 38 14 88 15 39 16 93 17 87 18 89 19 40 20 92 21 86 22 85 23
REMARK SMILES IDX 41 25 73 26 53 27 72 28 54 29 57 30 71 31 90 32 55 33 56 34
REMARK SMILES IDX 70 36 91 37 58 38 42 39 43 40 51 41 44 42 50 43 52 44 49 45
REMARK SMILES IDX 45 46 46 47 47 48 48 49 74 50 75 51 83 52 76 53 82 54 84 55
REMARK SMILES IDX 81 56 77 57 78 58 79 59 80 60 59 61 60 62 68 63 61 64 67 65
REMARK SMILES IDX 69 66 66 67 62 68 63 69 64 70 65 71 6 72 7 73 8 74 9 75
REMARK SMILES IDX 10 77 11 78 12 79 13 80 14 81 21 82 15 83 16 84 20 85 17 87
REMARK SMILES IDX 19 88 18 89 22 90 23 92 24 93 32 94 25 95 27 96 31 97 26 98
REMARK SMILES IDX 28 99 30 100 29 101
REMARK H PARENT 3 6 89 24 57 35 8 76 15 86 22 91
REMARK Flexibility Score: inf
ROOT
ATOM      1  C   UNL A   1      31.837  28.198  27.362  1.00  0.00     0.023 C 
ENDROOT
BRANCH   1   2
ATOM      2  C   UNL A   1      32.708  29.174  26.592  1.00  0.00     0.116 C 
BRANCH   2   3
ATOM      3  N   UNL A   1      32.354  30.586  26.761  1.00  0.00    -0.352 N 
ATOM      4  O   UNL A   1      32.699  32.740  27.397  1.00  0.00    -0.269 OA
ATOM      5  C   UNL A   1      33.146  31.609  27.245  1.00  0.00     0.251 C 
ATOM      6  H   UNL A   1      31.439  30.836  26.496  1.00  0.00     0.163 HD
BRANCH   5   7
ATOM      7  C   UNL A   1      34.538  31.285  27.617  1.00  0.00     0.039 A 
ATOM      8  C   UNL A   1      34.848  29.974  27.968  1.00  0.00     0.014 A 
ATOM      9  C   UNL A   1      35.477  32.306  27.781  1.00  0.00     0.014 A 
ATOM     10  C   UNL A   1      35.982  29.735  28.723  1.00  0.00     0.010 A 
ATOM     11  C   UNL A   1      36.698  32.023  28.405  1.00  0.00     0.010 A 
ATOM     12  C   UNL A   1      36.936  30.747  28.939  1.00  0.00    -0.014 A 
BRANCH  12  13
ATOM     13  C   UNL A   1      38.162  30.394  29.707  1.00  0.00     0.031 A 
ATOM     14  C   UNL A   1      38.330  30.774  31.156  1.00  0.00     0.074 A 
ATOM     15  C   UNL A   1      39.076  29.611  29.099  1.00  0.00     0.049 A 
ATOM     16  N   UNL A   1      39.312  30.479  31.972  1.00  0.00    -0.248 NA
ATOM     17  C   UNL A   1      37.279  31.600  31.768  1.00  0.00     0.031 C 
ATOM     18  C   UNL A   1      39.015  29.192  27.695  1.00  0.00     0.029 A 
ATOM     19  N   UNL A   1      40.187  28.972  29.582  1.00  0.00    -0.354 N 
ATOM     20  C   UNL A   1      39.019  31.110  33.177  1.00  0.00     0.074 A 
ATOM     21  C   UNL A   1      37.771  31.818  32.980  1.00  0.00     0.031 C 
ATOM     22  C   UNL A   1      39.966  28.279  27.464  1.00  0.00     0.029 A 
ATOM     23  C   UNL A   1      40.779  28.134  28.663  1.00  0.00     0.049 A 
ATOM     24  H   UNL A   1      40.531  29.100  30.496  1.00  0.00     0.167 HD
ATOM     25  C   UNL A   1      39.729  31.099  34.334  1.00  0.00     0.034 A 
ATOM     26  C   UNL A   1      41.867  27.348  28.761  1.00  0.00     0.034 A 
ATOM     27  C   UNL A   1      40.962  30.365  34.512  1.00  0.00     0.049 A 
ATOM     28  C   UNL A   1      42.613  27.332  30.063  1.00  0.00     0.074 A 
ATOM     29  C   UNL A   1      41.774  30.295  35.632  1.00  0.00     0.029 A 
ATOM     30  N   UNL A   1      41.557  29.562  33.545  1.00  0.00    -0.354 N 
ATOM     31  N   UNL A   1      42.343  27.979  31.174  1.00  0.00    -0.248 NA
ATOM     32  C   UNL A   1      43.814  26.494  30.122  1.00  0.00     0.031 C 
ATOM     33  C   UNL A   1      42.880  29.492  35.328  1.00  0.00     0.029 A 
ATOM     34  C   UNL A   1      42.730  29.006  34.039  1.00  0.00     0.049 A 
ATOM     35  H   UNL A   1      41.199  29.409  32.642  1.00  0.00     0.167 HD
ATOM     36  C   UNL A   1      43.356  27.639  32.060  1.00  0.00     0.074 A 
ATOM     37  C   UNL A   1      44.205  26.685  31.373  1.00  0.00     0.031 C 
ATOM     38  C   UNL A   1      43.582  28.090  33.321  1.00  0.00     0.034 A 
BRANCH  25  39
ATOM     39  C   UNL A   1      39.221  31.945  35.479  1.00  0.00     0.023 A 
ATOM     40  C   UNL A   1      38.549  31.388  36.581  1.00  0.00     0.031 A 
ATOM     41  C   UNL A   1      39.412  33.340  35.464  1.00  0.00     0.131 A 
ATOM     42  C   UNL A   1      38.051  32.223  37.594  1.00  0.00     0.055 A 
ATOM     43  C   UNL A   1      38.974  34.158  36.507  1.00  0.00     0.041 A 
ATOM     44  F   UNL A   1      40.028  33.933  34.428  1.00  0.00    -0.206 F 
ATOM     45  C   UNL A   1      38.280  33.602  37.576  1.00  0.00     0.022 A 
BRANCH  42  46
ATOM     46  S   UNL A   1      37.002  31.498  38.885  1.00  0.00     0.124 S 
ATOM     47  O   UNL A   1      37.851  31.636  40.067  1.00  0.00    -0.237 OA
ATOM     48  O   UNL A   1      35.819  32.349  38.846  1.00  0.00    -0.237 OA
ATOM     49  O   UNL A   1      36.798  30.124  38.430  1.00  0.00    -0.744 OA
ENDBRANCH  42  46
ENDBRANCH  25  39
BRANCH  26  50
ATOM     50  C   UNL A   1      42.339  26.572  27.579  1.00  0.00     0.023 A 
ATOM     51  C   UNL A   1      42.019  25.215  27.419  1.00  0.00     0.031 A 
ATOM     52  C   UNL A   1      43.133  27.184  26.591  1.00  0.00     0.131 A 
ATOM     53  C   UNL A   1      42.515  24.509  26.312  1.00  0.00     0.055 A 
ATOM     54  C   UNL A   1      43.571  26.493  25.462  1.00  0.00     0.041 A 
ATOM     55  F   UNL A   1      43.467  28.480  26.694  1.00  0.00    -0.206 F 
ATOM     56  C   UNL A   1      43.273  25.142  25.324  1.00  0.00     0.022 A 
BRANCH  53  57
ATOM     57  S   UNL A   1      42.227  22.720  26.221  1.00  0.00     0.124 S 
ATOM     58  O   UNL A   1      42.726  22.404  24.888  1.00  0.00    -0.237 OA
ATOM     59  O   UNL A   1      43.025  22.230  27.339  1.00  0.00    -0.237 OA
ATOM     60  O   UNL A   1      40.780  22.601  26.390  1.00  0.00    -0.744 OA
ENDBRANCH  53  57
ENDBRANCH  26  50
BRANCH  38  61
ATOM     61  C   UNL A   1      44.806  27.545  34.007  1.00  0.00     0.023 A 
ATOM     62  C   UNL A   1      44.743  26.371  34.779  1.00  0.00     0.031 A 
ATOM     63  C   UNL A   1      46.026  28.238  33.949  1.00  0.00     0.131 A 
ATOM     64  C   UNL A   1      45.858  25.966  35.524  1.00  0.00     0.055 A 
ATOM     65  C   UNL A   1      47.152  27.797  34.646  1.00  0.00     0.041 A 
ATOM     66  F   UNL A   1      46.139  29.366  33.229  1.00  0.00    -0.206 F 
ATOM     67  C   UNL A   1      47.067  26.664  35.454  1.00  0.00     0.022 A 
BRANCH  64  68
ATOM     68  S   UNL A   1      45.671  24.582  36.681  1.00  0.00     0.124 S 
ATOM     69  O   UNL A   1      47.018  24.021  36.705  1.00  0.00    -0.237 OA
ATOM     70  O   UNL A   1      45.237  25.252  37.902  1.00  0.00    -0.237 OA
ATOM     71  O   UNL A   1      44.661  23.738  36.046  1.00  0.00    -0.744 OA
ENDBRANCH  64  68
ENDBRANCH  38  61
ENDBRANCH  12  13
ENDBRANCH   5   7
ENDBRANCH   2   3
ENDBRANCH   1   2
BRANCH   1  72
ATOM     72  C   UNL A   1      31.272  27.080  26.512  1.00  0.00     0.023 C 
BRANCH  72  73
ATOM     73  C   UNL A   1      32.070  25.783  26.500  1.00  0.00     0.116 C 
BRANCH  73  74
ATOM     74  N   UNL A   1      31.224  24.671  26.868  1.00  0.00    -0.354 N 
ATOM     75  C   UNL A   1      30.962  23.506  26.216  1.00  0.00     0.242 C 
ATOM     76  H   UNL A   1      30.759  24.774  27.731  1.00  0.00     0.163 HD
ATOM     77  O   UNL A   1      30.004  22.844  26.638  1.00  0.00    -0.273 OA
BRANCH  75  78
ATOM     78  C   UNL A   1      31.807  22.964  25.033  1.00  0.00     0.174 C 
BRANCH  78  79
ATOM     79  C   UNL A   1      32.170  21.464  25.074  1.00  0.00     0.072 C 
BRANCH  79  80
ATOM     80  C   UNL A   1      33.587  20.951  25.056  1.00  0.00    -0.020 A 
ATOM     81  C   UNL A   1      33.900  19.602  24.950  1.00  0.00     0.087 A 
ATOM     82  C   UNL A   1      34.846  21.634  25.212  1.00  0.00     0.003 A 
ATOM     83  N   UNL A   1      35.259  19.462  24.904  1.00  0.00    -0.361 N 
ATOM     84  C   UNL A   1      35.860  20.692  25.003  1.00  0.00     0.046 A 
ATOM     85  C   UNL A   1      35.244  22.966  25.453  1.00  0.00     0.010 A 
ATOM     86  H   UNL A   1      35.735  18.605  24.815  1.00  0.00     0.166 HD
ATOM     87  C   UNL A   1      37.215  21.032  24.903  1.00  0.00     0.026 A 
ATOM     88  C   UNL A   1      36.594  23.326  25.359  1.00  0.00     0.001 A 
ATOM     89  C   UNL A   1      37.563  22.374  25.064  1.00  0.00     0.002 A 
ENDBRANCH  79  80
ENDBRANCH  78  79
BRANCH  78  90
ATOM     90  N   UNL A   1      31.317  23.448  23.743  1.00  0.00    -0.358 N 
ATOM     91  H   UNL A   1      30.730  22.841  23.237  1.00  0.00     0.162 HD
BRANCH  90  92
ATOM     92  C   UNL A   1      31.592  24.664  23.164  1.00  0.00     0.137 A 
ATOM     93  N   UNL A   1      32.828  24.678  22.634  1.00  0.00    -0.219 NA
ATOM     94  C   UNL A   1      30.763  25.806  23.148  1.00  0.00     0.043 A 
ATOM     95  C   UNL A   1      33.221  25.804  22.034  1.00  0.00     0.224 A 
ATOM     96  C   UNL A   1      31.300  26.923  22.485  1.00  0.00     0.076 A 
ATOM     97  C   UNL A   1      29.488  25.951  23.758  1.00  0.00     0.014 A 
ATOM     98  N   UNL A   1      32.512  26.929  21.926  1.00  0.00    -0.236 NA
ATOM     99  C   UNL A   1      30.556  28.095  22.412  1.00  0.00     0.029 A 
ATOM    100  C   UNL A   1      28.755  27.133  23.672  1.00  0.00     0.001 A 
ATOM    101  C   UNL A   1      29.290  28.210  22.989  1.00  0.00     0.002 A 
ENDBRANCH  90  92
ENDBRANCH  78  90
ENDBRANCH  75  78
ENDBRANCH  73  74
ENDBRANCH  72  73
ENDBRANCH   1  72
TORSDOF 18
ENDMDL
