MODEL 1
REMARK VINA RESULT:     -12.4      0.000      0.000
REMARK SMILES O=C(CCC(=O)c1c[nH]c2ccccc12)NCCCCNC(=O)c1ccc(-c2c3nc(c(-c4cc(S(=O)(=O)[O-])ccc4F)c4ccc([nH]4)c(-c4cc(S(=O)(=O)[O-])ccc4F)c4nc(c(-c5cc(S(=O)(=O)[O-])ccc5F)c5ccc2[nH]5)C=C4)C=C3)cc1
REMARK SMILES IDX 18 1 17 2 16 3 1 4 2 5 3 7 4 8 5 9 6 10 7 11 8 12 15 13 9 14
REMARK SMILES IDX 10 15 14 16 11 18 13 19 12 20 19 21 20 22 21 23 22 24 23 26
REMARK SMILES IDX 24 27 25 28 86 29 26 30 85 31 27 32 28 33 29 34 79 35 30 36
REMARK SMILES IDX 84 37 78 38 80 39 31 40 83 41 77 42 76 43 32 45 64 46 44 47
REMARK SMILES IDX 63 48 45 49 48 50 62 51 81 52 46 53 47 54 61 56 82 57 49 58
REMARK SMILES IDX 33 59 34 60 42 61 35 62 41 63 43 64 40 65 36 66 37 67 38 68
REMARK SMILES IDX 39 69 65 70 66 71 74 72 67 73 73 74 75 75 72 76 68 77 69 78
REMARK SMILES IDX 70 79 71 80 50 81 51 82 59 83 52 84 58 85 60 86 57 87 53 88
REMARK SMILES IDX 54 89 55 90 56 91
REMARK H PARENT 16 6 9 17 21 25 80 44 48 55
REMARK Flexibility Score: inf
ROOT
ATOM      1  C   UNL A   1      36.041  22.641  23.619  1.00  0.00     0.023 C 
ENDROOT
BRANCH   1   2
ATOM      2  C   UNL A   1      35.030  24.431  24.396  1.00  0.00     0.116 C 
BRANCH   2   3
ATOM      3  N   UNL A   1      33.579  25.067  24.101  1.00  0.00    -0.356 N 
ATOM      4  O   UNL A   1      32.825  25.793  26.138  1.00  0.00    -0.275 OA
ATOM      5  C   UNL A   1      32.598  25.353  25.014  1.00  0.00     0.220 C 
ATOM      6  H   UNL A   1      33.376  25.274  23.160  1.00  0.00     0.163 HD
BRANCH   5   7
ATOM      7  C   UNL A   1      31.200  24.870  24.627  1.00  0.00     0.108 C 
BRANCH   7   8
ATOM      8  C   UNL A   1      31.025  23.434  24.132  1.00  0.00     0.091 C 
BRANCH   8   9
ATOM      9  C   UNL A   1      31.245  22.345  25.194  1.00  0.00     0.165 C 
ATOM     10  O   UNL A   1      30.365  22.050  25.995  1.00  0.00    -0.294 OA
BRANCH   9  11
ATOM     11  C   UNL A   1      32.501  21.603  25.122  1.00  0.00     0.043 A 
ATOM     12  C   UNL A   1      33.457  21.578  26.140  1.00  0.00     0.095 A 
ATOM     13  C   UNL A   1      32.812  20.567  24.192  1.00  0.00     0.010 A 
ATOM     14  N   UNL A   1      34.348  20.511  26.083  1.00  0.00    -0.360 N 
ATOM     15  C   UNL A   1      34.080  19.681  25.021  1.00  0.00     0.046 A 
ATOM     16  C   UNL A   1      31.999  19.808  22.752  1.00  0.00     0.011 A 
ATOM     17  H   UNL A   1      35.081  20.368  26.725  1.00  0.00     0.166 HD
ATOM     18  C   UNL A   1      34.591  18.045  24.461  1.00  0.00     0.027 A 
ATOM     19  C   UNL A   1      32.450  18.146  22.206  1.00  0.00     0.001 A 
ATOM     20  C   UNL A   1      33.748  17.278  23.065  1.00  0.00     0.002 A 
ENDBRANCH   9  11
ENDBRANCH   8   9
ENDBRANCH   7   8
ENDBRANCH   5   7
ENDBRANCH   2   3
ENDBRANCH   1   2
BRANCH   1  21
ATOM     21  C   UNL A   1      37.333  21.604  24.058  1.00  0.00     0.023 C 
BRANCH  21  22
ATOM     22  C   UNL A   1      37.660  21.307  25.519  1.00  0.00     0.116 C 
BRANCH  22  23
ATOM     23  N   UNL A   1      38.697  20.316  25.760  1.00  0.00    -0.352 N 
ATOM     24  C   UNL A   1      39.908  20.514  26.385  1.00  0.00     0.251 C 
ATOM     25  H   UNL A   1      38.513  19.403  25.442  1.00  0.00     0.163 HD
ATOM     26  O   UNL A   1      40.726  19.607  26.482  1.00  0.00    -0.269 OA
BRANCH  24  27
ATOM     27  C   UNL A   1      40.216  21.874  26.874  1.00  0.00     0.039 A 
ATOM     28  C   UNL A   1      41.159  22.023  27.892  1.00  0.00     0.014 A 
ATOM     29  C   UNL A   1      39.683  22.989  26.226  1.00  0.00     0.014 A 
ATOM     30  C   UNL A   1      41.637  23.298  28.196  1.00  0.00     0.010 A 
ATOM     31  C   UNL A   1      40.226  24.244  26.467  1.00  0.00     0.010 A 
ATOM     32  C   UNL A   1      41.215  24.411  27.449  1.00  0.00    -0.014 A 
BRANCH  32  33
ATOM     33  C   UNL A   1      41.802  25.756  27.678  1.00  0.00     0.031 A 
ATOM     34  C   UNL A   1      41.026  26.792  28.442  1.00  0.00     0.074 A 
ATOM     35  C   UNL A   1      43.005  26.058  27.147  1.00  0.00     0.049 A 
ATOM     36  N   UNL A   1      41.345  28.029  28.718  1.00  0.00    -0.248 NA
ATOM     37  C   UNL A   1      39.697  26.391  28.931  1.00  0.00     0.031 C 
ATOM     38  C   UNL A   1      43.822  25.152  26.334  1.00  0.00     0.029 A 
ATOM     39  N   UNL A   1      43.749  27.208  27.207  1.00  0.00    -0.354 N 
ATOM     40  C   UNL A   1      40.254  28.558  29.400  1.00  0.00     0.074 A 
ATOM     41  C   UNL A   1      39.239  27.529  29.429  1.00  0.00     0.031 C 
ATOM     42  C   UNL A   1      44.969  25.769  26.007  1.00  0.00     0.029 A 
ATOM     43  C   UNL A   1      44.956  27.123  26.547  1.00  0.00     0.049 A 
ATOM     44  H   UNL A   1      43.450  28.020  27.677  1.00  0.00     0.167 HD
ATOM     45  C   UNL A   1      40.125  29.779  29.974  1.00  0.00     0.034 A 
ATOM     46  C   UNL A   1      45.937  28.037  26.397  1.00  0.00     0.034 A 
ATOM     47  C   UNL A   1      41.157  30.787  29.946  1.00  0.00     0.049 A 
ATOM     48  C   UNL A   1      45.765  29.392  27.037  1.00  0.00     0.074 A 
ATOM     49  C   UNL A   1      41.163  32.032  30.547  1.00  0.00     0.029 A 
ATOM     50  N   UNL A   1      42.367  30.665  29.273  1.00  0.00    -0.354 N 
ATOM     51  N   UNL A   1      44.757  29.852  27.742  1.00  0.00    -0.248 NA
ATOM     52  C   UNL A   1      46.871  30.345  26.873  1.00  0.00     0.031 C 
ATOM     53  C   UNL A   1      42.343  32.689  30.183  1.00  0.00     0.029 A 
ATOM     54  C   UNL A   1      43.111  31.825  29.418  1.00  0.00     0.049 A 
ATOM     55  H   UNL A   1      42.654  29.870  28.768  1.00  0.00     0.167 HD
ATOM     56  C   UNL A   1      45.123  31.137  28.132  1.00  0.00     0.074 A 
ATOM     57  C   UNL A   1      46.449  31.371  27.597  1.00  0.00     0.031 C 
ATOM     58  C   UNL A   1      44.429  32.043  28.870  1.00  0.00     0.034 A 
BRANCH  45  59
ATOM     59  C   UNL A   1      38.813  30.087  30.656  1.00  0.00     0.023 A 
ATOM     60  C   UNL A   1      37.808  30.837  30.019  1.00  0.00     0.031 A 
ATOM     61  C   UNL A   1      38.579  29.666  31.977  1.00  0.00     0.131 A 
ATOM     62  C   UNL A   1      36.658  31.215  30.728  1.00  0.00     0.055 A 
ATOM     63  C   UNL A   1      37.393  29.970  32.647  1.00  0.00     0.041 A 
ATOM     64  F   UNL A   1      39.509  28.966  32.647  1.00  0.00    -0.206 F 
ATOM     65  C   UNL A   1      36.431  30.764  32.030  1.00  0.00     0.022 A 
BRANCH  62  66
ATOM     66  S   UNL A   1      35.543  32.434  29.980  1.00  0.00     0.124 S 
ATOM     67  O   UNL A   1      34.420  32.418  30.916  1.00  0.00    -0.237 OA
ATOM     68  O   UNL A   1      36.354  33.646  29.979  1.00  0.00    -0.237 OA
ATOM     69  O   UNL A   1      35.254  31.872  28.663  1.00  0.00    -0.744 OA
ENDBRANCH  62  66
ENDBRANCH  45  59
BRANCH  46  70
ATOM     70  C   UNL A   1      47.168  27.711  25.621  1.00  0.00     0.023 A 
ATOM     71  C   UNL A   1      47.242  27.967  24.242  1.00  0.00     0.031 A 
ATOM     72  C   UNL A   1      48.273  27.094  26.235  1.00  0.00     0.131 A 
ATOM     73  C   UNL A   1      48.373  27.566  23.513  1.00  0.00     0.055 A 
ATOM     74  C   UNL A   1      49.417  26.743  25.516  1.00  0.00     0.041 A 
ATOM     75  F   UNL A   1      48.257  26.831  27.551  1.00  0.00    -0.206 F 
ATOM     76  C   UNL A   1      49.466  26.966  24.144  1.00  0.00     0.022 A 
BRANCH  73  77
ATOM     77  S   UNL A   1      48.359  27.759  21.710  1.00  0.00     0.124 S 
ATOM     78  O   UNL A   1      47.038  28.336  21.483  1.00  0.00    -0.237 OA
ATOM     79  O   UNL A   1      49.494  28.649  21.493  1.00  0.00    -0.237 OA
ATOM     80  O   UNL A   1      48.537  26.394  21.219  1.00  0.00    -0.744 OA
ENDBRANCH  73  77
ENDBRANCH  46  70
BRANCH  58  81
ATOM     81  C   UNL A   1      45.120  33.348  29.177  1.00  0.00     0.023 A 
ATOM     82  C   UNL A   1      45.052  34.446  28.301  1.00  0.00     0.031 A 
ATOM     83  C   UNL A   1      45.864  33.491  30.362  1.00  0.00     0.131 A 
ATOM     84  C   UNL A   1      45.760  35.620  28.599  1.00  0.00     0.055 A 
ATOM     85  C   UNL A   1      46.515  34.682  30.681  1.00  0.00     0.041 A 
ATOM     86  F   UNL A   1      45.964  32.473  31.233  1.00  0.00    -0.206 F 
ATOM     87  C   UNL A   1      46.476  35.752  29.791  1.00  0.00     0.022 A 
BRANCH  84  88
ATOM     88  S   UNL A   1      45.806  36.946  27.361  1.00  0.00     0.124 S 
ATOM     89  O   UNL A   1      46.834  37.830  27.901  1.00  0.00    -0.237 OA
ATOM     90  O   UNL A   1      46.161  36.224  26.143  1.00  0.00    -0.237 OA
ATOM     91  O   UNL A   1      44.448  37.486  27.387  1.00  0.00    -0.744 OA
ENDBRANCH  84  88
ENDBRANCH  58  81
ENDBRANCH  32  33
ENDBRANCH  24  27
ENDBRANCH  22  23
ENDBRANCH  21  22
ENDBRANCH   1  21
TORSDOF 17
ENDMDL
MODEL 2
REMARK VINA RESULT:     -12.3      1.690      7.804
REMARK SMILES O=C(CCC(=O)c1c[nH]c2ccccc12)NCCCCNC(=O)c1ccc(-c2c3nc(c(-c4cc(S(=O)(=O)[O-])ccc4F)c4ccc([nH]4)c(-c4cc(S(=O)(=O)[O-])ccc4F)c4nc(c(-c5cc(S(=O)(=O)[O-])ccc5F)c5ccc2[nH]5)C=C4)C=C3)cc1
REMARK SMILES IDX 18 1 17 2 16 3 1 4 2 5 3 7 4 8 5 9 6 10 7 11 8 12 15 13 9 14
REMARK SMILES IDX 10 15 14 16 11 18 13 19 12 20 19 21 20 22 21 23 22 24 23 26
REMARK SMILES IDX 24 27 25 28 86 29 26 30 85 31 27 32 28 33 29 34 79 35 30 36
REMARK SMILES IDX 84 37 78 38 80 39 31 40 83 41 77 42 76 43 32 45 64 46 44 47
REMARK SMILES IDX 63 48 45 49 48 50 62 51 81 52 46 53 47 54 61 56 82 57 49 58
REMARK SMILES IDX 33 59 34 60 42 61 35 62 41 63 43 64 40 65 36 66 37 67 38 68
REMARK SMILES IDX 39 69 65 70 66 71 74 72 67 73 73 74 75 75 72 76 68 77 69 78
REMARK SMILES IDX 70 79 71 80 50 81 51 82 59 83 52 84 58 85 60 86 57 87 53 88
REMARK SMILES IDX 54 89 55 90 56 91
REMARK H PARENT 16 6 9 17 21 25 80 44 48 55
REMARK Flexibility Score: inf
ROOT
ATOM      1  C   UNL A   1      35.342  23.051  23.755  1.00  0.00     0.023 C 
ENDROOT
BRANCH   1   2
ATOM      2  C   UNL A   1      34.727  24.971  24.628  1.00  0.00     0.116 C 
BRANCH   2   3
ATOM      3  N   UNL A   1      33.334  25.779  24.589  1.00  0.00    -0.356 N 
ATOM      4  O   UNL A   1      33.378  27.127  26.440  1.00  0.00    -0.275 OA
ATOM      5  C   UNL A   1      32.747  26.470  25.617  1.00  0.00     0.220 C 
ATOM      6  H   UNL A   1      32.850  25.777  23.731  1.00  0.00     0.163 HD
BRANCH   5   7
ATOM      7  C   UNL A   1      31.258  26.183  25.816  1.00  0.00     0.108 C 
BRANCH   7   8
ATOM      8  C   UNL A   1      30.716  24.803  25.446  1.00  0.00     0.091 C 
BRANCH   8   9
ATOM      9  C   UNL A   1      30.833  23.738  26.548  1.00  0.00     0.165 C 
ATOM     10  O   UNL A   1      29.957  23.597  27.395  1.00  0.00    -0.294 OA
BRANCH   9  11
ATOM     11  C   UNL A   1      31.974  22.830  26.465  1.00  0.00     0.043 A 
ATOM     12  C   UNL A   1      32.670  22.340  27.572  1.00  0.00     0.095 A 
ATOM     13  C   UNL A   1      32.356  22.065  25.323  1.00  0.00     0.010 A 
ATOM     14  N   UNL A   1      33.416  21.189  27.335  1.00  0.00    -0.360 N 
ATOM     15  C   UNL A   1      33.292  20.762  26.035  1.00  0.00     0.046 A 
ATOM     16  C   UNL A   1      31.798  21.912  23.598  1.00  0.00     0.011 A 
ATOM     17  H   UNL A   1      33.965  20.737  28.016  1.00  0.00     0.166 HD
ATOM     18  C   UNL A   1      33.713  19.289  25.083  1.00  0.00     0.027 A 
ATOM     19  C   UNL A   1      32.155  20.423  22.640  1.00  0.00     0.001 A 
ATOM     20  C   UNL A   1      33.114  19.122  23.391  1.00  0.00     0.002 A 
ENDBRANCH   9  11
ENDBRANCH   8   9
ENDBRANCH   7   8
ENDBRANCH   5   7
ENDBRANCH   2   3
ENDBRANCH   1   2
BRANCH   1  21
ATOM     21  C   UNL A   1      36.568  21.874  23.976  1.00  0.00     0.023 C 
BRANCH  21  22
ATOM     22  C   UNL A   1      37.053  21.476  25.368  1.00  0.00     0.116 C 
BRANCH  22  23
ATOM     23  N   UNL A   1      38.102  20.468  25.423  1.00  0.00    -0.352 N 
ATOM     24  C   UNL A   1      39.356  20.603  25.974  1.00  0.00     0.251 C 
ATOM     25  H   UNL A   1      37.890  19.594  25.022  1.00  0.00     0.163 HD
ATOM     26  O   UNL A   1      40.175  19.695  25.912  1.00  0.00    -0.269 OA
BRANCH  24  27
ATOM     27  C   UNL A   1      39.704  21.903  26.584  1.00  0.00     0.039 A 
ATOM     28  C   UNL A   1      40.751  21.953  27.505  1.00  0.00     0.014 A 
ATOM     29  C   UNL A   1      39.096  23.074  26.131  1.00  0.00     0.014 A 
ATOM     30  C   UNL A   1      41.249  23.194  27.904  1.00  0.00     0.010 A 
ATOM     31  C   UNL A   1      39.652  24.304  26.458  1.00  0.00     0.010 A 
ATOM     32  C   UNL A   1      40.740  24.377  27.342  1.00  0.00    -0.014 A 
BRANCH  32  33
ATOM     33  C   UNL A   1      41.338  25.697  27.663  1.00  0.00     0.031 A 
ATOM     34  C   UNL A   1      42.742  26.010  27.230  1.00  0.00     0.074 A 
ATOM     35  C   UNL A   1      40.635  26.587  28.396  1.00  0.00     0.049 A 
ATOM     36  N   UNL A   1      43.455  27.085  27.441  1.00  0.00    -0.248 NA
ATOM     37  C   UNL A   1      43.452  24.955  26.489  1.00  0.00     0.031 C 
ATOM     38  C   UNL A   1      39.286  26.369  28.925  1.00  0.00     0.029 A 
ATOM     39  N   UNL A   1      40.957  27.850  28.824  1.00  0.00    -0.354 N 
ATOM     40  C   UNL A   1      44.699  26.833  26.872  1.00  0.00     0.074 A 
ATOM     41  C   UNL A   1      44.664  25.476  26.373  1.00  0.00     0.031 C 
ATOM     42  C   UNL A   1      38.883  27.475  29.571  1.00  0.00     0.029 A 
ATOM     43  C   UNL A   1      39.954  28.465  29.540  1.00  0.00     0.049 A 
ATOM     44  H   UNL A   1      41.823  28.278  28.637  1.00  0.00     0.167 HD
ATOM     45  C   UNL A   1      45.760  27.668  26.750  1.00  0.00     0.034 A 
ATOM     46  C   UNL A   1      39.907  29.688  30.107  1.00  0.00     0.034 A 
ATOM     47  C   UNL A   1      45.768  29.023  27.242  1.00  0.00     0.049 A 
ATOM     48  C   UNL A   1      41.104  30.595  29.967  1.00  0.00     0.074 A 
ATOM     49  C   UNL A   1      46.760  29.979  27.119  1.00  0.00     0.029 A 
ATOM     50  N   UNL A   1      44.734  29.614  27.958  1.00  0.00    -0.354 N 
ATOM     51  N   UNL A   1      42.247  30.367  29.362  1.00  0.00    -0.248 NA
ATOM     52  C   UNL A   1      40.999  31.928  30.574  1.00  0.00     0.031 C 
ATOM     53  C   UNL A   1      46.356  31.122  27.817  1.00  0.00     0.029 A 
ATOM     54  C   UNL A   1      45.078  30.910  28.311  1.00  0.00     0.049 A 
ATOM     55  H   UNL A   1      43.881  29.176  28.182  1.00  0.00     0.167 HD
ATOM     56  C   UNL A   1      42.983  31.542  29.488  1.00  0.00     0.074 A 
ATOM     57  C   UNL A   1      42.148  32.478  30.213  1.00  0.00     0.031 C 
ATOM     58  C   UNL A   1      44.234  31.826  29.042  1.00  0.00     0.034 A 
BRANCH  45  59
ATOM     59  C   UNL A   1      46.997  27.120  26.079  1.00  0.00     0.023 A 
ATOM     60  C   UNL A   1      47.962  26.388  26.794  1.00  0.00     0.031 A 
ATOM     61  C   UNL A   1      47.240  27.368  24.716  1.00  0.00     0.131 A 
ATOM     62  C   UNL A   1      49.160  26.008  26.170  1.00  0.00     0.055 A 
ATOM     63  C   UNL A   1      48.394  26.909  24.079  1.00  0.00     0.041 A 
ATOM     64  F   UNL A   1      46.367  28.079  23.985  1.00  0.00    -0.206 F 
ATOM     65  C   UNL A   1      49.370  26.240  24.810  1.00  0.00     0.022 A 
BRANCH  62  66
ATOM     66  S   UNL A   1      50.501  25.351  27.200  1.00  0.00     0.124 S 
ATOM     67  O   UNL A   1      49.795  24.348  27.995  1.00  0.00    -0.237 OA
ATOM     68  O   UNL A   1      51.437  24.835  26.209  1.00  0.00    -0.237 OA
ATOM     69  O   UNL A   1      50.961  26.517  27.949  1.00  0.00    -0.744 OA
ENDBRANCH  62  66
ENDBRANCH  45  59
BRANCH  46  70
ATOM     70  C   UNL A   1      38.694  30.136  30.850  1.00  0.00     0.023 A 
ATOM     71  C   UNL A   1      37.679  30.862  30.206  1.00  0.00     0.031 A 
ATOM     72  C   UNL A   1      38.551  29.887  32.227  1.00  0.00     0.131 A 
ATOM     73  C   UNL A   1      36.592  31.356  30.945  1.00  0.00     0.055 A 
ATOM     74  C   UNL A   1      37.443  30.336  32.948  1.00  0.00     0.041 A 
ATOM     75  F   UNL A   1      39.489  29.194  32.892  1.00  0.00    -0.206 F 
ATOM     76  C   UNL A   1      36.461  31.087  32.309  1.00  0.00     0.022 A 
BRANCH  73  77
ATOM     77  S   UNL A   1      35.392  32.433  30.113  1.00  0.00     0.124 S 
ATOM     78  O   UNL A   1      36.224  33.570  29.737  1.00  0.00    -0.237 OA
ATOM     79  O   UNL A   1      34.933  31.584  29.019  1.00  0.00    -0.237 OA
ATOM     80  O   UNL A   1      34.399  32.702  31.150  1.00  0.00    -0.744 OA
ENDBRANCH  73  77
ENDBRANCH  46  70
BRANCH  58  81
ATOM     81  C   UNL A   1      44.748  33.223  29.289  1.00  0.00     0.023 A 
ATOM     82  C   UNL A   1      44.674  34.224  28.304  1.00  0.00     0.031 A 
ATOM     83  C   UNL A   1      45.327  33.553  30.527  1.00  0.00     0.131 A 
ATOM     84  C   UNL A   1      45.220  35.491  28.556  1.00  0.00     0.055 A 
ATOM     85  C   UNL A   1      45.812  34.833  30.793  1.00  0.00     0.041 A 
ATOM     86  F   UNL A   1      45.425  32.635  31.502  1.00  0.00    -0.206 F 
ATOM     87  C   UNL A   1      45.772  35.808  29.800  1.00  0.00     0.022 A 
BRANCH  84  88
ATOM     88  S   UNL A   1      45.279  36.698  27.203  1.00  0.00     0.124 S 
ATOM     89  O   UNL A   1      43.908  37.196  27.181  1.00  0.00    -0.237 OA
ATOM     90  O   UNL A   1      46.293  37.640  27.669  1.00  0.00    -0.237 OA
ATOM     91  O   UNL A   1      45.667  35.896  26.045  1.00  0.00    -0.744 OA
ENDBRANCH  84  88
ENDBRANCH  58  81
ENDBRANCH  32  33
ENDBRANCH  24  27
ENDBRANCH  22  23
ENDBRANCH  21  22
ENDBRANCH   1  21
TORSDOF 17
ENDMDL
MODEL 3
REMARK VINA RESULT:     -12.2      5.019      7.794
REMARK SMILES O=C(CCC(=O)c1c[nH]c2ccccc12)NCCCCNC(=O)c1ccc(-c2c3nc(c(-c4cc(S(=O)(=O)[O-])ccc4F)c4ccc([nH]4)c(-c4cc(S(=O)(=O)[O-])ccc4F)c4nc(c(-c5cc(S(=O)(=O)[O-])ccc5F)c5ccc2[nH]5)C=C4)C=C3)cc1
REMARK SMILES IDX 18 1 17 2 16 3 1 4 2 5 3 7 4 8 5 9 6 10 7 11 8 12 15 13 9 14
REMARK SMILES IDX 10 15 14 16 11 18 13 19 12 20 19 21 20 22 21 23 22 24 23 26
REMARK SMILES IDX 24 27 25 28 86 29 26 30 85 31 27 32 28 33 29 34 79 35 30 36
REMARK SMILES IDX 84 37 78 38 80 39 31 40 83 41 77 42 76 43 32 45 64 46 44 47
REMARK SMILES IDX 63 48 45 49 48 50 62 51 81 52 46 53 47 54 61 56 82 57 49 58
REMARK SMILES IDX 33 59 34 60 42 61 35 62 41 63 43 64 40 65 36 66 37 67 38 68
REMARK SMILES IDX 39 69 65 70 66 71 74 72 67 73 73 74 75 75 72 76 68 77 69 78
REMARK SMILES IDX 70 79 71 80 50 81 51 82 59 83 52 84 58 85 60 86 57 87 53 88
REMARK SMILES IDX 54 89 55 90 56 91
REMARK H PARENT 16 6 9 17 21 25 80 44 48 55
REMARK Flexibility Score: inf
ROOT
ATOM      1  C   UNL A   1      31.601  29.341  24.838  1.00  0.00     0.023 C 
ENDROOT
BRANCH   1   2
ATOM      2  C   UNL A   1      30.809  28.159  23.164  1.00  0.00     0.116 C 
BRANCH   2   3
ATOM      3  N   UNL A   1      30.664  26.570  22.936  1.00  0.00    -0.356 N 
ATOM      4  O   UNL A   1      29.436  25.824  24.719  1.00  0.00    -0.275 OA
ATOM      5  C   UNL A   1      30.293  25.630  23.860  1.00  0.00     0.220 C 
ATOM      6  H   UNL A   1      30.864  26.238  22.030  1.00  0.00     0.163 HD
BRANCH   5   7
ATOM      7  C   UNL A   1      31.182  24.386  23.905  1.00  0.00     0.108 C 
BRANCH   7   8
ATOM      8  C   UNL A   1      31.099  23.463  25.121  1.00  0.00     0.091 C 
BRANCH   8   9
ATOM      9  C   UNL A   1      31.845  23.958  26.370  1.00  0.00     0.165 C 
ATOM     10  O   UNL A   1      31.364  24.818  27.101  1.00  0.00    -0.294 OA
BRANCH   9  11
ATOM     11  C   UNL A   1      33.089  23.272  26.707  1.00  0.00     0.043 A 
ATOM     12  C   UNL A   1      33.202  22.287  27.689  1.00  0.00     0.095 A 
ATOM     13  C   UNL A   1      34.277  23.252  25.917  1.00  0.00     0.010 A 
ATOM     14  N   UNL A   1      34.320  21.466  27.575  1.00  0.00    -0.360 N 
ATOM     15  C   UNL A   1      35.084  21.800  26.483  1.00  0.00     0.046 A 
ATOM     16  C   UNL A   1      34.840  24.031  24.372  1.00  0.00     0.011 A 
ATOM     17  H   UNL A   1      34.536  20.737  28.199  1.00  0.00     0.166 HD
ATOM     18  C   UNL A   1      36.461  21.081  25.565  1.00  0.00     0.027 A 
ATOM     19  C   UNL A   1      36.178  23.300  23.402  1.00  0.00     0.001 A 
ATOM     20  C   UNL A   1      36.981  21.830  24.010  1.00  0.00     0.002 A 
ENDBRANCH   9  11
ENDBRANCH   8   9
ENDBRANCH   7   8
ENDBRANCH   5   7
ENDBRANCH   2   3
ENDBRANCH   1   2
BRANCH   1  21
ATOM     21  C   UNL A   1      31.233  30.792  25.672  1.00  0.00     0.023 C 
BRANCH  21  22
ATOM     22  C   UNL A   1      32.046  31.249  26.880  1.00  0.00     0.116 C 
BRANCH  22  23
ATOM     23  N   UNL A   1      32.029  32.676  27.168  1.00  0.00    -0.352 N 
ATOM     24  C   UNL A   1      33.048  33.426  27.713  1.00  0.00     0.251 C 
ATOM     25  H   UNL A   1      31.199  33.157  26.950  1.00  0.00     0.163 HD
ATOM     26  O   UNL A   1      32.895  34.615  27.960  1.00  0.00    -0.269 OA
BRANCH  24  27
ATOM     27  C   UNL A   1      34.308  32.733  28.052  1.00  0.00     0.039 A 
ATOM     28  C   UNL A   1      35.481  33.482  28.150  1.00  0.00     0.014 A 
ATOM     29  C   UNL A   1      34.291  31.384  28.412  1.00  0.00     0.014 A 
ATOM     30  C   UNL A   1      36.621  32.896  28.700  1.00  0.00     0.010 A 
ATOM     31  C   UNL A   1      35.398  30.831  29.042  1.00  0.00     0.010 A 
ATOM     32  C   UNL A   1      36.572  31.583  29.200  1.00  0.00    -0.014 A 
BRANCH  32  33
ATOM     33  C   UNL A   1      37.739  30.985  29.897  1.00  0.00     0.031 A 
ATOM     34  C   UNL A   1      38.036  31.363  31.321  1.00  0.00     0.074 A 
ATOM     35  C   UNL A   1      38.561  30.151  29.226  1.00  0.00     0.049 A 
ATOM     36  N   UNL A   1      39.022  30.981  32.091  1.00  0.00    -0.248 NA
ATOM     37  C   UNL A   1      37.120  32.327  31.951  1.00  0.00     0.031 C 
ATOM     38  C   UNL A   1      38.407  29.761  27.822  1.00  0.00     0.029 A 
ATOM     39  N   UNL A   1      39.688  29.482  29.632  1.00  0.00    -0.354 N 
ATOM     40  C   UNL A   1      38.852  31.666  33.290  1.00  0.00     0.074 A 
ATOM     41  C   UNL A   1      37.713  32.540  33.115  1.00  0.00     0.031 C 
ATOM     42  C   UNL A   1      39.379  28.892  27.497  1.00  0.00     0.029 A 
ATOM     43  C   UNL A   1      40.248  28.693  28.651  1.00  0.00     0.049 A 
ATOM     44  H   UNL A   1      40.062  29.558  30.539  1.00  0.00     0.167 HD
ATOM     45  C   UNL A   1      39.563  31.553  34.438  1.00  0.00     0.034 A 
ATOM     46  C   UNL A   1      41.339  27.902  28.683  1.00  0.00     0.034 A 
ATOM     47  C   UNL A   1      40.688  30.664  34.595  1.00  0.00     0.049 A 
ATOM     48  C   UNL A   1      42.120  27.800  29.970  1.00  0.00     0.074 A 
ATOM     49  C   UNL A   1      41.441  30.418  35.728  1.00  0.00     0.029 A 
ATOM     50  N   UNL A   1      41.224  29.877  33.583  1.00  0.00    -0.354 N 
ATOM     51  N   UNL A   1      41.904  28.399  31.118  1.00  0.00    -0.248 NA
ATOM     52  C   UNL A   1      43.284  26.904  29.968  1.00  0.00     0.031 C 
ATOM     53  C   UNL A   1      42.473  29.538  35.386  1.00  0.00     0.029 A 
ATOM     54  C   UNL A   1      42.318  29.170  34.058  1.00  0.00     0.049 A 
ATOM     55  H   UNL A   1      40.877  29.827  32.663  1.00  0.00     0.167 HD
ATOM     56  C   UNL A   1      42.886  27.926  31.984  1.00  0.00     0.074 A 
ATOM     57  C   UNL A   1      43.683  26.982  31.229  1.00  0.00     0.031 C 
ATOM     58  C   UNL A   1      43.107  28.239  33.287  1.00  0.00     0.034 A 
BRANCH  45  59
ATOM     59  C   UNL A   1      39.151  32.431  35.596  1.00  0.00     0.023 A 
ATOM     60  C   UNL A   1      39.580  33.767  35.698  1.00  0.00     0.031 A 
ATOM     61  C   UNL A   1      38.356  31.917  36.635  1.00  0.00     0.131 A 
ATOM     62  C   UNL A   1      39.287  34.512  36.851  1.00  0.00     0.055 A 
ATOM     63  C   UNL A   1      37.993  32.692  37.737  1.00  0.00     0.041 A 
ATOM     64  F   UNL A   1      37.933  30.642  36.605  1.00  0.00    -0.206 F 
ATOM     65  C   UNL A   1      38.473  33.992  37.859  1.00  0.00     0.022 A 
BRANCH  62  66
ATOM     66  S   UNL A   1      40.117  36.108  37.082  1.00  0.00     0.124 S 
ATOM     67  O   UNL A   1      41.473  35.686  37.429  1.00  0.00    -0.237 OA
ATOM     68  O   UNL A   1      39.959  36.739  35.778  1.00  0.00    -0.237 OA
ATOM     69  O   UNL A   1      39.369  36.728  38.174  1.00  0.00    -0.744 OA
ENDBRANCH  62  66
ENDBRANCH  45  59
BRANCH  46  70
ATOM     70  C   UNL A   1      41.760  27.137  27.474  1.00  0.00     0.023 A 
ATOM     71  C   UNL A   1      41.597  25.744  27.406  1.00  0.00     0.031 A 
ATOM     72  C   UNL A   1      42.376  27.780  26.385  1.00  0.00     0.131 A 
ATOM     73  C   UNL A   1      42.086  25.032  26.299  1.00  0.00     0.055 A 
ATOM     74  C   UNL A   1      42.814  27.074  25.262  1.00  0.00     0.041 A 
ATOM     75  F   UNL A   1      42.552  29.110  26.394  1.00  0.00    -0.206 F 
ATOM     76  C   UNL A   1      42.683  25.690  25.221  1.00  0.00     0.022 A 
BRANCH  73  77
ATOM     77  S   UNL A   1      42.010  23.220  26.327  1.00  0.00     0.124 S 
ATOM     78  O   UNL A   1      40.574  22.984  26.428  1.00  0.00    -0.237 OA
ATOM     79  O   UNL A   1      42.630  22.872  25.053  1.00  0.00    -0.237 OA
ATOM     80  O   UNL A   1      42.786  22.864  27.514  1.00  0.00    -0.744 OA
ENDBRANCH  73  77
ENDBRANCH  46  70
BRANCH  58  81
ATOM     81  C   UNL A   1      44.231  27.512  33.983  1.00  0.00     0.023 A 
ATOM     82  C   UNL A   1      45.536  28.034  34.028  1.00  0.00     0.031 A 
ATOM     83  C   UNL A   1      43.991  26.274  34.607  1.00  0.00     0.131 A 
ATOM     84  C   UNL A   1      46.562  27.294  34.634  1.00  0.00     0.055 A 
ATOM     85  C   UNL A   1      45.003  25.573  35.261  1.00  0.00     0.041 A 
ATOM     86  F   UNL A   1      42.764  25.729  34.593  1.00  0.00    -0.206 F 
ATOM     87  C   UNL A   1      46.301  26.077  35.266  1.00  0.00     0.022 A 
BRANCH  84  88
ATOM     88  S   UNL A   1      48.266  27.905  34.508  1.00  0.00     0.124 S 
ATOM     89  O   UNL A   1      48.970  27.036  35.444  1.00  0.00    -0.237 OA
ATOM     90  O   UNL A   1      48.568  27.698  33.095  1.00  0.00    -0.237 OA
ATOM     91  O   UNL A   1      48.160  29.303  34.919  1.00  0.00    -0.744 OA
ENDBRANCH  84  88
ENDBRANCH  58  81
ENDBRANCH  32  33
ENDBRANCH  24  27
ENDBRANCH  22  23
ENDBRANCH  21  22
ENDBRANCH   1  21
TORSDOF 17
ENDMDL
