MODEL 1
REMARK VINA RESULT:     -12.9      0.000      0.000
REMARK SMILES Cc1cc(C(=O)N2[C@@H](C(=O)NCCCCNC(=O)c3ccc(-c4c5nc(c(-c6cc(S(=O)(=O)[O-])ccc6F)c6ccc([nH]6)c(-c6cc(S(=O)(=O)[O-])ccc6F)c6nc(c(-c7cc(S(=O)(=O)[O-])ccc7F)c7ccc4[nH]7)C=C6)C=C5)cc3)C[C@H]3CCCC[C@H]32)c(C)s1
REMARK SMILES IDX 14 1 13 2 12 3 11 4 9 5 10 6 8 8 7 9 88 10 82 11 83 12 87 13
REMARK SMILES IDX 84 14 86 15 85 16 5 17 6 18 4 19 1 20 2 21 3 22 91 23 89 24
REMARK SMILES IDX 90 25 15 26 16 27 17 28 18 30 19 31 20 32 81 33 21 34 80 35
REMARK SMILES IDX 22 36 23 37 24 38 74 39 25 40 79 41 73 42 75 43 26 44 78 45
REMARK SMILES IDX 72 46 71 47 27 49 59 50 39 51 58 52 40 53 43 54 57 55 76 56
REMARK SMILES IDX 41 57 42 58 56 60 77 61 44 62 28 63 29 64 37 65 30 66 36 67
REMARK SMILES IDX 38 68 35 69 31 70 32 71 33 72 34 73 60 74 61 75 69 76 62 77
REMARK SMILES IDX 68 78 70 79 67 80 63 81 64 82 65 83 66 84 45 85 46 86 54 87
REMARK SMILES IDX 47 88 53 89 55 90 52 91 48 92 49 93 50 94 51 95
REMARK H PARENT 11 7 16 29 75 48 43 59
REMARK Flexibility Score: inf
ROOT
ATOM      1  C   UNL A   1      35.683  22.188  24.393  1.00  0.00     0.023 C 
ENDROOT
BRANCH   1   2
ATOM      2  C   UNL A   1      34.254  21.661  24.393  1.00  0.00     0.023 C 
BRANCH   2   3
ATOM      3  C   UNL A   1      33.175  22.684  24.045  1.00  0.00     0.116 C 
BRANCH   3   4
ATOM      4  N   UNL A   1      33.690  23.813  23.295  1.00  0.00    -0.354 N 
ATOM      5  C   UNL A   1      33.375  25.134  23.284  1.00  0.00     0.242 C 
ATOM      6  O   UNL A   1      34.111  25.857  22.596  1.00  0.00    -0.273 OA
ATOM      7  H   UNL A   1      34.411  23.573  22.668  1.00  0.00     0.163 HD
BRANCH   5   8
ATOM      8  C   UNL A   1      32.123  25.773  23.944  1.00  0.00     0.175 C 
ATOM      9  N   UNL A   1      31.631  27.100  23.550  1.00  0.00    -0.323 N 
ATOM     10  C   UNL A   1      31.786  28.066  24.635  1.00  0.00     0.089 C 
ATOM     11  C   UNL A   1      32.405  25.915  25.460  1.00  0.00     0.041 C 
ATOM     12  C   UNL A   1      31.635  27.176  25.869  1.00  0.00     0.014 C 
ATOM     13  C   UNL A   1      33.138  28.785  24.592  1.00  0.00     0.025 C 
ATOM     14  C   UNL A   1      32.091  27.825  27.172  1.00  0.00     0.006 C 
ATOM     15  C   UNL A   1      33.460  29.509  25.890  1.00  0.00     0.002 C 
ATOM     16  C   UNL A   1      33.434  28.542  27.069  1.00  0.00     0.000 C 
BRANCH   9  17
ATOM     17  C   UNL A   1      30.889  27.437  22.426  1.00  0.00     0.255 C 
ATOM     18  O   UNL A   1      31.115  26.917  21.335  1.00  0.00    -0.269 OA
BRANCH  17  19
ATOM     19  C   UNL A   1      29.867  28.477  22.558  1.00  0.00     0.053 A 
ATOM     20  C   UNL A   1      28.534  31.920  21.658  1.00  0.00     0.056 C 
ATOM     21  C   UNL A   1      28.814  30.542  22.151  1.00  0.00     0.003 A 
ATOM     22  C   UNL A   1      29.956  29.794  21.983  1.00  0.00     0.029 A 
ATOM     23  S   UNL A   1      27.622  29.672  23.001  1.00  0.00    -0.145 S 
ATOM     24  C   UNL A   1      28.610  28.273  23.111  1.00  0.00     0.014 A 
ATOM     25  C   UNL A   1      28.034  27.040  23.730  1.00  0.00     0.057 C 
ENDBRANCH  17  19
ENDBRANCH   9  17
ENDBRANCH   5   8
ENDBRANCH   3   4
ENDBRANCH   2   3
ENDBRANCH   1   2
BRANCH   1  26
ATOM     26  C   UNL A   1      36.474  21.932  25.668  1.00  0.00     0.116 C 
BRANCH  26  27
ATOM     27  N   UNL A   1      37.482  20.887  25.541  1.00  0.00    -0.352 N 
ATOM     28  C   UNL A   1      38.816  20.941  25.877  1.00  0.00     0.251 C 
ATOM     29  H   UNL A   1      37.168  20.031  25.167  1.00  0.00     0.163 HD
ATOM     30  O   UNL A   1      39.558  19.993  25.637  1.00  0.00    -0.269 OA
BRANCH  28  31
ATOM     31  C   UNL A   1      39.344  22.180  26.480  1.00  0.00     0.039 A 
ATOM     32  C   UNL A   1      40.430  22.099  27.353  1.00  0.00     0.014 A 
ATOM     33  C   UNL A   1      38.832  23.421  26.091  1.00  0.00     0.014 A 
ATOM     34  C   UNL A   1      41.066  23.273  27.764  1.00  0.00     0.010 A 
ATOM     35  C   UNL A   1      39.523  24.577  26.426  1.00  0.00     0.010 A 
ATOM     36  C   UNL A   1      40.651  24.516  27.259  1.00  0.00    -0.014 A 
BRANCH  36  37
ATOM     37  C   UNL A   1      41.375  25.770  27.590  1.00  0.00     0.031 A 
ATOM     38  C   UNL A   1      40.686  26.833  28.401  1.00  0.00     0.074 A 
ATOM     39  C   UNL A   1      42.606  25.988  27.086  1.00  0.00     0.049 A 
ATOM     40  N   UNL A   1      41.086  28.044  28.694  1.00  0.00    -0.248 NA
ATOM     41  C   UNL A   1      39.348  26.501  28.913  1.00  0.00     0.031 C 
ATOM     42  C   UNL A   1      43.353  25.057  26.237  1.00  0.00     0.029 A 
ATOM     43  N   UNL A   1      43.443  27.070  27.203  1.00  0.00    -0.354 N 
ATOM     44  C   UNL A   1      40.038  28.626  29.398  1.00  0.00     0.074 A 
ATOM     45  C   UNL A   1      38.962  27.658  29.427  1.00  0.00     0.031 C 
ATOM     46  C   UNL A   1      44.546  25.596  25.933  1.00  0.00     0.029 A 
ATOM     47  C   UNL A   1      44.633  26.926  26.527  1.00  0.00     0.049 A 
ATOM     48  H   UNL A   1      43.213  27.875  27.722  1.00  0.00     0.167 HD
ATOM     49  C   UNL A   1      39.987  29.845  29.991  1.00  0.00     0.034 A 
ATOM     50  C   UNL A   1      45.672  27.774  26.396  1.00  0.00     0.034 A 
ATOM     51  C   UNL A   1      41.082  30.783  29.978  1.00  0.00     0.049 A 
ATOM     52  C   UNL A   1      45.602  29.117  27.076  1.00  0.00     0.074 A 
ATOM     53  C   UNL A   1      41.167  32.019  30.595  1.00  0.00     0.029 A 
ATOM     54  N   UNL A   1      42.286  30.588  29.313  1.00  0.00    -0.354 N 
ATOM     55  N   UNL A   1      44.622  29.636  27.780  1.00  0.00    -0.248 NA
ATOM     56  C   UNL A   1      46.782  29.983  26.954  1.00  0.00     0.031 C 
ATOM     57  C   UNL A   1      42.400  32.592  30.262  1.00  0.00     0.029 A 
ATOM     58  C   UNL A   1      43.112  31.687  29.489  1.00  0.00     0.049 A 
ATOM     59  H   UNL A   1      42.519  29.786  28.792  1.00  0.00     0.167 HD
ATOM     60  C   UNL A   1      45.081  30.878  28.209  1.00  0.00     0.074 A 
ATOM     61  C   UNL A   1      46.428  31.023  27.695  1.00  0.00     0.031 C 
ATOM     62  C   UNL A   1      44.450  31.814  28.963  1.00  0.00     0.034 A 
BRANCH  49  63
ATOM     63  C   UNL A   1      38.699  30.224  30.680  1.00  0.00     0.023 A 
ATOM     64  C   UNL A   1      37.663  30.882  29.993  1.00  0.00     0.031 A 
ATOM     65  C   UNL A   1      38.521  29.971  32.052  1.00  0.00     0.131 A 
ATOM     66  C   UNL A   1      36.541  31.345  30.695  1.00  0.00     0.055 A 
ATOM     67  C   UNL A   1      37.361  30.357  32.726  1.00  0.00     0.041 A 
ATOM     68  F   UNL A   1      39.482  29.364  32.765  1.00  0.00    -0.206 F 
ATOM     69  C   UNL A   1      36.370  31.066  32.052  1.00  0.00     0.022 A 
BRANCH  66  70
ATOM     70  S   UNL A   1      35.387  32.455  29.842  1.00  0.00     0.124 S 
ATOM     71  O   UNL A   1      34.985  31.637  28.700  1.00  0.00    -0.237 OA
ATOM     72  O   UNL A   1      34.363  32.684  30.854  1.00  0.00    -0.237 OA
ATOM     73  O   UNL A   1      36.209  33.616  29.510  1.00  0.00    -0.744 OA
ENDBRANCH  66  70
ENDBRANCH  49  63
BRANCH  50  74
ATOM     74  C   UNL A   1      46.868  27.389  25.595  1.00  0.00     0.023 A 
ATOM     75  C   UNL A   1      47.018  27.825  24.269  1.00  0.00     0.031 A 
ATOM     76  C   UNL A   1      47.861  26.550  26.131  1.00  0.00     0.131 A 
ATOM     77  C   UNL A   1      48.110  27.383  23.506  1.00  0.00     0.055 A 
ATOM     78  C   UNL A   1      48.971  26.151  25.383  1.00  0.00     0.041 A 
ATOM     79  F   UNL A   1      47.771  26.114  27.397  1.00  0.00    -0.206 F 
ATOM     80  C   UNL A   1      49.094  26.558  24.057  1.00  0.00     0.022 A 
BRANCH  77  81
ATOM     81  S   UNL A   1      48.189  27.845  21.754  1.00  0.00     0.124 S 
ATOM     82  O   UNL A   1      49.331  28.751  21.736  1.00  0.00    -0.237 OA
ATOM     83  O   UNL A   1      48.386  26.550  21.109  1.00  0.00    -0.237 OA
ATOM     84  O   UNL A   1      46.891  28.470  21.508  1.00  0.00    -0.744 OA
ENDBRANCH  77  81
ENDBRANCH  50  74
BRANCH  62  85
ATOM     85  C   UNL A   1      45.236  33.051  29.312  1.00  0.00     0.023 A 
ATOM     86  C   UNL A   1      45.149  34.224  28.542  1.00  0.00     0.031 A 
ATOM     87  C   UNL A   1      46.092  33.050  30.427  1.00  0.00     0.131 A 
ATOM     88  C   UNL A   1      45.945  35.331  28.868  1.00  0.00     0.055 A 
ATOM     89  C   UNL A   1      46.841  34.173  30.779  1.00  0.00     0.041 A 
ATOM     90  F   UNL A   1      46.211  31.954  31.195  1.00  0.00    -0.206 F 
ATOM     91  C   UNL A   1      46.779  35.319  29.991  1.00  0.00     0.022 A 
BRANCH  88  92
ATOM     92  S   UNL A   1      45.938  36.766  27.759  1.00  0.00     0.124 S 
ATOM     93  O   UNL A   1      44.932  36.383  26.774  1.00  0.00    -0.237 OA
ATOM     94  O   UNL A   1      45.568  37.853  28.658  1.00  0.00    -0.237 OA
ATOM     95  O   UNL A   1      47.310  36.819  27.256  1.00  0.00    -0.744 OA
ENDBRANCH  88  92
ENDBRANCH  62  85
ENDBRANCH  36  37
ENDBRANCH  28  31
ENDBRANCH  26  27
ENDBRANCH   1  26
TORSDOF 16
ENDMDL
MODEL 2
REMARK VINA RESULT:     -12.8      1.736      8.037
REMARK SMILES Cc1cc(C(=O)N2[C@@H](C(=O)NCCCCNC(=O)c3ccc(-c4c5nc(c(-c6cc(S(=O)(=O)[O-])ccc6F)c6ccc([nH]6)c(-c6cc(S(=O)(=O)[O-])ccc6F)c6nc(c(-c7cc(S(=O)(=O)[O-])ccc7F)c7ccc4[nH]7)C=C6)C=C5)cc3)C[C@H]3CCCC[C@H]32)c(C)s1
REMARK SMILES IDX 14 1 13 2 12 3 11 4 9 5 10 6 8 8 7 9 88 10 82 11 83 12 87 13
REMARK SMILES IDX 84 14 86 15 85 16 5 17 6 18 4 19 1 20 2 21 3 22 91 23 89 24
REMARK SMILES IDX 90 25 15 26 16 27 17 28 18 30 19 31 20 32 81 33 21 34 80 35
REMARK SMILES IDX 22 36 23 37 24 38 74 39 25 40 79 41 73 42 75 43 26 44 78 45
REMARK SMILES IDX 72 46 71 47 27 49 59 50 39 51 58 52 40 53 43 54 57 55 76 56
REMARK SMILES IDX 41 57 42 58 56 60 77 61 44 62 28 63 29 64 37 65 30 66 36 67
REMARK SMILES IDX 38 68 35 69 31 70 32 71 33 72 34 73 60 74 61 75 69 76 62 77
REMARK SMILES IDX 68 78 70 79 67 80 63 81 64 82 65 83 66 84 45 85 46 86 54 87
REMARK SMILES IDX 47 88 53 89 55 90 52 91 48 92 49 93 50 94 51 95
REMARK H PARENT 11 7 16 29 75 48 43 59
REMARK Flexibility Score: inf
ROOT
ATOM      1  C   UNL A   1      37.013  21.442  24.058  1.00  0.00     0.023 C 
ENDROOT
BRANCH   1   2
ATOM      2  C   UNL A   1      36.692  22.770  23.387  1.00  0.00     0.023 C 
BRANCH   2   3
ATOM      3  C   UNL A   1      35.587  23.592  24.049  1.00  0.00     0.116 C 
BRANCH   3   4
ATOM      4  N   UNL A   1      34.461  23.834  23.169  1.00  0.00    -0.354 N 
ATOM      5  C   UNL A   1      33.398  24.677  23.240  1.00  0.00     0.242 C 
ATOM      6  O   UNL A   1      32.672  24.715  22.236  1.00  0.00    -0.273 OA
ATOM      7  H   UNL A   1      34.468  23.275  22.357  1.00  0.00     0.163 HD
BRANCH   5   8
ATOM      8  C   UNL A   1      32.961  25.478  24.496  1.00  0.00     0.175 C 
ATOM      9  N   UNL A   1      31.747  25.136  25.250  1.00  0.00    -0.323 N 
ATOM     10  C   UNL A   1      30.738  26.186  25.136  1.00  0.00     0.089 C 
ATOM     11  C   UNL A   1      32.729  26.948  24.066  1.00  0.00     0.041 C 
ATOM     12  C   UNL A   1      31.605  27.437  24.986  1.00  0.00     0.014 C 
ATOM     13  C   UNL A   1      29.803  25.973  23.941  1.00  0.00     0.025 C 
ATOM     14  C   UNL A   1      30.850  28.670  24.498  1.00  0.00     0.006 C 
ATOM     15  C   UNL A   1      28.998  27.217  23.596  1.00  0.00     0.002 C 
ATOM     16  C   UNL A   1      29.921  28.399  23.318  1.00  0.00     0.000 C 
BRANCH   9  17
ATOM     17  C   UNL A   1      31.572  24.107  26.166  1.00  0.00     0.255 C 
ATOM     18  O   UNL A   1      31.015  24.302  27.245  1.00  0.00    -0.269 OA
BRANCH  17  19
ATOM     19  C   UNL A   1      32.122  22.790  25.838  1.00  0.00     0.053 A 
ATOM     20  C   UNL A   1      32.348  19.804  23.497  1.00  0.00     0.056 C 
ATOM     21  C   UNL A   1      32.461  20.842  24.560  1.00  0.00     0.003 A 
ATOM     22  C   UNL A   1      31.709  21.985  24.718  1.00  0.00     0.029 A 
ATOM     23  S   UNL A   1      33.669  20.726  25.754  1.00  0.00    -0.145 S 
ATOM     24  C   UNL A   1      33.223  22.223  26.464  1.00  0.00     0.014 A 
ATOM     25  C   UNL A   1      34.043  22.746  27.600  1.00  0.00     0.057 C 
ENDBRANCH  17  19
ENDBRANCH   9  17
ENDBRANCH   5   8
ENDBRANCH   3   4
ENDBRANCH   2   3
ENDBRANCH   1   2
BRANCH   1  26
ATOM     26  C   UNL A   1      37.552  21.540  25.478  1.00  0.00     0.116 C 
BRANCH  26  27
ATOM     27  N   UNL A   1      38.606  20.580  25.780  1.00  0.00    -0.352 N 
ATOM     28  C   UNL A   1      39.807  20.801  26.418  1.00  0.00     0.251 C 
ATOM     29  H   UNL A   1      38.439  19.653  25.492  1.00  0.00     0.163 HD
ATOM     30  O   UNL A   1      40.628  19.897  26.531  1.00  0.00    -0.269 OA
BRANCH  28  31
ATOM     31  C   UNL A   1      40.104  22.160  26.912  1.00  0.00     0.039 A 
ATOM     32  C   UNL A   1      41.135  22.332  27.838  1.00  0.00     0.014 A 
ATOM     33  C   UNL A   1      39.437  23.263  26.374  1.00  0.00     0.014 A 
ATOM     34  C   UNL A   1      41.562  23.624  28.153  1.00  0.00     0.010 A 
ATOM     35  C   UNL A   1      39.925  24.539  26.618  1.00  0.00     0.010 A 
ATOM     36  C   UNL A   1      40.996  24.734  27.504  1.00  0.00    -0.014 A 
BRANCH  36  37
ATOM     37  C   UNL A   1      41.502  26.111  27.735  1.00  0.00     0.031 A 
ATOM     38  C   UNL A   1      42.868  26.494  27.234  1.00  0.00     0.074 A 
ATOM     39  C   UNL A   1      40.778  26.978  28.471  1.00  0.00     0.049 A 
ATOM     40  N   UNL A   1      43.548  27.593  27.436  1.00  0.00    -0.248 NA
ATOM     41  C   UNL A   1      43.579  25.484  26.437  1.00  0.00     0.031 C 
ATOM     42  C   UNL A   1      39.466  26.703  29.060  1.00  0.00     0.029 A 
ATOM     43  N   UNL A   1      41.048  28.267  28.860  1.00  0.00    -0.354 N 
ATOM     44  C   UNL A   1      44.776  27.395  26.814  1.00  0.00     0.074 A 
ATOM     45  C   UNL A   1      44.768  26.045  26.291  1.00  0.00     0.031 C 
ATOM     46  C   UNL A   1      39.035  27.796  29.712  1.00  0.00     0.029 A 
ATOM     47  C   UNL A   1      40.056  28.835  29.625  1.00  0.00     0.049 A 
ATOM     48  H   UNL A   1      41.877  28.740  28.614  1.00  0.00     0.167 HD
ATOM     49  C   UNL A   1      45.805  28.267  26.670  1.00  0.00     0.034 A 
ATOM     50  C   UNL A   1      39.983  30.053  30.197  1.00  0.00     0.034 A 
ATOM     51  C   UNL A   1      45.780  29.618  27.171  1.00  0.00     0.049 A 
ATOM     52  C   UNL A   1      41.130  31.013  30.010  1.00  0.00     0.074 A 
ATOM     53  C   UNL A   1      46.736  30.609  27.031  1.00  0.00     0.029 A 
ATOM     54  N   UNL A   1      44.743  30.171  27.911  1.00  0.00    -0.354 N 
ATOM     55  N   UNL A   1      42.266  30.827  29.378  1.00  0.00    -0.248 NA
ATOM     56  C   UNL A   1      40.978  32.348  30.601  1.00  0.00     0.031 C 
ATOM     57  C   UNL A   1      46.300  31.742  27.727  1.00  0.00     0.029 A 
ATOM     58  C   UNL A   1      45.043  31.481  28.250  1.00  0.00     0.049 A 
ATOM     59  H   UNL A   1      43.914  29.700  28.159  1.00  0.00     0.167 HD
ATOM     60  C   UNL A   1      42.953  32.034  29.473  1.00  0.00     0.074 A 
ATOM     61  C   UNL A   1      42.096  32.942  30.211  1.00  0.00     0.031 C 
ATOM     62  C   UNL A   1      44.177  32.366  28.991  1.00  0.00     0.034 A 
BRANCH  49  63
ATOM     63  C   UNL A   1      47.037  27.767  25.955  1.00  0.00     0.023 A 
ATOM     64  C   UNL A   1      47.275  28.067  24.602  1.00  0.00     0.031 A 
ATOM     65  C   UNL A   1      47.960  26.938  26.617  1.00  0.00     0.131 A 
ATOM     66  C   UNL A   1      48.353  27.470  23.932  1.00  0.00     0.055 A 
ATOM     67  C   UNL A   1      49.080  26.418  25.966  1.00  0.00     0.041 A 
ATOM     68  F   UNL A   1      47.776  26.601  27.903  1.00  0.00    -0.206 F 
ATOM     69  C   UNL A   1      49.272  26.668  24.609  1.00  0.00     0.022 A 
BRANCH  66  70
ATOM     70  S   UNL A   1      48.442  27.631  22.127  1.00  0.00     0.124 S 
ATOM     71  O   UNL A   1      47.120  28.169  21.815  1.00  0.00    -0.237 OA
ATOM     72  O   UNL A   1      49.562  28.546  21.947  1.00  0.00    -0.237 OA
ATOM     73  O   UNL A   1      48.673  26.262  21.671  1.00  0.00    -0.744 OA
ENDBRANCH  66  70
ENDBRANCH  49  63
BRANCH  50  74
ATOM     74  C   UNL A   1      38.788  30.443  30.998  1.00  0.00     0.023 A 
ATOM     75  C   UNL A   1      37.706  31.110  30.401  1.00  0.00     0.031 A 
ATOM     76  C   UNL A   1      38.726  30.188  32.379  1.00  0.00     0.131 A 
ATOM     77  C   UNL A   1      36.628  31.541  31.190  1.00  0.00     0.055 A 
ATOM     78  C   UNL A   1      37.630  30.577  33.152  1.00  0.00     0.041 A 
ATOM     79  F   UNL A   1      39.730  29.545  32.997  1.00  0.00    -0.206 F 
ATOM     80  C   UNL A   1      36.578  31.270  32.559  1.00  0.00     0.022 A 
BRANCH  77  81
ATOM     81  S   UNL A   1      35.323  32.530  30.410  1.00  0.00     0.124 S 
ATOM     82  O   UNL A   1      36.025  33.776  30.122  1.00  0.00    -0.237 OA
ATOM     83  O   UNL A   1      34.971  31.710  29.257  1.00  0.00    -0.237 OA
ATOM     84  O   UNL A   1      34.297  32.617  31.447  1.00  0.00    -0.744 OA
ENDBRANCH  77  81
ENDBRANCH  50  74
BRANCH  62  85
ATOM     85  C   UNL A   1      44.633  33.787  29.210  1.00  0.00     0.023 A 
ATOM     86  C   UNL A   1      44.115  34.853  28.457  1.00  0.00     0.031 A 
ATOM     87  C   UNL A   1      45.608  34.070  30.183  1.00  0.00     0.131 A 
ATOM     88  C   UNL A   1      44.613  36.150  28.652  1.00  0.00     0.055 A 
ATOM     89  C   UNL A   1      46.061  35.370  30.411  1.00  0.00     0.041 A 
ATOM     90  F   UNL A   1      46.135  33.086  30.930  1.00  0.00    -0.206 F 
ATOM     91  C   UNL A   1      45.571  36.418  29.636  1.00  0.00     0.022 A 
BRANCH  88  92
ATOM     92  S   UNL A   1      44.050  37.475  27.549  1.00  0.00     0.124 S 
ATOM     93  O   UNL A   1      43.369  38.372  28.477  1.00  0.00    -0.237 OA
ATOM     94  O   UNL A   1      45.303  37.968  26.990  1.00  0.00    -0.237 OA
ATOM     95  O   UNL A   1      43.177  36.785  26.600  1.00  0.00    -0.744 OA
ENDBRANCH  88  92
ENDBRANCH  62  85
ENDBRANCH  36  37
ENDBRANCH  28  31
ENDBRANCH  26  27
ENDBRANCH   1  26
TORSDOF 16
ENDMDL
MODEL 3
REMARK VINA RESULT:     -12.8      4.892      7.636
REMARK SMILES Cc1cc(C(=O)N2[C@@H](C(=O)NCCCCNC(=O)c3ccc(-c4c5nc(c(-c6cc(S(=O)(=O)[O-])ccc6F)c6ccc([nH]6)c(-c6cc(S(=O)(=O)[O-])ccc6F)c6nc(c(-c7cc(S(=O)(=O)[O-])ccc7F)c7ccc4[nH]7)C=C6)C=C5)cc3)C[C@H]3CCCC[C@H]32)c(C)s1
REMARK SMILES IDX 14 1 13 2 12 3 11 4 9 5 10 6 8 8 7 9 88 10 82 11 83 12 87 13
REMARK SMILES IDX 84 14 86 15 85 16 5 17 6 18 4 19 1 20 2 21 3 22 91 23 89 24
REMARK SMILES IDX 90 25 15 26 16 27 17 28 18 30 19 31 20 32 81 33 21 34 80 35
REMARK SMILES IDX 22 36 23 37 24 38 74 39 25 40 79 41 73 42 75 43 26 44 78 45
REMARK SMILES IDX 72 46 71 47 27 49 59 50 39 51 58 52 40 53 43 54 57 55 76 56
REMARK SMILES IDX 41 57 42 58 56 60 77 61 44 62 28 63 29 64 37 65 30 66 36 67
REMARK SMILES IDX 38 68 35 69 31 70 32 71 33 72 34 73 60 74 61 75 69 76 62 77
REMARK SMILES IDX 68 78 70 79 67 80 63 81 64 82 65 83 66 84 45 85 46 86 54 87
REMARK SMILES IDX 47 88 53 89 55 90 52 91 48 92 49 93 50 94 51 95
REMARK H PARENT 11 7 16 29 75 48 43 59
REMARK Flexibility Score: inf
ROOT
ATOM      1  C   UNL A   1      31.655  29.506  26.777  1.00  0.00     0.023 C 
ENDROOT
BRANCH   1   2
ATOM      2  C   UNL A   1      31.796  28.185  27.522  1.00  0.00     0.023 C 
BRANCH   2   3
ATOM      3  C   UNL A   1      32.529  27.078  26.766  1.00  0.00     0.116 C 
BRANCH   3   4
ATOM      4  N   UNL A   1      31.823  25.813  26.797  1.00  0.00    -0.354 N 
ATOM      5  C   UNL A   1      32.152  24.561  26.384  1.00  0.00     0.242 C 
ATOM      6  O   UNL A   1      31.346  23.667  26.679  1.00  0.00    -0.273 OA
ATOM      7  H   UNL A   1      30.924  25.873  27.196  1.00  0.00     0.163 HD
BRANCH   5   8
ATOM      8  C   UNL A   1      33.364  24.194  25.485  1.00  0.00     0.175 C 
ATOM      9  N   UNL A   1      33.222  23.991  24.037  1.00  0.00    -0.323 N 
ATOM     10  C   UNL A   1      33.467  22.599  23.669  1.00  0.00     0.089 C 
ATOM     11  C   UNL A   1      33.944  22.851  25.994  1.00  0.00     0.041 C 
ATOM     12  C   UNL A   1      34.483  22.171  24.729  1.00  0.00     0.014 C 
ATOM     13  C   UNL A   1      32.192  21.750  23.703  1.00  0.00     0.025 C 
ATOM     14  C   UNL A   1      34.685  20.663  24.834  1.00  0.00     0.006 C 
ATOM     15  C   UNL A   1      32.481  20.257  23.682  1.00  0.00     0.002 C 
ATOM     16  C   UNL A   1      33.385  19.864  24.845  1.00  0.00     0.000 C 
BRANCH   9  17
ATOM     17  C   UNL A   1      33.110  24.958  23.046  1.00  0.00     0.255 C 
ATOM     18  O   UNL A   1      33.927  25.028  22.130  1.00  0.00    -0.269 OA
BRANCH  17  19
ATOM     19  C   UNL A   1      32.024  25.934  23.152  1.00  0.00     0.053 A 
ATOM     20  C   UNL A   1      28.370  26.737  23.824  1.00  0.00     0.056 C 
ATOM     21  C   UNL A   1      29.833  26.701  23.544  1.00  0.00     0.003 A 
ATOM     22  C   UNL A   1      30.639  25.600  23.362  1.00  0.00     0.029 A 
ATOM     23  S   UNL A   1      30.732  28.146  23.466  1.00  0.00    -0.145 S 
ATOM     24  C   UNL A   1      32.210  27.307  23.231  1.00  0.00     0.014 A 
ATOM     25  C   UNL A   1      33.477  28.098  23.171  1.00  0.00     0.057 C 
ENDBRANCH  17  19
ENDBRANCH   9  17
ENDBRANCH   5   8
ENDBRANCH   3   4
ENDBRANCH   2   3
ENDBRANCH   1   2
BRANCH   1  26
ATOM     26  C   UNL A   1      32.951  30.271  26.552  1.00  0.00     0.116 C 
BRANCH  26  27
ATOM     27  N   UNL A   1      32.917  31.649  27.025  1.00  0.00    -0.352 N 
ATOM     28  C   UNL A   1      33.868  32.326  27.755  1.00  0.00     0.251 C 
ATOM     29  H   UNL A   1      32.109  32.162  26.793  1.00  0.00     0.163 HD
ATOM     30  O   UNL A   1      33.657  33.470  28.145  1.00  0.00    -0.269 OA
BRANCH  28  31
ATOM     31  C   UNL A   1      35.121  31.628  28.103  1.00  0.00     0.039 A 
ATOM     32  C   UNL A   1      36.319  32.344  28.096  1.00  0.00     0.014 A 
ATOM     33  C   UNL A   1      35.086  30.301  28.540  1.00  0.00     0.014 A 
ATOM     34  C   UNL A   1      37.471  31.754  28.621  1.00  0.00     0.010 A 
ATOM     35  C   UNL A   1      36.209  29.754  29.144  1.00  0.00     0.010 A 
ATOM     36  C   UNL A   1      37.411  30.475  29.199  1.00  0.00    -0.014 A 
BRANCH  36  37
ATOM     37  C   UNL A   1      38.592  29.866  29.862  1.00  0.00     0.031 A 
ATOM     38  C   UNL A   1      38.991  30.327  31.237  1.00  0.00     0.074 A 
ATOM     39  C   UNL A   1      39.351  28.972  29.196  1.00  0.00     0.049 A 
ATOM     40  N   UNL A   1      40.051  30.022  31.940  1.00  0.00    -0.248 NA
ATOM     41  C   UNL A   1      38.098  31.299  31.886  1.00  0.00     0.031 C 
ATOM     42  C   UNL A   1      39.098  28.491  27.836  1.00  0.00     0.029 A 
ATOM     43  N   UNL A   1      40.499  28.318  29.568  1.00  0.00    -0.354 N 
ATOM     44  C   UNL A   1      39.966  30.783  33.100  1.00  0.00     0.074 A 
ATOM     45  C   UNL A   1      38.787  31.614  32.971  1.00  0.00     0.031 C 
ATOM     46  C   UNL A   1      40.045  27.600  27.499  1.00  0.00     0.029 A 
ATOM     47  C   UNL A   1      40.997  27.478  28.599  1.00  0.00     0.049 A 
ATOM     48  H   UNL A   1      40.927  28.440  30.447  1.00  0.00     0.167 HD
ATOM     49  C   UNL A   1      40.780  30.772  34.185  1.00  0.00     0.034 A 
ATOM     50  C   UNL A   1      42.100  26.704  28.596  1.00  0.00     0.034 A 
ATOM     51  C   UNL A   1      41.932  29.914  34.307  1.00  0.00     0.049 A 
ATOM     52  C   UNL A   1      42.982  26.693  29.818  1.00  0.00     0.074 A 
ATOM     53  C   UNL A   1      42.791  29.771  35.382  1.00  0.00     0.029 A 
ATOM     54  N   UNL A   1      42.386  29.050  33.320  1.00  0.00    -0.354 N 
ATOM     55  N   UNL A   1      42.862  27.385  30.928  1.00  0.00    -0.248 NA
ATOM     56  C   UNL A   1      44.139  25.790  29.792  1.00  0.00     0.031 C 
ATOM     57  C   UNL A   1      43.793  28.860  35.026  1.00  0.00     0.029 A 
ATOM     58  C   UNL A   1      43.522  28.385  33.752  1.00  0.00     0.049 A 
ATOM     59  H   UNL A   1      41.961  28.927  32.440  1.00  0.00     0.167 HD
ATOM     60  C   UNL A   1      43.914  26.977  31.743  1.00  0.00     0.074 A 
ATOM     61  C   UNL A   1      44.648  25.971  31.001  1.00  0.00     0.031 C 
ATOM     62  C   UNL A   1      44.242  27.391  32.994  1.00  0.00     0.034 A 
BRANCH  49  63
ATOM     63  C   UNL A   1      40.450  31.730  35.304  1.00  0.00     0.023 A 
ATOM     64  C   UNL A   1      39.476  31.423  36.272  1.00  0.00     0.031 A 
ATOM     65  C   UNL A   1      41.077  32.986  35.378  1.00  0.00     0.131 A 
ATOM     66  C   UNL A   1      39.093  32.391  37.211  1.00  0.00     0.055 A 
ATOM     67  C   UNL A   1      40.753  33.912  36.371  1.00  0.00     0.041 A 
ATOM     68  F   UNL A   1      41.999  33.343  34.472  1.00  0.00    -0.206 F 
ATOM     69  C   UNL A   1      39.742  33.624  37.285  1.00  0.00     0.022 A 
BRANCH  66  70
ATOM     70  S   UNL A   1      37.628  32.071  38.231  1.00  0.00     0.124 S 
ATOM     71  O   UNL A   1      36.684  33.054  37.703  1.00  0.00    -0.237 OA
ATOM     72  O   UNL A   1      37.332  30.676  37.930  1.00  0.00    -0.237 OA
ATOM     73  O   UNL A   1      38.092  32.332  39.592  1.00  0.00    -0.744 OA
ENDBRANCH  66  70
ENDBRANCH  49  63
BRANCH  50  74
ATOM     74  C   UNL A   1      42.440  25.873  27.407  1.00  0.00     0.023 A 
ATOM     75  C   UNL A   1      42.047  24.527  27.332  1.00  0.00     0.031 A 
ATOM     76  C   UNL A   1      43.192  26.401  26.343  1.00  0.00     0.131 A 
ATOM     77  C   UNL A   1      42.448  23.740  26.241  1.00  0.00     0.055 A 
ATOM     78  C   UNL A   1      43.550  25.628  25.237  1.00  0.00     0.041 A 
ATOM     79  F   UNL A   1      43.584  27.685  26.361  1.00  0.00    -0.206 F 
ATOM     80  C   UNL A   1      43.188  24.284  25.188  1.00  0.00     0.022 A 
BRANCH  77  81
ATOM     81  S   UNL A   1      42.052  21.971  26.254  1.00  0.00     0.124 S 
ATOM     82  O   UNL A   1      42.933  21.460  25.210  1.00  0.00    -0.237 OA
ATOM     83  O   UNL A   1      42.392  21.595  27.622  1.00  0.00    -0.237 OA
ATOM     84  O   UNL A   1      40.625  21.939  25.939  1.00  0.00    -0.744 OA
ENDBRANCH  77  81
ENDBRANCH  50  74
BRANCH  62  85
ATOM     85  C   UNL A   1      45.421  26.714  33.647  1.00  0.00     0.023 A 
ATOM     86  C   UNL A   1      45.282  25.508  34.354  1.00  0.00     0.031 A 
ATOM     87  C   UNL A   1      46.699  27.295  33.566  1.00  0.00     0.131 A 
ATOM     88  C   UNL A   1      46.394  24.947  34.997  1.00  0.00     0.055 A 
ATOM     89  C   UNL A   1      47.813  26.704  34.163  1.00  0.00     0.041 A 
ATOM     90  F   UNL A   1      46.885  28.448  32.903  1.00  0.00    -0.206 F 
ATOM     91  C   UNL A   1      47.662  25.528  34.893  1.00  0.00     0.022 A 
BRANCH  88  92
ATOM     92  S   UNL A   1      46.150  23.484  36.042  1.00  0.00     0.124 S 
ATOM     93  O   UNL A   1      46.410  24.017  37.375  1.00  0.00    -0.237 OA
ATOM     94  O   UNL A   1      44.764  23.126  35.757  1.00  0.00    -0.237 OA
ATOM     95  O   UNL A   1      47.148  22.537  35.546  1.00  0.00    -0.744 OA
ENDBRANCH  88  92
ENDBRANCH  62  85
ENDBRANCH  36  37
ENDBRANCH  28  31
ENDBRANCH  26  27
ENDBRANCH   1  26
TORSDOF 16
ENDMDL
