MODEL 1
REMARK VINA RESULT:     -12.2      0.000      0.000
REMARK SMILES O=C(NCCCCNC(=O)c1csc(-c2cnc3ccccc3c2)c1)c1ccc(-c2c3nc(c(-c4cc(S(=O)(=O)[O-])ccc4F)c4ccc([nH]4)c(-c4cc(S(=O)(=O)[O-])ccc4F)c4nc(c(-c5cc(S(=O)(=O)[O-])ccc5F)c5ccc2[nH]5)C=C4)C=C3)cc1
REMARK SMILES IDX 4 1 3 2 1 3 2 4 26 6 27 7 88 8 28 9 87 10 29 11 30 12 31 13
REMARK SMILES IDX 81 14 32 15 86 16 80 17 82 18 33 19 85 20 79 21 78 22 34 24
REMARK SMILES IDX 66 25 46 26 65 27 47 28 50 29 64 30 83 31 48 32 49 33 63 35
REMARK SMILES IDX 84 36 51 37 35 38 36 39 44 40 37 41 43 42 45 43 42 44 38 45
REMARK SMILES IDX 39 46 40 47 41 48 67 49 68 50 76 51 69 52 75 53 77 54 74 55
REMARK SMILES IDX 70 56 71 57 72 58 73 59 52 60 53 61 61 62 54 63 60 64 62 65
REMARK SMILES IDX 59 66 55 67 56 68 57 69 58 70 5 71 6 72 7 73 8 74 9 75 10 77
REMARK SMILES IDX 11 78 12 79 25 80 13 81 14 82 15 83 16 84 24 85 17 86 23 87
REMARK SMILES IDX 18 88 22 89 19 90 21 91 20 92
REMARK H PARENT 3 5 82 23 50 34 8 76
REMARK Flexibility Score: inf
ROOT
ATOM      1  C   UNL A   1      32.857  32.632  27.238  1.00  0.00     0.116 C 
ENDROOT
BRANCH   1   2
ATOM      2  N   UNL A   1      32.590  33.997  27.659  1.00  0.00    -0.352 N 
ATOM      3  O   UNL A   1      32.741  35.837  28.951  1.00  0.00    -0.269 OA
ATOM      4  C   UNL A   1      33.177  34.724  28.668  1.00  0.00     0.251 C 
ATOM      5  H   UNL A   1      31.891  34.469  27.150  1.00  0.00     0.163 HD
BRANCH   4   6
ATOM      6  C   UNL A   1      34.311  34.153  29.430  1.00  0.00     0.039 A 
ATOM      7  C   UNL A   1      35.630  34.480  29.108  1.00  0.00     0.014 A 
ATOM      8  C   UNL A   1      34.042  33.274  30.483  1.00  0.00     0.014 A 
ATOM      9  C   UNL A   1      36.680  33.830  29.751  1.00  0.00     0.010 A 
ATOM     10  C   UNL A   1      35.099  32.673  31.174  1.00  0.00     0.010 A 
ATOM     11  C   UNL A   1      36.426  32.922  30.791  1.00  0.00    -0.014 A 
BRANCH  11  12
ATOM     12  C   UNL A   1      37.564  32.263  31.484  1.00  0.00     0.031 A 
ATOM     13  C   UNL A   1      38.322  31.142  30.829  1.00  0.00     0.074 A 
ATOM     14  C   UNL A   1      37.923  32.700  32.706  1.00  0.00     0.049 A 
ATOM     15  N   UNL A   1      39.337  30.451  31.286  1.00  0.00    -0.248 NA
ATOM     16  C   UNL A   1      37.875  30.735  29.488  1.00  0.00     0.031 C 
ATOM     17  C   UNL A   1      37.256  33.776  33.444  1.00  0.00     0.029 A 
ATOM     18  N   UNL A   1      38.937  32.306  33.539  1.00  0.00    -0.354 N 
ATOM     19  C   UNL A   1      39.641  29.520  30.300  1.00  0.00     0.074 A 
ATOM     20  C   UNL A   1      38.682  29.714  29.232  1.00  0.00     0.031 C 
ATOM     21  C   UNL A   1      37.898  33.977  34.604  1.00  0.00     0.029 A 
ATOM     22  C   UNL A   1      38.986  33.011  34.718  1.00  0.00     0.049 A 
ATOM     23  H   UNL A   1      39.570  31.585  33.316  1.00  0.00     0.167 HD
ATOM     24  C   UNL A   1      40.635  28.595  30.284  1.00  0.00     0.034 A 
ATOM     25  C   UNL A   1      39.800  32.885  35.782  1.00  0.00     0.034 A 
ATOM     26  C   UNL A   1      41.588  28.417  31.355  1.00  0.00     0.049 A 
ATOM     27  C   UNL A   1      40.876  31.835  35.753  1.00  0.00     0.074 A 
ATOM     28  C   UNL A   1      42.652  27.535  31.428  1.00  0.00     0.029 A 
ATOM     29  N   UNL A   1      41.586  29.129  32.548  1.00  0.00    -0.354 N 
ATOM     30  N   UNL A   1      41.159  30.970  34.807  1.00  0.00    -0.248 NA
ATOM     31  C   UNL A   1      41.745  31.747  36.933  1.00  0.00     0.031 C 
ATOM     32  C   UNL A   1      43.257  27.674  32.684  1.00  0.00     0.029 A 
ATOM     33  C   UNL A   1      42.611  28.688  33.371  1.00  0.00     0.049 A 
ATOM     34  H   UNL A   1      40.949  29.844  32.776  1.00  0.00     0.167 HD
ATOM     35  C   UNL A   1      42.246  30.241  35.275  1.00  0.00     0.074 A 
ATOM     36  C   UNL A   1      42.580  30.782  36.578  1.00  0.00     0.031 C 
ATOM     37  C   UNL A   1      42.913  29.219  34.680  1.00  0.00     0.034 A 
BRANCH  24  38
ATOM     38  C   UNL A   1      40.710  27.679  29.087  1.00  0.00     0.023 A 
ATOM     39  C   UNL A   1      41.637  27.886  28.051  1.00  0.00     0.031 A 
ATOM     40  C   UNL A   1      39.820  26.595  28.967  1.00  0.00     0.131 A 
ATOM     41  C   UNL A   1      41.608  27.066  26.911  1.00  0.00     0.055 A 
ATOM     42  C   UNL A   1      39.844  25.740  27.863  1.00  0.00     0.041 A 
ATOM     43  F   UNL A   1      38.900  26.360  29.915  1.00  0.00    -0.206 F 
ATOM     44  C   UNL A   1      40.733  25.981  26.820  1.00  0.00     0.022 A 
BRANCH  41  45
ATOM     45  S   UNL A   1      42.639  27.522  25.489  1.00  0.00     0.124 S 
ATOM     46  O   UNL A   1      41.936  28.696  24.977  1.00  0.00    -0.237 OA
ATOM     47  O   UNL A   1      43.935  27.773  26.107  1.00  0.00    -0.237 OA
ATOM     48  O   UNL A   1      42.576  26.343  24.628  1.00  0.00    -0.744 OA
ENDBRANCH  41  45
ENDBRANCH  24  38
BRANCH  25  49
ATOM     49  C   UNL A   1      39.606  33.753  36.974  1.00  0.00     0.023 A 
ATOM     50  C   UNL A   1      38.970  33.271  38.127  1.00  0.00     0.031 A 
ATOM     51  C   UNL A   1      40.055  35.086  36.971  1.00  0.00     0.131 A 
ATOM     52  C   UNL A   1      38.775  34.126  39.224  1.00  0.00     0.055 A 
ATOM     53  C   UNL A   1      39.897  35.920  38.077  1.00  0.00     0.041 A 
ATOM     54  F   UNL A   1      40.678  35.589  35.892  1.00  0.00    -0.206 F 
ATOM     55  C   UNL A   1      39.245  35.443  39.210  1.00  0.00     0.022 A 
BRANCH  52  56
ATOM     56  S   UNL A   1      37.851  33.507  40.655  1.00  0.00     0.124 S 
ATOM     57  O   UNL A   1      38.838  32.651  41.302  1.00  0.00    -0.237 OA
ATOM     58  O   UNL A   1      37.515  34.742  41.356  1.00  0.00    -0.237 OA
ATOM     59  O   UNL A   1      36.718  32.808  40.052  1.00  0.00    -0.744 OA
ENDBRANCH  52  56
ENDBRANCH  25  49
BRANCH  37  60
ATOM     60  C   UNL A   1      44.083  28.647  35.436  1.00  0.00     0.023 A 
ATOM     61  C   UNL A   1      43.924  27.581  36.340  1.00  0.00     0.031 A 
ATOM     62  C   UNL A   1      45.366  29.196  35.274  1.00  0.00     0.131 A 
ATOM     63  C   UNL A   1      45.022  27.133  37.088  1.00  0.00     0.055 A 
ATOM     64  C   UNL A   1      46.466  28.711  35.984  1.00  0.00     0.041 A 
ATOM     65  F   UNL A   1      45.570  30.216  34.426  1.00  0.00    -0.206 F 
ATOM     66  C   UNL A   1      46.294  27.682  36.906  1.00  0.00     0.022 A 
BRANCH  63  67
ATOM     67  S   UNL A   1      44.752  25.873  38.365  1.00  0.00     0.124 S 
ATOM     68  O   UNL A   1      43.506  26.326  38.978  1.00  0.00    -0.237 OA
ATOM     69  O   UNL A   1      44.666  24.646  37.579  1.00  0.00    -0.237 OA
ATOM     70  O   UNL A   1      45.936  25.983  39.213  1.00  0.00    -0.744 OA
ENDBRANCH  63  67
ENDBRANCH  37  60
ENDBRANCH  11  12
ENDBRANCH   4   6
ENDBRANCH   1   2
BRANCH   1  71
ATOM     71  C   UNL A   1      31.594  31.862  26.861  1.00  0.00     0.023 C 
BRANCH  71  72
ATOM     72  C   UNL A   1      31.718  30.337  26.876  1.00  0.00     0.023 C 
BRANCH  72  73
ATOM     73  C   UNL A   1      32.325  29.718  25.618  1.00  0.00     0.116 C 
BRANCH  73  74
ATOM     74  N   UNL A   1      31.432  29.812  24.475  1.00  0.00    -0.352 N 
ATOM     75  C   UNL A   1      30.956  28.820  23.663  1.00  0.00     0.252 C 
ATOM     76  H   UNL A   1      31.124  30.720  24.254  1.00  0.00     0.163 HD
ATOM     77  O   UNL A   1      30.393  29.123  22.604  1.00  0.00    -0.269 OA
BRANCH  75  78
ATOM     78  C   UNL A   1      31.137  27.432  24.047  1.00  0.00     0.051 A 
ATOM     79  C   UNL A   1      30.111  26.590  24.437  1.00  0.00     0.079 A 
ATOM     80  C   UNL A   1      32.381  26.722  23.992  1.00  0.00     0.034 A 
ATOM     81  S   UNL A   1      30.660  25.020  24.822  1.00  0.00    -0.143 S 
ATOM     82  C   UNL A   1      32.278  25.406  24.402  1.00  0.00     0.037 A 
BRANCH  82  83
ATOM     83  C   UNL A   1      33.335  24.401  24.525  1.00  0.00     0.011 A 
ATOM     84  C   UNL A   1      33.117  23.081  24.149  1.00  0.00     0.121 A 
ATOM     85  C   UNL A   1      34.598  24.706  25.035  1.00  0.00     0.021 A 
ATOM     86  N   UNL A   1      34.041  22.091  24.235  1.00  0.00    -0.256 NA
ATOM     87  C   UNL A   1      35.579  23.711  25.144  1.00  0.00     0.001 A 
ATOM     88  C   UNL A   1      35.251  22.405  24.725  1.00  0.00     0.070 A 
ATOM     89  C   UNL A   1      36.859  23.992  25.654  1.00  0.00     0.010 A 
ATOM     90  C   UNL A   1      36.223  21.419  24.832  1.00  0.00     0.029 A 
ATOM     91  C   UNL A   1      37.815  22.982  25.751  1.00  0.00     0.001 A 
ATOM     92  C   UNL A   1      37.496  21.693  25.339  1.00  0.00     0.002 A 
ENDBRANCH  82  83
ENDBRANCH  75  78
ENDBRANCH  73  74
ENDBRANCH  72  73
ENDBRANCH  71  72
ENDBRANCH   1  71
TORSDOF 15
ENDMDL
MODEL 2
REMARK VINA RESULT:     -12.1      0.626      7.819
REMARK SMILES O=C(NCCCCNC(=O)c1csc(-c2cnc3ccccc3c2)c1)c1ccc(-c2c3nc(c(-c4cc(S(=O)(=O)[O-])ccc4F)c4ccc([nH]4)c(-c4cc(S(=O)(=O)[O-])ccc4F)c4nc(c(-c5cc(S(=O)(=O)[O-])ccc5F)c5ccc2[nH]5)C=C4)C=C3)cc1
REMARK SMILES IDX 4 1 3 2 1 3 2 4 26 6 27 7 88 8 28 9 87 10 29 11 30 12 31 13
REMARK SMILES IDX 81 14 32 15 86 16 80 17 82 18 33 19 85 20 79 21 78 22 34 24
REMARK SMILES IDX 66 25 46 26 65 27 47 28 50 29 64 30 83 31 48 32 49 33 63 35
REMARK SMILES IDX 84 36 51 37 35 38 36 39 44 40 37 41 43 42 45 43 42 44 38 45
REMARK SMILES IDX 39 46 40 47 41 48 67 49 68 50 76 51 69 52 75 53 77 54 74 55
REMARK SMILES IDX 70 56 71 57 72 58 73 59 52 60 53 61 61 62 54 63 60 64 62 65
REMARK SMILES IDX 59 66 55 67 56 68 57 69 58 70 5 71 6 72 7 73 8 74 9 75 10 77
REMARK SMILES IDX 11 78 12 79 25 80 13 81 14 82 15 83 16 84 24 85 17 86 23 87
REMARK SMILES IDX 18 88 22 89 19 90 21 91 20 92
REMARK H PARENT 3 5 82 23 50 34 8 76
REMARK Flexibility Score: inf
ROOT
ATOM      1  C   UNL A   1      32.684  32.846  27.317  1.00  0.00     0.116 C 
ENDROOT
BRANCH   1   2
ATOM      2  N   UNL A   1      32.445  34.208  27.763  1.00  0.00    -0.352 N 
ATOM      3  O   UNL A   1      32.666  36.033  29.067  1.00  0.00    -0.269 OA
ATOM      4  C   UNL A   1      33.082  34.920  28.753  1.00  0.00     0.251 C 
ATOM      5  H   UNL A   1      31.727  34.690  27.291  1.00  0.00     0.163 HD
BRANCH   4   6
ATOM      6  C   UNL A   1      34.244  34.335  29.457  1.00  0.00     0.039 A 
ATOM      7  C   UNL A   1      35.550  34.613  29.043  1.00  0.00     0.014 A 
ATOM      8  C   UNL A   1      34.018  33.492  30.549  1.00  0.00     0.014 A 
ATOM      9  C   UNL A   1      36.619  33.948  29.637  1.00  0.00     0.010 A 
ATOM     10  C   UNL A   1      35.100  32.877  31.188  1.00  0.00     0.010 A 
ATOM     11  C   UNL A   1      36.406  33.074  30.715  1.00  0.00    -0.014 A 
BRANCH  11  12
ATOM     12  C   UNL A   1      37.566  32.399  31.353  1.00  0.00     0.031 A 
ATOM     13  C   UNL A   1      38.076  32.844  32.695  1.00  0.00     0.074 A 
ATOM     14  C   UNL A   1      38.144  31.361  30.719  1.00  0.00     0.049 A 
ATOM     15  N   UNL A   1      39.076  32.373  33.398  1.00  0.00    -0.248 NA
ATOM     16  C   UNL A   1      37.379  33.975  33.326  1.00  0.00     0.031 C 
ATOM     17  C   UNL A   1      37.739  30.844  29.409  1.00  0.00     0.029 A 
ATOM     18  N   UNL A   1      39.184  30.548  31.089  1.00  0.00    -0.354 N 
ATOM     19  C   UNL A   1      39.139  33.155  34.546  1.00  0.00     0.074 A 
ATOM     20  C   UNL A   1      38.095  34.153  34.428  1.00  0.00     0.031 C 
ATOM     21  C   UNL A   1      38.500  29.784  29.101  1.00  0.00     0.029 A 
ATOM     22  C   UNL A   1      39.480  29.578  30.161  1.00  0.00     0.049 A 
ATOM     23  H   UNL A   1      39.673  30.650  31.937  1.00  0.00     0.167 HD
ATOM     24  C   UNL A   1      39.985  33.045  35.602  1.00  0.00     0.034 A 
ATOM     25  C   UNL A   1      40.445  28.640  30.153  1.00  0.00     0.034 A 
ATOM     26  C   UNL A   1      41.017  32.041  35.707  1.00  0.00     0.049 A 
ATOM     27  C   UNL A   1      41.387  28.555  31.321  1.00  0.00     0.074 A 
ATOM     28  C   UNL A   1      41.906  31.819  36.745  1.00  0.00     0.029 A 
ATOM     29  N   UNL A   1      41.309  31.095  34.732  1.00  0.00    -0.354 N 
ATOM     30  N   UNL A   1      41.426  29.295  32.404  1.00  0.00    -0.248 NA
ATOM     31  C   UNL A   1      42.413  27.506  31.267  1.00  0.00     0.031 C 
ATOM     32  C   UNL A   1      42.768  30.779  36.375  1.00  0.00     0.029 A 
ATOM     33  C   UNL A   1      42.378  30.308  35.133  1.00  0.00     0.049 A 
ATOM     34  H   UNL A   1      40.826  30.997  33.880  1.00  0.00     0.167 HD
ATOM     35  C   UNL A   1      42.474  28.793  33.167  1.00  0.00     0.074 A 
ATOM     36  C   UNL A   1      43.028  27.675  32.428  1.00  0.00     0.031 C 
ATOM     37  C   UNL A   1      42.936  29.215  34.372  1.00  0.00     0.034 A 
BRANCH  24  38
ATOM     38  C   UNL A   1      39.850  34.066  36.706  1.00  0.00     0.023 A 
ATOM     39  C   UNL A   1      39.404  33.715  37.992  1.00  0.00     0.031 A 
ATOM     40  C   UNL A   1      40.148  35.420  36.460  1.00  0.00     0.131 A 
ATOM     41  C   UNL A   1      39.203  34.711  38.961  1.00  0.00     0.055 A 
ATOM     42  C   UNL A   1      40.014  36.396  37.450  1.00  0.00     0.041 A 
ATOM     43  F   UNL A   1      40.560  35.818  35.246  1.00  0.00    -0.206 F 
ATOM     44  C   UNL A   1      39.526  36.046  38.705  1.00  0.00     0.022 A 
BRANCH  41  45
ATOM     45  S   UNL A   1      38.384  34.257  40.515  1.00  0.00     0.124 S 
ATOM     46  O   UNL A   1      39.434  33.501  41.194  1.00  0.00    -0.237 OA
ATOM     47  O   UNL A   1      38.060  35.557  41.090  1.00  0.00    -0.237 OA
ATOM     48  O   UNL A   1      37.238  33.463  40.080  1.00  0.00    -0.744 OA
ENDBRANCH  41  45
ENDBRANCH  24  38
BRANCH  25  49
ATOM     49  C   UNL A   1      40.587  27.730  28.983  1.00  0.00     0.023 A 
ATOM     50  C   UNL A   1      41.509  27.999  27.962  1.00  0.00     0.031 A 
ATOM     51  C   UNL A   1      39.791  26.575  28.874  1.00  0.00     0.131 A 
ATOM     52  C   UNL A   1      41.596  27.136  26.858  1.00  0.00     0.055 A 
ATOM     53  C   UNL A   1      39.910  25.699  27.796  1.00  0.00     0.041 A 
ATOM     54  F   UNL A   1      38.900  26.272  29.832  1.00  0.00    -0.206 F 
ATOM     55  C   UNL A   1      40.811  25.982  26.774  1.00  0.00     0.022 A 
BRANCH  52  56
ATOM     56  S   UNL A   1      42.717  27.571  25.502  1.00  0.00     0.124 S 
ATOM     57  O   UNL A   1      43.986  27.735  26.203  1.00  0.00    -0.237 OA
ATOM     58  O   UNL A   1      42.611  26.402  24.634  1.00  0.00    -0.237 OA
ATOM     59  O   UNL A   1      42.139  28.799  24.962  1.00  0.00    -0.744 OA
ENDBRANCH  52  56
ENDBRANCH  25  49
BRANCH  37  60
ATOM     60  C   UNL A   1      44.082  28.437  34.964  1.00  0.00     0.023 A 
ATOM     61  C   UNL A   1      43.878  27.481  35.975  1.00  0.00     0.031 A 
ATOM     62  C   UNL A   1      45.397  28.678  34.532  1.00  0.00     0.131 A 
ATOM     63  C   UNL A   1      44.979  26.839  36.559  1.00  0.00     0.055 A 
ATOM     64  C   UNL A   1      46.485  27.998  35.081  1.00  0.00     0.041 A 
ATOM     65  F   UNL A   1      45.646  29.582  33.572  1.00  0.00    -0.206 F 
ATOM     66  C   UNL A   1      46.280  27.082  36.110  1.00  0.00     0.022 A 
BRANCH  63  67
ATOM     67  S   UNL A   1      44.698  25.738  37.973  1.00  0.00     0.124 S 
ATOM     68  O   UNL A   1      45.948  25.873  38.715  1.00  0.00    -0.237 OA
ATOM     69  O   UNL A   1      43.518  26.327  38.598  1.00  0.00    -0.237 OA
ATOM     70  O   UNL A   1      44.483  24.431  37.354  1.00  0.00    -0.744 OA
ENDBRANCH  63  67
ENDBRANCH  37  60
ENDBRANCH  11  12
ENDBRANCH   4   6
ENDBRANCH   1   2
BRANCH   1  71
ATOM     71  C   UNL A   1      31.477  32.221  26.625  1.00  0.00     0.023 C 
BRANCH  71  72
ATOM     72  C   UNL A   1      31.450  30.691  26.591  1.00  0.00     0.023 C 
BRANCH  72  73
ATOM     73  C   UNL A   1      31.872  30.059  25.266  1.00  0.00     0.116 C 
BRANCH  73  74
ATOM     74  N   UNL A   1      30.801  30.078  24.283  1.00  0.00    -0.352 N 
ATOM     75  C   UNL A   1      30.317  29.061  23.509  1.00  0.00     0.252 C 
ATOM     76  H   UNL A   1      30.361  30.948  24.158  1.00  0.00     0.163 HD
ATOM     77  O   UNL A   1      29.560  29.324  22.568  1.00  0.00    -0.269 OA
BRANCH  75  78
ATOM     78  C   UNL A   1      30.715  27.693  23.792  1.00  0.00     0.051 A 
ATOM     79  C   UNL A   1      29.855  26.707  24.240  1.00  0.00     0.079 A 
ATOM     80  C   UNL A   1      32.025  27.158  23.566  1.00  0.00     0.034 A 
ATOM     81  S   UNL A   1      30.639  25.209  24.476  1.00  0.00    -0.143 S 
ATOM     82  C   UNL A   1      32.138  25.824  23.910  1.00  0.00     0.037 A 
BRANCH  82  83
ATOM     83  C   UNL A   1      33.321  24.964  23.862  1.00  0.00     0.011 A 
ATOM     84  C   UNL A   1      33.584  24.165  22.755  1.00  0.00     0.121 A 
ATOM     85  C   UNL A   1      34.228  24.886  24.920  1.00  0.00     0.021 A 
ATOM     86  N   UNL A   1      34.654  23.339  22.635  1.00  0.00    -0.256 NA
ATOM     87  C   UNL A   1      35.344  24.041  24.837  1.00  0.00     0.001 A 
ATOM     88  C   UNL A   1      35.518  23.281  23.662  1.00  0.00     0.070 A 
ATOM     89  C   UNL A   1      36.273  23.944  25.888  1.00  0.00     0.010 A 
ATOM     90  C   UNL A   1      36.623  22.445  23.579  1.00  0.00     0.029 A 
ATOM     91  C   UNL A   1      37.374  23.096  25.778  1.00  0.00     0.001 A 
ATOM     92  C   UNL A   1      37.549  22.345  24.621  1.00  0.00     0.002 A 
ENDBRANCH  82  83
ENDBRANCH  75  78
ENDBRANCH  73  74
ENDBRANCH  72  73
ENDBRANCH  71  72
ENDBRANCH   1  71
TORSDOF 15
ENDMDL
MODEL 3
REMARK VINA RESULT:     -12.1      5.608      9.257
REMARK SMILES O=C(NCCCCNC(=O)c1csc(-c2cnc3ccccc3c2)c1)c1ccc(-c2c3nc(c(-c4cc(S(=O)(=O)[O-])ccc4F)c4ccc([nH]4)c(-c4cc(S(=O)(=O)[O-])ccc4F)c4nc(c(-c5cc(S(=O)(=O)[O-])ccc5F)c5ccc2[nH]5)C=C4)C=C3)cc1
REMARK SMILES IDX 4 1 3 2 1 3 2 4 26 6 27 7 88 8 28 9 87 10 29 11 30 12 31 13
REMARK SMILES IDX 81 14 32 15 86 16 80 17 82 18 33 19 85 20 79 21 78 22 34 24
REMARK SMILES IDX 66 25 46 26 65 27 47 28 50 29 64 30 83 31 48 32 49 33 63 35
REMARK SMILES IDX 84 36 51 37 35 38 36 39 44 40 37 41 43 42 45 43 42 44 38 45
REMARK SMILES IDX 39 46 40 47 41 48 67 49 68 50 76 51 69 52 75 53 77 54 74 55
REMARK SMILES IDX 70 56 71 57 72 58 73 59 52 60 53 61 61 62 54 63 60 64 62 65
REMARK SMILES IDX 59 66 55 67 56 68 57 69 58 70 5 71 6 72 7 73 8 74 9 75 10 77
REMARK SMILES IDX 11 78 12 79 25 80 13 81 14 82 15 83 16 84 24 85 17 86 23 87
REMARK SMILES IDX 18 88 22 89 19 90 21 91 20 92
REMARK H PARENT 3 5 82 23 50 34 8 76
REMARK Flexibility Score: inf
ROOT
ATOM      1  C   UNL A   1      37.105  21.994  24.483  1.00  0.00     0.116 C 
ENDROOT
BRANCH   1   2
ATOM      2  N   UNL A   1      37.851  20.892  25.065  1.00  0.00    -0.352 N 
ATOM      3  O   UNL A   1      39.540  19.880  26.161  1.00  0.00    -0.269 OA
ATOM      4  C   UNL A   1      38.980  20.928  25.850  1.00  0.00     0.251 C 
ATOM      5  H   UNL A   1      37.500  19.993  24.872  1.00  0.00     0.163 HD
BRANCH   4   6
ATOM      6  C   UNL A   1      39.536  22.228  26.290  1.00  0.00     0.039 A 
ATOM      7  C   UNL A   1      38.997  23.432  25.830  1.00  0.00     0.014 A 
ATOM      8  C   UNL A   1      40.615  22.235  27.178  1.00  0.00     0.014 A 
ATOM      9  C   UNL A   1      39.618  24.636  26.154  1.00  0.00     0.010 A 
ATOM     10  C   UNL A   1      41.196  23.450  27.556  1.00  0.00     0.010 A 
ATOM     11  C   UNL A   1      40.723  24.658  27.020  1.00  0.00    -0.014 A 
BRANCH  11  12
ATOM     12  C   UNL A   1      41.351  25.956  27.376  1.00  0.00     0.031 A 
ATOM     13  C   UNL A   1      42.717  26.319  26.863  1.00  0.00     0.074 A 
ATOM     14  C   UNL A   1      40.668  26.819  28.152  1.00  0.00     0.049 A 
ATOM     15  N   UNL A   1      43.419  27.405  27.073  1.00  0.00    -0.248 NA
ATOM     16  C   UNL A   1      43.389  25.326  26.010  1.00  0.00     0.031 C 
ATOM     17  C   UNL A   1      39.338  26.573  28.714  1.00  0.00     0.029 A 
ATOM     18  N   UNL A   1      40.988  28.077  28.594  1.00  0.00    -0.354 N 
ATOM     19  C   UNL A   1      44.618  27.223  26.393  1.00  0.00     0.074 A 
ATOM     20  C   UNL A   1      44.561  25.908  25.790  1.00  0.00     0.031 C 
ATOM     21  C   UNL A   1      38.943  27.656  29.399  1.00  0.00     0.029 A 
ATOM     22  C   UNL A   1      40.010  28.651  29.370  1.00  0.00     0.049 A 
ATOM     23  H   UNL A   1      41.836  28.526  28.377  1.00  0.00     0.167 HD
ATOM     24  C   UNL A   1      45.665  28.080  26.278  1.00  0.00     0.034 A 
ATOM     25  C   UNL A   1      39.980  29.837  30.007  1.00  0.00     0.034 A 
ATOM     26  C   UNL A   1      45.705  29.391  26.881  1.00  0.00     0.049 A 
ATOM     27  C   UNL A   1      41.163  30.757  29.886  1.00  0.00     0.074 A 
ATOM     28  C   UNL A   1      46.700  30.351  26.801  1.00  0.00     0.029 A 
ATOM     29  N   UNL A   1      44.709  29.926  27.689  1.00  0.00    -0.354 N 
ATOM     30  N   UNL A   1      42.285  30.575  29.229  1.00  0.00    -0.248 NA
ATOM     31  C   UNL A   1      41.074  32.042  30.589  1.00  0.00     0.031 C 
ATOM     32  C   UNL A   1      46.332  31.438  27.602  1.00  0.00     0.029 A 
ATOM     33  C   UNL A   1      45.078  31.187  28.133  1.00  0.00     0.049 A 
ATOM     34  H   UNL A   1      43.863  29.475  27.912  1.00  0.00     0.167 HD
ATOM     35  C   UNL A   1      43.032  31.730  29.432  1.00  0.00     0.074 A 
ATOM     36  C   UNL A   1      42.224  32.608  30.255  1.00  0.00     0.031 C 
ATOM     37  C   UNL A   1      44.272  32.039  28.976  1.00  0.00     0.034 A 
BRANCH  24  38
ATOM     38  C   UNL A   1      46.869  27.600  25.502  1.00  0.00     0.023 A 
ATOM     39  C   UNL A   1      47.096  27.989  24.170  1.00  0.00     0.031 A 
ATOM     40  C   UNL A   1      47.791  26.719  26.097  1.00  0.00     0.131 A 
ATOM     41  C   UNL A   1      48.176  27.445  23.457  1.00  0.00     0.055 A 
ATOM     42  C   UNL A   1      48.903  26.237  25.403  1.00  0.00     0.041 A 
ATOM     43  F   UNL A   1      47.615  26.298  27.359  1.00  0.00    -0.206 F 
ATOM     44  C   UNL A   1      49.093  26.589  24.070  1.00  0.00     0.022 A 
BRANCH  41  45
ATOM     45  S   UNL A   1      48.287  27.765  21.674  1.00  0.00     0.124 S 
ATOM     46  O   UNL A   1      46.935  28.230  21.371  1.00  0.00    -0.237 OA
ATOM     47  O   UNL A   1      49.340  28.770  21.600  1.00  0.00    -0.237 OA
ATOM     48  O   UNL A   1      48.628  26.460  21.111  1.00  0.00    -0.744 OA
ENDBRANCH  41  45
ENDBRANCH  24  38
BRANCH  25  49
ATOM     49  C   UNL A   1      38.803  30.204  30.840  1.00  0.00     0.023 A 
ATOM     50  C   UNL A   1      37.757  30.978  30.318  1.00  0.00     0.031 A 
ATOM     51  C   UNL A   1      38.714  29.783  32.179  1.00  0.00     0.131 A 
ATOM     52  C   UNL A   1      36.675  31.332  31.140  1.00  0.00     0.055 A 
ATOM     53  C   UNL A   1      37.618  30.102  32.980  1.00  0.00     0.041 A 
ATOM     54  F   UNL A   1      39.687  29.032  32.720  1.00  0.00    -0.206 F 
ATOM     55  C   UNL A   1      36.594  30.889  32.463  1.00  0.00     0.022 A 
BRANCH  52  56
ATOM     56  S   UNL A   1      35.395  32.426  30.468  1.00  0.00     0.124 S 
ATOM     57  O   UNL A   1      34.984  31.706  29.269  1.00  0.00    -0.237 OA
ATOM     58  O   UNL A   1      34.426  32.463  31.559  1.00  0.00    -0.237 OA
ATOM     59  O   UNL A   1      36.109  33.679  30.231  1.00  0.00    -0.744 OA
ENDBRANCH  52  56
ENDBRANCH  25  49
BRANCH  37  60
ATOM     60  C   UNL A   1      44.807  33.398  29.346  1.00  0.00     0.023 A 
ATOM     61  C   UNL A   1      44.596  34.519  28.524  1.00  0.00     0.031 A 
ATOM     62  C   UNL A   1      45.561  33.565  30.519  1.00  0.00     0.131 A 
ATOM     63  C   UNL A   1      45.181  35.749  28.860  1.00  0.00     0.055 A 
ATOM     64  C   UNL A   1      46.098  34.803  30.875  1.00  0.00     0.041 A 
ATOM     65  F   UNL A   1      45.793  32.525  31.336  1.00  0.00    -0.206 F 
ATOM     66  C   UNL A   1      45.919  35.901  30.037  1.00  0.00     0.022 A 
BRANCH  63  67
ATOM     67  S   UNL A   1      45.032  37.132  27.696  1.00  0.00     0.124 S 
ATOM     68  O   UNL A   1      45.368  38.275  28.541  1.00  0.00    -0.237 OA
ATOM     69  O   UNL A   1      46.014  36.786  26.673  1.00  0.00    -0.237 OA
ATOM     70  O   UNL A   1      43.638  37.071  27.264  1.00  0.00    -0.744 OA
ENDBRANCH  63  67
ENDBRANCH  37  60
ENDBRANCH  11  12
ENDBRANCH   4   6
ENDBRANCH   1   2
BRANCH   1  71
ATOM     71  C   UNL A   1      35.652  22.045  24.945  1.00  0.00     0.023 C 
BRANCH  71  72
ATOM     72  C   UNL A   1      34.826  23.217  24.410  1.00  0.00     0.023 C 
BRANCH  72  73
ATOM     73  C   UNL A   1      34.395  24.245  25.454  1.00  0.00     0.116 C 
BRANCH  73  74
ATOM     74  N   UNL A   1      33.152  23.873  26.111  1.00  0.00    -0.352 N 
ATOM     75  C   UNL A   1      32.116  24.664  26.518  1.00  0.00     0.252 C 
ATOM     76  H   UNL A   1      33.041  22.911  26.286  1.00  0.00     0.163 HD
ATOM     77  O   UNL A   1      31.250  24.192  27.264  1.00  0.00    -0.269 OA
BRANCH  75  78
ATOM     78  C   UNL A   1      32.060  26.050  26.086  1.00  0.00     0.051 A 
ATOM     79  C   UNL A   1      32.900  27.046  26.550  1.00  0.00     0.079 A 
ATOM     80  C   UNL A   1      31.192  26.555  25.064  1.00  0.00     0.034 A 
ATOM     81  S   UNL A   1      32.572  28.564  25.841  1.00  0.00    -0.143 S 
ATOM     82  C   UNL A   1      31.345  27.909  24.836  1.00  0.00     0.037 A 
BRANCH  82  83
ATOM     83  C   UNL A   1      30.607  28.771  23.912  1.00  0.00     0.011 A 
ATOM     84  C   UNL A   1      30.296  28.345  22.625  1.00  0.00     0.121 A 
ATOM     85  C   UNL A   1      30.194  30.057  24.262  1.00  0.00     0.021 A 
ATOM     86  N   UNL A   1      29.621  29.083  21.709  1.00  0.00    -0.256 NA
ATOM     87  C   UNL A   1      29.496  30.854  23.343  1.00  0.00     0.001 A 
ATOM     88  C   UNL A   1      29.228  30.317  22.066  1.00  0.00     0.070 A 
ATOM     89  C   UNL A   1      29.069  32.153  23.670  1.00  0.00     0.010 A 
ATOM     90  C   UNL A   1      28.537  31.105  21.156  1.00  0.00     0.029 A 
ATOM     91  C   UNL A   1      28.377  32.922  22.736  1.00  0.00     0.001 A 
ATOM     92  C   UNL A   1      28.110  32.397  21.477  1.00  0.00     0.002 A 
ENDBRANCH  82  83
ENDBRANCH  75  78
ENDBRANCH  73  74
ENDBRANCH  72  73
ENDBRANCH  71  72
ENDBRANCH   1  71
TORSDOF 15
ENDMDL
