MODEL 1
REMARK VINA RESULT:     -12.2      0.000      0.000
REMARK SMILES CCCc1nn(-c2ccc(OC)cc2)c2sc(C(=O)NCCCCNC(=O)c3ccc(-c4c5nc(c(-c6cc(S(=O)(=O)[O-])ccc6F)c6ccc([nH]6)c(-c6cc(S(=O)(=O)[O-])ccc6F)c6nc(c(-c7cc(S(=O)(=O)[O-])ccc7F)c7ccc4[nH]7)C=C6)C=C5)cc3)cc12
REMARK SMILES IDX 23 1 22 2 21 3 20 4 18 5 19 6 17 8 4 9 5 10 92 11 6 12 15 13
REMARK SMILES IDX 91 14 16 15 3 16 2 17 1 18 7 19 8 20 14 21 9 22 13 23 10 24
REMARK SMILES IDX 11 25 12 26 24 27 25 28 26 29 27 31 28 32 29 33 90 34 30 35
REMARK SMILES IDX 89 36 31 37 32 38 33 39 83 40 34 41 88 42 82 43 84 44 35 45
REMARK SMILES IDX 87 46 81 47 80 48 36 50 68 51 48 52 67 53 49 54 52 55 66 56
REMARK SMILES IDX 85 57 50 58 51 59 65 61 86 62 53 63 37 64 38 65 46 66 39 67
REMARK SMILES IDX 45 68 47 69 44 70 40 71 41 72 42 73 43 74 69 75 70 76 78 77
REMARK SMILES IDX 71 78 77 79 79 80 76 81 72 82 73 83 74 84 75 85 54 86 55 87
REMARK SMILES IDX 63 88 56 89 62 90 64 91 61 92 57 93 58 94 59 95 60 96
REMARK H PARENT 20 7 25 30 84 49 52 60
REMARK Flexibility Score: inf
ROOT
ATOM      1  C   UNL A   1      41.625  19.462  25.766  1.00  0.00     0.023 C 
ENDROOT
BRANCH   1   2
ATOM      2  C   UNL A   1      41.018  20.629  26.554  1.00  0.00     0.023 C 
BRANCH   2   3
ATOM      3  C   UNL A   1      39.601  21.049  26.126  1.00  0.00     0.116 C 
BRANCH   3   4
ATOM      4  N   UNL A   1      39.339  22.478  26.310  1.00  0.00    -0.351 N 
ATOM      5  C   UNL A   1      38.219  23.269  26.102  1.00  0.00     0.261 C 
ATOM      6  O   UNL A   1      38.292  24.425  26.525  1.00  0.00    -0.268 OA
ATOM      7  H   UNL A   1      40.116  22.978  26.651  1.00  0.00     0.163 HD
BRANCH   5   8
ATOM      8  C   UNL A   1      37.009  22.777  25.447  1.00  0.00     0.095 A 
ATOM      9  C   UNL A   1      33.640  22.637  23.919  1.00  0.00     0.072 A 
ATOM     10  N   UNL A   1      33.188  21.352  23.831  1.00  0.00    -0.171 NA
ATOM     11  C   UNL A   1      34.917  22.646  24.497  1.00  0.00     0.035 A 
ATOM     12  N   UNL A   1      34.144  20.617  24.464  1.00  0.00    -0.223 N 
ATOM     13  C   UNL A   1      35.229  21.375  24.708  1.00  0.00     0.128 A 
ATOM     14  C   UNL A   1      35.928  23.522  24.912  1.00  0.00     0.038 A 
ATOM     15  S   UNL A   1      36.792  21.094  25.124  1.00  0.00    -0.110 S 
BRANCH   9  16
ATOM     16  C   UNL A   1      32.825  23.782  23.406  1.00  0.00     0.058 C 
BRANCH  16  17
ATOM     17  C   UNL A   1      33.195  24.284  22.002  1.00  0.00     0.003 C 
ATOM     18  C   UNL A   1      32.534  25.604  21.618  1.00  0.00     0.004 C 
ENDBRANCH  16  17
ENDBRANCH   9  16
BRANCH  12  19
ATOM     19  C   UNL A   1      34.023  19.277  24.868  1.00  0.00     0.066 A 
ATOM     20  C   UNL A   1      34.865  18.332  24.259  1.00  0.00     0.032 A 
ATOM     21  C   UNL A   1      32.913  18.880  25.605  1.00  0.00     0.032 A 
ATOM     22  C   UNL A   1      34.558  16.981  24.341  1.00  0.00     0.048 A 
ATOM     23  C   UNL A   1      32.595  17.516  25.651  1.00  0.00     0.048 A 
ATOM     24  C   UNL A   1      33.405  16.568  25.007  1.00  0.00     0.119 A 
BRANCH  24  25
ATOM     25  O   UNL A   1      33.177  15.224  24.932  1.00  0.00    -0.497 OA
ATOM     26  C   UNL A   1      32.147  14.699  25.753  1.00  0.00     0.278 C 
ENDBRANCH  24  25
ENDBRANCH  12  19
ENDBRANCH   5   8
ENDBRANCH   3   4
ENDBRANCH   2   3
ENDBRANCH   1   2
BRANCH   1  27
ATOM     27  C   UNL A   1      43.058  19.102  26.147  1.00  0.00     0.116 C 
BRANCH  27  28
ATOM     28  N   UNL A   1      43.958  19.050  24.998  1.00  0.00    -0.352 N 
ATOM     29  C   UNL A   1      44.437  20.112  24.259  1.00  0.00     0.251 C 
ATOM     30  H   UNL A   1      44.256  18.155  24.717  1.00  0.00     0.163 HD
ATOM     31  O   UNL A   1      44.794  19.945  23.092  1.00  0.00    -0.269 OA
BRANCH  29  32
ATOM     32  C   UNL A   1      44.520  21.444  24.884  1.00  0.00     0.039 A 
ATOM     33  C   UNL A   1      43.576  22.434  24.593  1.00  0.00     0.014 A 
ATOM     34  C   UNL A   1      45.550  21.691  25.793  1.00  0.00     0.014 A 
ATOM     35  C   UNL A   1      43.618  23.635  25.298  1.00  0.00     0.010 A 
ATOM     36  C   UNL A   1      45.542  22.844  26.550  1.00  0.00     0.010 A 
ATOM     37  C   UNL A   1      44.585  23.827  26.300  1.00  0.00    -0.014 A 
BRANCH  37  38
ATOM     38  C   UNL A   1      44.482  24.969  27.214  1.00  0.00     0.031 A 
ATOM     39  C   UNL A   1      45.637  25.908  27.151  1.00  0.00     0.074 A 
ATOM     40  C   UNL A   1      43.361  25.309  27.888  1.00  0.00     0.049 A 
ATOM     41  N   UNL A   1      46.532  26.117  28.058  1.00  0.00    -0.248 NA
ATOM     42  C   UNL A   1      45.927  26.581  25.874  1.00  0.00     0.031 C 
ATOM     43  C   UNL A   1      42.047  24.667  27.820  1.00  0.00     0.029 A 
ATOM     44  N   UNL A   1      43.130  26.381  28.701  1.00  0.00    -0.354 N 
ATOM     45  C   UNL A   1      47.355  27.129  27.569  1.00  0.00     0.074 A 
ATOM     46  C   UNL A   1      47.068  27.211  26.162  1.00  0.00     0.031 C 
ATOM     47  C   UNL A   1      41.117  25.484  28.365  1.00  0.00     0.029 A 
ATOM     48  C   UNL A   1      41.783  26.635  28.954  1.00  0.00     0.049 A 
ATOM     49  H   UNL A   1      43.856  26.931  29.076  1.00  0.00     0.167 HD
ATOM     50  C   UNL A   1      48.022  27.965  28.415  1.00  0.00     0.034 A 
ATOM     51  C   UNL A   1      41.241  27.721  29.573  1.00  0.00     0.034 A 
ATOM     52  C   UNL A   1      48.000  27.441  29.766  1.00  0.00     0.049 A 
ATOM     53  C   UNL A   1      42.315  28.333  30.392  1.00  0.00     0.074 A 
ATOM     54  C   UNL A   1      48.416  26.264  30.356  1.00  0.00     0.029 A 
ATOM     55  N   UNL A   1      47.132  28.018  30.668  1.00  0.00    -0.354 N 
ATOM     56  N   UNL A   1      42.841  27.748  31.432  1.00  0.00    -0.248 NA
ATOM     57  C   UNL A   1      43.142  29.366  29.785  1.00  0.00     0.031 C 
ATOM     58  C   UNL A   1      47.399  25.953  31.307  1.00  0.00     0.029 A 
ATOM     59  C   UNL A   1      46.478  27.002  31.320  1.00  0.00     0.049 A 
ATOM     60  H   UNL A   1      47.003  28.982  30.819  1.00  0.00     0.167 HD
ATOM     61  C   UNL A   1      44.200  27.992  31.329  1.00  0.00     0.074 A 
ATOM     62  C   UNL A   1      44.314  29.085  30.364  1.00  0.00     0.031 C 
ATOM     63  C   UNL A   1      45.116  27.098  31.810  1.00  0.00     0.034 A 
BRANCH  50  64
ATOM     64  C   UNL A   1      48.364  29.419  28.143  1.00  0.00     0.023 A 
ATOM     65  C   UNL A   1      47.284  30.279  27.852  1.00  0.00     0.031 A 
ATOM     66  C   UNL A   1      49.645  29.940  27.860  1.00  0.00     0.131 A 
ATOM     67  C   UNL A   1      47.483  31.496  27.180  1.00  0.00     0.055 A 
ATOM     68  C   UNL A   1      49.843  31.188  27.258  1.00  0.00     0.041 A 
ATOM     69  F   UNL A   1      50.772  29.251  28.065  1.00  0.00    -0.206 F 
ATOM     70  C   UNL A   1      48.758  31.956  26.876  1.00  0.00     0.022 A 
BRANCH  67  71
ATOM     71  S   UNL A   1      46.028  32.359  26.533  1.00  0.00     0.124 S 
ATOM     72  O   UNL A   1      45.394  31.303  25.751  1.00  0.00    -0.237 OA
ATOM     73  O   UNL A   1      45.344  32.754  27.759  1.00  0.00    -0.237 OA
ATOM     74  O   UNL A   1      46.603  33.455  25.757  1.00  0.00    -0.744 OA
ENDBRANCH  67  71
ENDBRANCH  50  64
BRANCH  51  75
ATOM     75  C   UNL A   1      39.937  28.393  29.299  1.00  0.00     0.023 A 
ATOM     76  C   UNL A   1      39.100  28.896  30.321  1.00  0.00     0.031 A 
ATOM     77  C   UNL A   1      39.616  28.776  27.976  1.00  0.00     0.131 A 
ATOM     78  C   UNL A   1      38.009  29.742  30.001  1.00  0.00     0.055 A 
ATOM     79  C   UNL A   1      38.538  29.609  27.667  1.00  0.00     0.041 A 
ATOM     80  F   UNL A   1      40.398  28.428  26.942  1.00  0.00    -0.206 F 
ATOM     81  C   UNL A   1      37.735  30.105  28.680  1.00  0.00     0.022 A 
BRANCH  78  82
ATOM     82  S   UNL A   1      36.982  30.482  31.316  1.00  0.00     0.124 S 
ATOM     83  O   UNL A   1      35.885  31.074  30.560  1.00  0.00    -0.237 OA
ATOM     84  O   UNL A   1      36.653  29.329  32.147  1.00  0.00    -0.237 OA
ATOM     85  O   UNL A   1      37.882  31.448  31.948  1.00  0.00    -0.744 OA
ENDBRANCH  78  82
ENDBRANCH  51  75
BRANCH  63  86
ATOM     86  C   UNL A   1      44.645  26.009  32.756  1.00  0.00     0.023 A 
ATOM     87  C   UNL A   1      44.364  26.184  34.130  1.00  0.00     0.031 A 
ATOM     88  C   UNL A   1      44.377  24.745  32.197  1.00  0.00     0.131 A 
ATOM     89  C   UNL A   1      43.856  25.113  34.890  1.00  0.00     0.055 A 
ATOM     90  C   UNL A   1      43.847  23.696  32.944  1.00  0.00     0.041 A 
ATOM     91  F   UNL A   1      44.600  24.515  30.892  1.00  0.00    -0.206 F 
ATOM     92  C   UNL A   1      43.594  23.872  34.298  1.00  0.00     0.022 A 
BRANCH  89  93
ATOM     93  S   UNL A   1      43.561  25.292  36.680  1.00  0.00     0.124 S 
ATOM     94  O   UNL A   1      44.537  24.394  37.283  1.00  0.00    -0.237 OA
ATOM     95  O   UNL A   1      43.788  26.719  36.893  1.00  0.00    -0.237 OA
ATOM     96  O   UNL A   1      42.167  24.870  36.835  1.00  0.00    -0.744 OA
ENDBRANCH  89  93
ENDBRANCH  63  86
ENDBRANCH  37  38
ENDBRANCH  29  32
ENDBRANCH  27  28
ENDBRANCH   1  27
TORSDOF 18
ENDMDL
MODEL 2
REMARK VINA RESULT:     -12.1      5.040     11.101
REMARK SMILES CCCc1nn(-c2ccc(OC)cc2)c2sc(C(=O)NCCCCNC(=O)c3ccc(-c4c5nc(c(-c6cc(S(=O)(=O)[O-])ccc6F)c6ccc([nH]6)c(-c6cc(S(=O)(=O)[O-])ccc6F)c6nc(c(-c7cc(S(=O)(=O)[O-])ccc7F)c7ccc4[nH]7)C=C6)C=C5)cc3)cc12
REMARK SMILES IDX 23 1 22 2 21 3 20 4 18 5 19 6 17 8 4 9 5 10 92 11 6 12 15 13
REMARK SMILES IDX 91 14 16 15 3 16 2 17 1 18 7 19 8 20 14 21 9 22 13 23 10 24
REMARK SMILES IDX 11 25 12 26 24 27 25 28 26 29 27 31 28 32 29 33 90 34 30 35
REMARK SMILES IDX 89 36 31 37 32 38 33 39 83 40 34 41 88 42 82 43 84 44 35 45
REMARK SMILES IDX 87 46 81 47 80 48 36 50 68 51 48 52 67 53 49 54 52 55 66 56
REMARK SMILES IDX 85 57 50 58 51 59 65 61 86 62 53 63 37 64 38 65 46 66 39 67
REMARK SMILES IDX 45 68 47 69 44 70 40 71 41 72 42 73 43 74 69 75 70 76 78 77
REMARK SMILES IDX 71 78 77 79 79 80 76 81 72 82 73 83 74 84 75 85 54 86 55 87
REMARK SMILES IDX 63 88 56 89 62 90 64 91 61 92 57 93 58 94 59 95 60 96
REMARK H PARENT 20 7 25 30 84 49 52 60
REMARK Flexibility Score: inf
ROOT
ATOM      1  C   UNL A   1      38.014  32.022  30.423  1.00  0.00     0.023 C 
ENDROOT
BRANCH   1   2
ATOM      2  C   UNL A   1      39.533  31.813  30.401  1.00  0.00     0.023 C 
BRANCH   2   3
ATOM      3  C   UNL A   1      40.131  31.179  31.669  1.00  0.00     0.116 C 
BRANCH   3   4
ATOM      4  N   UNL A   1      41.167  32.003  32.295  1.00  0.00    -0.351 N 
ATOM      5  C   UNL A   1      41.186  32.792  33.436  1.00  0.00     0.261 C 
ATOM      6  O   UNL A   1      42.292  33.223  33.772  1.00  0.00    -0.268 OA
ATOM      7  H   UNL A   1      42.023  31.994  31.809  1.00  0.00     0.163 HD
BRANCH   5   8
ATOM      8  C   UNL A   1      39.989  33.087  34.219  1.00  0.00     0.095 A 
ATOM      9  C   UNL A   1      37.482  33.123  36.943  1.00  0.00     0.072 A 
ATOM     10  N   UNL A   1      36.279  33.596  36.504  1.00  0.00    -0.171 NA
ATOM     11  C   UNL A   1      38.402  33.130  35.886  1.00  0.00     0.035 A 
ATOM     12  N   UNL A   1      36.456  33.769  35.165  1.00  0.00    -0.223 N 
ATOM     13  C   UNL A   1      37.758  33.642  34.846  1.00  0.00     0.128 A 
ATOM     14  C   UNL A   1      39.724  32.783  35.578  1.00  0.00     0.038 A 
ATOM     15  S   UNL A   1      38.694  34.017  33.552  1.00  0.00    -0.110 S 
BRANCH   9  16
ATOM     16  C   UNL A   1      37.684  32.723  38.371  1.00  0.00     0.058 C 
BRANCH  16  17
ATOM     17  C   UNL A   1      36.403  32.586  39.209  1.00  0.00     0.003 C 
ATOM     18  C   UNL A   1      36.226  31.216  39.855  1.00  0.00     0.004 C 
ENDBRANCH  16  17
ENDBRANCH   9  16
BRANCH  12  19
ATOM     19  C   UNL A   1      35.441  33.990  34.220  1.00  0.00     0.066 A 
ATOM     20  C   UNL A   1      35.138  32.945  33.330  1.00  0.00     0.032 A 
ATOM     21  C   UNL A   1      34.987  35.283  33.988  1.00  0.00     0.032 A 
ATOM     22  C   UNL A   1      34.424  33.213  32.170  1.00  0.00     0.048 A 
ATOM     23  C   UNL A   1      34.296  35.547  32.798  1.00  0.00     0.048 A 
ATOM     24  C   UNL A   1      34.030  34.518  31.881  1.00  0.00     0.119 A 
BRANCH  24  25
ATOM     25  O   UNL A   1      33.417  34.652  30.668  1.00  0.00    -0.497 OA
ATOM     26  C   UNL A   1      32.787  35.893  30.398  1.00  0.00     0.278 C 
ENDBRANCH  24  25
ENDBRANCH  12  19
ENDBRANCH   5   8
ENDBRANCH   3   4
ENDBRANCH   2   3
ENDBRANCH   1   2
BRANCH   1  27
ATOM     27  C   UNL A   1      37.222  30.928  31.134  1.00  0.00     0.116 C 
BRANCH  27  28
ATOM     28  N   UNL A   1      36.192  30.329  30.290  1.00  0.00    -0.352 N 
ATOM     29  C   UNL A   1      36.366  29.695  29.077  1.00  0.00     0.251 C 
ATOM     30  H   UNL A   1      35.267  30.384  30.624  1.00  0.00     0.163 HD
ATOM     31  O   UNL A   1      35.439  29.640  28.268  1.00  0.00    -0.269 OA
BRANCH  29  32
ATOM     32  C   UNL A   1      37.670  29.084  28.765  1.00  0.00     0.039 A 
ATOM     33  C   UNL A   1      38.392  29.471  27.633  1.00  0.00     0.014 A 
ATOM     34  C   UNL A   1      38.181  28.123  29.639  1.00  0.00     0.014 A 
ATOM     35  C   UNL A   1      39.674  28.960  27.442  1.00  0.00     0.010 A 
ATOM     36  C   UNL A   1      39.480  27.681  29.496  1.00  0.00     0.010 A 
ATOM     37  C   UNL A   1      40.230  28.085  28.393  1.00  0.00    -0.014 A 
BRANCH  37  38
ATOM     38  C   UNL A   1      41.655  27.746  28.336  1.00  0.00     0.031 A 
ATOM     39  C   UNL A   1      41.955  26.498  27.579  1.00  0.00     0.074 A 
ATOM     40  C   UNL A   1      42.653  28.576  28.710  1.00  0.00     0.049 A 
ATOM     41  N   UNL A   1      42.391  25.378  28.048  1.00  0.00    -0.248 NA
ATOM     42  C   UNL A   1      41.584  26.434  26.156  1.00  0.00     0.031 C 
ATOM     43  C   UNL A   1      42.539  29.956  29.187  1.00  0.00     0.029 A 
ATOM     44  N   UNL A   1      44.004  28.396  28.634  1.00  0.00    -0.354 N 
ATOM     45  C   UNL A   1      42.586  24.543  26.950  1.00  0.00     0.074 A 
ATOM     46  C   UNL A   1      41.876  25.165  25.864  1.00  0.00     0.031 C 
ATOM     47  C   UNL A   1      43.750  30.553  29.135  1.00  0.00     0.029 A 
ATOM     48  C   UNL A   1      44.752  29.565  28.767  1.00  0.00     0.049 A 
ATOM     49  H   UNL A   1      44.417  27.512  28.496  1.00  0.00     0.167 HD
ATOM     50  C   UNL A   1      43.513  23.544  26.981  1.00  0.00     0.034 A 
ATOM     51  C   UNL A   1      46.089  29.728  28.561  1.00  0.00     0.034 A 
ATOM     52  C   UNL A   1      43.959  23.308  28.340  1.00  0.00     0.049 A 
ATOM     53  C   UNL A   1      46.712  28.388  28.687  1.00  0.00     0.074 A 
ATOM     54  C   UNL A   1      43.329  22.969  29.521  1.00  0.00     0.029 A 
ATOM     55  N   UNL A   1      45.194  23.798  28.708  1.00  0.00    -0.354 N 
ATOM     56  N   UNL A   1      46.758  27.724  29.808  1.00  0.00    -0.248 NA
ATOM     57  C   UNL A   1      46.850  27.576  27.486  1.00  0.00     0.031 C 
ATOM     58  C   UNL A   1      43.988  23.744  30.521  1.00  0.00     0.029 A 
ATOM     59  C   UNL A   1      45.043  24.430  29.917  1.00  0.00     0.049 A 
ATOM     60  H   UNL A   1      46.031  23.711  28.198  1.00  0.00     0.167 HD
ATOM     61  C   UNL A   1      46.464  26.416  29.459  1.00  0.00     0.074 A 
ATOM     62  C   UNL A   1      46.642  26.364  28.009  1.00  0.00     0.031 C 
ATOM     63  C   UNL A   1      45.824  25.580  30.332  1.00  0.00     0.034 A 
BRANCH  50  64
ATOM     64  C   UNL A   1      44.310  23.032  25.794  1.00  0.00     0.023 A 
ATOM     65  C   UNL A   1      44.273  21.642  25.560  1.00  0.00     0.031 A 
ATOM     66  C   UNL A   1      45.307  23.738  25.087  1.00  0.00     0.131 A 
ATOM     67  C   UNL A   1      45.267  21.004  24.800  1.00  0.00     0.055 A 
ATOM     68  C   UNL A   1      46.251  23.106  24.269  1.00  0.00     0.041 A 
ATOM     69  F   UNL A   1      45.487  25.057  25.204  1.00  0.00    -0.206 F 
ATOM     70  C   UNL A   1      46.262  21.728  24.155  1.00  0.00     0.022 A 
BRANCH  67  71
ATOM     71  S   UNL A   1      45.346  19.195  24.848  1.00  0.00     0.124 S 
ATOM     72  O   UNL A   1      46.656  18.981  25.453  1.00  0.00    -0.237 OA
ATOM     73  O   UNL A   1      44.190  18.866  25.675  1.00  0.00    -0.237 OA
ATOM     74  O   UNL A   1      45.235  18.815  23.441  1.00  0.00    -0.744 OA
ENDBRANCH  67  71
ENDBRANCH  50  64
BRANCH  51  75
ATOM     75  C   UNL A   1      46.808  30.918  28.021  1.00  0.00     0.023 A 
ATOM     76  C   UNL A   1      46.189  31.883  27.194  1.00  0.00     0.031 A 
ATOM     77  C   UNL A   1      48.082  31.253  28.534  1.00  0.00     0.131 A 
ATOM     78  C   UNL A   1      46.837  33.113  26.920  1.00  0.00     0.055 A 
ATOM     79  C   UNL A   1      48.717  32.467  28.258  1.00  0.00     0.041 A 
ATOM     80  F   UNL A   1      48.717  30.447  29.399  1.00  0.00    -0.206 F 
ATOM     81  C   UNL A   1      48.091  33.407  27.458  1.00  0.00     0.022 A 
BRANCH  78  82
ATOM     82  S   UNL A   1      46.007  34.410  25.941  1.00  0.00     0.124 S 
ATOM     83  O   UNL A   1      45.225  33.630  24.989  1.00  0.00    -0.237 OA
ATOM     84  O   UNL A   1      45.257  35.142  26.956  1.00  0.00    -0.237 OA
ATOM     85  O   UNL A   1      47.120  35.157  25.352  1.00  0.00    -0.744 OA
ENDBRANCH  78  82
ENDBRANCH  51  75
BRANCH  63  86
ATOM     86  C   UNL A   1      45.744  25.976  31.795  1.00  0.00     0.023 A 
ATOM     87  C   UNL A   1      44.596  26.490  32.441  1.00  0.00     0.031 A 
ATOM     88  C   UNL A   1      46.875  25.721  32.592  1.00  0.00     0.131 A 
ATOM     89  C   UNL A   1      44.620  26.747  33.825  1.00  0.00     0.055 A 
ATOM     90  C   UNL A   1      46.887  25.950  33.967  1.00  0.00     0.041 A 
ATOM     91  F   UNL A   1      47.993  25.213  32.048  1.00  0.00    -0.206 F 
ATOM     92  C   UNL A   1      45.761  26.475  34.588  1.00  0.00     0.022 A 
BRANCH  89  93
ATOM     93  S   UNL A   1      43.179  27.484  34.665  1.00  0.00     0.124 S 
ATOM     94  O   UNL A   1      42.262  26.363  34.825  1.00  0.00    -0.237 OA
ATOM     95  O   UNL A   1      43.768  28.008  35.895  1.00  0.00    -0.237 OA
ATOM     96  O   UNL A   1      42.728  28.510  33.723  1.00  0.00    -0.744 OA
ENDBRANCH  89  93
ENDBRANCH  63  86
ENDBRANCH  37  38
ENDBRANCH  29  32
ENDBRANCH  27  28
ENDBRANCH   1  27
TORSDOF 18
ENDMDL
MODEL 3
REMARK VINA RESULT:     -12.0      2.625      7.624
REMARK SMILES CCCc1nn(-c2ccc(OC)cc2)c2sc(C(=O)NCCCCNC(=O)c3ccc(-c4c5nc(c(-c6cc(S(=O)(=O)[O-])ccc6F)c6ccc([nH]6)c(-c6cc(S(=O)(=O)[O-])ccc6F)c6nc(c(-c7cc(S(=O)(=O)[O-])ccc7F)c7ccc4[nH]7)C=C6)C=C5)cc3)cc12
REMARK SMILES IDX 23 1 22 2 21 3 20 4 18 5 19 6 17 8 4 9 5 10 92 11 6 12 15 13
REMARK SMILES IDX 91 14 16 15 3 16 2 17 1 18 7 19 8 20 14 21 9 22 13 23 10 24
REMARK SMILES IDX 11 25 12 26 24 27 25 28 26 29 27 31 28 32 29 33 90 34 30 35
REMARK SMILES IDX 89 36 31 37 32 38 33 39 83 40 34 41 88 42 82 43 84 44 35 45
REMARK SMILES IDX 87 46 81 47 80 48 36 50 68 51 48 52 67 53 49 54 52 55 66 56
REMARK SMILES IDX 85 57 50 58 51 59 65 61 86 62 53 63 37 64 38 65 46 66 39 67
REMARK SMILES IDX 45 68 47 69 44 70 40 71 41 72 42 73 43 74 69 75 70 76 78 77
REMARK SMILES IDX 71 78 77 79 79 80 76 81 72 82 73 83 74 84 75 85 54 86 55 87
REMARK SMILES IDX 63 88 56 89 62 90 64 91 61 92 57 93 58 94 59 95 60 96
REMARK H PARENT 20 7 25 30 84 49 52 60
REMARK Flexibility Score: inf
ROOT
ATOM      1  C   UNL A   1      34.819  28.728  27.265  1.00  0.00     0.023 C 
ENDROOT
BRANCH   1   2
ATOM      2  C   UNL A   1      33.636  28.790  26.292  1.00  0.00     0.023 C 
BRANCH   2   3
ATOM      3  C   UNL A   1      32.791  27.507  26.197  1.00  0.00     0.116 C 
BRANCH   3   4
ATOM      4  N   UNL A   1      32.526  27.089  24.819  1.00  0.00    -0.351 N 
ATOM      5  C   UNL A   1      32.803  25.928  24.113  1.00  0.00     0.261 C 
ATOM      6  O   UNL A   1      32.282  25.840  22.999  1.00  0.00    -0.268 OA
ATOM      7  H   UNL A   1      32.054  27.770  24.286  1.00  0.00     0.163 HD
BRANCH   5   8
ATOM      8  C   UNL A   1      33.636  24.852  24.646  1.00  0.00     0.095 A 
ATOM      9  C   UNL A   1      36.574  22.895  25.759  1.00  0.00     0.072 A 
ATOM     10  N   UNL A   1      36.272  21.568  25.874  1.00  0.00    -0.171 NA
ATOM     11  C   UNL A   1      35.437  23.600  25.342  1.00  0.00     0.035 A 
ATOM     12  N   UNL A   1      34.994  21.475  25.412  1.00  0.00    -0.223 N 
ATOM     13  C   UNL A   1      34.465  22.702  25.253  1.00  0.00     0.128 A 
ATOM     14  C   UNL A   1      35.008  24.888  24.996  1.00  0.00     0.038 A 
ATOM     15  S   UNL A   1      32.957  23.315  25.048  1.00  0.00    -0.110 S 
BRANCH   9  16
ATOM     16  C   UNL A   1      37.938  23.411  26.094  1.00  0.00     0.058 C 
BRANCH  16  17
ATOM     17  C   UNL A   1      39.102  22.454  25.796  1.00  0.00     0.003 C 
ATOM     18  C   UNL A   1      39.860  21.992  27.036  1.00  0.00     0.004 C 
ENDBRANCH  16  17
ENDBRANCH   9  16
BRANCH  12  19
ATOM     19  C   UNL A   1      34.321  20.287  25.082  1.00  0.00     0.066 A 
ATOM     20  C   UNL A   1      33.014  20.120  25.573  1.00  0.00     0.032 A 
ATOM     21  C   UNL A   1      35.034  19.214  24.561  1.00  0.00     0.032 A 
ATOM     22  C   UNL A   1      32.443  18.855  25.594  1.00  0.00     0.048 A 
ATOM     23  C   UNL A   1      34.459  17.938  24.619  1.00  0.00     0.048 A 
ATOM     24  C   UNL A   1      33.173  17.754  25.150  1.00  0.00     0.119 A 
BRANCH  24  25
ATOM     25  O   UNL A   1      32.525  16.562  25.311  1.00  0.00    -0.497 OA
ATOM     26  C   UNL A   1      33.205  15.396  24.880  1.00  0.00     0.278 C 
ENDBRANCH  24  25
ENDBRANCH  12  19
ENDBRANCH   5   8
ENDBRANCH   3   4
ENDBRANCH   2   3
ENDBRANCH   1   2
BRANCH   1  27
ATOM     27  C   UNL A   1      35.505  30.065  27.534  1.00  0.00     0.116 C 
BRANCH  27  28
ATOM     28  N   UNL A   1      35.603  30.380  28.957  1.00  0.00    -0.352 N 
ATOM     29  C   UNL A   1      36.442  29.802  29.887  1.00  0.00     0.251 C 
ATOM     30  H   UNL A   1      35.001  31.084  29.290  1.00  0.00     0.163 HD
ATOM     31  O   UNL A   1      36.140  29.808  31.081  1.00  0.00    -0.269 OA
BRANCH  29  32
ATOM     32  C   UNL A   1      37.702  29.185  29.435  1.00  0.00     0.039 A 
ATOM     33  C   UNL A   1      38.387  29.683  28.323  1.00  0.00     0.014 A 
ATOM     34  C   UNL A   1      38.209  28.102  30.155  1.00  0.00     0.014 A 
ATOM     35  C   UNL A   1      39.635  29.150  28.004  1.00  0.00     0.010 A 
ATOM     36  C   UNL A   1      39.479  27.632  29.892  1.00  0.00     0.010 A 
ATOM     37  C   UNL A   1      40.194  28.142  28.810  1.00  0.00    -0.014 A 
BRANCH  37  38
ATOM     38  C   UNL A   1      41.598  27.758  28.638  1.00  0.00     0.031 A 
ATOM     39  C   UNL A   1      41.797  26.516  27.841  1.00  0.00     0.074 A 
ATOM     40  C   UNL A   1      42.650  28.548  28.948  1.00  0.00     0.049 A 
ATOM     41  N   UNL A   1      42.229  25.373  28.257  1.00  0.00    -0.248 NA
ATOM     42  C   UNL A   1      41.316  26.490  26.450  1.00  0.00     0.031 C 
ATOM     43  C   UNL A   1      42.619  29.922  29.454  1.00  0.00     0.029 A 
ATOM     44  N   UNL A   1      43.984  28.326  28.765  1.00  0.00    -0.354 N 
ATOM     45  C   UNL A   1      42.312  24.553  27.134  1.00  0.00     0.074 A 
ATOM     46  C   UNL A   1      41.542  25.217  26.116  1.00  0.00     0.031 C 
ATOM     47  C   UNL A   1      43.843  30.480  29.318  1.00  0.00     0.029 A 
ATOM     48  C   UNL A   1      44.779  29.467  28.858  1.00  0.00     0.049 A 
ATOM     49  H   UNL A   1      44.355  27.432  28.581  1.00  0.00     0.167 HD
ATOM     50  C   UNL A   1      43.204  23.523  27.078  1.00  0.00     0.034 A 
ATOM     51  C   UNL A   1      46.101  29.590  28.553  1.00  0.00     0.034 A 
ATOM     52  C   UNL A   1      43.744  23.248  28.394  1.00  0.00     0.049 A 
ATOM     53  C   UNL A   1      46.686  28.228  28.608  1.00  0.00     0.074 A 
ATOM     54  C   UNL A   1      43.196  22.908  29.615  1.00  0.00     0.029 A 
ATOM     55  N   UNL A   1      45.020  23.690  28.673  1.00  0.00    -0.354 N 
ATOM     56  N   UNL A   1      46.795  27.543  29.712  1.00  0.00    -0.248 NA
ATOM     57  C   UNL A   1      46.704  27.435  27.388  1.00  0.00     0.031 C 
ATOM     58  C   UNL A   1      43.955  23.642  30.574  1.00  0.00     0.029 A 
ATOM     59  C   UNL A   1      44.983  24.305  29.900  1.00  0.00     0.049 A 
ATOM     60  H   UNL A   1      45.812  23.586  28.099  1.00  0.00     0.167 HD
ATOM     61  C   UNL A   1      46.431  26.252  29.366  1.00  0.00     0.074 A 
ATOM     62  C   UNL A   1      46.496  26.221  27.906  1.00  0.00     0.031 C 
ATOM     63  C   UNL A   1      45.833  25.421  30.273  1.00  0.00     0.034 A 
BRANCH  50  64
ATOM     64  C   UNL A   1      43.890  23.008  25.825  1.00  0.00     0.023 A 
ATOM     65  C   UNL A   1      43.912  21.609  25.647  1.00  0.00     0.031 A 
ATOM     66  C   UNL A   1      44.754  23.739  24.981  1.00  0.00     0.131 A 
ATOM     67  C   UNL A   1      44.850  20.997  24.799  1.00  0.00     0.055 A 
ATOM     68  C   UNL A   1      45.636  23.127  24.082  1.00  0.00     0.041 A 
ATOM     69  F   UNL A   1      44.864  25.070  25.029  1.00  0.00    -0.206 F 
ATOM     70  C   UNL A   1      45.718  21.749  24.016  1.00  0.00     0.022 A 
BRANCH  67  71
ATOM     71  S   UNL A   1      45.046  19.200  24.902  1.00  0.00     0.124 S 
ATOM     72  O   UNL A   1      46.331  19.089  25.583  1.00  0.00    -0.237 OA
ATOM     73  O   UNL A   1      43.870  18.814  25.673  1.00  0.00    -0.237 OA
ATOM     74  O   UNL A   1      45.040  18.779  23.502  1.00  0.00    -0.744 OA
ENDBRANCH  67  71
ENDBRANCH  50  64
BRANCH  51  75
ATOM     75  C   UNL A   1      46.817  30.766  27.977  1.00  0.00     0.023 A 
ATOM     76  C   UNL A   1      46.201  31.692  27.104  1.00  0.00     0.031 A 
ATOM     77  C   UNL A   1      48.079  31.134  28.496  1.00  0.00     0.131 A 
ATOM     78  C   UNL A   1      46.841  32.917  26.793  1.00  0.00     0.055 A 
ATOM     79  C   UNL A   1      48.706  32.343  28.183  1.00  0.00     0.041 A 
ATOM     80  F   UNL A   1      48.709  30.369  29.402  1.00  0.00    -0.206 F 
ATOM     81  C   UNL A   1      48.084  33.245  27.338  1.00  0.00     0.022 A 
BRANCH  78  82
ATOM     82  S   UNL A   1      46.013  34.166  25.751  1.00  0.00     0.124 S 
ATOM     83  O   UNL A   1      45.074  33.359  24.981  1.00  0.00    -0.237 OA
ATOM     84  O   UNL A   1      45.437  35.071  26.739  1.00  0.00    -0.237 OA
ATOM     85  O   UNL A   1      47.111  34.740  24.970  1.00  0.00    -0.744 OA
ENDBRANCH  78  82
ENDBRANCH  51  75
BRANCH  63  86
ATOM     86  C   UNL A   1      45.878  25.792  31.743  1.00  0.00     0.023 A 
ATOM     87  C   UNL A   1      46.955  25.528  32.621  1.00  0.00     0.031 A 
ATOM     88  C   UNL A   1      44.801  26.544  32.249  1.00  0.00     0.131 A 
ATOM     89  C   UNL A   1      46.914  25.992  33.950  1.00  0.00     0.055 A 
ATOM     90  C   UNL A   1      44.777  27.027  33.556  1.00  0.00     0.041 A 
ATOM     91  F   UNL A   1      43.755  26.851  31.464  1.00  0.00    -0.206 F 
ATOM     92  C   UNL A   1      45.830  26.743  34.416  1.00  0.00     0.022 A 
BRANCH  89  93
ATOM     93  S   UNL A   1      48.253  25.595  35.121  1.00  0.00     0.124 S 
ATOM     94  O   UNL A   1      48.494  24.174  34.902  1.00  0.00    -0.237 OA
ATOM     95  O   UNL A   1      49.320  26.497  34.694  1.00  0.00    -0.237 OA
ATOM     96  O   UNL A   1      47.669  25.921  36.423  1.00  0.00    -0.744 OA
ENDBRANCH  89  93
ENDBRANCH  63  86
ENDBRANCH  37  38
ENDBRANCH  29  32
ENDBRANCH  27  28
ENDBRANCH   1  27
TORSDOF 18
ENDMDL
