MODEL 1
REMARK VINA RESULT:     -13.2      0.000      0.000
REMARK SMILES Cc1ncc(CC(=O)N2CCc3c(c(C(=O)NCCCCNC(=O)c4ccc(-c5c6nc(c(-c7cc(S(=O)(=O)[O-])ccc7F)c7ccc([nH]7)c(-c7cc(S(=O)(=O)[O-])ccc7F)c7nc(c(-c8cc(S(=O)(=O)[O-])ccc8F)c8ccc5[nH]8)C=C7)C=C6)cc4)nn3CC3CC3)C2)c(=O)[nH]1
REMARK SMILES IDX 19 1 18 2 17 3 15 4 16 5 14 7 9 8 10 9 94 10 11 11 13 12
REMARK SMILES IDX 12 13 89 14 88 15 7 16 8 17 6 18 5 19 1 20 2 21 3 22 97 23
REMARK SMILES IDX 4 24 95 25 96 27 90 28 91 29 92 30 93 31 20 32 21 33 22 34
REMARK SMILES IDX 23 35 24 37 25 38 26 39 87 40 27 41 86 42 28 43 29 44 30 45
REMARK SMILES IDX 80 46 31 47 85 48 79 49 81 50 32 51 84 52 78 53 77 54 33 56
REMARK SMILES IDX 65 57 45 58 64 59 46 60 49 61 63 62 82 63 47 64 48 65 62 67
REMARK SMILES IDX 83 68 50 69 34 70 35 71 43 72 36 73 42 74 44 75 41 76 37 77
REMARK SMILES IDX 38 78 39 79 40 80 66 81 67 82 75 83 68 84 74 85 76 86 73 87
REMARK SMILES IDX 69 88 70 89 71 90 72 91 51 92 52 93 60 94 53 95 59 96 61 97
REMARK SMILES IDX 58 98 54 99 55 100 56 101 57 102
REMARK H PARENT 17 6 97 26 22 36 81 55 49 66
REMARK Flexibility Score: inf
ROOT
ATOM      1  C   UNL A   1      36.687  20.790  24.962  1.00  0.00     0.023 C 
ENDROOT
BRANCH   1   2
ATOM      2  C   UNL A   1      36.863  22.176  25.602  1.00  0.00     0.116 C 
BRANCH   2   3
ATOM      3  N   UNL A   1      35.943  22.413  26.709  1.00  0.00    -0.351 N 
ATOM      4  C   UNL A   1      34.593  22.145  26.860  1.00  0.00     0.272 C 
ATOM      5  O   UNL A   1      34.070  22.478  27.926  1.00  0.00    -0.267 OA
ATOM      6  H   UNL A   1      36.357  22.843  27.491  1.00  0.00     0.163 HD
BRANCH   4   7
ATOM      7  C   UNL A   1      33.790  21.528  25.786  1.00  0.00     0.155 A 
ATOM      8  N   UNL A   1      32.359  23.714  23.003  1.00  0.00    -0.338 N 
ATOM      9  C   UNL A   1      32.526  22.659  21.992  1.00  0.00     0.126 C 
ATOM     10  C   UNL A   1      33.265  23.612  24.178  1.00  0.00     0.159 C 
ATOM     11  C   UNL A   1      32.077  21.299  22.542  1.00  0.00     0.078 C 
ATOM     12  C   UNL A   1      33.252  22.174  24.627  1.00  0.00     0.026 A 
ATOM     13  C   UNL A   1      32.700  21.148  23.879  1.00  0.00     0.046 A 
ATOM     14  N   UNL A   1      32.826  20.014  24.609  1.00  0.00    -0.268 N 
ATOM     15  N   UNL A   1      33.474  20.221  25.761  1.00  0.00    -0.167 NA
BRANCH   8  16
ATOM     16  C   UNL A   1      31.480  24.781  22.935  1.00  0.00     0.227 C 
ATOM     17  O   UNL A   1      30.274  24.612  23.137  1.00  0.00    -0.275 OA
BRANCH  16  18
ATOM     18  C   UNL A   1      31.947  26.124  22.331  1.00  0.00     0.143 C 
BRANCH  18  19
ATOM     19  C   UNL A   1      31.960  27.353  23.174  1.00  0.00     0.045 A 
ATOM     20  C   UNL A   1      31.574  30.601  25.855  1.00  0.00     0.087 C 
ATOM     21  C   UNL A   1      31.790  29.470  24.893  1.00  0.00     0.105 A 
ATOM     22  N   UNL A   1      32.727  28.601  25.091  1.00  0.00    -0.243 NA
ATOM     23  N   UNL A   1      30.929  29.417  23.837  1.00  0.00    -0.311 N 
ATOM     24  C   UNL A   1      32.802  27.563  24.198  1.00  0.00     0.123 A 
ATOM     25  C   UNL A   1      30.964  28.412  22.911  1.00  0.00     0.254 A 
ATOM     26  H   UNL A   1      30.256  30.130  23.737  1.00  0.00     0.171 HD
ATOM     27  O   UNL A   1      30.193  28.380  21.962  1.00  0.00    -0.269 OA
ENDBRANCH  18  19
ENDBRANCH  16  18
ENDBRANCH   8  16
BRANCH  14  28
ATOM     28  C   UNL A   1      32.360  18.674  24.283  1.00  0.00     0.148 C 
BRANCH  28  29
ATOM     29  C   UNL A   1      33.303  17.868  23.427  1.00  0.00     0.011 C 
ATOM     30  C   UNL A   1      34.615  17.279  23.901  1.00  0.00     0.006 C 
ATOM     31  C   UNL A   1      33.433  16.384  23.675  1.00  0.00     0.006 C 
ENDBRANCH  28  29
ENDBRANCH  14  28
ENDBRANCH   4   7
ENDBRANCH   2   3
ENDBRANCH   1   2
BRANCH   1  32
ATOM     32  C   UNL A   1      37.952  19.920  24.876  1.00  0.00     0.023 C 
BRANCH  32  33
ATOM     33  C   UNL A   1      39.092  20.357  25.787  1.00  0.00     0.116 C 
BRANCH  33  34
ATOM     34  N   UNL A   1      40.139  19.341  25.980  1.00  0.00    -0.352 N 
ATOM     35  C   UNL A   1      41.520  19.540  26.084  1.00  0.00     0.251 C 
ATOM     36  H   UNL A   1      39.831  18.408  26.044  1.00  0.00     0.163 HD
ATOM     37  O   UNL A   1      42.308  18.644  25.849  1.00  0.00    -0.269 OA
BRANCH  35  38
ATOM     38  C   UNL A   1      41.983  20.874  26.517  1.00  0.00     0.039 A 
ATOM     39  C   UNL A   1      42.435  21.880  25.656  1.00  0.00     0.014 A 
ATOM     40  C   UNL A   1      41.861  21.114  27.874  1.00  0.00     0.014 A 
ATOM     41  C   UNL A   1      42.700  23.142  26.197  1.00  0.00     0.010 A 
ATOM     42  C   UNL A   1      41.771  22.397  28.305  1.00  0.00     0.010 A 
ATOM     43  C   UNL A   1      42.357  23.383  27.535  1.00  0.00    -0.014 A 
BRANCH  43  44
ATOM     44  C   UNL A   1      42.513  24.657  28.217  1.00  0.00     0.031 A 
ATOM     45  C   UNL A   1      41.379  25.591  28.026  1.00  0.00     0.074 A 
ATOM     46  C   UNL A   1      43.439  24.820  29.194  1.00  0.00     0.049 A 
ATOM     47  N   UNL A   1      41.374  26.678  27.333  1.00  0.00    -0.248 NA
ATOM     48  C   UNL A   1      40.043  25.187  28.497  1.00  0.00     0.031 C 
ATOM     49  C   UNL A   1      44.414  23.851  29.720  1.00  0.00     0.029 A 
ATOM     50  N   UNL A   1      43.610  25.869  30.036  1.00  0.00    -0.354 N 
ATOM     51  C   UNL A   1      40.117  27.238  27.519  1.00  0.00     0.074 A 
ATOM     52  C   UNL A   1      39.286  26.173  28.009  1.00  0.00     0.031 C 
ATOM     53  C   UNL A   1      44.868  24.263  30.926  1.00  0.00     0.029 A 
ATOM     54  C   UNL A   1      44.351  25.595  31.184  1.00  0.00     0.049 A 
ATOM     55  H   UNL A   1      43.237  26.761  29.849  1.00  0.00     0.167 HD
ATOM     56  C   UNL A   1      39.947  28.590  27.520  1.00  0.00     0.034 A 
ATOM     57  C   UNL A   1      44.486  26.397  32.280  1.00  0.00     0.034 A 
ATOM     58  C   UNL A   1      41.134  29.259  27.029  1.00  0.00     0.049 A 
ATOM     59  C   UNL A   1      44.168  27.775  31.807  1.00  0.00     0.074 A 
ATOM     60  C   UNL A   1      41.878  29.169  25.866  1.00  0.00     0.029 A 
ATOM     61  N   UNL A   1      41.979  29.838  27.955  1.00  0.00    -0.354 N 
ATOM     62  N   UNL A   1      44.892  28.397  30.910  1.00  0.00    -0.248 NA
ATOM     63  C   UNL A   1      42.780  28.217  31.888  1.00  0.00     0.031 C 
ATOM     64  C   UNL A   1      43.235  29.161  26.310  1.00  0.00     0.029 A 
ATOM     65  C   UNL A   1      43.246  29.371  27.692  1.00  0.00     0.049 A 
ATOM     66  H   UNL A   1      41.723  30.467  28.668  1.00  0.00     0.167 HD
ATOM     67  C   UNL A   1      43.978  28.970  30.036  1.00  0.00     0.074 A 
ATOM     68  C   UNL A   1      42.691  28.891  30.735  1.00  0.00     0.031 C 
ATOM     69  C   UNL A   1      44.263  29.158  28.709  1.00  0.00     0.034 A 
BRANCH  56  70
ATOM     70  C   UNL A   1      38.888  29.336  28.299  1.00  0.00     0.023 A 
ATOM     71  C   UNL A   1      39.054  29.407  29.695  1.00  0.00     0.031 A 
ATOM     72  C   UNL A   1      37.618  29.720  27.811  1.00  0.00     0.131 A 
ATOM     73  C   UNL A   1      37.978  29.732  30.536  1.00  0.00     0.055 A 
ATOM     74  C   UNL A   1      36.571  30.114  28.648  1.00  0.00     0.041 A 
ATOM     75  F   UNL A   1      37.282  29.642  26.519  1.00  0.00    -0.206 F 
ATOM     76  C   UNL A   1      36.735  30.089  30.021  1.00  0.00     0.022 A 
BRANCH  73  77
ATOM     77  S   UNL A   1      38.183  29.494  32.319  1.00  0.00     0.124 S 
ATOM     78  O   UNL A   1      38.299  30.871  32.789  1.00  0.00    -0.237 OA
ATOM     79  O   UNL A   1      36.953  28.794  32.672  1.00  0.00    -0.237 OA
ATOM     80  O   UNL A   1      39.404  28.697  32.415  1.00  0.00    -0.744 OA
ENDBRANCH  73  77
ENDBRANCH  56  70
BRANCH  57  81
ATOM     81  C   UNL A   1      44.479  25.955  33.713  1.00  0.00     0.023 A 
ATOM     82  C   UNL A   1      43.426  26.218  34.621  1.00  0.00     0.031 A 
ATOM     83  C   UNL A   1      45.471  25.047  34.160  1.00  0.00     0.131 A 
ATOM     84  C   UNL A   1      43.408  25.599  35.902  1.00  0.00     0.055 A 
ATOM     85  C   UNL A   1      45.447  24.443  35.421  1.00  0.00     0.041 A 
ATOM     86  F   UNL A   1      46.464  24.648  33.351  1.00  0.00    -0.206 F 
ATOM     87  C   UNL A   1      44.411  24.712  36.296  1.00  0.00     0.022 A 
BRANCH  84  88
ATOM     88  S   UNL A   1      42.029  25.882  37.069  1.00  0.00     0.124 S 
ATOM     89  O   UNL A   1      41.345  27.024  36.472  1.00  0.00    -0.237 OA
ATOM     90  O   UNL A   1      41.319  24.610  37.033  1.00  0.00    -0.237 OA
ATOM     91  O   UNL A   1      42.702  26.169  38.337  1.00  0.00    -0.744 OA
ENDBRANCH  84  88
ENDBRANCH  57  81
BRANCH  69  92
ATOM     92  C   UNL A   1      45.682  28.922  28.212  1.00  0.00     0.023 A 
ATOM     93  C   UNL A   1      46.222  27.667  27.841  1.00  0.00     0.031 A 
ATOM     94  C   UNL A   1      46.466  30.061  27.951  1.00  0.00     0.131 A 
ATOM     95  C   UNL A   1      47.498  27.590  27.241  1.00  0.00     0.055 A 
ATOM     96  C   UNL A   1      47.716  29.984  27.336  1.00  0.00     0.041 A 
ATOM     97  F   UNL A   1      46.005  31.286  28.251  1.00  0.00    -0.206 F 
ATOM     98  C   UNL A   1      48.239  28.747  26.983  1.00  0.00     0.022 A 
BRANCH  95  99
ATOM     99  S   UNL A   1      48.233  25.980  26.794  1.00  0.00     0.124 S 
ATOM    100  O   UNL A   1      47.114  25.245  26.216  1.00  0.00    -0.237 OA
ATOM    101  O   UNL A   1      49.296  26.360  25.869  1.00  0.00    -0.237 OA
ATOM    102  O   UNL A   1      48.706  25.454  28.077  1.00  0.00    -0.744 OA
ENDBRANCH  95  99
ENDBRANCH  69  92
ENDBRANCH  43  44
ENDBRANCH  35  38
ENDBRANCH  33  34
ENDBRANCH  32  33
ENDBRANCH   1  32
TORSDOF 19
ENDMDL
MODEL 2
REMARK VINA RESULT:     -12.9      1.667      1.985
REMARK SMILES Cc1ncc(CC(=O)N2CCc3c(c(C(=O)NCCCCNC(=O)c4ccc(-c5c6nc(c(-c7cc(S(=O)(=O)[O-])ccc7F)c7ccc([nH]7)c(-c7cc(S(=O)(=O)[O-])ccc7F)c7nc(c(-c8cc(S(=O)(=O)[O-])ccc8F)c8ccc5[nH]8)C=C7)C=C6)cc4)nn3CC3CC3)C2)c(=O)[nH]1
REMARK SMILES IDX 19 1 18 2 17 3 15 4 16 5 14 7 9 8 10 9 94 10 11 11 13 12
REMARK SMILES IDX 12 13 89 14 88 15 7 16 8 17 6 18 5 19 1 20 2 21 3 22 97 23
REMARK SMILES IDX 4 24 95 25 96 27 90 28 91 29 92 30 93 31 20 32 21 33 22 34
REMARK SMILES IDX 23 35 24 37 25 38 26 39 87 40 27 41 86 42 28 43 29 44 30 45
REMARK SMILES IDX 80 46 31 47 85 48 79 49 81 50 32 51 84 52 78 53 77 54 33 56
REMARK SMILES IDX 65 57 45 58 64 59 46 60 49 61 63 62 82 63 47 64 48 65 62 67
REMARK SMILES IDX 83 68 50 69 34 70 35 71 43 72 36 73 42 74 44 75 41 76 37 77
REMARK SMILES IDX 38 78 39 79 40 80 66 81 67 82 75 83 68 84 74 85 76 86 73 87
REMARK SMILES IDX 69 88 70 89 71 90 72 91 51 92 52 93 60 94 53 95 59 96 61 97
REMARK SMILES IDX 58 98 54 99 55 100 56 101 57 102
REMARK H PARENT 17 6 97 26 22 36 81 55 49 66
REMARK Flexibility Score: inf
ROOT
ATOM      1  C   UNL A   1      37.025  20.406  24.807  1.00  0.00     0.023 C 
ENDROOT
BRANCH   1   2
ATOM      2  C   UNL A   1      37.333  21.884  25.094  1.00  0.00     0.116 C 
BRANCH   2   3
ATOM      3  N   UNL A   1      36.493  22.446  26.146  1.00  0.00    -0.351 N 
ATOM      4  C   UNL A   1      35.127  22.395  26.362  1.00  0.00     0.272 C 
ATOM      5  O   UNL A   1      34.691  22.990  27.350  1.00  0.00    -0.267 OA
ATOM      6  H   UNL A   1      36.988  22.957  26.825  1.00  0.00     0.163 HD
BRANCH   4   7
ATOM      7  C   UNL A   1      34.211  21.700  25.435  1.00  0.00     0.155 A 
ATOM      8  N   UNL A   1      32.542  23.648  22.609  1.00  0.00    -0.338 N 
ATOM      9  C   UNL A   1      32.592  22.499  21.692  1.00  0.00     0.126 C 
ATOM     10  C   UNL A   1      33.559  23.635  23.694  1.00  0.00     0.159 C 
ATOM     11  C   UNL A   1      32.180  21.208  22.412  1.00  0.00     0.078 C 
ATOM     12  C   UNL A   1      33.570  22.247  24.278  1.00  0.00     0.026 A 
ATOM     13  C   UNL A   1      32.930  21.168  23.690  1.00  0.00     0.046 A 
ATOM     14  N   UNL A   1      33.112  20.106  24.509  1.00  0.00    -0.268 N 
ATOM     15  N   UNL A   1      33.874  20.404  25.567  1.00  0.00    -0.167 NA
BRANCH   8  16
ATOM     16  C   UNL A   1      31.678  24.726  22.525  1.00  0.00     0.227 C 
ATOM     17  O   UNL A   1      31.889  25.635  21.716  1.00  0.00    -0.275 OA
BRANCH  16  18
ATOM     18  C   UNL A   1      30.614  24.945  23.622  1.00  0.00     0.143 C 
BRANCH  18  19
ATOM     19  C   UNL A   1      30.847  25.959  24.690  1.00  0.00     0.045 A 
ATOM     20  C   UNL A   1      32.059  28.758  27.619  1.00  0.00     0.087 C 
ATOM     21  C   UNL A   1      31.558  27.807  26.573  1.00  0.00     0.105 A 
ATOM     22  N   UNL A   1      31.172  28.236  25.416  1.00  0.00    -0.243 NA
ATOM     23  N   UNL A   1      31.565  26.487  26.919  1.00  0.00    -0.311 N 
ATOM     24  C   UNL A   1      30.799  27.287  24.500  1.00  0.00     0.123 A 
ATOM     25  C   UNL A   1      31.194  25.499  26.051  1.00  0.00     0.254 A 
ATOM     26  H   UNL A   1      31.847  26.237  27.828  1.00  0.00     0.171 HD
ATOM     27  O   UNL A   1      31.194  24.320  26.375  1.00  0.00    -0.269 OA
ENDBRANCH  18  19
ENDBRANCH  16  18
ENDBRANCH   8  16
BRANCH  14  28
ATOM     28  C   UNL A   1      32.596  18.753  24.361  1.00  0.00     0.148 C 
BRANCH  28  29
ATOM     29  C   UNL A   1      33.625  17.723  23.972  1.00  0.00     0.011 C 
ATOM     30  C   UNL A   1      34.228  16.701  24.915  1.00  0.00     0.006 C 
ATOM     31  C   UNL A   1      33.217  16.270  23.894  1.00  0.00     0.006 C 
ENDBRANCH  28  29
ENDBRANCH  14  28
ENDBRANCH   4   7
ENDBRANCH   2   3
ENDBRANCH   1   2
BRANCH   1  32
ATOM     32  C   UNL A   1      38.175  19.416  25.058  1.00  0.00     0.023 C 
BRANCH  32  33
ATOM     33  C   UNL A   1      39.362  19.993  25.818  1.00  0.00     0.116 C 
BRANCH  33  34
ATOM     34  N   UNL A   1      40.522  19.093  25.908  1.00  0.00    -0.352 N 
ATOM     35  C   UNL A   1      41.878  19.437  25.925  1.00  0.00     0.251 C 
ATOM     36  H   UNL A   1      40.320  18.130  25.965  1.00  0.00     0.163 HD
ATOM     37  O   UNL A   1      42.738  18.637  25.609  1.00  0.00    -0.269 OA
BRANCH  35  38
ATOM     38  C   UNL A   1      42.226  20.803  26.367  1.00  0.00     0.039 A 
ATOM     39  C   UNL A   1      42.586  21.850  25.512  1.00  0.00     0.014 A 
ATOM     40  C   UNL A   1      42.088  21.021  27.725  1.00  0.00     0.014 A 
ATOM     41  C   UNL A   1      42.744  23.127  26.062  1.00  0.00     0.010 A 
ATOM     42  C   UNL A   1      41.890  22.289  28.166  1.00  0.00     0.010 A 
ATOM     43  C   UNL A   1      42.386  23.328  27.402  1.00  0.00    -0.014 A 
BRANCH  43  44
ATOM     44  C   UNL A   1      42.434  24.606  28.093  1.00  0.00     0.031 A 
ATOM     45  C   UNL A   1      41.142  25.329  28.121  1.00  0.00     0.074 A 
ATOM     46  C   UNL A   1      43.468  24.921  28.911  1.00  0.00     0.049 A 
ATOM     47  N   UNL A   1      40.838  26.404  27.475  1.00  0.00    -0.248 NA
ATOM     48  C   UNL A   1      39.992  24.697  28.789  1.00  0.00     0.031 C 
ATOM     49  C   UNL A   1      44.668  24.133  29.238  1.00  0.00     0.029 A 
ATOM     50  N   UNL A   1      43.596  25.979  29.749  1.00  0.00    -0.354 N 
ATOM     51  C   UNL A   1      39.552  26.736  27.882  1.00  0.00     0.074 A 
ATOM     52  C   UNL A   1      39.007  25.540  28.464  1.00  0.00     0.031 C 
ATOM     53  C   UNL A   1      45.238  24.611  30.367  1.00  0.00     0.029 A 
ATOM     54  C   UNL A   1      44.553  25.832  30.752  1.00  0.00     0.049 A 
ATOM     55  H   UNL A   1      43.051  26.793  29.657  1.00  0.00     0.167 HD
ATOM     56  C   UNL A   1      39.157  28.037  27.958  1.00  0.00     0.034 A 
ATOM     57  C   UNL A   1      44.730  26.638  31.838  1.00  0.00     0.034 A 
ATOM     58  C   UNL A   1      40.115  28.905  27.303  1.00  0.00     0.049 A 
ATOM     59  C   UNL A   1      44.108  27.943  31.471  1.00  0.00     0.074 A 
ATOM     60  C   UNL A   1      40.660  28.952  26.032  1.00  0.00     0.029 A 
ATOM     61  N   UNL A   1      40.991  29.617  28.099  1.00  0.00    -0.354 N 
ATOM     62  N   UNL A   1      44.556  28.686  30.490  1.00  0.00    -0.248 NA
ATOM     63  C   UNL A   1      42.698  28.137  31.791  1.00  0.00     0.031 C 
ATOM     64  C   UNL A   1      42.053  29.177  26.249  1.00  0.00     0.029 A 
ATOM     65  C   UNL A   1      42.257  29.378  27.617  1.00  0.00     0.049 A 
ATOM     66  H   UNL A   1      40.753  30.188  28.865  1.00  0.00     0.167 HD
ATOM     67  C   UNL A   1      43.426  29.096  29.796  1.00  0.00     0.074 A 
ATOM     68  C   UNL A   1      42.305  28.792  30.692  1.00  0.00     0.031 C 
ATOM     69  C   UNL A   1      43.451  29.338  28.448  1.00  0.00     0.034 A 
BRANCH  56  70
ATOM     70  C   UNL A   1      38.131  28.584  28.923  1.00  0.00     0.023 A 
ATOM     71  C   UNL A   1      37.186  29.490  28.406  1.00  0.00     0.031 A 
ATOM     72  C   UNL A   1      38.196  28.502  30.334  1.00  0.00     0.131 A 
ATOM     73  C   UNL A   1      36.448  30.329  29.256  1.00  0.00     0.055 A 
ATOM     74  C   UNL A   1      37.405  29.287  31.176  1.00  0.00     0.041 A 
ATOM     75  F   UNL A   1      39.087  27.741  30.977  1.00  0.00    -0.206 F 
ATOM     76  C   UNL A   1      36.549  30.233  30.641  1.00  0.00     0.022 A 
BRANCH  73  77
ATOM     77  S   UNL A   1      35.495  31.676  28.511  1.00  0.00     0.124 S 
ATOM     78  O   UNL A   1      34.612  32.055  29.609  1.00  0.00    -0.237 OA
ATOM     79  O   UNL A   1      36.544  32.631  28.168  1.00  0.00    -0.237 OA
ATOM     80  O   UNL A   1      34.838  31.037  27.374  1.00  0.00    -0.744 OA
ENDBRANCH  73  77
ENDBRANCH  56  70
BRANCH  57  81
ATOM     81  C   UNL A   1      45.036  26.194  33.236  1.00  0.00     0.023 A 
ATOM     82  C   UNL A   1      44.075  26.102  34.270  1.00  0.00     0.031 A 
ATOM     83  C   UNL A   1      46.306  25.632  33.520  1.00  0.00     0.131 A 
ATOM     84  C   UNL A   1      44.406  25.489  35.511  1.00  0.00     0.055 A 
ATOM     85  C   UNL A   1      46.625  25.031  34.741  1.00  0.00     0.041 A 
ATOM     86  F   UNL A   1      47.266  25.574  32.584  1.00  0.00    -0.206 F 
ATOM     87  C   UNL A   1      45.673  24.951  35.742  1.00  0.00     0.022 A 
BRANCH  84  88
ATOM     88  S   UNL A   1      43.162  25.311  36.839  1.00  0.00     0.124 S 
ATOM     89  O   UNL A   1      42.223  24.356  36.261  1.00  0.00    -0.237 OA
ATOM     90  O   UNL A   1      43.964  24.834  37.960  1.00  0.00    -0.237 OA
ATOM     91  O   UNL A   1      42.633  26.666  37.001  1.00  0.00    -0.744 OA
ENDBRANCH  84  88
ENDBRANCH  57  81
BRANCH  69  92
ATOM     92  C   UNL A   1      44.786  29.355  27.718  1.00  0.00     0.023 A 
ATOM     93  C   UNL A   1      45.387  28.241  27.084  1.00  0.00     0.031 A 
ATOM     94  C   UNL A   1      45.393  30.610  27.523  1.00  0.00     0.131 A 
ATOM     95  C   UNL A   1      46.550  28.409  26.300  1.00  0.00     0.055 A 
ATOM     96  C   UNL A   1      46.527  30.776  26.728  1.00  0.00     0.041 A 
ATOM     97  F   UNL A   1      44.861  31.714  28.072  1.00  0.00    -0.206 F 
ATOM     98  C   UNL A   1      47.113  29.675  26.117  1.00  0.00     0.022 A 
BRANCH  95  99
ATOM     99  S   UNL A   1      47.366  26.981  25.509  1.00  0.00     0.124 S 
ATOM    100  O   UNL A   1      46.496  26.674  24.380  1.00  0.00    -0.237 OA
ATOM    101  O   UNL A   1      48.685  27.512  25.176  1.00  0.00    -0.237 OA
ATOM    102  O   UNL A   1      47.372  25.966  26.565  1.00  0.00    -0.744 OA
ENDBRANCH  95  99
ENDBRANCH  69  92
ENDBRANCH  43  44
ENDBRANCH  35  38
ENDBRANCH  33  34
ENDBRANCH  32  33
ENDBRANCH   1  32
TORSDOF 19
ENDMDL
MODEL 3
REMARK VINA RESULT:     -12.2      3.357      6.943
REMARK SMILES Cc1ncc(CC(=O)N2CCc3c(c(C(=O)NCCCCNC(=O)c4ccc(-c5c6nc(c(-c7cc(S(=O)(=O)[O-])ccc7F)c7ccc([nH]7)c(-c7cc(S(=O)(=O)[O-])ccc7F)c7nc(c(-c8cc(S(=O)(=O)[O-])ccc8F)c8ccc5[nH]8)C=C7)C=C6)cc4)nn3CC3CC3)C2)c(=O)[nH]1
REMARK SMILES IDX 19 1 18 2 17 3 15 4 16 5 14 7 9 8 10 9 94 10 11 11 13 12
REMARK SMILES IDX 12 13 89 14 88 15 7 16 8 17 6 18 5 19 1 20 2 21 3 22 97 23
REMARK SMILES IDX 4 24 95 25 96 27 90 28 91 29 92 30 93 31 20 32 21 33 22 34
REMARK SMILES IDX 23 35 24 37 25 38 26 39 87 40 27 41 86 42 28 43 29 44 30 45
REMARK SMILES IDX 80 46 31 47 85 48 79 49 81 50 32 51 84 52 78 53 77 54 33 56
REMARK SMILES IDX 65 57 45 58 64 59 46 60 49 61 63 62 82 63 47 64 48 65 62 67
REMARK SMILES IDX 83 68 50 69 34 70 35 71 43 72 36 73 42 74 44 75 41 76 37 77
REMARK SMILES IDX 38 78 39 79 40 80 66 81 67 82 75 83 68 84 74 85 76 86 73 87
REMARK SMILES IDX 69 88 70 89 71 90 72 91 51 92 52 93 60 94 53 95 59 96 61 97
REMARK SMILES IDX 58 98 54 99 55 100 56 101 57 102
REMARK H PARENT 17 6 97 26 22 36 81 55 49 66
REMARK Flexibility Score: inf
ROOT
ATOM      1  C   UNL A   1      38.023  23.486  26.257  1.00  0.00     0.023 C 
ENDROOT
BRANCH   1   2
ATOM      2  C   UNL A   1      36.595  23.196  25.770  1.00  0.00     0.116 C 
BRANCH   2   3
ATOM      3  N   UNL A   1      35.633  23.087  26.861  1.00  0.00    -0.351 N 
ATOM      4  C   UNL A   1      34.364  22.539  26.920  1.00  0.00     0.272 C 
ATOM      5  O   UNL A   1      33.771  22.608  28.000  1.00  0.00    -0.267 OA
ATOM      6  H   UNL A   1      35.942  23.476  27.710  1.00  0.00     0.163 HD
BRANCH   4   7
ATOM      7  C   UNL A   1      33.714  21.932  25.741  1.00  0.00     0.155 A 
ATOM      8  N   UNL A   1      32.614  24.152  22.838  1.00  0.00    -0.338 N 
ATOM      9  C   UNL A   1      32.927  23.121  21.838  1.00  0.00     0.126 C 
ATOM     10  C   UNL A   1      33.364  24.039  24.117  1.00  0.00     0.159 C 
ATOM     11  C   UNL A   1      32.434  21.743  22.301  1.00  0.00     0.078 C 
ATOM     12  C   UNL A   1      33.318  22.593  24.535  1.00  0.00     0.026 A 
ATOM     13  C   UNL A   1      32.883  21.574  23.704  1.00  0.00     0.046 A 
ATOM     14  N   UNL A   1      32.934  20.428  24.423  1.00  0.00    -0.268 N 
ATOM     15  N   UNL A   1      33.426  20.621  25.653  1.00  0.00    -0.167 NA
BRANCH   8  16
ATOM     16  C   UNL A   1      31.734  25.208  22.677  1.00  0.00     0.227 C 
ATOM     17  O   UNL A   1      31.623  25.769  21.582  1.00  0.00    -0.275 OA
BRANCH  16  18
ATOM     18  C   UNL A   1      31.102  25.878  23.917  1.00  0.00     0.143 C 
BRANCH  18  19
ATOM     19  C   UNL A   1      30.458  27.217  23.790  1.00  0.00     0.045 A 
ATOM     20  C   UNL A   1      28.842  31.023  22.908  1.00  0.00     0.087 C 
ATOM     21  C   UNL A   1      29.354  29.662  23.276  1.00  0.00     0.105 A 
ATOM     22  N   UNL A   1      28.590  28.622  23.196  1.00  0.00    -0.243 NA
ATOM     23  N   UNL A   1      30.660  29.605  23.666  1.00  0.00    -0.311 N 
ATOM     24  C   UNL A   1      29.166  27.412  23.483  1.00  0.00     0.123 A 
ATOM     25  C   UNL A   1      31.283  28.429  23.973  1.00  0.00     0.254 A 
ATOM     26  H   UNL A   1      31.173  30.443  23.728  1.00  0.00     0.171 HD
ATOM     27  O   UNL A   1      32.452  28.390  24.332  1.00  0.00    -0.269 OA
ENDBRANCH  18  19
ENDBRANCH  16  18
ENDBRANCH   8  16
BRANCH  14  28
ATOM     28  C   UNL A   1      32.536  19.088  24.017  1.00  0.00     0.148 C 
BRANCH  28  29
ATOM     29  C   UNL A   1      33.575  18.022  24.250  1.00  0.00     0.011 C 
ATOM     30  C   UNL A   1      33.285  16.540  24.365  1.00  0.00     0.006 C 
ATOM     31  C   UNL A   1      33.927  17.081  23.122  1.00  0.00     0.006 C 
ENDBRANCH  28  29
ENDBRANCH  14  28
ENDBRANCH   4   7
ENDBRANCH   2   3
ENDBRANCH   1   2
BRANCH   1  32
ATOM     32  C   UNL A   1      39.012  22.309  26.190  1.00  0.00     0.023 C 
BRANCH  32  33
ATOM     33  C   UNL A   1      40.268  22.481  27.035  1.00  0.00     0.116 C 
BRANCH  33  34
ATOM     34  N   UNL A   1      41.519  22.528  26.261  1.00  0.00    -0.352 N 
ATOM     35  C   UNL A   1      42.343  23.633  26.028  1.00  0.00     0.251 C 
ATOM     36  H   UNL A   1      41.812  21.677  25.860  1.00  0.00     0.163 HD
ATOM     37  O   UNL A   1      43.110  23.663  25.084  1.00  0.00    -0.269 OA
BRANCH  35  38
ATOM     38  C   UNL A   1      42.267  24.752  26.989  1.00  0.00     0.039 A 
ATOM     39  C   UNL A   1      42.978  24.820  28.192  1.00  0.00     0.014 A 
ATOM     40  C   UNL A   1      41.483  25.814  26.576  1.00  0.00     0.014 A 
ATOM     41  C   UNL A   1      42.919  26.009  28.928  1.00  0.00     0.010 A 
ATOM     42  C   UNL A   1      41.723  27.044  27.095  1.00  0.00     0.010 A 
ATOM     43  C   UNL A   1      42.282  27.119  28.356  1.00  0.00    -0.014 A 
BRANCH  43  44
ATOM     44  C   UNL A   1      42.195  28.434  28.969  1.00  0.00     0.031 A 
ATOM     45  C   UNL A   1      43.169  29.416  28.441  1.00  0.00     0.074 A 
ATOM     46  C   UNL A   1      41.108  28.798  29.694  1.00  0.00     0.049 A 
ATOM     47  N   UNL A   1      44.201  29.894  29.050  1.00  0.00    -0.248 NA
ATOM     48  C   UNL A   1      43.112  29.772  27.013  1.00  0.00     0.031 C 
ATOM     49  C   UNL A   1      39.901  28.019  30.014  1.00  0.00     0.029 A 
ATOM     50  N   UNL A   1      40.789  30.018  30.191  1.00  0.00    -0.354 N 
ATOM     51  C   UNL A   1      44.754  30.826  28.181  1.00  0.00     0.074 A 
ATOM     52  C   UNL A   1      44.213  30.517  26.885  1.00  0.00     0.031 C 
ATOM     53  C   UNL A   1      38.908  28.849  30.404  1.00  0.00     0.029 A 
ATOM     54  C   UNL A   1      39.447  30.192  30.526  1.00  0.00     0.049 A 
ATOM     55  H   UNL A   1      41.457  30.732  30.307  1.00  0.00     0.167 HD
ATOM     56  C   UNL A   1      45.384  31.936  28.655  1.00  0.00     0.034 A 
ATOM     57  C   UNL A   1      38.827  31.367  30.836  1.00  0.00     0.034 A 
ATOM     58  C   UNL A   1      45.625  31.823  30.078  1.00  0.00     0.049 A 
ATOM     59  C   UNL A   1      39.916  32.289  31.270  1.00  0.00     0.074 A 
ATOM     60  C   UNL A   1      46.270  30.893  30.874  1.00  0.00     0.029 A 
ATOM     61  N   UNL A   1      44.786  32.511  30.933  1.00  0.00    -0.354 N 
ATOM     62  N   UNL A   1      40.647  32.066  32.333  1.00  0.00    -0.248 NA
ATOM     63  C   UNL A   1      40.555  33.113  30.249  1.00  0.00     0.031 C 
ATOM     64  C   UNL A   1      45.391  30.701  31.983  1.00  0.00     0.029 A 
ATOM     65  C   UNL A   1      44.333  31.607  31.866  1.00  0.00     0.049 A 
ATOM     66  H   UNL A   1      44.557  33.468  30.884  1.00  0.00     0.167 HD
ATOM     67  C   UNL A   1      41.952  32.328  31.941  1.00  0.00     0.074 A 
ATOM     68  C   UNL A   1      41.824  33.047  30.669  1.00  0.00     0.031 C 
ATOM     69  C   UNL A   1      43.021  31.670  32.491  1.00  0.00     0.034 A 
BRANCH  56  70
ATOM     70  C   UNL A   1      45.450  33.271  27.949  1.00  0.00     0.023 A 
ATOM     71  C   UNL A   1      44.473  34.224  28.293  1.00  0.00     0.031 A 
ATOM     72  C   UNL A   1      46.206  33.557  26.789  1.00  0.00     0.131 A 
ATOM     73  C   UNL A   1      44.209  35.323  27.459  1.00  0.00     0.055 A 
ATOM     74  C   UNL A   1      45.989  34.691  26.003  1.00  0.00     0.041 A 
ATOM     75  F   UNL A   1      47.122  32.719  26.293  1.00  0.00    -0.206 F 
ATOM     76  C   UNL A   1      44.963  35.565  26.314  1.00  0.00     0.022 A 
BRANCH  73  77
ATOM     77  S   UNL A   1      42.737  36.320  27.800  1.00  0.00     0.124 S 
ATOM     78  O   UNL A   1      42.509  36.036  29.213  1.00  0.00    -0.237 OA
ATOM     79  O   UNL A   1      43.205  37.664  27.480  1.00  0.00    -0.237 OA
ATOM     80  O   UNL A   1      41.738  35.773  26.885  1.00  0.00    -0.744 OA
ENDBRANCH  73  77
ENDBRANCH  56  70
BRANCH  57  81
ATOM     81  C   UNL A   1      37.460  31.796  30.394  1.00  0.00     0.023 A 
ATOM     82  C   UNL A   1      36.562  32.539  31.196  1.00  0.00     0.031 A 
ATOM     83  C   UNL A   1      37.094  31.643  29.034  1.00  0.00     0.131 A 
ATOM     84  C   UNL A   1      35.367  33.072  30.636  1.00  0.00     0.055 A 
ATOM     85  C   UNL A   1      35.919  32.169  28.490  1.00  0.00     0.041 A 
ATOM     86  F   UNL A   1      37.913  31.041  28.157  1.00  0.00    -0.206 F 
ATOM     87  C   UNL A   1      35.051  32.892  29.289  1.00  0.00     0.022 A 
BRANCH  84  88
ATOM     88  S   UNL A   1      34.221  34.081  31.641  1.00  0.00     0.124 S 
ATOM     89  O   UNL A   1      33.281  34.575  30.641  1.00  0.00    -0.237 OA
ATOM     90  O   UNL A   1      33.700  33.111  32.596  1.00  0.00    -0.237 OA
ATOM     91  O   UNL A   1      35.085  35.107  32.226  1.00  0.00    -0.744 OA
ENDBRANCH  84  88
ENDBRANCH  57  81
BRANCH  69  92
ATOM     92  C   UNL A   1      42.802  30.774  33.701  1.00  0.00     0.023 A 
ATOM     93  C   UNL A   1      42.437  29.406  33.651  1.00  0.00     0.031 A 
ATOM     94  C   UNL A   1      43.141  31.302  34.960  1.00  0.00     0.131 A 
ATOM     95  C   UNL A   1      42.418  28.632  34.832  1.00  0.00     0.055 A 
ATOM     96  C   UNL A   1      43.145  30.529  36.120  1.00  0.00     0.041 A 
ATOM     97  F   UNL A   1      43.524  32.585  35.077  1.00  0.00    -0.206 F 
ATOM     98  C   UNL A   1      42.779  29.190  36.061  1.00  0.00     0.022 A 
BRANCH  95  99
ATOM     99  S   UNL A   1      41.909  26.879  34.799  1.00  0.00     0.124 S 
ATOM    100  O   UNL A   1      41.849  26.516  36.211  1.00  0.00    -0.237 OA
ATOM    101  O   UNL A   1      40.630  26.931  34.097  1.00  0.00    -0.237 OA
ATOM    102  O   UNL A   1      42.985  26.227  34.050  1.00  0.00    -0.744 OA
ENDBRANCH  95  99
ENDBRANCH  69  92
ENDBRANCH  43  44
ENDBRANCH  35  38
ENDBRANCH  33  34
ENDBRANCH  32  33
ENDBRANCH   1  32
TORSDOF 19
ENDMDL
