MODEL 1
REMARK VINA RESULT:     -13.5      0.000      0.000
REMARK SMILES O=C(NC1(C(=O)NCCCCNC(=O)c2ccc(-c3c4nc(c(-c5cc(S(=O)(=O)[O-])ccc5F)c5ccc([nH]5)c(-c5cc(S(=O)(=O)[O-])ccc5F)c5nc(c(-c6cc(S(=O)(=O)[O-])ccc6F)c6ccc3[nH]6)C=C5)C=C4)cc2)Cc2ccccc2C1)OCC1c2ccccc2-c2ccccc21
REMARK SMILES IDX 9 1 8 2 7 3 5 4 6 5 4 7 78 8 85 9 79 10 84 11 80 12 83 13
REMARK SMILES IDX 81 14 82 15 3 16 1 17 2 18 86 20 87 21 88 22 89 23 100 24
REMARK SMILES IDX 90 25 94 26 95 27 99 28 91 29 93 30 96 31 98 32 92 33 97 34
REMARK SMILES IDX 10 35 11 36 12 37 13 38 14 40 15 41 16 42 77 43 17 44 76 45
REMARK SMILES IDX 18 46 19 47 20 48 70 49 21 50 75 51 69 52 71 53 22 54 74 55
REMARK SMILES IDX 68 56 67 57 23 59 55 60 35 61 54 62 36 63 39 64 53 65 72 66
REMARK SMILES IDX 37 67 38 68 52 70 73 71 40 72 24 73 25 74 33 75 26 76 32 77
REMARK SMILES IDX 34 78 31 79 27 80 28 81 29 82 30 83 56 84 57 85 65 86 58 87
REMARK SMILES IDX 64 88 66 89 63 90 59 91 60 92 61 93 62 94 41 95 42 96 50 97
REMARK SMILES IDX 43 98 49 99 51 100 48 101 44 102 45 103 46 104 47 105
REMARK H PARENT 7 6 3 19 12 39 71 58 39 69
REMARK Flexibility Score: inf
ROOT
ATOM      1  C   UNL A   1      34.748  20.745  25.536  1.00  0.00     0.023 C 
ENDROOT
BRANCH   1   2
ATOM      2  C   UNL A   1      33.237  20.653  25.666  1.00  0.00     0.116 C 
BRANCH   2   3
ATOM      3  N   UNL A   1      32.572  20.649  24.386  1.00  0.00    -0.354 N 
ATOM      4  C   UNL A   1      31.912  21.617  23.702  1.00  0.00     0.246 C 
ATOM      5  O   UNL A   1      31.667  21.318  22.522  1.00  0.00    -0.272 OA
ATOM      6  H   UNL A   1      32.604  19.782  23.922  1.00  0.00     0.163 HD
BRANCH   4   7
ATOM      7  C   UNL A   1      31.538  23.039  24.271  1.00  0.00     0.130 C 
ATOM      8  C   UNL A   1      30.785  23.892  23.204  1.00  0.00     0.075 C 
ATOM      9  C   UNL A   1      32.719  23.926  24.746  1.00  0.00     0.075 C 
ATOM     10  C   UNL A   1      31.801  24.926  22.795  1.00  0.00    -0.042 A 
ATOM     11  C   UNL A   1      32.880  24.942  23.675  1.00  0.00    -0.042 A 
ATOM     12  C   UNL A   1      31.832  25.709  21.653  1.00  0.00     0.004 A 
ATOM     13  C   UNL A   1      33.984  25.756  23.482  1.00  0.00     0.004 A 
ATOM     14  C   UNL A   1      32.969  26.493  21.412  1.00  0.00     0.000 A 
ATOM     15  C   UNL A   1      34.034  26.524  22.325  1.00  0.00     0.000 A 
BRANCH   7  16
ATOM     16  N   UNL A   1      30.667  22.739  25.435  1.00  0.00    -0.306 N 
ATOM     17  O   UNL A   1      29.816  23.282  27.467  1.00  0.00    -0.225 OA
ATOM     18  C   UNL A   1      30.512  23.573  26.517  1.00  0.00     0.408 C 
ATOM     19  H   UNL A   1      30.170  21.890  25.430  1.00  0.00     0.168 HD
BRANCH  18  20
ATOM     20  O   UNL A   1      31.169  24.755  26.352  1.00  0.00    -0.449 OA
BRANCH  20  21
ATOM     21  C   UNL A   1      30.354  25.909  26.139  1.00  0.00     0.248 C 
BRANCH  21  22
ATOM     22  C   UNL A   1      30.995  26.912  25.154  1.00  0.00     0.088 C 
ATOM     23  C   UNL A   1      30.115  27.858  24.334  1.00  0.00    -0.029 A 
ATOM     24  C   UNL A   1      31.932  27.901  25.850  1.00  0.00    -0.029 A 
ATOM     25  C   UNL A   1      29.116  27.560  23.422  1.00  0.00     0.005 A 
ATOM     26  C   UNL A   1      30.558  29.196  24.502  1.00  0.00    -0.014 A 
ATOM     27  C   UNL A   1      31.613  29.224  25.488  1.00  0.00    -0.014 A 
ATOM     28  C   UNL A   1      33.001  27.627  26.687  1.00  0.00     0.005 A 
ATOM     29  C   UNL A   1      28.617  28.599  22.625  1.00  0.00     0.000 A 
ATOM     30  C   UNL A   1      30.056  30.225  23.721  1.00  0.00     0.009 A 
ATOM     31  C   UNL A   1      32.291  30.293  26.052  1.00  0.00     0.009 A 
ATOM     32  C   UNL A   1      33.699  28.701  27.238  1.00  0.00     0.000 A 
ATOM     33  C   UNL A   1      29.102  29.912  22.755  1.00  0.00     0.001 A 
ATOM     34  C   UNL A   1      33.331  30.023  26.945  1.00  0.00     0.001 A 
ENDBRANCH  21  22
ENDBRANCH  20  21
ENDBRANCH  18  20
ENDBRANCH   7  16
ENDBRANCH   4   7
ENDBRANCH   2   3
ENDBRANCH   1   2
BRANCH   1  35
ATOM     35  C   UNL A   1      35.328  21.934  26.281  1.00  0.00     0.023 C 
BRANCH  35  36
ATOM     36  C   UNL A   1      36.667  22.392  25.743  1.00  0.00     0.116 C 
BRANCH  36  37
ATOM     37  N   UNL A   1      37.685  21.354  25.818  1.00  0.00    -0.352 N 
ATOM     38  C   UNL A   1      39.013  21.462  26.158  1.00  0.00     0.251 C 
ATOM     39  H   UNL A   1      37.380  20.445  25.593  1.00  0.00     0.163 HD
ATOM     40  O   UNL A   1      39.767  20.509  25.986  1.00  0.00    -0.269 OA
BRANCH  38  41
ATOM     41  C   UNL A   1      39.524  22.747  26.687  1.00  0.00     0.039 A 
ATOM     42  C   UNL A   1      40.520  22.739  27.663  1.00  0.00     0.014 A 
ATOM     43  C   UNL A   1      39.052  23.960  26.183  1.00  0.00     0.014 A 
ATOM     44  C   UNL A   1      41.079  23.947  28.081  1.00  0.00     0.010 A 
ATOM     45  C   UNL A   1      39.721  25.138  26.477  1.00  0.00     0.010 A 
ATOM     46  C   UNL A   1      40.715  25.156  27.461  1.00  0.00    -0.014 A 
BRANCH  46  47
ATOM     47  C   UNL A   1      41.317  26.452  27.867  1.00  0.00     0.031 A 
ATOM     48  C   UNL A   1      42.742  26.770  27.481  1.00  0.00     0.074 A 
ATOM     49  C   UNL A   1      40.601  27.317  28.614  1.00  0.00     0.049 A 
ATOM     50  N   UNL A   1      43.466  27.818  27.776  1.00  0.00    -0.248 NA
ATOM     51  C   UNL A   1      43.467  25.749  26.705  1.00  0.00     0.031 C 
ATOM     52  C   UNL A   1      39.246  27.078  29.123  1.00  0.00     0.029 A 
ATOM     53  N   UNL A   1      40.905  28.573  29.071  1.00  0.00    -0.354 N 
ATOM     54  C   UNL A   1      44.727  27.570  27.241  1.00  0.00     0.074 A 
ATOM     55  C   UNL A   1      44.698  26.233  26.696  1.00  0.00     0.031 C 
ATOM     56  C   UNL A   1      38.818  28.175  29.769  1.00  0.00     0.029 A 
ATOM     57  C   UNL A   1      39.879  29.175  29.762  1.00  0.00     0.049 A 
ATOM     58  H   UNL A   1      41.777  29.004  28.918  1.00  0.00     0.167 HD
ATOM     59  C   UNL A   1      45.798  28.398  27.163  1.00  0.00     0.034 A 
ATOM     60  C   UNL A   1      39.802  30.399  30.318  1.00  0.00     0.034 A 
ATOM     61  C   UNL A   1      45.791  29.744  27.674  1.00  0.00     0.049 A 
ATOM     62  C   UNL A   1      40.988  31.321  30.178  1.00  0.00     0.074 A 
ATOM     63  C   UNL A   1      46.793  30.697  27.616  1.00  0.00     0.029 A 
ATOM     64  N   UNL A   1      44.718  30.336  28.329  1.00  0.00    -0.354 N 
ATOM     65  N   UNL A   1      42.154  31.088  29.617  1.00  0.00    -0.248 NA
ATOM     66  C   UNL A   1      40.840  32.674  30.723  1.00  0.00     0.031 C 
ATOM     67  C   UNL A   1      46.345  31.844  28.279  1.00  0.00     0.029 A 
ATOM     68  C   UNL A   1      45.038  31.635  28.690  1.00  0.00     0.049 A 
ATOM     69  H   UNL A   1      43.856  29.896  28.510  1.00  0.00     0.167 HD
ATOM     70  C   UNL A   1      42.870  32.276  29.727  1.00  0.00     0.074 A 
ATOM     71  C   UNL A   1      41.987  33.230  30.368  1.00  0.00     0.031 C 
ATOM     72  C   UNL A   1      44.143  32.558  29.346  1.00  0.00     0.034 A 
BRANCH  59  73
ATOM     73  C   UNL A   1      47.045  27.863  26.498  1.00  0.00     0.023 A 
ATOM     74  C   UNL A   1      47.298  28.072  25.130  1.00  0.00     0.031 A 
ATOM     75  C   UNL A   1      47.977  27.103  27.226  1.00  0.00     0.131 A 
ATOM     76  C   UNL A   1      48.404  27.465  24.517  1.00  0.00     0.055 A 
ATOM     77  C   UNL A   1      49.124  26.574  26.628  1.00  0.00     0.041 A 
ATOM     78  F   UNL A   1      47.782  26.847  28.529  1.00  0.00    -0.206 F 
ATOM     79  C   UNL A   1      49.334  26.740  25.262  1.00  0.00     0.022 A 
BRANCH  76  80
ATOM     80  S   UNL A   1      48.528  27.517  22.708  1.00  0.00     0.124 S 
ATOM     81  O   UNL A   1      49.793  28.225  22.522  1.00  0.00    -0.237 OA
ATOM     82  O   UNL A   1      48.528  26.104  22.349  1.00  0.00    -0.237 OA
ATOM     83  O   UNL A   1      47.339  28.264  22.304  1.00  0.00    -0.744 OA
ENDBRANCH  76  80
ENDBRANCH  59  73
BRANCH  60  84
ATOM     84  C   UNL A   1      38.572  30.835  31.041  1.00  0.00     0.023 A 
ATOM     85  C   UNL A   1      37.579  31.592  30.399  1.00  0.00     0.031 A 
ATOM     86  C   UNL A   1      38.391  30.539  32.404  1.00  0.00     0.131 A 
ATOM     87  C   UNL A   1      36.483  32.079  31.129  1.00  0.00     0.055 A 
ATOM     88  C   UNL A   1      37.269  30.976  33.113  1.00  0.00     0.041 A 
ATOM     89  F   UNL A   1      39.302  29.811  33.068  1.00  0.00    -0.206 F 
ATOM     90  C   UNL A   1      36.315  31.765  32.480  1.00  0.00     0.022 A 
BRANCH  87  91
ATOM     91  S   UNL A   1      35.331  33.217  30.312  1.00  0.00     0.124 S 
ATOM     92  O   UNL A   1      34.470  32.297  29.579  1.00  0.00    -0.237 OA
ATOM     93  O   UNL A   1      34.721  33.897  31.451  1.00  0.00    -0.237 OA
ATOM     94  O   UNL A   1      36.204  34.049  29.486  1.00  0.00    -0.744 OA
ENDBRANCH  87  91
ENDBRANCH  60  84
BRANCH  72  95
ATOM     95  C   UNL A   1      44.627  33.964  29.602  1.00  0.00     0.023 A 
ATOM     96  C   UNL A   1      44.552  34.955  28.608  1.00  0.00     0.031 A 
ATOM     97  C   UNL A   1      45.210  34.302  30.836  1.00  0.00     0.131 A 
ATOM     98  C   UNL A   1      45.131  36.211  28.833  1.00  0.00     0.055 A 
ATOM     99  C   UNL A   1      45.716  35.579  31.079  1.00  0.00     0.041 A 
ATOM    100  F   UNL A   1      45.305  33.395  31.820  1.00  0.00    -0.206 F 
ATOM    101  C   UNL A   1      45.697  36.536  30.068  1.00  0.00     0.022 A 
BRANCH  98 102
ATOM    102  S   UNL A   1      45.251  37.366  27.441  1.00  0.00     0.124 S 
ATOM    103  O   UNL A   1      45.855  36.533  26.407  1.00  0.00    -0.237 OA
ATOM    104  O   UNL A   1      43.857  37.740  27.225  1.00  0.00    -0.237 OA
ATOM    105  O   UNL A   1      46.107  38.434  27.955  1.00  0.00    -0.744 OA
ENDBRANCH  98 102
ENDBRANCH  72  95
ENDBRANCH  46  47
ENDBRANCH  38  41
ENDBRANCH  36  37
ENDBRANCH  35  36
ENDBRANCH   1  35
TORSDOF 18
ENDMDL
MODEL 2
REMARK VINA RESULT:     -13.4      2.067      2.907
REMARK SMILES O=C(NC1(C(=O)NCCCCNC(=O)c2ccc(-c3c4nc(c(-c5cc(S(=O)(=O)[O-])ccc5F)c5ccc([nH]5)c(-c5cc(S(=O)(=O)[O-])ccc5F)c5nc(c(-c6cc(S(=O)(=O)[O-])ccc6F)c6ccc3[nH]6)C=C5)C=C4)cc2)Cc2ccccc2C1)OCC1c2ccccc2-c2ccccc21
REMARK SMILES IDX 9 1 8 2 7 3 5 4 6 5 4 7 78 8 85 9 79 10 84 11 80 12 83 13
REMARK SMILES IDX 81 14 82 15 3 16 1 17 2 18 86 20 87 21 88 22 89 23 100 24
REMARK SMILES IDX 90 25 94 26 95 27 99 28 91 29 93 30 96 31 98 32 92 33 97 34
REMARK SMILES IDX 10 35 11 36 12 37 13 38 14 40 15 41 16 42 77 43 17 44 76 45
REMARK SMILES IDX 18 46 19 47 20 48 70 49 21 50 75 51 69 52 71 53 22 54 74 55
REMARK SMILES IDX 68 56 67 57 23 59 55 60 35 61 54 62 36 63 39 64 53 65 72 66
REMARK SMILES IDX 37 67 38 68 52 70 73 71 40 72 24 73 25 74 33 75 26 76 32 77
REMARK SMILES IDX 34 78 31 79 27 80 28 81 29 82 30 83 56 84 57 85 65 86 58 87
REMARK SMILES IDX 64 88 66 89 63 90 59 91 60 92 61 93 62 94 41 95 42 96 50 97
REMARK SMILES IDX 43 98 49 99 51 100 48 101 44 102 45 103 46 104 47 105
REMARK H PARENT 7 6 3 19 12 39 71 58 39 69
REMARK Flexibility Score: inf
ROOT
ATOM      1  C   UNL A   1      35.441  21.382  25.855  1.00  0.00     0.023 C 
ENDROOT
BRANCH   1   2
ATOM      2  C   UNL A   1      33.975  21.009  25.994  1.00  0.00     0.116 C 
BRANCH   2   3
ATOM      3  N   UNL A   1      33.329  20.825  24.716  1.00  0.00    -0.354 N 
ATOM      4  C   UNL A   1      32.532  21.635  23.976  1.00  0.00     0.246 C 
ATOM      5  O   UNL A   1      32.346  21.232  22.816  1.00  0.00    -0.272 OA
ATOM      6  H   UNL A   1      33.499  19.947  24.306  1.00  0.00     0.163 HD
BRANCH   4   7
ATOM      7  C   UNL A   1      31.936  23.013  24.458  1.00  0.00     0.130 C 
ATOM      8  C   UNL A   1      31.062  23.669  23.345  1.00  0.00     0.075 C 
ATOM      9  C   UNL A   1      32.961  24.103  24.871  1.00  0.00     0.075 C 
ATOM     10  C   UNL A   1      31.905  24.822  22.867  1.00  0.00    -0.042 A 
ATOM     11  C   UNL A   1      32.964  25.063  23.738  1.00  0.00    -0.042 A 
ATOM     12  C   UNL A   1      31.816  25.528  21.679  1.00  0.00     0.004 A 
ATOM     13  C   UNL A   1      33.926  26.027  23.489  1.00  0.00     0.004 A 
ATOM     14  C   UNL A   1      32.816  26.465  21.384  1.00  0.00     0.000 A 
ATOM     15  C   UNL A   1      33.859  26.721  22.287  1.00  0.00     0.000 A 
BRANCH   7  16
ATOM     16  N   UNL A   1      31.119  22.652  25.643  1.00  0.00    -0.306 N 
ATOM     17  O   UNL A   1      30.026  23.225  27.548  1.00  0.00    -0.225 OA
ATOM     18  C   UNL A   1      30.665  23.559  26.573  1.00  0.00     0.408 C 
ATOM     19  H   UNL A   1      30.887  21.704  25.771  1.00  0.00     0.168 HD
BRANCH  18  20
ATOM     20  O   UNL A   1      30.965  24.841  26.226  1.00  0.00    -0.449 OA
BRANCH  20  21
ATOM     21  C   UNL A   1      29.884  25.633  25.729  1.00  0.00     0.248 C 
BRANCH  21  22
ATOM     22  C   UNL A   1      30.210  27.143  25.725  1.00  0.00     0.088 C 
ATOM     23  C   UNL A   1      31.647  27.623  25.939  1.00  0.00    -0.029 A 
ATOM     24  C   UNL A   1      29.864  27.815  24.395  1.00  0.00    -0.029 A 
ATOM     25  C   UNL A   1      32.492  27.416  27.018  1.00  0.00     0.005 A 
ATOM     26  C   UNL A   1      32.022  28.506  24.893  1.00  0.00    -0.014 A 
ATOM     27  C   UNL A   1      30.961  28.555  23.914  1.00  0.00    -0.014 A 
ATOM     28  C   UNL A   1      28.658  27.799  23.714  1.00  0.00     0.005 A 
ATOM     29  C   UNL A   1      33.679  28.158  27.079  1.00  0.00     0.000 A 
ATOM     30  C   UNL A   1      33.201  29.231  24.949  1.00  0.00     0.009 A 
ATOM     31  C   UNL A   1      30.896  29.196  22.687  1.00  0.00     0.009 A 
ATOM     32  C   UNL A   1      28.584  28.461  22.489  1.00  0.00     0.000 A 
ATOM     33  C   UNL A   1      34.016  29.075  26.068  1.00  0.00     0.001 A 
ATOM     34  C   UNL A   1      29.700  29.131  21.966  1.00  0.00     0.001 A 
ENDBRANCH  21  22
ENDBRANCH  20  21
ENDBRANCH  18  20
ENDBRANCH   7  16
ENDBRANCH   4   7
ENDBRANCH   2   3
ENDBRANCH   1   2
BRANCH   1  35
ATOM     35  C   UNL A   1      35.703  22.847  26.155  1.00  0.00     0.023 C 
BRANCH  35  36
ATOM     36  C   UNL A   1      37.110  23.293  25.818  1.00  0.00     0.116 C 
BRANCH  36  37
ATOM     37  N   UNL A   1      38.088  22.226  25.979  1.00  0.00    -0.352 N 
ATOM     38  C   UNL A   1      39.410  22.309  26.350  1.00  0.00     0.251 C 
ATOM     39  H   UNL A   1      37.757  21.317  25.796  1.00  0.00     0.163 HD
ATOM     40  O   UNL A   1      40.134  21.323  26.253  1.00  0.00    -0.269 OA
BRANCH  38  41
ATOM     41  C   UNL A   1      39.952  23.603  26.822  1.00  0.00     0.039 A 
ATOM     42  C   UNL A   1      39.977  24.693  25.953  1.00  0.00     0.014 A 
ATOM     43  C   UNL A   1      40.391  23.750  28.139  1.00  0.00     0.014 A 
ATOM     44  C   UNL A   1      40.385  25.940  26.430  1.00  0.00     0.010 A 
ATOM     45  C   UNL A   1      40.634  25.016  28.649  1.00  0.00     0.010 A 
ATOM     46  C   UNL A   1      40.676  26.123  27.794  1.00  0.00    -0.014 A 
BRANCH  46  47
ATOM     47  C   UNL A   1      41.084  27.446  28.332  1.00  0.00     0.031 A 
ATOM     48  C   UNL A   1      42.548  27.811  28.393  1.00  0.00     0.074 A 
ATOM     49  C   UNL A   1      40.147  28.295  28.801  1.00  0.00     0.049 A 
ATOM     50  N   UNL A   1      43.114  28.890  28.868  1.00  0.00    -0.248 NA
ATOM     51  C   UNL A   1      43.508  26.807  27.903  1.00  0.00     0.031 C 
ATOM     52  C   UNL A   1      38.710  28.014  28.876  1.00  0.00     0.029 A 
ATOM     53  N   UNL A   1      40.258  29.568  29.296  1.00  0.00    -0.354 N 
ATOM     54  C   UNL A   1      44.485  28.681  28.752  1.00  0.00     0.074 A 
ATOM     55  C   UNL A   1      44.667  27.336  28.259  1.00  0.00     0.031 C 
ATOM     56  C   UNL A   1      38.071  29.103  29.331  1.00  0.00     0.029 A 
ATOM     57  C   UNL A   1      39.050  30.142  29.623  1.00  0.00     0.049 A 
ATOM     58  H   UNL A   1      41.120  30.029  29.407  1.00  0.00     0.167 HD
ATOM     59  C   UNL A   1      45.502  29.547  28.985  1.00  0.00     0.034 A 
ATOM     60  C   UNL A   1      38.769  31.371  30.098  1.00  0.00     0.034 A 
ATOM     61  C   UNL A   1      45.298  30.900  29.434  1.00  0.00     0.049 A 
ATOM     62  C   UNL A   1      39.911  32.334  30.304  1.00  0.00     0.074 A 
ATOM     63  C   UNL A   1      46.239  31.888  29.662  1.00  0.00     0.029 A 
ATOM     64  N   UNL A   1      44.058  31.461  29.713  1.00  0.00    -0.354 N 
ATOM     65  N   UNL A   1      41.200  32.136  30.133  1.00  0.00    -0.248 NA
ATOM     66  C   UNL A   1      39.561  33.689  30.742  1.00  0.00     0.031 C 
ATOM     67  C   UNL A   1      45.574  33.028  30.126  1.00  0.00     0.029 A 
ATOM     68  C   UNL A   1      44.211  32.776  30.122  1.00  0.00     0.049 A 
ATOM     69  H   UNL A   1      43.196  30.992  29.632  1.00  0.00     0.167 HD
ATOM     70  C   UNL A   1      41.810  33.351  30.427  1.00  0.00     0.074 A 
ATOM     71  C   UNL A   1      40.744  34.282  30.742  1.00  0.00     0.031 C 
ATOM     72  C   UNL A   1      43.130  33.675  30.447  1.00  0.00     0.034 A 
BRANCH  59  73
ATOM     73  C   UNL A   1      46.910  29.049  28.748  1.00  0.00     0.023 A 
ATOM     74  C   UNL A   1      47.444  28.938  27.451  1.00  0.00     0.031 A 
ATOM     75  C   UNL A   1      47.718  28.644  29.824  1.00  0.00     0.131 A 
ATOM     76  C   UNL A   1      48.708  28.364  27.257  1.00  0.00     0.055 A 
ATOM     77  C   UNL A   1      49.012  28.154  29.630  1.00  0.00     0.041 A 
ATOM     78  F   UNL A   1      47.259  28.702  31.084  1.00  0.00    -0.206 F 
ATOM     79  C   UNL A   1      49.508  27.997  28.339  1.00  0.00     0.022 A 
BRANCH  76  80
ATOM     80  S   UNL A   1      49.230  27.972  25.564  1.00  0.00     0.124 S 
ATOM     81  O   UNL A   1      50.267  28.977  25.337  1.00  0.00    -0.237 OA
ATOM     82  O   UNL A   1      49.691  26.594  25.685  1.00  0.00    -0.237 OA
ATOM     83  O   UNL A   1      48.012  28.156  24.778  1.00  0.00    -0.744 OA
ENDBRANCH  76  80
ENDBRANCH  59  73
BRANCH  60  84
ATOM     84  C   UNL A   1      37.363  31.771  30.397  1.00  0.00     0.023 A 
ATOM     85  C   UNL A   1      36.484  32.164  29.375  1.00  0.00     0.031 A 
ATOM     86  C   UNL A   1      36.888  31.811  31.721  1.00  0.00     0.131 A 
ATOM     87  C   UNL A   1      35.201  32.637  29.694  1.00  0.00     0.055 A 
ATOM     88  C   UNL A   1      35.591  32.227  32.029  1.00  0.00     0.041 A 
ATOM     89  F   UNL A   1      37.681  31.438  32.738  1.00  0.00    -0.206 F 
ATOM     90  C   UNL A   1      34.744  32.659  31.014  1.00  0.00     0.022 A 
BRANCH  87  91
ATOM     91  S   UNL A   1      34.172  33.322  28.367  1.00  0.00     0.124 S 
ATOM     92  O   UNL A   1      35.158  34.034  27.562  1.00  0.00    -0.237 OA
ATOM     93  O   UNL A   1      33.607  32.116  27.770  1.00  0.00    -0.237 OA
ATOM     94  O   UNL A   1      33.218  34.169  29.079  1.00  0.00    -0.744 OA
ENDBRANCH  87  91
ENDBRANCH  60  84
BRANCH  72  95
ATOM     95  C   UNL A   1      43.468  35.102  30.803  1.00  0.00     0.023 A 
ATOM     96  C   UNL A   1      43.615  35.506  32.140  1.00  0.00     0.031 A 
ATOM     97  C   UNL A   1      43.598  36.074  29.796  1.00  0.00     0.131 A 
ATOM     98  C   UNL A   1      43.796  36.862  32.442  1.00  0.00     0.055 A 
ATOM     99  C   UNL A   1      43.855  37.411  30.101  1.00  0.00     0.041 A 
ATOM    100  F   UNL A   1      43.469  35.742  28.502  1.00  0.00    -0.206 F 
ATOM    101  C   UNL A   1      43.935  37.816  31.430  1.00  0.00     0.022 A 
BRANCH  98 102
ATOM    102  S   UNL A   1      43.714  37.379  34.178  1.00  0.00     0.124 S 
ATOM    103  O   UNL A   1      44.355  36.259  34.858  1.00  0.00    -0.237 OA
ATOM    104  O   UNL A   1      44.463  38.631  34.166  1.00  0.00    -0.237 OA
ATOM    105  O   UNL A   1      42.280  37.516  34.427  1.00  0.00    -0.744 OA
ENDBRANCH  98 102
ENDBRANCH  72  95
ENDBRANCH  46  47
ENDBRANCH  38  41
ENDBRANCH  36  37
ENDBRANCH  35  36
ENDBRANCH   1  35
TORSDOF 18
ENDMDL
MODEL 3
REMARK VINA RESULT:     -13.4      1.040      7.332
REMARK SMILES O=C(NC1(C(=O)NCCCCNC(=O)c2ccc(-c3c4nc(c(-c5cc(S(=O)(=O)[O-])ccc5F)c5ccc([nH]5)c(-c5cc(S(=O)(=O)[O-])ccc5F)c5nc(c(-c6cc(S(=O)(=O)[O-])ccc6F)c6ccc3[nH]6)C=C5)C=C4)cc2)Cc2ccccc2C1)OCC1c2ccccc2-c2ccccc21
REMARK SMILES IDX 9 1 8 2 7 3 5 4 6 5 4 7 78 8 85 9 79 10 84 11 80 12 83 13
REMARK SMILES IDX 81 14 82 15 3 16 1 17 2 18 86 20 87 21 88 22 89 23 100 24
REMARK SMILES IDX 90 25 94 26 95 27 99 28 91 29 93 30 96 31 98 32 92 33 97 34
REMARK SMILES IDX 10 35 11 36 12 37 13 38 14 40 15 41 16 42 77 43 17 44 76 45
REMARK SMILES IDX 18 46 19 47 20 48 70 49 21 50 75 51 69 52 71 53 22 54 74 55
REMARK SMILES IDX 68 56 67 57 23 59 55 60 35 61 54 62 36 63 39 64 53 65 72 66
REMARK SMILES IDX 37 67 38 68 52 70 73 71 40 72 24 73 25 74 33 75 26 76 32 77
REMARK SMILES IDX 34 78 31 79 27 80 28 81 29 82 30 83 56 84 57 85 65 86 58 87
REMARK SMILES IDX 64 88 66 89 63 90 59 91 60 92 61 93 62 94 41 95 42 96 50 97
REMARK SMILES IDX 43 98 49 99 51 100 48 101 44 102 45 103 46 104 47 105
REMARK H PARENT 7 6 3 19 12 39 71 58 39 69
REMARK Flexibility Score: inf
ROOT
ATOM      1  C   UNL A   1      35.178  20.516  25.373  1.00  0.00     0.023 C 
ENDROOT
BRANCH   1   2
ATOM      2  C   UNL A   1      33.677  20.618  25.582  1.00  0.00     0.116 C 
BRANCH   2   3
ATOM      3  N   UNL A   1      32.943  20.576  24.340  1.00  0.00    -0.354 N 
ATOM      4  C   UNL A   1      32.191  21.504  23.697  1.00  0.00     0.246 C 
ATOM      5  O   UNL A   1      31.898  21.192  22.531  1.00  0.00    -0.272 OA
ATOM      6  H   UNL A   1      32.999  19.713  23.872  1.00  0.00     0.163 HD
BRANCH   4   7
ATOM      7  C   UNL A   1      31.768  22.903  24.290  1.00  0.00     0.130 C 
ATOM      8  C   UNL A   1      30.904  23.708  23.271  1.00  0.00     0.075 C 
ATOM      9  C   UNL A   1      32.920  23.858  24.698  1.00  0.00     0.075 C 
ATOM     10  C   UNL A   1      31.833  24.800  22.806  1.00  0.00    -0.042 A 
ATOM     11  C   UNL A   1      32.958  24.881  23.622  1.00  0.00    -0.042 A 
ATOM     12  C   UNL A   1      31.750  25.582  21.667  1.00  0.00     0.004 A 
ATOM     13  C   UNL A   1      33.999  25.758  23.367  1.00  0.00     0.004 A 
ATOM     14  C   UNL A   1      32.823  26.432  21.362  1.00  0.00     0.000 A 
ATOM     15  C   UNL A   1      33.935  26.527  22.211  1.00  0.00     0.000 A 
BRANCH   7  16
ATOM     16  N   UNL A   1      30.986  22.553  25.502  1.00  0.00    -0.306 N 
ATOM     17  O   UNL A   1      29.978  23.137  27.450  1.00  0.00    -0.225 OA
ATOM     18  C   UNL A   1      30.590  23.463  26.455  1.00  0.00     0.408 C 
ATOM     19  H   UNL A   1      30.735  21.610  25.632  1.00  0.00     0.168 HD
BRANCH  18  20
ATOM     20  O   UNL A   1      30.909  24.740  26.106  1.00  0.00    -0.449 OA
BRANCH  20  21
ATOM     21  C   UNL A   1      29.822  25.580  25.712  1.00  0.00     0.248 C 
BRANCH  21  22
ATOM     22  C   UNL A   1      30.207  27.077  25.697  1.00  0.00     0.088 C 
ATOM     23  C   UNL A   1      31.671  27.498  25.832  1.00  0.00    -0.029 A 
ATOM     24  C   UNL A   1      29.814  27.770  24.391  1.00  0.00    -0.029 A 
ATOM     25  C   UNL A   1      32.566  27.252  26.861  1.00  0.00     0.005 A 
ATOM     26  C   UNL A   1      32.021  28.373  24.771  1.00  0.00    -0.014 A 
ATOM     27  C   UNL A   1      30.910  28.471  23.853  1.00  0.00    -0.014 A 
ATOM     28  C   UNL A   1      28.572  27.806  23.779  1.00  0.00     0.005 A 
ATOM     29  C   UNL A   1      33.783  27.946  26.859  1.00  0.00     0.000 A 
ATOM     30  C   UNL A   1      33.230  29.052  24.764  1.00  0.00     0.009 A 
ATOM     31  C   UNL A   1      30.802  29.123  22.634  1.00  0.00     0.009 A 
ATOM     32  C   UNL A   1      28.455  28.479  22.563  1.00  0.00     0.000 A 
ATOM     33  C   UNL A   1      34.098  28.857  25.835  1.00  0.00     0.001 A 
ATOM     34  C   UNL A   1      29.567  29.109  21.982  1.00  0.00     0.001 A 
ENDBRANCH  21  22
ENDBRANCH  20  21
ENDBRANCH  18  20
ENDBRANCH   7  16
ENDBRANCH   4   7
ENDBRANCH   2   3
ENDBRANCH   1   2
BRANCH   1  35
ATOM     35  C   UNL A   1      35.812  21.850  25.018  1.00  0.00     0.023 C 
BRANCH  35  36
ATOM     36  C   UNL A   1      37.247  21.734  24.550  1.00  0.00     0.116 C 
BRANCH  36  37
ATOM     37  N   UNL A   1      37.946  20.613  25.162  1.00  0.00    -0.352 N 
ATOM     38  C   UNL A   1      39.090  20.615  25.925  1.00  0.00     0.251 C 
ATOM     39  H   UNL A   1      37.543  19.728  25.009  1.00  0.00     0.163 HD
ATOM     40  O   UNL A   1      39.640  19.554  26.202  1.00  0.00    -0.269 OA
BRANCH  38  41
ATOM     41  C   UNL A   1      39.667  21.905  26.365  1.00  0.00     0.039 A 
ATOM     42  C   UNL A   1      40.857  21.912  27.091  1.00  0.00     0.014 A 
ATOM     43  C   UNL A   1      39.056  23.111  26.016  1.00  0.00     0.014 A 
ATOM     44  C   UNL A   1      41.458  23.131  27.409  1.00  0.00     0.010 A 
ATOM     45  C   UNL A   1      39.737  24.307  26.188  1.00  0.00     0.010 A 
ATOM     46  C   UNL A   1      40.926  24.339  26.923  1.00  0.00    -0.014 A 
BRANCH  46  47
ATOM     47  C   UNL A   1      41.564  25.647  27.223  1.00  0.00     0.031 A 
ATOM     48  C   UNL A   1      40.829  26.662  28.067  1.00  0.00     0.074 A 
ATOM     49  C   UNL A   1      42.775  25.935  26.706  1.00  0.00     0.049 A 
ATOM     50  N   UNL A   1      41.187  27.875  28.403  1.00  0.00    -0.248 NA
ATOM     51  C   UNL A   1      39.491  26.284  28.553  1.00  0.00     0.031 C 
ATOM     52  C   UNL A   1      43.540  25.067  25.804  1.00  0.00     0.029 A 
ATOM     53  N   UNL A   1      43.582  27.031  26.868  1.00  0.00    -0.354 N 
ATOM     54  C   UNL A   1      40.114  28.402  29.116  1.00  0.00     0.074 A 
ATOM     55  C   UNL A   1      39.056  27.420  29.074  1.00  0.00     0.031 C 
ATOM     56  C   UNL A   1      44.725  25.640  25.542  1.00  0.00     0.029 A 
ATOM     57  C   UNL A   1      44.790  26.931  26.216  1.00  0.00     0.049 A 
ATOM     58  H   UNL A   1      43.321  27.817  27.401  1.00  0.00     0.167 HD
ATOM     59  C   UNL A   1      40.032  29.576  29.788  1.00  0.00     0.034 A 
ATOM     60  C   UNL A   1      45.832  27.783  26.176  1.00  0.00     0.034 A 
ATOM     61  C   UNL A   1      41.115  30.523  29.854  1.00  0.00     0.049 A 
ATOM     62  C   UNL A   1      45.738  29.062  26.970  1.00  0.00     0.074 A 
ATOM     63  C   UNL A   1      41.174  31.724  30.538  1.00  0.00     0.029 A 
ATOM     64  N   UNL A   1      42.340  30.368  29.217  1.00  0.00    -0.354 N 
ATOM     65  N   UNL A   1      44.735  29.518  27.687  1.00  0.00    -0.248 NA
ATOM     66  C   UNL A   1      46.922  29.926  26.970  1.00  0.00     0.031 C 
ATOM     67  C   UNL A   1      42.414  32.318  30.275  1.00  0.00     0.029 A 
ATOM     68  C   UNL A   1      43.157  31.456  29.483  1.00  0.00     0.049 A 
ATOM     69  H   UNL A   1      42.592  29.597  28.659  1.00  0.00     0.167 HD
ATOM     70  C   UNL A   1      45.178  30.716  28.237  1.00  0.00     0.074 A 
ATOM     71  C   UNL A   1      46.551  30.885  27.803  1.00  0.00     0.031 C 
ATOM     72  C   UNL A   1      44.515  31.606  29.022  1.00  0.00     0.034 A 
BRANCH  59  73
ATOM     73  C   UNL A   1      38.735  29.882  30.502  1.00  0.00     0.023 A 
ATOM     74  C   UNL A   1      37.737  30.677  29.909  1.00  0.00     0.031 A 
ATOM     75  C   UNL A   1      38.503  29.406  31.804  1.00  0.00     0.131 A 
ATOM     76  C   UNL A   1      36.597  31.038  30.642  1.00  0.00     0.055 A 
ATOM     77  C   UNL A   1      37.325  29.696  32.496  1.00  0.00     0.041 A 
ATOM     78  F   UNL A   1      39.425  28.661  32.434  1.00  0.00    -0.206 F 
ATOM     79  C   UNL A   1      36.370  30.530  31.921  1.00  0.00     0.022 A 
BRANCH  76  80
ATOM     80  S   UNL A   1      35.487  32.296  29.950  1.00  0.00     0.124 S 
ATOM     81  O   UNL A   1      36.384  33.442  29.825  1.00  0.00    -0.237 OA
ATOM     82  O   UNL A   1      35.053  31.683  28.700  1.00  0.00    -0.237 OA
ATOM     83  O   UNL A   1      34.449  32.435  30.970  1.00  0.00    -0.744 OA
ENDBRANCH  76  80
ENDBRANCH  59  73
BRANCH  60  84
ATOM     84  C   UNL A   1      47.051  27.462  25.377  1.00  0.00     0.023 A 
ATOM     85  C   UNL A   1      47.172  27.868  24.038  1.00  0.00     0.031 A 
ATOM     86  C   UNL A   1      48.098  26.702  25.928  1.00  0.00     0.131 A 
ATOM     87  C   UNL A   1      48.281  27.463  23.277  1.00  0.00     0.055 A 
ATOM     88  C   UNL A   1      49.227  26.350  25.185  1.00  0.00     0.041 A 
ATOM     89  F   UNL A   1      48.041  26.294  27.205  1.00  0.00    -0.206 F 
ATOM     90  C   UNL A   1      49.315  26.716  23.846  1.00  0.00     0.022 A 
BRANCH  87  91
ATOM     91  S   UNL A   1      48.301  27.837  21.503  1.00  0.00     0.124 S 
ATOM     92  O   UNL A   1      49.313  28.884  21.429  1.00  0.00    -0.237 OA
ATOM     93  O   UNL A   1      48.669  26.548  20.927  1.00  0.00    -0.237 OA
ATOM     94  O   UNL A   1      46.932  28.271  21.231  1.00  0.00    -0.744 OA
ENDBRANCH  87  91
ENDBRANCH  60  84
BRANCH  72  95
ATOM     95  C   UNL A   1      45.292  32.821  29.466  1.00  0.00     0.023 A 
ATOM     96  C   UNL A   1      45.308  33.999  28.699  1.00  0.00     0.031 A 
ATOM     97  C   UNL A   1      46.061  32.783  30.642  1.00  0.00     0.131 A 
ATOM     98  C   UNL A   1      46.143  35.060  29.070  1.00  0.00     0.055 A 
ATOM     99  C   UNL A   1      46.833  33.873  31.046  1.00  0.00     0.041 A 
ATOM    100  F   UNL A   1      46.081  31.684  31.412  1.00  0.00    -0.206 F 
ATOM    101  C   UNL A   1      46.893  35.012  30.248  1.00  0.00     0.022 A 
BRANCH  98 102
ATOM    102  S   UNL A   1      46.338  36.448  27.920  1.00  0.00     0.124 S 
ATOM    103  O   UNL A   1      46.803  37.511  28.805  1.00  0.00    -0.237 OA
ATOM    104  O   UNL A   1      47.320  35.931  26.972  1.00  0.00    -0.237 OA
ATOM    105  O   UNL A   1      44.993  36.636  27.380  1.00  0.00    -0.744 OA
ENDBRANCH  98 102
ENDBRANCH  72  95
ENDBRANCH  46  47
ENDBRANCH  38  41
ENDBRANCH  36  37
ENDBRANCH  35  36
ENDBRANCH   1  35
TORSDOF 18
ENDMDL
