MODEL 1
REMARK VINA RESULT:      -9.8      0.000      0.000
REMARK SMILES CCCC[C@@H](C)[NH2+]Cc1ccc(C(=O)NCCCCNC(=O)c2ccc(-c3c4nc(c(-c5cc(S(=O)(=O)[O-])ccc5F)c5ccc([nH]5)c(-c5cc(S(=O)(=O)[O-])ccc5F)c5nc(c(-c6cc(S(=O)(=O)[O-])ccc6F)c6ccc3[nH]6)C=C5)C=C4)cc2)cn1
REMARK SMILES IDX 16 1 15 2 13 3 14 4 12 6 9 7 10 8 87 9 11 10 86 11 8 12 7 13
REMARK SMILES IDX 5 16 6 17 4 18 3 19 2 20 1 21 17 22 18 23 19 24 20 25 21 26
REMARK SMILES IDX 22 28 23 29 24 30 85 31 25 32 84 33 26 34 27 35 28 36 78 37
REMARK SMILES IDX 29 38 83 39 77 40 79 41 30 42 82 43 76 44 75 45 31 47 63 48
REMARK SMILES IDX 43 49 62 50 44 51 47 52 61 53 80 54 45 55 46 56 60 58 81 59
REMARK SMILES IDX 48 60 32 61 33 62 41 63 34 64 40 65 42 66 39 67 35 68 36 69
REMARK SMILES IDX 37 70 38 71 64 72 65 73 73 74 66 75 72 76 74 77 71 78 67 79
REMARK SMILES IDX 68 80 69 81 70 82 49 83 50 84 58 85 51 86 57 87 59 88 56 89
REMARK SMILES IDX 52 90 53 91 54 92 55 93
REMARK H PARENT 15 5 7 14 7 15 20 27 79 46 47 57
REMARK Flexibility Score: inf
ROOT
ATOM      1  C   UNL A   1      35.750  21.466  25.814  1.00  0.00     0.116 C 
ENDROOT
BRANCH   1   2
ATOM      2  N   UNL A   1      34.740  20.476  25.506  1.00  0.00    -0.352 N 
ATOM      3  C   UNL A   1      33.374  20.470  25.610  1.00  0.00     0.252 C 
ATOM      4  O   UNL A   1      32.805  19.412  25.336  1.00  0.00    -0.269 OA
ATOM      5  H   UNL A   1      35.110  19.637  25.147  1.00  0.00     0.163 HD
BRANCH   3   6
ATOM      6  C   UNL A   1      32.541  21.655  25.955  1.00  0.00     0.058 A 
ATOM      7  C   UNL A   1      31.148  24.050  26.060  1.00  0.00     0.094 A 
ATOM      8  C   UNL A   1      31.947  23.679  27.137  1.00  0.00     0.030 A 
ATOM      9  N   UNL A   1      30.906  23.211  25.028  1.00  0.00    -0.255 NA
ATOM     10  C   UNL A   1      32.632  22.462  27.086  1.00  0.00     0.017 A 
ATOM     11  C   UNL A   1      31.610  22.049  24.995  1.00  0.00     0.125 A 
BRANCH   7  12
ATOM     12  C   UNL A   1      30.688  25.486  25.915  1.00  0.00     0.318 C 
BRANCH  12  13
ATOM     13  N   UNL A   1      31.417  26.444  26.770  1.00  0.00    -0.339 N 
ATOM     14  H   UNL A   1      30.731  27.007  27.272  1.00  0.00     0.346 HD
ATOM     15  H   UNL A   1      32.009  25.885  27.385  1.00  0.00     0.346 HD
BRANCH  13  16
ATOM     16  C   UNL A   1      32.322  27.361  26.047  1.00  0.00     0.179 C 
ATOM     17  C   UNL A   1      31.828  28.813  26.035  1.00  0.00     0.075 C 
BRANCH  16  18
ATOM     18  C   UNL A   1      32.419  26.829  24.598  1.00  0.00     0.065 C 
BRANCH  18  19
ATOM     19  C   UNL A   1      33.823  26.393  24.144  1.00  0.00     0.006 C 
BRANCH  19  20
ATOM     20  C   UNL A   1      34.285  25.028  24.661  1.00  0.00    -0.003 C 
ATOM     21  C   UNL A   1      34.568  24.035  23.545  1.00  0.00     0.004 C 
ENDBRANCH  19  20
ENDBRANCH  18  19
ENDBRANCH  16  18
ENDBRANCH  13  16
ENDBRANCH  12  13
ENDBRANCH   7  12
ENDBRANCH   3   6
ENDBRANCH   1   2
BRANCH   1  22
ATOM     22  C   UNL A   1      36.869  21.426  24.772  1.00  0.00     0.023 C 
BRANCH  22  23
ATOM     23  C   UNL A   1      37.828  20.242  24.941  1.00  0.00     0.023 C 
BRANCH  23  24
ATOM     24  C   UNL A   1      39.068  20.533  25.783  1.00  0.00     0.116 C 
BRANCH  24  25
ATOM     25  N   UNL A   1      39.986  19.409  25.858  1.00  0.00    -0.352 N 
ATOM     26  C   UNL A   1      41.344  19.425  26.089  1.00  0.00     0.251 C 
ATOM     27  H   UNL A   1      39.585  18.519  25.726  1.00  0.00     0.163 HD
ATOM     28  O   UNL A   1      41.990  18.395  26.017  1.00  0.00    -0.269 OA
BRANCH  26  29
ATOM     29  C   UNL A   1      42.001  20.719  26.375  1.00  0.00     0.039 A 
ATOM     30  C   UNL A   1      42.261  21.586  25.311  1.00  0.00     0.014 A 
ATOM     31  C   UNL A   1      42.309  21.090  27.686  1.00  0.00     0.014 A 
ATOM     32  C   UNL A   1      42.769  22.860  25.572  1.00  0.00     0.010 A 
ATOM     33  C   UNL A   1      42.754  22.382  27.948  1.00  0.00     0.010 A 
ATOM     34  C   UNL A   1      42.983  23.280  26.895  1.00  0.00    -0.014 A 
BRANCH  34  35
ATOM     35  C   UNL A   1      43.438  24.661  27.199  1.00  0.00     0.031 A 
ATOM     36  C   UNL A   1      42.493  25.639  27.839  1.00  0.00     0.074 A 
ATOM     37  C   UNL A   1      44.675  25.049  26.830  1.00  0.00     0.049 A 
ATOM     38  N   UNL A   1      42.668  26.907  28.103  1.00  0.00    -0.248 NA
ATOM     39  C   UNL A   1      41.163  25.125  28.199  1.00  0.00     0.031 C 
ATOM     40  C   UNL A   1      45.664  24.200  26.161  1.00  0.00     0.029 A 
ATOM     41  N   UNL A   1      45.309  26.259  26.954  1.00  0.00    -0.354 N 
ATOM     42  C   UNL A   1      41.467  27.349  28.646  1.00  0.00     0.074 A 
ATOM     43  C   UNL A   1      40.554  26.225  28.616  1.00  0.00     0.031 C 
ATOM     44  C   UNL A   1      46.784  24.910  25.951  1.00  0.00     0.029 A 
ATOM     45  C   UNL A   1      46.581  26.273  26.432  1.00  0.00     0.049 A 
ATOM     46  H   UNL A   1      44.893  27.044  27.378  1.00  0.00     0.167 HD
ATOM     47  C   UNL A   1      41.161  28.574  29.145  1.00  0.00     0.034 A 
ATOM     48  C   UNL A   1      47.478  27.274  26.341  1.00  0.00     0.034 A 
ATOM     49  C   UNL A   1      42.089  29.678  29.180  1.00  0.00     0.049 A 
ATOM     50  C   UNL A   1      47.114  28.630  26.893  1.00  0.00     0.074 A 
ATOM     51  C   UNL A   1      41.907  30.942  29.712  1.00  0.00     0.029 A 
ATOM     52  N   UNL A   1      43.375  29.652  28.655  1.00  0.00    -0.354 N 
ATOM     53  N   UNL A   1      45.990  29.019  27.451  1.00  0.00    -0.248 NA
ATOM     54  C   UNL A   1      48.142  29.675  26.812  1.00  0.00     0.031 C 
ATOM     55  C   UNL A   1      43.057  31.698  29.455  1.00  0.00     0.029 A 
ATOM     56  C   UNL A   1      43.986  30.885  28.826  1.00  0.00     0.049 A 
ATOM     57  H   UNL A   1      43.793  28.871  28.223  1.00  0.00     0.167 HD
ATOM     58  C   UNL A   1      46.190  30.347  27.815  1.00  0.00     0.074 A 
ATOM     59  C   UNL A   1      47.544  30.686  27.425  1.00  0.00     0.031 C 
ATOM     60  C   UNL A   1      45.335  31.209  28.422  1.00  0.00     0.034 A 
BRANCH  47  61
ATOM     61  C   UNL A   1      39.760  28.776  29.669  1.00  0.00     0.023 A 
ATOM     62  C   UNL A   1      38.745  29.325  28.867  1.00  0.00     0.031 A 
ATOM     63  C   UNL A   1      39.442  28.452  31.000  1.00  0.00     0.131 A 
ATOM     64  C   UNL A   1      37.488  29.610  29.422  1.00  0.00     0.055 A 
ATOM     65  C   UNL A   1      38.163  28.660  31.523  1.00  0.00     0.041 A 
ATOM     66  F   UNL A   1      40.374  27.943  31.822  1.00  0.00    -0.206 F 
ATOM     67  C   UNL A   1      37.182  29.257  30.737  1.00  0.00     0.022 A 
BRANCH  64  68
ATOM     68  S   UNL A   1      36.312  30.583  28.443  1.00  0.00     0.124 S 
ATOM     69  O   UNL A   1      36.780  31.946  28.691  1.00  0.00    -0.237 OA
ATOM     70  O   UNL A   1      36.522  30.071  27.094  1.00  0.00    -0.237 OA
ATOM     71  O   UNL A   1      35.018  30.259  29.040  1.00  0.00    -0.744 OA
ENDBRANCH  64  68
ENDBRANCH  47  61
BRANCH  48  72
ATOM     72  C   UNL A   1      48.804  27.045  25.700  1.00  0.00     0.023 A 
ATOM     73  C   UNL A   1      49.901  26.595  26.451  1.00  0.00     0.031 A 
ATOM     74  C   UNL A   1      49.005  27.312  24.334  1.00  0.00     0.131 A 
ATOM     75  C   UNL A   1      51.160  26.468  25.845  1.00  0.00     0.055 A 
ATOM     76  C   UNL A   1      50.248  27.137  23.723  1.00  0.00     0.041 A 
ATOM     77  F   UNL A   1      47.987  27.736  23.568  1.00  0.00    -0.206 F 
ATOM     78  C   UNL A   1      51.338  26.725  24.484  1.00  0.00     0.022 A 
BRANCH  75  79
ATOM     79  S   UNL A   1      52.584  26.036  26.883  1.00  0.00     0.124 S 
ATOM     80  O   UNL A   1      52.020  26.147  28.223  1.00  0.00    -0.237 OA
ATOM     81  O   UNL A   1      52.893  24.686  26.425  1.00  0.00    -0.237 OA
ATOM     82  O   UNL A   1      53.577  27.051  26.537  1.00  0.00    -0.744 OA
ENDBRANCH  75  79
ENDBRANCH  48  72
BRANCH  60  83
ATOM     83  C   UNL A   1      45.863  32.585  28.740  1.00  0.00     0.023 A 
ATOM     84  C   UNL A   1      45.680  33.668  27.862  1.00  0.00     0.031 A 
ATOM     85  C   UNL A   1      46.568  32.810  29.934  1.00  0.00     0.131 A 
ATOM     86  C   UNL A   1      46.245  34.916  28.168  1.00  0.00     0.055 A 
ATOM     87  C   UNL A   1      47.078  34.068  30.259  1.00  0.00     0.041 A 
ATOM     88  F   UNL A   1      46.772  31.810  30.806  1.00  0.00    -0.206 F 
ATOM     89  C   UNL A   1      46.928  35.127  29.368  1.00  0.00     0.022 A 
BRANCH  86  90
ATOM     90  S   UNL A   1      46.144  36.244  26.935  1.00  0.00     0.124 S 
ATOM     91  O   UNL A   1      44.752  36.153  26.507  1.00  0.00    -0.237 OA
ATOM     92  O   UNL A   1      46.495  37.424  27.719  1.00  0.00    -0.237 OA
ATOM     93  O   UNL A   1      47.129  35.853  25.930  1.00  0.00    -0.744 OA
ENDBRANCH  86  90
ENDBRANCH  60  83
ENDBRANCH  34  35
ENDBRANCH  26  29
ENDBRANCH  24  25
ENDBRANCH  23  24
ENDBRANCH  22  23
ENDBRANCH   1  22
TORSDOF 20
ENDMDL
MODEL 2
REMARK VINA RESULT:      -9.7      2.668      8.562
REMARK SMILES CCCC[C@@H](C)[NH2+]Cc1ccc(C(=O)NCCCCNC(=O)c2ccc(-c3c4nc(c(-c5cc(S(=O)(=O)[O-])ccc5F)c5ccc([nH]5)c(-c5cc(S(=O)(=O)[O-])ccc5F)c5nc(c(-c6cc(S(=O)(=O)[O-])ccc6F)c6ccc3[nH]6)C=C5)C=C4)cc2)cn1
REMARK SMILES IDX 16 1 15 2 13 3 14 4 12 6 9 7 10 8 87 9 11 10 86 11 8 12 7 13
REMARK SMILES IDX 5 16 6 17 4 18 3 19 2 20 1 21 17 22 18 23 19 24 20 25 21 26
REMARK SMILES IDX 22 28 23 29 24 30 85 31 25 32 84 33 26 34 27 35 28 36 78 37
REMARK SMILES IDX 29 38 83 39 77 40 79 41 30 42 82 43 76 44 75 45 31 47 63 48
REMARK SMILES IDX 43 49 62 50 44 51 47 52 61 53 80 54 45 55 46 56 60 58 81 59
REMARK SMILES IDX 48 60 32 61 33 62 41 63 34 64 40 65 42 66 39 67 35 68 36 69
REMARK SMILES IDX 37 70 38 71 64 72 65 73 73 74 66 75 72 76 74 77 71 78 67 79
REMARK SMILES IDX 68 80 69 81 70 82 49 83 50 84 58 85 51 86 57 87 59 88 56 89
REMARK SMILES IDX 52 90 53 91 54 92 55 93
REMARK H PARENT 15 5 7 14 7 15 20 27 79 46 47 57
REMARK Flexibility Score: inf
ROOT
ATOM      1  C   UNL A   1      35.029  21.763  25.459  1.00  0.00     0.116 C 
ENDROOT
BRANCH   1   2
ATOM      2  N   UNL A   1      34.124  20.860  24.782  1.00  0.00    -0.352 N 
ATOM      3  C   UNL A   1      32.764  20.851  24.613  1.00  0.00     0.252 C 
ATOM      4  O   UNL A   1      32.286  19.868  24.042  1.00  0.00    -0.269 OA
ATOM      5  H   UNL A   1      34.577  20.097  24.355  1.00  0.00     0.163 HD
BRANCH   3   6
ATOM      6  C   UNL A   1      31.850  21.962  24.998  1.00  0.00     0.058 A 
ATOM      7  C   UNL A   1      30.591  24.374  25.527  1.00  0.00     0.094 A 
ATOM      8  C   UNL A   1      30.598  23.381  26.502  1.00  0.00     0.030 A 
ATOM      9  N   UNL A   1      31.044  24.148  24.274  1.00  0.00    -0.255 NA
ATOM     10  C   UNL A   1      31.218  22.160  26.222  1.00  0.00     0.017 A 
ATOM     11  C   UNL A   1      31.667  22.962  24.044  1.00  0.00     0.125 A 
BRANCH   7  12
ATOM     12  C   UNL A   1      30.261  25.804  25.902  1.00  0.00     0.318 C 
BRANCH  12  13
ATOM     13  N   UNL A   1      31.215  26.418  26.848  1.00  0.00    -0.339 N 
ATOM     14  H   UNL A   1      30.713  26.634  27.709  1.00  0.00     0.346 HD
ATOM     15  H   UNL A   1      31.965  25.738  26.977  1.00  0.00     0.346 HD
BRANCH  13  16
ATOM     16  C   UNL A   1      31.857  27.658  26.368  1.00  0.00     0.179 C 
ATOM     17  C   UNL A   1      31.700  28.835  27.338  1.00  0.00     0.075 C 
BRANCH  16  18
ATOM     18  C   UNL A   1      31.190  28.002  25.015  1.00  0.00     0.065 C 
BRANCH  18  19
ATOM     19  C   UNL A   1      31.820  29.176  24.245  1.00  0.00     0.006 C 
BRANCH  19  20
ATOM     20  C   UNL A   1      33.344  29.130  24.111  1.00  0.00    -0.003 C 
ATOM     21  C   UNL A   1      33.821  28.102  23.097  1.00  0.00     0.004 C 
ENDBRANCH  19  20
ENDBRANCH  18  19
ENDBRANCH  16  18
ENDBRANCH  13  16
ENDBRANCH  12  13
ENDBRANCH   7  12
ENDBRANCH   3   6
ENDBRANCH   1   2
BRANCH   1  22
ATOM     22  C   UNL A   1      35.292  22.998  24.597  1.00  0.00     0.023 C 
BRANCH  22  23
ATOM     23  C   UNL A   1      36.732  23.517  24.684  1.00  0.00     0.023 C 
BRANCH  23  24
ATOM     24  C   UNL A   1      37.373  23.405  26.065  1.00  0.00     0.116 C 
BRANCH  24  25
ATOM     25  N   UNL A   1      38.353  22.335  26.156  1.00  0.00    -0.352 N 
ATOM     26  C   UNL A   1      39.686  22.421  26.494  1.00  0.00     0.251 C 
ATOM     27  H   UNL A   1      38.021  21.431  25.951  1.00  0.00     0.163 HD
ATOM     28  O   UNL A   1      40.400  21.436  26.421  1.00  0.00    -0.269 OA
BRANCH  26  29
ATOM     29  C   UNL A   1      40.235  23.734  26.892  1.00  0.00     0.039 A 
ATOM     30  C   UNL A   1      40.274  24.759  25.944  1.00  0.00     0.014 A 
ATOM     31  C   UNL A   1      40.660  23.963  28.203  1.00  0.00     0.014 A 
ATOM     32  C   UNL A   1      40.676  26.038  26.331  1.00  0.00     0.010 A 
ATOM     33  C   UNL A   1      40.999  25.252  28.601  1.00  0.00     0.010 A 
ATOM     34  C   UNL A   1      41.004  26.303  27.671  1.00  0.00    -0.014 A 
BRANCH  34  35
ATOM     35  C   UNL A   1      41.349  27.675  28.121  1.00  0.00     0.031 A 
ATOM     36  C   UNL A   1      42.787  28.113  28.160  1.00  0.00     0.074 A 
ATOM     37  C   UNL A   1      40.374  28.494  28.562  1.00  0.00     0.049 A 
ATOM     38  N   UNL A   1      43.299  29.231  28.602  1.00  0.00    -0.248 NA
ATOM     39  C   UNL A   1      43.779  27.147  27.666  1.00  0.00     0.031 C 
ATOM     40  C   UNL A   1      38.948  28.162  28.614  1.00  0.00     0.029 A 
ATOM     41  N   UNL A   1      40.434  29.771  29.063  1.00  0.00    -0.354 N 
ATOM     42  C   UNL A   1      44.675  29.101  28.453  1.00  0.00     0.074 A 
ATOM     43  C   UNL A   1      44.917  27.770  27.937  1.00  0.00     0.031 C 
ATOM     44  C   UNL A   1      38.268  29.213  29.099  1.00  0.00     0.029 A 
ATOM     45  C   UNL A   1      39.209  30.278  29.432  1.00  0.00     0.049 A 
ATOM     46  H   UNL A   1      41.274  30.277  29.148  1.00  0.00     0.167 HD
ATOM     47  C   UNL A   1      45.646  30.016  28.703  1.00  0.00     0.034 A 
ATOM     48  C   UNL A   1      38.885  31.462  29.986  1.00  0.00     0.034 A 
ATOM     49  C   UNL A   1      45.385  31.343  29.204  1.00  0.00     0.049 A 
ATOM     50  C   UNL A   1      39.980  32.460  30.265  1.00  0.00     0.074 A 
ATOM     51  C   UNL A   1      46.283  32.369  29.440  1.00  0.00     0.029 A 
ATOM     52  N   UNL A   1      44.131  31.828  29.554  1.00  0.00    -0.354 N 
ATOM     53  N   UNL A   1      41.274  32.340  30.070  1.00  0.00    -0.248 NA
ATOM     54  C   UNL A   1      39.571  33.754  30.826  1.00  0.00     0.031 C 
ATOM     55  C   UNL A   1      45.583  33.450  29.987  1.00  0.00     0.029 A 
ATOM     56  C   UNL A   1      44.236  33.127  30.028  1.00  0.00     0.049 A 
ATOM     57  H   UNL A   1      43.289  31.322  29.477  1.00  0.00     0.167 HD
ATOM     58  C   UNL A   1      41.828  33.557  30.458  1.00  0.00     0.074 A 
ATOM     59  C   UNL A   1      40.727  34.398  30.883  1.00  0.00     0.031 C 
ATOM     60  C   UNL A   1      43.128  33.948  30.457  1.00  0.00     0.034 A 
BRANCH  47  61
ATOM     61  C   UNL A   1      47.074  29.593  28.455  1.00  0.00     0.023 A 
ATOM     62  C   UNL A   1      47.858  29.016  29.469  1.00  0.00     0.031 A 
ATOM     63  C   UNL A   1      47.673  29.803  27.200  1.00  0.00     0.131 A 
ATOM     64  C   UNL A   1      49.216  28.746  29.238  1.00  0.00     0.055 A 
ATOM     65  C   UNL A   1      49.003  29.453  26.952  1.00  0.00     0.041 A 
ATOM     66  F   UNL A   1      46.982  30.368  26.198  1.00  0.00    -0.206 F 
ATOM     67  C   UNL A   1      49.787  28.936  27.979  1.00  0.00     0.022 A 
BRANCH  64  68
ATOM     68  S   UNL A   1      50.257  28.284  30.650  1.00  0.00     0.124 S 
ATOM     69  O   UNL A   1      49.737  29.160  31.698  1.00  0.00    -0.237 OA
ATOM     70  O   UNL A   1      49.969  26.863  30.804  1.00  0.00    -0.237 OA
ATOM     71  O   UNL A   1      51.609  28.602  30.197  1.00  0.00    -0.744 OA
ENDBRANCH  64  68
ENDBRANCH  47  61
BRANCH  48  72
ATOM     72  C   UNL A   1      37.467  31.775  30.323  1.00  0.00     0.023 A 
ATOM     73  C   UNL A   1      36.568  32.204  29.334  1.00  0.00     0.031 A 
ATOM     74  C   UNL A   1      37.000  31.690  31.646  1.00  0.00     0.131 A 
ATOM     75  C   UNL A   1      35.262  32.574  29.688  1.00  0.00     0.055 A 
ATOM     76  C   UNL A   1      35.685  32.013  31.987  1.00  0.00     0.041 A 
ATOM     77  F   UNL A   1      37.817  31.278  32.629  1.00  0.00    -0.206 F 
ATOM     78  C   UNL A   1      34.811  32.471  31.006  1.00  0.00     0.022 A 
BRANCH  75  79
ATOM     79  S   UNL A   1      34.180  33.272  28.409  1.00  0.00     0.124 S 
ATOM     80  O   UNL A   1      35.136  33.972  27.560  1.00  0.00    -0.237 OA
ATOM     81  O   UNL A   1      33.574  32.073  27.841  1.00  0.00    -0.237 OA
ATOM     82  O   UNL A   1      33.269  34.129  29.165  1.00  0.00    -0.744 OA
ENDBRANCH  75  79
ENDBRANCH  48  72
BRANCH  60  83
ATOM     83  C   UNL A   1      43.416  35.364  30.889  1.00  0.00     0.023 A 
ATOM     84  C   UNL A   1      43.483  36.420  29.963  1.00  0.00     0.031 A 
ATOM     85  C   UNL A   1      43.637  35.656  32.246  1.00  0.00     0.131 A 
ATOM     86  C   UNL A   1      43.818  37.710  30.401  1.00  0.00     0.055 A 
ATOM     87  C   UNL A   1      43.914  36.952  32.682  1.00  0.00     0.041 A 
ATOM     88  F   UNL A   1      43.586  34.684  33.171  1.00  0.00    -0.206 F 
ATOM     89  C   UNL A   1      44.018  37.987  31.756  1.00  0.00     0.022 A 
BRANCH  86  90
ATOM     90  S   UNL A   1      44.071  39.012  29.163  1.00  0.00     0.124 S 
ATOM     91  O   UNL A   1      43.411  38.447  27.991  1.00  0.00    -0.237 OA
ATOM     92  O   UNL A   1      43.409  40.159  29.777  1.00  0.00    -0.237 OA
ATOM     93  O   UNL A   1      45.526  39.115  29.066  1.00  0.00    -0.744 OA
ENDBRANCH  86  90
ENDBRANCH  60  83
ENDBRANCH  34  35
ENDBRANCH  26  29
ENDBRANCH  24  25
ENDBRANCH  23  24
ENDBRANCH  22  23
ENDBRANCH   1  22
TORSDOF 20
ENDMDL
MODEL 3
REMARK VINA RESULT:      -9.6      3.157      8.663
REMARK SMILES CCCC[C@@H](C)[NH2+]Cc1ccc(C(=O)NCCCCNC(=O)c2ccc(-c3c4nc(c(-c5cc(S(=O)(=O)[O-])ccc5F)c5ccc([nH]5)c(-c5cc(S(=O)(=O)[O-])ccc5F)c5nc(c(-c6cc(S(=O)(=O)[O-])ccc6F)c6ccc3[nH]6)C=C5)C=C4)cc2)cn1
REMARK SMILES IDX 16 1 15 2 13 3 14 4 12 6 9 7 10 8 87 9 11 10 86 11 8 12 7 13
REMARK SMILES IDX 5 16 6 17 4 18 3 19 2 20 1 21 17 22 18 23 19 24 20 25 21 26
REMARK SMILES IDX 22 28 23 29 24 30 85 31 25 32 84 33 26 34 27 35 28 36 78 37
REMARK SMILES IDX 29 38 83 39 77 40 79 41 30 42 82 43 76 44 75 45 31 47 63 48
REMARK SMILES IDX 43 49 62 50 44 51 47 52 61 53 80 54 45 55 46 56 60 58 81 59
REMARK SMILES IDX 48 60 32 61 33 62 41 63 34 64 40 65 42 66 39 67 35 68 36 69
REMARK SMILES IDX 37 70 38 71 64 72 65 73 73 74 66 75 72 76 74 77 71 78 67 79
REMARK SMILES IDX 68 80 69 81 70 82 49 83 50 84 58 85 51 86 57 87 59 88 56 89
REMARK SMILES IDX 52 90 53 91 54 92 55 93
REMARK H PARENT 15 5 7 14 7 15 20 27 79 46 47 57
REMARK Flexibility Score: inf
ROOT
ATOM      1  C   UNL A   1      35.425  21.653  25.913  1.00  0.00     0.116 C 
ENDROOT
BRANCH   1   2
ATOM      2  N   UNL A   1      34.618  20.472  25.693  1.00  0.00    -0.352 N 
ATOM      3  C   UNL A   1      33.304  20.289  25.347  1.00  0.00     0.252 C 
ATOM      4  O   UNL A   1      32.898  19.125  25.324  1.00  0.00    -0.269 OA
ATOM      5  H   UNL A   1      35.112  19.630  25.815  1.00  0.00     0.163 HD
BRANCH   3   6
ATOM      6  C   UNL A   1      32.372  21.374  24.934  1.00  0.00     0.058 A 
ATOM      7  C   UNL A   1      31.103  23.592  23.861  1.00  0.00     0.094 A 
ATOM      8  C   UNL A   1      30.983  23.331  25.222  1.00  0.00     0.030 A 
ATOM      9  N   UNL A   1      31.690  22.717  23.014  1.00  0.00    -0.255 NA
ATOM     10  C   UNL A   1      31.609  22.201  25.754  1.00  0.00     0.017 A 
ATOM     11  C   UNL A   1      32.315  21.644  23.568  1.00  0.00     0.125 A 
BRANCH   7  12
ATOM     12  C   UNL A   1      30.757  24.963  23.317  1.00  0.00     0.318 C 
BRANCH  12  13
ATOM     13  N   UNL A   1      30.667  26.018  24.347  1.00  0.00    -0.339 N 
ATOM     14  H   UNL A   1      29.703  26.349  24.377  1.00  0.00     0.346 HD
ATOM     15  H   UNL A   1      30.975  25.590  25.221  1.00  0.00     0.346 HD
BRANCH  13  16
ATOM     16  C   UNL A   1      31.546  27.183  24.124  1.00  0.00     0.179 C 
ATOM     17  C   UNL A   1      32.554  27.406  25.258  1.00  0.00     0.075 C 
BRANCH  16  18
ATOM     18  C   UNL A   1      30.619  28.415  23.998  1.00  0.00     0.065 C 
BRANCH  18  19
ATOM     19  C   UNL A   1      29.804  28.502  22.696  1.00  0.00     0.006 C 
BRANCH  19  20
ATOM     20  C   UNL A   1      28.407  29.111  22.837  1.00  0.00    -0.003 C 
ATOM     21  C   UNL A   1      28.435  30.579  23.230  1.00  0.00     0.004 C 
ENDBRANCH  19  20
ENDBRANCH  18  19
ENDBRANCH  16  18
ENDBRANCH  13  16
ENDBRANCH  12  13
ENDBRANCH   7  12
ENDBRANCH   3   6
ENDBRANCH   1   2
BRANCH   1  22
ATOM     22  C   UNL A   1      35.925  22.211  24.580  1.00  0.00     0.023 C 
BRANCH  22  23
ATOM     23  C   UNL A   1      37.449  22.362  24.506  1.00  0.00     0.023 C 
BRANCH  23  24
ATOM     24  C   UNL A   1      38.163  22.345  25.856  1.00  0.00     0.116 C 
BRANCH  24  25
ATOM     25  N   UNL A   1      39.443  21.657  25.817  1.00  0.00    -0.352 N 
ATOM     26  C   UNL A   1      40.687  22.144  26.152  1.00  0.00     0.251 C 
ATOM     27  H   UNL A   1      39.418  20.721  25.513  1.00  0.00     0.163 HD
ATOM     28  O   UNL A   1      41.682  21.466  25.963  1.00  0.00    -0.269 OA
BRANCH  26  29
ATOM     29  C   UNL A   1      40.792  23.517  26.693  1.00  0.00     0.039 A 
ATOM     30  C   UNL A   1      41.030  23.681  28.059  1.00  0.00     0.014 A 
ATOM     31  C   UNL A   1      40.706  24.626  25.848  1.00  0.00     0.014 A 
ATOM     32  C   UNL A   1      41.251  24.961  28.569  1.00  0.00     0.010 A 
ATOM     33  C   UNL A   1      40.990  25.893  26.347  1.00  0.00     0.010 A 
ATOM     34  C   UNL A   1      41.272  26.072  27.710  1.00  0.00    -0.014 A 
BRANCH  34  35
ATOM     35  C   UNL A   1      41.593  27.430  28.217  1.00  0.00     0.031 A 
ATOM     36  C   UNL A   1      43.027  27.858  28.358  1.00  0.00     0.074 A 
ATOM     37  C   UNL A   1      40.596  28.243  28.618  1.00  0.00     0.049 A 
ATOM     38  N   UNL A   1      43.515  28.962  28.860  1.00  0.00    -0.248 NA
ATOM     39  C   UNL A   1      44.045  26.901  27.901  1.00  0.00     0.031 C 
ATOM     40  C   UNL A   1      39.168  27.917  28.571  1.00  0.00     0.029 A 
ATOM     41  N   UNL A   1      40.629  29.506  29.155  1.00  0.00    -0.354 N 
ATOM     42  C   UNL A   1      44.898  28.828  28.794  1.00  0.00     0.074 A 
ATOM     43  C   UNL A   1      45.166  27.509  28.259  1.00  0.00     0.031 C 
ATOM     44  C   UNL A   1      38.463  28.959  29.041  1.00  0.00     0.029 A 
ATOM     45  C   UNL A   1      39.386  30.010  29.460  1.00  0.00     0.049 A 
ATOM     46  H   UNL A   1      41.464  30.004  29.306  1.00  0.00     0.167 HD
ATOM     47  C   UNL A   1      45.855  29.730  29.129  1.00  0.00     0.034 A 
ATOM     48  C   UNL A   1      39.032  31.181  30.024  1.00  0.00     0.034 A 
ATOM     49  C   UNL A   1      45.568  31.046  29.648  1.00  0.00     0.049 A 
ATOM     50  C   UNL A   1      40.112  32.165  30.397  1.00  0.00     0.074 A 
ATOM     51  C   UNL A   1      46.454  32.060  29.966  1.00  0.00     0.029 A 
ATOM     52  N   UNL A   1      44.296  31.528  29.931  1.00  0.00    -0.354 N 
ATOM     53  N   UNL A   1      41.415  32.043  30.281  1.00  0.00    -0.248 NA
ATOM     54  C   UNL A   1      39.674  33.445  30.966  1.00  0.00     0.031 C 
ATOM     55  C   UNL A   1      45.725  33.130  30.497  1.00  0.00     0.029 A 
ATOM     56  C   UNL A   1      44.377  32.813  30.445  1.00  0.00     0.049 A 
ATOM     57  H   UNL A   1      43.459  31.029  29.788  1.00  0.00     0.167 HD
ATOM     58  C   UNL A   1      41.948  33.246  30.735  1.00  0.00     0.074 A 
ATOM     59  C   UNL A   1      40.827  34.081  31.113  1.00  0.00     0.031 C 
ATOM     60  C   UNL A   1      43.247  33.629  30.826  1.00  0.00     0.034 A 
BRANCH  47  61
ATOM     61  C   UNL A   1      47.294  29.306  28.960  1.00  0.00     0.023 A 
ATOM     62  C   UNL A   1      47.908  29.265  27.697  1.00  0.00     0.031 A 
ATOM     63  C   UNL A   1      48.053  28.901  30.073  1.00  0.00     0.131 A 
ATOM     64  C   UNL A   1      49.207  28.752  27.563  1.00  0.00     0.055 A 
ATOM     65  C   UNL A   1      49.376  28.471  29.943  1.00  0.00     0.041 A 
ATOM     66  F   UNL A   1      47.517  28.899  31.303  1.00  0.00    -0.206 F 
ATOM     67  C   UNL A   1      49.955  28.379  28.680  1.00  0.00     0.022 A 
BRANCH  64  68
ATOM     68  S   UNL A   1      49.846  28.441  25.894  1.00  0.00     0.124 S 
ATOM     69  O   UNL A   1      50.600  29.666  25.635  1.00  0.00    -0.237 OA
ATOM     70  O   UNL A   1      50.637  27.231  26.079  1.00  0.00    -0.237 OA
ATOM     71  O   UNL A   1      48.637  28.282  25.089  1.00  0.00    -0.744 OA
ENDBRANCH  64  68
ENDBRANCH  47  61
BRANCH  48  72
ATOM     72  C   UNL A   1      37.597  31.493  30.280  1.00  0.00     0.023 A 
ATOM     73  C   UNL A   1      36.767  31.964  29.251  1.00  0.00     0.031 A 
ATOM     74  C   UNL A   1      37.045  31.364  31.566  1.00  0.00     0.131 A 
ATOM     75  C   UNL A   1      35.442  32.333  29.533  1.00  0.00     0.055 A 
ATOM     76  C   UNL A   1      35.713  31.685  31.833  1.00  0.00     0.041 A 
ATOM     77  F   UNL A   1      37.794  30.910  32.584  1.00  0.00    -0.206 F 
ATOM     78  C   UNL A   1      34.907  32.186  30.815  1.00  0.00     0.022 A 
BRANCH  75  79
ATOM     79  S   UNL A   1      34.450  33.084  28.214  1.00  0.00     0.124 S 
ATOM     80  O   UNL A   1      35.473  33.743  27.411  1.00  0.00    -0.237 OA
ATOM     81  O   UNL A   1      33.815  31.917  27.612  1.00  0.00    -0.237 OA
ATOM     82  O   UNL A   1      33.548  33.980  28.935  1.00  0.00    -0.744 OA
ENDBRANCH  75  79
ENDBRANCH  48  72
BRANCH  60  83
ATOM     83  C   UNL A   1      43.513  35.032  31.313  1.00  0.00     0.023 A 
ATOM     84  C   UNL A   1      43.564  35.342  32.683  1.00  0.00     0.031 A 
ATOM     85  C   UNL A   1      43.707  36.073  30.389  1.00  0.00     0.131 A 
ATOM     86  C   UNL A   1      43.750  36.672  33.090  1.00  0.00     0.055 A 
ATOM     87  C   UNL A   1      43.947  37.384  30.800  1.00  0.00     0.041 A 
ATOM     88  F   UNL A   1      43.666  35.831  29.069  1.00  0.00    -0.206 F 
ATOM     89  C   UNL A   1      43.958  37.692  32.158  1.00  0.00     0.022 A 
BRANCH  86  90
ATOM     90  S   UNL A   1      43.634  37.067  34.857  1.00  0.00     0.124 S 
ATOM     91  O   UNL A   1      44.303  35.922  35.467  1.00  0.00    -0.237 OA
ATOM     92  O   UNL A   1      44.344  38.339  34.940  1.00  0.00    -0.237 OA
ATOM     93  O   UNL A   1      42.195  37.144  35.097  1.00  0.00    -0.744 OA
ENDBRANCH  86  90
ENDBRANCH  60  83
ENDBRANCH  34  35
ENDBRANCH  26  29
ENDBRANCH  24  25
ENDBRANCH  23  24
ENDBRANCH  22  23
ENDBRANCH   1  22
TORSDOF 20
ENDMDL
