MODEL 1
REMARK VINA RESULT:     -14.6      0.000      0.000
REMARK SMILES COc1ccc(-c2[nH]nc3nc(-c4ccc(C(F)(F)F)cc4)cc(C(=O)NCCCCNC(=O)c4ccc(-c5c6nc(c(-c7cc(S(=O)(=O)[O-])ccc7F)c7ccc([nH]7)c(-c7cc(S(=O)(=O)[O-])ccc7F)c7nc(c(-c8cc(S(=O)(=O)[O-])ccc8F)c8ccc5[nH]8)C=C7)C=C6)cc4)c23)cc1
REMARK SMILES IDX 30 1 29 2 28 3 27 4 25 5 26 6 24 8 7 9 8 10 98 11 9 12 10 14
REMARK SMILES IDX 11 15 23 16 12 17 6 18 3 19 4 20 100 21 5 22 99 23 2 24 1 25
REMARK SMILES IDX 13 26 14 27 22 28 15 29 21 30 16 31 17 32 18 33 19 34 20 35
REMARK SMILES IDX 31 36 32 37 33 38 34 40 35 41 36 42 97 43 37 44 96 45 38 46
REMARK SMILES IDX 39 47 40 48 90 49 41 50 95 51 89 52 91 53 42 54 94 55 88 56
REMARK SMILES IDX 87 57 43 59 75 60 55 61 74 62 56 63 59 64 73 65 92 66 57 67
REMARK SMILES IDX 58 68 72 70 93 71 60 72 44 73 45 74 53 75 46 76 52 77 54 78
REMARK SMILES IDX 51 79 47 80 48 81 49 82 50 83 76 84 77 85 85 86 78 87 84 88
REMARK SMILES IDX 86 89 83 90 79 91 80 92 81 93 82 94 61 95 62 96 70 97 63 98
REMARK SMILES IDX 69 99 71 100 68 101 64 102 65 103 66 104 67 105
REMARK H PARENT 27 7 8 13 32 39 91 58 59 69
REMARK Flexibility Score: inf
ROOT
ATOM      1  C   UNL A   1      34.274  30.674  27.326  1.00  0.00     0.023 C 
ENDROOT
BRANCH   1   2
ATOM      2  C   UNL A   1      33.413  29.909  26.307  1.00  0.00     0.023 C 
BRANCH   2   3
ATOM      3  C   UNL A   1      33.890  28.486  26.002  1.00  0.00     0.116 C 
BRANCH   3   4
ATOM      4  N   UNL A   1      32.884  27.490  26.311  1.00  0.00    -0.352 N 
ATOM      5  C   UNL A   1      32.645  26.183  25.973  1.00  0.00     0.252 C 
ATOM      6  O   UNL A   1      31.708  25.683  26.587  1.00  0.00    -0.269 OA
ATOM      7  H   UNL A   1      32.195  27.843  26.920  1.00  0.00     0.163 HD
BRANCH   5   8
ATOM      8  C   UNL A   1      33.436  25.384  25.006  1.00  0.00     0.055 A 
ATOM      9  C   UNL A   1      32.034  25.481  22.876  1.00  0.00     0.075 A 
ATOM     10  N   UNL A   1      32.160  24.762  21.710  1.00  0.00    -0.275 N 
ATOM     11  C   UNL A   1      33.074  25.039  23.682  1.00  0.00     0.059 A 
ATOM     12  N   UNL A   1      33.233  23.966  21.644  1.00  0.00    -0.154 NA
ATOM     13  H   UNL A   1      31.507  24.828  20.976  1.00  0.00     0.190 HD
ATOM     14  C   UNL A   1      33.802  24.113  22.839  1.00  0.00     0.182 A 
ATOM     15  N   UNL A   1      34.935  23.480  23.235  1.00  0.00    -0.226 NA
ATOM     16  C   UNL A   1      34.659  24.775  25.317  1.00  0.00     0.043 A 
ATOM     17  C   UNL A   1      35.314  23.831  24.487  1.00  0.00     0.074 A 
BRANCH   9  18
ATOM     18  C   UNL A   1      30.988  26.492  22.976  1.00  0.00     0.001 A 
ATOM     19  C   UNL A   1      28.934  28.412  23.119  1.00  0.00     0.118 A 
ATOM     20  C   UNL A   1      30.162  28.725  22.528  1.00  0.00     0.047 A 
ATOM     21  C   UNL A   1      28.742  27.140  23.654  1.00  0.00     0.047 A 
ATOM     22  C   UNL A   1      31.186  27.776  22.461  1.00  0.00     0.014 A 
ATOM     23  C   UNL A   1      29.768  26.189  23.594  1.00  0.00     0.014 A 
BRANCH  19  24
ATOM     24  O   UNL A   1      28.010  29.418  23.080  1.00  0.00    -0.497 OA
ATOM     25  C   UNL A   1      27.973  30.212  21.902  1.00  0.00     0.278 C 
ENDBRANCH  19  24
ENDBRANCH   9  18
BRANCH  17  26
ATOM     26  C   UNL A   1      36.468  23.111  25.051  1.00  0.00     0.000 A 
ATOM     27  C   UNL A   1      36.746  21.780  24.717  1.00  0.00     0.011 A 
ATOM     28  C   UNL A   1      37.376  23.792  25.885  1.00  0.00     0.011 A 
ATOM     29  C   UNL A   1      37.926  21.168  25.157  1.00  0.00     0.014 A 
ATOM     30  C   UNL A   1      38.552  23.183  26.328  1.00  0.00     0.014 A 
ATOM     31  C   UNL A   1      38.847  21.868  25.955  1.00  0.00     0.056 A 
BRANCH  31  32
ATOM     32  C   UNL A   1      40.133  21.208  26.389  1.00  0.00     0.416 C 
ATOM     33  F   UNL A   1      40.087  19.851  26.282  1.00  0.00    -0.166 F 
ATOM     34  F   UNL A   1      41.196  21.603  25.633  1.00  0.00    -0.166 F 
ATOM     35  F   UNL A   1      40.479  21.469  27.680  1.00  0.00    -0.166 F 
ENDBRANCH  31  32
ENDBRANCH  17  26
ENDBRANCH   5   8
ENDBRANCH   3   4
ENDBRANCH   2   3
ENDBRANCH   1   2
BRANCH   1  36
ATOM     36  C   UNL A   1      35.399  29.865  27.971  1.00  0.00     0.116 C 
BRANCH  36  37
ATOM     37  N   UNL A   1      35.541  30.115  29.405  1.00  0.00    -0.352 N 
ATOM     38  C   UNL A   1      36.447  29.541  30.287  1.00  0.00     0.251 C 
ATOM     39  H   UNL A   1      34.918  30.771  29.793  1.00  0.00     0.163 HD
ATOM     40  O   UNL A   1      36.220  29.505  31.482  1.00  0.00    -0.269 OA
BRANCH  38  41
ATOM     41  C   UNL A   1      37.701  28.997  29.730  1.00  0.00     0.039 A 
ATOM     42  C   UNL A   1      38.273  29.489  28.556  1.00  0.00     0.014 A 
ATOM     43  C   UNL A   1      38.333  28.004  30.469  1.00  0.00     0.014 A 
ATOM     44  C   UNL A   1      39.542  29.038  28.190  1.00  0.00     0.010 A 
ATOM     45  C   UNL A   1      39.637  27.680  30.197  1.00  0.00     0.010 A 
ATOM     46  C   UNL A   1      40.232  28.150  29.030  1.00  0.00    -0.014 A 
BRANCH  46  47
ATOM     47  C   UNL A   1      41.626  27.786  28.775  1.00  0.00     0.031 A 
ATOM     48  C   UNL A   1      41.821  26.529  27.998  1.00  0.00     0.074 A 
ATOM     49  C   UNL A   1      42.652  28.641  28.991  1.00  0.00     0.049 A 
ATOM     50  N   UNL A   1      42.353  25.422  28.398  1.00  0.00    -0.248 NA
ATOM     51  C   UNL A   1      41.236  26.442  26.649  1.00  0.00     0.031 C 
ATOM     52  C   UNL A   1      42.591  30.035  29.449  1.00  0.00     0.029 A 
ATOM     53  N   UNL A   1      43.975  28.485  28.711  1.00  0.00    -0.354 N 
ATOM     54  C   UNL A   1      42.390  24.581  27.288  1.00  0.00     0.074 A 
ATOM     55  C   UNL A   1      41.512  25.179  26.317  1.00  0.00     0.031 C 
ATOM     56  C   UNL A   1      43.755  30.659  29.168  1.00  0.00     0.029 A 
ATOM     57  C   UNL A   1      44.705  29.671  28.693  1.00  0.00     0.049 A 
ATOM     58  H   UNL A   1      44.382  27.607  28.536  1.00  0.00     0.167 HD
ATOM     59  C   UNL A   1      43.324  23.593  27.178  1.00  0.00     0.034 A 
ATOM     60  C   UNL A   1      45.993  29.847  28.293  1.00  0.00     0.034 A 
ATOM     61  C   UNL A   1      43.965  23.350  28.452  1.00  0.00     0.049 A 
ATOM     62  C   UNL A   1      46.643  28.515  28.380  1.00  0.00     0.074 A 
ATOM     63  C   UNL A   1      43.515  22.987  29.707  1.00  0.00     0.029 A 
ATOM     64  N   UNL A   1      45.223  23.874  28.652  1.00  0.00    -0.354 N 
ATOM     65  N   UNL A   1      46.805  27.873  29.506  1.00  0.00    -0.248 NA
ATOM     66  C   UNL A   1      46.649  27.680  27.188  1.00  0.00     0.031 C 
ATOM     67  C   UNL A   1      44.272  23.793  30.608  1.00  0.00     0.029 A 
ATOM     68  C   UNL A   1      45.205  24.521  29.863  1.00  0.00     0.049 A 
ATOM     69  H   UNL A   1      45.992  23.799  28.041  1.00  0.00     0.167 HD
ATOM     70  C   UNL A   1      46.489  26.554  29.215  1.00  0.00     0.074 A 
ATOM     71  C   UNL A   1      46.499  26.478  27.756  1.00  0.00     0.031 C 
ATOM     72  C   UNL A   1      45.968  25.718  30.164  1.00  0.00     0.034 A 
BRANCH  59  73
ATOM     73  C   UNL A   1      43.930  23.087  25.883  1.00  0.00     0.023 A 
ATOM     74  C   UNL A   1      43.933  21.693  25.673  1.00  0.00     0.031 A 
ATOM     75  C   UNL A   1      44.745  23.837  25.006  1.00  0.00     0.131 A 
ATOM     76  C   UNL A   1      44.788  21.101  24.728  1.00  0.00     0.055 A 
ATOM     77  C   UNL A   1      45.542  23.249  24.019  1.00  0.00     0.041 A 
ATOM     78  F   UNL A   1      44.895  25.162  25.109  1.00  0.00    -0.206 F 
ATOM     79  C   UNL A   1      45.596  21.871  23.898  1.00  0.00     0.022 A 
BRANCH  76  80
ATOM     80  S   UNL A   1      44.970  19.298  24.740  1.00  0.00     0.124 S 
ATOM     81  O   UNL A   1      44.650  18.962  23.356  1.00  0.00    -0.237 OA
ATOM     82  O   UNL A   1      46.365  19.140  25.137  1.00  0.00    -0.237 OA
ATOM     83  O   UNL A   1      43.986  18.865  25.730  1.00  0.00    -0.744 OA
ENDBRANCH  76  80
ENDBRANCH  59  73
BRANCH  60  84
ATOM     84  C   UNL A   1      46.534  31.004  27.526  1.00  0.00     0.023 A 
ATOM     85  C   UNL A   1      45.723  31.991  26.925  1.00  0.00     0.031 A 
ATOM     86  C   UNL A   1      47.923  31.269  27.570  1.00  0.00     0.131 A 
ATOM     87  C   UNL A   1      46.307  33.170  26.399  1.00  0.00     0.055 A 
ATOM     88  C   UNL A   1      48.493  32.433  27.048  1.00  0.00     0.041 A 
ATOM     89  F   UNL A   1      48.769  30.435  28.194  1.00  0.00    -0.206 F 
ATOM     90  C   UNL A   1      47.685  33.395  26.466  1.00  0.00     0.022 A 
BRANCH  87  91
ATOM     91  S   UNL A   1      45.265  34.480  25.673  1.00  0.00     0.124 S 
ATOM     92  O   UNL A   1      44.040  34.375  26.457  1.00  0.00    -0.237 OA
ATOM     93  O   UNL A   1      46.073  35.676  25.889  1.00  0.00    -0.237 OA
ATOM     94  O   UNL A   1      45.133  34.076  24.273  1.00  0.00    -0.744 OA
ENDBRANCH  87  91
ENDBRANCH  60  84
BRANCH  72  95
ATOM     95  C   UNL A   1      45.998  26.148  31.619  1.00  0.00     0.023 A 
ATOM     96  C   UNL A   1      44.899  26.676  32.337  1.00  0.00     0.031 A 
ATOM     97  C   UNL A   1      47.168  25.853  32.342  1.00  0.00     0.131 A 
ATOM     98  C   UNL A   1      45.005  26.886  33.728  1.00  0.00     0.055 A 
ATOM     99  C   UNL A   1      47.259  26.041  33.719  1.00  0.00     0.041 A 
ATOM    100  F   UNL A   1      48.234  25.322  31.720  1.00  0.00    -0.206 F 
ATOM    101  C   UNL A   1      46.178  26.562  34.418  1.00  0.00     0.022 A 
BRANCH  98 102
ATOM    102  S   UNL A   1      43.615  27.592  34.677  1.00  0.00     0.124 S 
ATOM    103  O   UNL A   1      44.065  28.944  34.986  1.00  0.00    -0.237 OA
ATOM    104  O   UNL A   1      42.502  27.486  33.737  1.00  0.00    -0.237 OA
ATOM    105  O   UNL A   1      43.512  26.707  35.839  1.00  0.00    -0.744 OA
ENDBRANCH  98 102
ENDBRANCH  72  95
ENDBRANCH  46  47
ENDBRANCH  38  41
ENDBRANCH  36  37
ENDBRANCH   1  36
TORSDOF 18
ENDMDL
MODEL 2
REMARK VINA RESULT:     -14.3      3.754      8.926
REMARK SMILES COc1ccc(-c2[nH]nc3nc(-c4ccc(C(F)(F)F)cc4)cc(C(=O)NCCCCNC(=O)c4ccc(-c5c6nc(c(-c7cc(S(=O)(=O)[O-])ccc7F)c7ccc([nH]7)c(-c7cc(S(=O)(=O)[O-])ccc7F)c7nc(c(-c8cc(S(=O)(=O)[O-])ccc8F)c8ccc5[nH]8)C=C7)C=C6)cc4)c23)cc1
REMARK SMILES IDX 30 1 29 2 28 3 27 4 25 5 26 6 24 8 7 9 8 10 98 11 9 12 10 14
REMARK SMILES IDX 11 15 23 16 12 17 6 18 3 19 4 20 100 21 5 22 99 23 2 24 1 25
REMARK SMILES IDX 13 26 14 27 22 28 15 29 21 30 16 31 17 32 18 33 19 34 20 35
REMARK SMILES IDX 31 36 32 37 33 38 34 40 35 41 36 42 97 43 37 44 96 45 38 46
REMARK SMILES IDX 39 47 40 48 90 49 41 50 95 51 89 52 91 53 42 54 94 55 88 56
REMARK SMILES IDX 87 57 43 59 75 60 55 61 74 62 56 63 59 64 73 65 92 66 57 67
REMARK SMILES IDX 58 68 72 70 93 71 60 72 44 73 45 74 53 75 46 76 52 77 54 78
REMARK SMILES IDX 51 79 47 80 48 81 49 82 50 83 76 84 77 85 85 86 78 87 84 88
REMARK SMILES IDX 86 89 83 90 79 91 80 92 81 93 82 94 61 95 62 96 70 97 63 98
REMARK SMILES IDX 69 99 71 100 68 101 64 102 65 103 66 104 67 105
REMARK H PARENT 27 7 8 13 32 39 91 58 59 69
REMARK Flexibility Score: inf
ROOT
ATOM      1  C   UNL A   1      37.083  20.360  24.992  1.00  0.00     0.023 C 
ENDROOT
BRANCH   1   2
ATOM      2  C   UNL A   1      36.016  21.438  25.246  1.00  0.00     0.023 C 
BRANCH   2   3
ATOM      3  C   UNL A   1      36.215  22.738  24.462  1.00  0.00     0.116 C 
BRANCH   3   4
ATOM      4  N   UNL A   1      35.162  22.964  23.493  1.00  0.00    -0.352 N 
ATOM      5  C   UNL A   1      33.915  23.534  23.497  1.00  0.00     0.252 C 
ATOM      6  O   UNL A   1      33.410  23.614  22.382  1.00  0.00    -0.269 OA
ATOM      7  H   UNL A   1      35.404  22.618  22.603  1.00  0.00     0.163 HD
BRANCH   5   8
ATOM      8  C   UNL A   1      33.215  24.066  24.691  1.00  0.00     0.055 A 
ATOM      9  C   UNL A   1      31.731  22.120  25.418  1.00  0.00     0.075 A 
ATOM     10  N   UNL A   1      30.711  22.093  26.341  1.00  0.00    -0.275 N 
ATOM     11  C   UNL A   1      32.202  23.427  25.444  1.00  0.00     0.059 A 
ATOM     12  N   UNL A   1      30.534  23.226  27.030  1.00  0.00    -0.154 NA
ATOM     13  H   UNL A   1      30.150  21.296  26.484  1.00  0.00     0.190 HD
ATOM     14  C   UNL A   1      31.428  24.056  26.495  1.00  0.00     0.182 A 
ATOM     15  N   UNL A   1      31.609  25.345  26.881  1.00  0.00    -0.226 NA
ATOM     16  C   UNL A   1      33.416  25.355  25.202  1.00  0.00     0.043 A 
ATOM     17  C   UNL A   1      32.603  25.957  26.194  1.00  0.00     0.074 A 
BRANCH   9  18
ATOM     18  C   UNL A   1      32.102  20.887  24.735  1.00  0.00     0.001 A 
ATOM     19  C   UNL A   1      32.885  18.522  23.423  1.00  0.00     0.118 A 
ATOM     20  C   UNL A   1      32.343  19.590  22.703  1.00  0.00     0.047 A 
ATOM     21  C   UNL A   1      33.021  18.634  24.806  1.00  0.00     0.047 A 
ATOM     22  C   UNL A   1      31.946  20.763  23.352  1.00  0.00     0.014 A 
ATOM     23  C   UNL A   1      32.619  19.805  25.460  1.00  0.00     0.014 A 
BRANCH  19  24
ATOM     24  O   UNL A   1      33.266  17.454  22.660  1.00  0.00    -0.497 OA
ATOM     25  C   UNL A   1      34.274  16.609  23.196  1.00  0.00     0.278 C 
ENDBRANCH  19  24
ENDBRANCH   9  18
BRANCH  17  26
ATOM     26  C   UNL A   1      32.800  27.392  26.460  1.00  0.00     0.000 A 
ATOM     27  C   UNL A   1      31.795  28.184  27.027  1.00  0.00     0.011 A 
ATOM     28  C   UNL A   1      34.057  27.979  26.222  1.00  0.00     0.011 A 
ATOM     29  C   UNL A   1      32.057  29.509  27.398  1.00  0.00     0.014 A 
ATOM     30  C   UNL A   1      34.321  29.301  26.587  1.00  0.00     0.014 A 
ATOM     31  C   UNL A   1      33.327  30.075  27.195  1.00  0.00     0.056 A 
BRANCH  31  32
ATOM     32  C   UNL A   1      33.608  31.491  27.635  1.00  0.00     0.416 C 
ATOM     33  F   UNL A   1      33.793  31.593  28.980  1.00  0.00    -0.166 F 
ATOM     34  F   UNL A   1      34.742  31.992  27.067  1.00  0.00    -0.166 F 
ATOM     35  F   UNL A   1      32.617  32.372  27.326  1.00  0.00    -0.166 F 
ENDBRANCH  31  32
ENDBRANCH  17  26
ENDBRANCH   5   8
ENDBRANCH   3   4
ENDBRANCH   2   3
ENDBRANCH   1   2
BRANCH   1  36
ATOM     36  C   UNL A   1      38.499  20.722  25.440  1.00  0.00     0.116 C 
BRANCH  36  37
ATOM     37  N   UNL A   1      39.349  19.553  25.663  1.00  0.00    -0.352 N 
ATOM     38  C   UNL A   1      40.712  19.527  25.929  1.00  0.00     0.251 C 
ATOM     39  H   UNL A   1      38.901  18.678  25.620  1.00  0.00     0.163 HD
ATOM     40  O   UNL A   1      41.376  18.533  25.695  1.00  0.00    -0.269 OA
BRANCH  38  41
ATOM     41  C   UNL A   1      41.323  20.732  26.522  1.00  0.00     0.039 A 
ATOM     42  C   UNL A   1      41.932  21.720  25.747  1.00  0.00     0.014 A 
ATOM     43  C   UNL A   1      41.209  20.876  27.900  1.00  0.00     0.014 A 
ATOM     44  C   UNL A   1      42.333  22.904  26.367  1.00  0.00     0.010 A 
ATOM     45  C   UNL A   1      41.458  22.093  28.478  1.00  0.00     0.010 A 
ATOM     46  C   UNL A   1      42.070  23.097  27.732  1.00  0.00    -0.014 A 
BRANCH  46  47
ATOM     47  C   UNL A   1      42.317  24.383  28.383  1.00  0.00     0.031 A 
ATOM     48  C   UNL A   1      41.287  25.430  28.128  1.00  0.00     0.074 A 
ATOM     49  C   UNL A   1      43.253  24.544  29.347  1.00  0.00     0.049 A 
ATOM     50  N   UNL A   1      41.425  26.540  27.483  1.00  0.00    -0.248 NA
ATOM     51  C   UNL A   1      39.895  25.154  28.523  1.00  0.00     0.031 C 
ATOM     52  C   UNL A   1      44.128  23.525  29.939  1.00  0.00     0.029 A 
ATOM     53  N   UNL A   1      43.527  25.639  30.107  1.00  0.00    -0.354 N 
ATOM     54  C   UNL A   1      40.211  27.214  27.595  1.00  0.00     0.074 A 
ATOM     55  C   UNL A   1      39.263  26.234  28.056  1.00  0.00     0.031 C 
ATOM     56  C   UNL A   1      44.627  23.976  31.110  1.00  0.00     0.029 A 
ATOM     57  C   UNL A   1      44.269  25.375  31.255  1.00  0.00     0.049 A 
ATOM     58  H   UNL A   1      43.224  26.544  29.864  1.00  0.00     0.167 HD
ATOM     59  C   UNL A   1      40.146  28.575  27.526  1.00  0.00     0.034 A 
ATOM     60  C   UNL A   1      44.553  26.229  32.274  1.00  0.00     0.034 A 
ATOM     61  C   UNL A   1      41.375  29.120  26.993  1.00  0.00     0.049 A 
ATOM     62  C   UNL A   1      44.400  27.600  31.725  1.00  0.00     0.074 A 
ATOM     63  C   UNL A   1      42.080  28.947  25.817  1.00  0.00     0.029 A 
ATOM     64  N   UNL A   1      42.272  29.675  27.879  1.00  0.00    -0.354 N 
ATOM     65  N   UNL A   1      45.154  28.074  30.769  1.00  0.00    -0.248 NA
ATOM     66  C   UNL A   1      43.107  28.252  31.871  1.00  0.00     0.031 C 
ATOM     67  C   UNL A   1      43.447  28.894  26.221  1.00  0.00     0.029 A 
ATOM     68  C   UNL A   1      43.505  29.139  27.596  1.00  0.00     0.049 A 
ATOM     69  H   UNL A   1      42.068  30.333  28.583  1.00  0.00     0.167 HD
ATOM     70  C   UNL A   1      44.284  28.753  29.930  1.00  0.00     0.074 A 
ATOM     71  C   UNL A   1      43.058  28.915  30.710  1.00  0.00     0.031 C 
ATOM     72  C   UNL A   1      44.528  28.869  28.589  1.00  0.00     0.034 A 
BRANCH  59  73
ATOM     73  C   UNL A   1      39.147  29.452  28.257  1.00  0.00     0.023 A 
ATOM     74  C   UNL A   1      39.276  29.548  29.657  1.00  0.00     0.031 A 
ATOM     75  C   UNL A   1      37.937  29.946  27.720  1.00  0.00     0.131 A 
ATOM     76  C   UNL A   1      38.211  29.997  30.457  1.00  0.00     0.055 A 
ATOM     77  C   UNL A   1      36.907  30.458  28.515  1.00  0.00     0.041 A 
ATOM     78  F   UNL A   1      37.639  29.877  26.419  1.00  0.00    -0.206 F 
ATOM     79  C   UNL A   1      37.024  30.453  29.894  1.00  0.00     0.022 A 
BRANCH  76  80
ATOM     80  S   UNL A   1      38.335  29.790  32.253  1.00  0.00     0.124 S 
ATOM     81  O   UNL A   1      37.384  30.789  32.730  1.00  0.00    -0.237 OA
ATOM     82  O   UNL A   1      37.944  28.394  32.421  1.00  0.00    -0.237 OA
ATOM     83  O   UNL A   1      39.739  30.082  32.531  1.00  0.00    -0.744 OA
ENDBRANCH  76  80
ENDBRANCH  59  73
BRANCH  60  84
ATOM     84  C   UNL A   1      44.588  25.898  33.726  1.00  0.00     0.023 A 
ATOM     85  C   UNL A   1      43.530  26.177  34.617  1.00  0.00     0.031 A 
ATOM     86  C   UNL A   1      45.626  25.071  34.218  1.00  0.00     0.131 A 
ATOM     87  C   UNL A   1      43.543  25.644  35.930  1.00  0.00     0.055 A 
ATOM     88  C   UNL A   1      45.635  24.551  35.515  1.00  0.00     0.041 A 
ATOM     89  F   UNL A   1      46.634  24.678  33.425  1.00  0.00    -0.206 F 
ATOM     90  C   UNL A   1      44.586  24.829  36.376  1.00  0.00     0.022 A 
BRANCH  87  91
ATOM     91  S   UNL A   1      42.153  25.948  37.071  1.00  0.00     0.124 S 
ATOM     92  O   UNL A   1      41.442  24.676  37.044  1.00  0.00    -0.237 OA
ATOM     93  O   UNL A   1      42.839  26.283  38.315  1.00  0.00    -0.237 OA
ATOM     94  O   UNL A   1      41.436  27.063  36.450  1.00  0.00    -0.744 OA
ENDBRANCH  87  91
ENDBRANCH  60  84
BRANCH  72  95
ATOM     95  C   UNL A   1      45.900  28.499  28.057  1.00  0.00     0.023 A 
ATOM     96  C   UNL A   1      46.259  27.233  27.538  1.00  0.00     0.031 A 
ATOM     97  C   UNL A   1      46.834  29.543  27.934  1.00  0.00     0.131 A 
ATOM     98  C   UNL A   1      47.517  27.057  26.922  1.00  0.00     0.055 A 
ATOM     99  C   UNL A   1      48.065  29.370  27.305  1.00  0.00     0.041 A 
ATOM    100  F   UNL A   1      46.538  30.775  28.382  1.00  0.00    -0.206 F 
ATOM    101  C   UNL A   1      48.413  28.124  26.799  1.00  0.00     0.022 A 
BRANCH  98 102
ATOM    102  S   UNL A   1      48.020  25.430  26.268  1.00  0.00     0.124 S 
ATOM    103  O   UNL A   1      47.953  24.557  27.434  1.00  0.00    -0.237 OA
ATOM    104  O   UNL A   1      47.027  25.185  25.225  1.00  0.00    -0.237 OA
ATOM    105  O   UNL A   1      49.376  25.669  25.768  1.00  0.00    -0.744 OA
ENDBRANCH  98 102
ENDBRANCH  72  95
ENDBRANCH  46  47
ENDBRANCH  38  41
ENDBRANCH  36  37
ENDBRANCH   1  36
TORSDOF 18
ENDMDL
MODEL 3
REMARK VINA RESULT:     -13.8      1.732      2.261
REMARK SMILES COc1ccc(-c2[nH]nc3nc(-c4ccc(C(F)(F)F)cc4)cc(C(=O)NCCCCNC(=O)c4ccc(-c5c6nc(c(-c7cc(S(=O)(=O)[O-])ccc7F)c7ccc([nH]7)c(-c7cc(S(=O)(=O)[O-])ccc7F)c7nc(c(-c8cc(S(=O)(=O)[O-])ccc8F)c8ccc5[nH]8)C=C7)C=C6)cc4)c23)cc1
REMARK SMILES IDX 30 1 29 2 28 3 27 4 25 5 26 6 24 8 7 9 8 10 98 11 9 12 10 14
REMARK SMILES IDX 11 15 23 16 12 17 6 18 3 19 4 20 100 21 5 22 99 23 2 24 1 25
REMARK SMILES IDX 13 26 14 27 22 28 15 29 21 30 16 31 17 32 18 33 19 34 20 35
REMARK SMILES IDX 31 36 32 37 33 38 34 40 35 41 36 42 97 43 37 44 96 45 38 46
REMARK SMILES IDX 39 47 40 48 90 49 41 50 95 51 89 52 91 53 42 54 94 55 88 56
REMARK SMILES IDX 87 57 43 59 75 60 55 61 74 62 56 63 59 64 73 65 92 66 57 67
REMARK SMILES IDX 58 68 72 70 93 71 60 72 44 73 45 74 53 75 46 76 52 77 54 78
REMARK SMILES IDX 51 79 47 80 48 81 49 82 50 83 76 84 77 85 85 86 78 87 84 88
REMARK SMILES IDX 86 89 83 90 79 91 80 92 81 93 82 94 61 95 62 96 70 97 63 98
REMARK SMILES IDX 69 99 71 100 68 101 64 102 65 103 66 104 67 105
REMARK H PARENT 27 7 8 13 32 39 91 58 59 69
REMARK Flexibility Score: inf
ROOT
ATOM      1  C   UNL A   1      33.498  28.821  26.870  1.00  0.00     0.023 C 
ENDROOT
BRANCH   1   2
ATOM      2  C   UNL A   1      33.071  27.440  26.346  1.00  0.00     0.023 C 
BRANCH   2   3
ATOM      3  C   UNL A   1      32.061  26.701  27.228  1.00  0.00     0.116 C 
BRANCH   3   4
ATOM      4  N   UNL A   1      30.831  26.399  26.523  1.00  0.00    -0.352 N 
ATOM      5  C   UNL A   1      30.479  25.707  25.393  1.00  0.00     0.252 C 
ATOM      6  O   UNL A   1      29.266  25.609  25.238  1.00  0.00    -0.269 OA
ATOM      7  H   UNL A   1      30.048  26.792  26.971  1.00  0.00     0.163 HD
BRANCH   5   8
ATOM      8  C   UNL A   1      31.423  25.075  24.440  1.00  0.00     0.055 A 
ATOM      9  C   UNL A   1      31.525  26.747  22.515  1.00  0.00     0.075 A 
ATOM     10  N   UNL A   1      32.077  26.608  21.262  1.00  0.00    -0.275 N 
ATOM     11  C   UNL A   1      31.779  25.539  23.152  1.00  0.00     0.059 A 
ATOM     12  N   UNL A   1      32.745  25.467  21.056  1.00  0.00    -0.154 NA
ATOM     13  H   UNL A   1      31.988  27.299  20.567  1.00  0.00     0.190 HD
ATOM     14  C   UNL A   1      32.570  24.796  22.193  1.00  0.00     0.182 A 
ATOM     15  N   UNL A   1      33.072  23.560  22.442  1.00  0.00    -0.226 NA
ATOM     16  C   UNL A   1      32.049  23.842  24.669  1.00  0.00     0.043 A 
ATOM     17  C   UNL A   1      32.771  23.119  23.687  1.00  0.00     0.074 A 
BRANCH   9  18
ATOM     18  C   UNL A   1      30.919  28.019  22.886  1.00  0.00     0.001 A 
ATOM     19  C   UNL A   1      29.725  30.449  23.659  1.00  0.00     0.118 A 
ATOM     20  C   UNL A   1      29.152  29.661  22.656  1.00  0.00     0.047 A 
ATOM     21  C   UNL A   1      30.907  30.025  24.264  1.00  0.00     0.047 A 
ATOM     22  C   UNL A   1      29.746  28.458  22.265  1.00  0.00     0.014 A 
ATOM     23  C   UNL A   1      31.508  28.824  23.870  1.00  0.00     0.014 A 
BRANCH  19  24
ATOM     24  O   UNL A   1      29.020  31.578  23.971  1.00  0.00    -0.497 OA
ATOM     25  C   UNL A   1      27.661  31.621  23.558  1.00  0.00     0.278 C 
ENDBRANCH  19  24
ENDBRANCH   9  18
BRANCH  17  26
ATOM     26  C   UNL A   1      33.173  21.740  24.012  1.00  0.00     0.000 A 
ATOM     27  C   UNL A   1      32.355  20.643  23.720  1.00  0.00     0.011 A 
ATOM     28  C   UNL A   1      34.450  21.495  24.553  1.00  0.00     0.011 A 
ATOM     29  C   UNL A   1      32.822  19.337  23.912  1.00  0.00     0.014 A 
ATOM     30  C   UNL A   1      34.918  20.193  24.748  1.00  0.00     0.014 A 
ATOM     31  C   UNL A   1      34.113  19.100  24.413  1.00  0.00     0.056 A 
BRANCH  31  32
ATOM     32  C   UNL A   1      34.618  17.687  24.577  1.00  0.00     0.416 C 
ATOM     33  F   UNL A   1      35.919  17.640  24.976  1.00  0.00    -0.166 F 
ATOM     34  F   UNL A   1      33.918  16.995  25.521  1.00  0.00    -0.166 F 
ATOM     35  F   UNL A   1      34.547  16.940  23.441  1.00  0.00    -0.166 F 
ENDBRANCH  31  32
ENDBRANCH  17  26
ENDBRANCH   5   8
ENDBRANCH   3   4
ENDBRANCH   2   3
ENDBRANCH   1   2
BRANCH   1  36
ATOM     36  C   UNL A   1      34.964  28.940  27.285  1.00  0.00     0.116 C 
BRANCH  36  37
ATOM     37  N   UNL A   1      35.177  29.880  28.385  1.00  0.00    -0.352 N 
ATOM     38  C   UNL A   1      36.234  29.914  29.286  1.00  0.00     0.251 C 
ATOM     39  H   UNL A   1      34.488  30.573  28.502  1.00  0.00     0.163 HD
ATOM     40  O   UNL A   1      36.113  30.451  30.372  1.00  0.00    -0.269 OA
BRANCH  38  41
ATOM     41  C   UNL A   1      37.511  29.299  28.876  1.00  0.00     0.039 A 
ATOM     42  C   UNL A   1      38.189  29.687  27.718  1.00  0.00     0.014 A 
ATOM     43  C   UNL A   1      38.052  28.351  29.735  1.00  0.00     0.014 A 
ATOM     44  C   UNL A   1      39.469  29.179  27.492  1.00  0.00     0.010 A 
ATOM     45  C   UNL A   1      39.363  27.976  29.594  1.00  0.00     0.010 A 
ATOM     46  C   UNL A   1      40.063  28.341  28.448  1.00  0.00    -0.014 A 
BRANCH  46  47
ATOM     47  C   UNL A   1      41.461  27.926  28.336  1.00  0.00     0.031 A 
ATOM     48  C   UNL A   1      41.686  26.647  27.602  1.00  0.00     0.074 A 
ATOM     49  C   UNL A   1      42.492  28.749  28.635  1.00  0.00     0.049 A 
ATOM     50  N   UNL A   1      42.137  25.532  28.070  1.00  0.00    -0.248 NA
ATOM     51  C   UNL A   1      41.230  26.553  26.205  1.00  0.00     0.031 C 
ATOM     52  C   UNL A   1      42.436  30.154  29.061  1.00  0.00     0.029 A 
ATOM     53  N   UNL A   1      43.829  28.544  28.487  1.00  0.00    -0.354 N 
ATOM     54  C   UNL A   1      42.250  24.667  26.983  1.00  0.00     0.074 A 
ATOM     55  C   UNL A   1      41.491  25.275  25.922  1.00  0.00     0.031 C 
ATOM     56  C   UNL A   1      43.643  30.733  28.884  1.00  0.00     0.029 A 
ATOM     57  C   UNL A   1      44.599  29.704  28.520  1.00  0.00     0.049 A 
ATOM     58  H   UNL A   1      44.220  27.649  28.366  1.00  0.00     0.167 HD
ATOM     59  C   UNL A   1      43.156  23.647  26.981  1.00  0.00     0.034 A 
ATOM     60  C   UNL A   1      45.925  29.828  28.243  1.00  0.00     0.034 A 
ATOM     61  C   UNL A   1      43.662  23.408  28.314  1.00  0.00     0.049 A 
ATOM     62  C   UNL A   1      46.515  28.477  28.415  1.00  0.00     0.074 A 
ATOM     63  C   UNL A   1      43.081  23.085  29.526  1.00  0.00     0.029 A 
ATOM     64  N   UNL A   1      44.913  23.893  28.626  1.00  0.00    -0.354 N 
ATOM     65  N   UNL A   1      46.546  27.853  29.561  1.00  0.00    -0.248 NA
ATOM     66  C   UNL A   1      46.606  27.619  27.243  1.00  0.00     0.031 C 
ATOM     67  C   UNL A   1      43.776  23.884  30.482  1.00  0.00     0.029 A 
ATOM     68  C   UNL A   1      44.801  24.564  29.819  1.00  0.00     0.049 A 
ATOM     69  H   UNL A   1      45.734  23.780  28.094  1.00  0.00     0.167 HD
ATOM     70  C   UNL A   1      46.213  26.540  29.264  1.00  0.00     0.074 A 
ATOM     71  C   UNL A   1      46.360  26.434  27.814  1.00  0.00     0.031 C 
ATOM     72  C   UNL A   1      45.574  25.742  30.173  1.00  0.00     0.034 A 
BRANCH  59  73
ATOM     73  C   UNL A   1      43.865  23.095  25.759  1.00  0.00     0.023 A 
ATOM     74  C   UNL A   1      43.705  21.721  25.486  1.00  0.00     0.031 A 
ATOM     75  C   UNL A   1      44.892  23.744  25.039  1.00  0.00     0.131 A 
ATOM     76  C   UNL A   1      44.598  21.038  24.641  1.00  0.00     0.055 A 
ATOM     77  C   UNL A   1      45.733  23.075  24.144  1.00  0.00     0.041 A 
ATOM     78  F   UNL A   1      45.206  25.030  25.224  1.00  0.00    -0.206 F 
ATOM     79  C   UNL A   1      45.614  21.707  23.967  1.00  0.00     0.022 A 
BRANCH  76  80
ATOM     80  S   UNL A   1      44.526  19.228  24.593  1.00  0.00     0.124 S 
ATOM     81  O   UNL A   1      44.948  18.954  23.224  1.00  0.00    -0.237 OA
ATOM     82  O   UNL A   1      45.468  18.863  25.646  1.00  0.00    -0.237 OA
ATOM     83  O   UNL A   1      43.123  18.937  24.883  1.00  0.00    -0.744 OA
ENDBRANCH  76  80
ENDBRANCH  59  73
BRANCH  60  84
ATOM     84  C   UNL A   1      46.577  30.951  27.512  1.00  0.00     0.023 A 
ATOM     85  C   UNL A   1      45.867  32.024  26.933  1.00  0.00     0.031 A 
ATOM     86  C   UNL A   1      47.985  31.086  27.575  1.00  0.00     0.131 A 
ATOM     87  C   UNL A   1      46.562  33.158  26.444  1.00  0.00     0.055 A 
ATOM     88  C   UNL A   1      48.664  32.206  27.089  1.00  0.00     0.041 A 
ATOM     89  F   UNL A   1      48.743  30.161  28.183  1.00  0.00    -0.206 F 
ATOM     90  C   UNL A   1      47.953  33.253  26.528  1.00  0.00     0.022 A 
BRANCH  87  91
ATOM     91  S   UNL A   1      45.651  34.577  25.747  1.00  0.00     0.124 S 
ATOM     92  O   UNL A   1      44.485  34.659  26.617  1.00  0.00    -0.237 OA
ATOM     93  O   UNL A   1      46.624  35.658  25.862  1.00  0.00    -0.237 OA
ATOM     94  O   UNL A   1      45.363  34.158  24.374  1.00  0.00    -0.744 OA
ENDBRANCH  87  91
ENDBRANCH  60  84
BRANCH  72  95
ATOM     95  C   UNL A   1      45.480  26.199  31.616  1.00  0.00     0.023 A 
ATOM     96  C   UNL A   1      44.331  26.763  32.219  1.00  0.00     0.031 A 
ATOM     97  C   UNL A   1      46.572  25.896  32.448  1.00  0.00     0.131 A 
ATOM     98  C   UNL A   1      44.312  26.998  33.611  1.00  0.00     0.055 A 
ATOM     99  C   UNL A   1      46.540  26.110  33.824  1.00  0.00     0.041 A 
ATOM    100  F   UNL A   1      47.679  25.333  31.937  1.00  0.00    -0.206 F 
ATOM    101  C   UNL A   1      45.410  26.665  34.412  1.00  0.00     0.022 A 
BRANCH  98 102
ATOM    102  S   UNL A   1      42.857  27.749  34.414  1.00  0.00     0.124 S 
ATOM    103  O   UNL A   1      42.219  28.495  33.337  1.00  0.00    -0.237 OA
ATOM    104  O   UNL A   1      42.128  26.583  34.906  1.00  0.00    -0.237 OA
ATOM    105  O   UNL A   1      43.442  28.584  35.466  1.00  0.00    -0.744 OA
ENDBRANCH  98 102
ENDBRANCH  72  95
ENDBRANCH  46  47
ENDBRANCH  38  41
ENDBRANCH  36  37
ENDBRANCH   1  36
TORSDOF 18
ENDMDL
