MODEL 1
REMARK VINA RESULT:     -13.1      0.000      0.000
REMARK SMILES Cc1ccccc1CN1C(=O)[C@H](CC(=O)NCCCCNC(=O)c2ccc(-c3c4nc(c(-c5cc(S(=O)(=O)[O-])ccc5F)c5ccc([nH]5)c(-c5cc(S(=O)(=O)[O-])ccc5F)c5nc(c(-c6cc(S(=O)(=O)[O-])ccc6F)c6ccc3[nH]6)C=C5)C=C4)cc2)n2c(nc3ccccc32)[C@H]1C
REMARK SMILES IDX 18 1 17 2 16 3 14 4 15 5 13 7 12 8 9 9 10 10 96 11 11 12
REMARK SMILES IDX 88 13 97 14 87 15 89 16 95 17 90 18 94 19 91 20 93 21 92 22
REMARK SMILES IDX 8 23 7 24 1 25 2 26 3 27 4 28 6 29 5 30 19 31 20 32 21 33
REMARK SMILES IDX 22 34 23 36 24 37 25 38 86 39 26 40 85 41 27 42 28 43 29 44
REMARK SMILES IDX 79 45 30 46 84 47 78 48 80 49 31 50 83 51 77 52 76 53 32 55
REMARK SMILES IDX 64 56 44 57 63 58 45 59 48 60 62 61 81 62 46 63 47 64 61 66
REMARK SMILES IDX 82 67 49 68 33 69 34 70 42 71 35 72 41 73 43 74 40 75 36 76
REMARK SMILES IDX 37 77 38 78 39 79 65 80 66 81 74 82 67 83 73 84 75 85 72 86
REMARK SMILES IDX 68 87 69 88 70 89 71 90 50 91 51 92 59 93 52 94 58 95 60 96
REMARK SMILES IDX 57 97 53 98 54 99 55 100 56 101
REMARK H PARENT 16 6 21 35 80 54 48 65
REMARK Flexibility Score: inf
ROOT
ATOM      1  C   UNL A   1      35.325  31.544  28.362  1.00  0.00     0.023 C 
ENDROOT
BRANCH   1   2
ATOM      2  C   UNL A   1      34.895  30.463  27.357  1.00  0.00     0.116 C 
BRANCH   2   3
ATOM      3  N   UNL A   1      33.699  29.759  27.810  1.00  0.00    -0.356 N 
ATOM      4  C   UNL A   1      33.137  28.590  27.390  1.00  0.00     0.222 C 
ATOM      5  O   UNL A   1      32.010  28.309  27.811  1.00  0.00    -0.275 OA
ATOM      6  H   UNL A   1      33.214  30.204  28.543  1.00  0.00     0.163 HD
BRANCH   4   7
ATOM      7  C   UNL A   1      33.838  27.651  26.420  1.00  0.00     0.135 C 
BRANCH   7   8
ATOM      8  C   UNL A   1      32.821  27.134  25.388  1.00  0.00     0.187 C 
ATOM      9  N   UNL A   1      32.090  27.705  23.105  1.00  0.00    -0.327 N 
ATOM     10  C   UNL A   1      32.682  28.159  24.266  1.00  0.00     0.247 C 
ATOM     11  C   UNL A   1      32.946  26.712  22.454  1.00  0.00     0.149 C 
ATOM     12  O   UNL A   1      33.078  29.321  24.328  1.00  0.00    -0.272 OA
ATOM     13  C   UNL A   1      33.163  25.599  23.444  1.00  0.00     0.133 A 
ATOM     14  C   UNL A   1      32.501  26.173  21.104  1.00  0.00     0.040 C 
ATOM     15  N   UNL A   1      33.120  25.828  24.808  1.00  0.00    -0.313 N 
ATOM     16  N   UNL A   1      33.410  24.333  23.180  1.00  0.00    -0.231 NA
ATOM     17  C   UNL A   1      33.208  24.611  25.439  1.00  0.00     0.069 A 
ATOM     18  C   UNL A   1      33.441  23.710  24.400  1.00  0.00     0.089 A 
ATOM     19  C   UNL A   1      33.120  24.201  26.774  1.00  0.00     0.028 A 
ATOM     20  C   UNL A   1      33.643  22.352  24.685  1.00  0.00     0.030 A 
ATOM     21  C   UNL A   1      33.321  22.839  27.039  1.00  0.00     0.002 A 
ATOM     22  C   UNL A   1      33.586  21.928  26.016  1.00  0.00     0.002 A 
BRANCH   9  23
ATOM     23  C   UNL A   1      31.261  28.660  22.361  1.00  0.00     0.156 C 
BRANCH  23  24
ATOM     24  C   UNL A   1      29.787  28.417  22.635  1.00  0.00    -0.026 A 
ATOM     25  C   UNL A   1      28.933  30.585  21.514  1.00  0.00     0.044 C 
ATOM     26  C   UNL A   1      28.764  29.353  22.365  1.00  0.00    -0.046 A 
ATOM     27  C   UNL A   1      27.471  29.117  22.874  1.00  0.00     0.004 A 
ATOM     28  C   UNL A   1      27.181  27.973  23.615  1.00  0.00     0.000 A 
ATOM     29  C   UNL A   1      29.440  27.224  23.296  1.00  0.00     0.006 A 
ATOM     30  C   UNL A   1      28.162  27.012  23.803  1.00  0.00     0.000 A 
ENDBRANCH  23  24
ENDBRANCH   9  23
ENDBRANCH   7   8
ENDBRANCH   4   7
ENDBRANCH   2   3
ENDBRANCH   1   2
BRANCH   1  31
ATOM     31  C   UNL A   1      36.362  31.125  29.398  1.00  0.00     0.023 C 
BRANCH  31  32
ATOM     32  C   UNL A   1      37.141  32.292  30.024  1.00  0.00     0.116 C 
BRANCH  32  33
ATOM     33  N   UNL A   1      37.826  31.879  31.241  1.00  0.00    -0.352 N 
ATOM     34  C   UNL A   1      38.515  30.711  31.471  1.00  0.00     0.251 C 
ATOM     35  H   UNL A   1      37.790  32.514  31.993  1.00  0.00     0.163 HD
ATOM     36  O   UNL A   1      38.218  30.101  32.503  1.00  0.00    -0.269 OA
BRANCH  34  37
ATOM     37  C   UNL A   1      39.627  30.191  30.606  1.00  0.00     0.039 A 
ATOM     38  C   UNL A   1      39.637  28.810  30.352  1.00  0.00     0.014 A 
ATOM     39  C   UNL A   1      40.702  30.938  30.120  1.00  0.00     0.014 A 
ATOM     40  C   UNL A   1      40.644  28.208  29.572  1.00  0.00     0.010 A 
ATOM     41  C   UNL A   1      41.719  30.325  29.332  1.00  0.00     0.010 A 
ATOM     42  C   UNL A   1      41.688  28.962  29.004  1.00  0.00    -0.014 A 
BRANCH  42  43
ATOM     43  C   UNL A   1      42.335  28.357  27.781  1.00  0.00     0.031 A 
ATOM     44  C   UNL A   1      43.667  29.088  27.590  1.00  0.00     0.074 A 
ATOM     45  C   UNL A   1      42.389  27.099  27.224  1.00  0.00     0.049 A 
ATOM     46  N   UNL A   1      44.606  28.997  28.488  1.00  0.00    -0.248 NA
ATOM     47  C   UNL A   1      44.000  30.066  26.548  1.00  0.00     0.031 C 
ATOM     48  C   UNL A   1      42.629  26.921  25.778  1.00  0.00     0.029 A 
ATOM     49  N   UNL A   1      42.224  25.763  27.654  1.00  0.00    -0.354 N 
ATOM     50  C   UNL A   1      45.760  29.525  27.928  1.00  0.00     0.074 A 
ATOM     51  C   UNL A   1      45.288  30.359  26.838  1.00  0.00     0.031 C 
ATOM     52  C   UNL A   1      42.717  25.612  25.457  1.00  0.00     0.029 A 
ATOM     53  C   UNL A   1      42.650  24.802  26.668  1.00  0.00     0.049 A 
ATOM     54  H   UNL A   1      41.856  25.516  28.534  1.00  0.00     0.167 HD
ATOM     55  C   UNL A   1      46.957  28.872  28.109  1.00  0.00     0.034 A 
ATOM     56  C   UNL A   1      43.182  23.523  26.762  1.00  0.00     0.034 A 
ATOM     57  C   UNL A   1      46.629  27.502  28.402  1.00  0.00     0.049 A 
ATOM     58  C   UNL A   1      43.487  23.156  28.196  1.00  0.00     0.074 A 
ATOM     59  C   UNL A   1      46.212  26.663  27.409  1.00  0.00     0.029 A 
ATOM     60  N   UNL A   1      46.462  26.890  29.634  1.00  0.00    -0.354 N 
ATOM     61  N   UNL A   1      44.681  23.301  28.694  1.00  0.00    -0.248 NA
ATOM     62  C   UNL A   1      42.489  22.880  29.229  1.00  0.00     0.031 C 
ATOM     63  C   UNL A   1      45.478  25.740  28.091  1.00  0.00     0.029 A 
ATOM     64  C   UNL A   1      45.683  25.750  29.453  1.00  0.00     0.049 A 
ATOM     65  H   UNL A   1      46.831  27.207  30.489  1.00  0.00     0.167 HD
ATOM     66  C   UNL A   1      44.472  23.755  29.979  1.00  0.00     0.074 A 
ATOM     67  C   UNL A   1      43.181  23.181  30.344  1.00  0.00     0.031 C 
ATOM     68  C   UNL A   1      45.057  24.905  30.479  1.00  0.00     0.034 A 
BRANCH  55  69
ATOM     69  C   UNL A   1      48.313  29.044  27.464  1.00  0.00     0.023 A 
ATOM     70  C   UNL A   1      48.609  28.227  26.332  1.00  0.00     0.031 A 
ATOM     71  C   UNL A   1      49.349  29.856  27.911  1.00  0.00     0.131 A 
ATOM     72  C   UNL A   1      49.843  28.225  25.689  1.00  0.00     0.055 A 
ATOM     73  C   UNL A   1      50.609  29.848  27.274  1.00  0.00     0.041 A 
ATOM     74  F   UNL A   1      49.187  30.651  28.980  1.00  0.00    -0.206 F 
ATOM     75  C   UNL A   1      50.863  29.031  26.164  1.00  0.00     0.022 A 
BRANCH  72  76
ATOM     76  S   UNL A   1      50.064  27.105  24.276  1.00  0.00     0.124 S 
ATOM     77  O   UNL A   1      51.505  26.871  24.287  1.00  0.00    -0.237 OA
ATOM     78  O   UNL A   1      49.220  25.975  24.650  1.00  0.00    -0.237 OA
ATOM     79  O   UNL A   1      49.579  27.896  23.147  1.00  0.00    -0.744 OA
ENDBRANCH  72  76
ENDBRANCH  55  69
BRANCH  56  80
ATOM     80  C   UNL A   1      44.087  22.843  25.711  1.00  0.00     0.023 A 
ATOM     81  C   UNL A   1      44.013  21.480  25.367  1.00  0.00     0.031 A 
ATOM     82  C   UNL A   1      45.189  23.531  25.131  1.00  0.00     0.131 A 
ATOM     83  C   UNL A   1      45.021  20.884  24.546  1.00  0.00     0.055 A 
ATOM     84  C   UNL A   1      46.187  22.945  24.350  1.00  0.00     0.041 A 
ATOM     85  F   UNL A   1      45.365  24.836  25.282  1.00  0.00    -0.206 F 
ATOM     86  C   UNL A   1      46.115  21.605  24.060  1.00  0.00     0.022 A 
BRANCH  83  87
ATOM     87  S   UNL A   1      44.909  19.138  24.053  1.00  0.00     0.124 S 
ATOM     88  O   UNL A   1      43.850  18.638  24.923  1.00  0.00    -0.237 OA
ATOM     89  O   UNL A   1      44.575  19.231  22.634  1.00  0.00    -0.237 OA
ATOM     90  O   UNL A   1      46.243  18.606  24.329  1.00  0.00    -0.744 OA
ENDBRANCH  83  87
ENDBRANCH  56  80
BRANCH  68  91
ATOM     91  C   UNL A   1      44.742  25.355  31.877  1.00  0.00     0.023 A 
ATOM     92  C   UNL A   1      45.235  24.638  32.979  1.00  0.00     0.031 A 
ATOM     93  C   UNL A   1      43.946  26.475  32.173  1.00  0.00     0.131 A 
ATOM     94  C   UNL A   1      44.809  24.938  34.279  1.00  0.00     0.055 A 
ATOM     95  C   UNL A   1      43.563  26.809  33.473  1.00  0.00     0.041 A 
ATOM     96  F   UNL A   1      43.491  27.293  31.216  1.00  0.00    -0.206 F 
ATOM     97  C   UNL A   1      43.971  26.021  34.537  1.00  0.00     0.022 A 
BRANCH  94  98
ATOM     98  S   UNL A   1      45.304  23.857  35.643  1.00  0.00     0.124 S 
ATOM     99  O   UNL A   1      43.996  23.449  36.170  1.00  0.00    -0.237 OA
ATOM    100  O   UNL A   1      46.058  22.804  34.951  1.00  0.00    -0.237 OA
ATOM    101  O   UNL A   1      46.081  24.721  36.495  1.00  0.00    -0.744 OA
ENDBRANCH  94  98
ENDBRANCH  68  91
ENDBRANCH  42  43
ENDBRANCH  34  37
ENDBRANCH  32  33
ENDBRANCH  31  32
ENDBRANCH   1  31
TORSDOF 17
ENDMDL
MODEL 2
REMARK VINA RESULT:     -12.8      2.927      6.863
REMARK SMILES Cc1ccccc1CN1C(=O)[C@H](CC(=O)NCCCCNC(=O)c2ccc(-c3c4nc(c(-c5cc(S(=O)(=O)[O-])ccc5F)c5ccc([nH]5)c(-c5cc(S(=O)(=O)[O-])ccc5F)c5nc(c(-c6cc(S(=O)(=O)[O-])ccc6F)c6ccc3[nH]6)C=C5)C=C4)cc2)n2c(nc3ccccc32)[C@H]1C
REMARK SMILES IDX 18 1 17 2 16 3 14 4 15 5 13 7 12 8 9 9 10 10 96 11 11 12
REMARK SMILES IDX 88 13 97 14 87 15 89 16 95 17 90 18 94 19 91 20 93 21 92 22
REMARK SMILES IDX 8 23 7 24 1 25 2 26 3 27 4 28 6 29 5 30 19 31 20 32 21 33
REMARK SMILES IDX 22 34 23 36 24 37 25 38 86 39 26 40 85 41 27 42 28 43 29 44
REMARK SMILES IDX 79 45 30 46 84 47 78 48 80 49 31 50 83 51 77 52 76 53 32 55
REMARK SMILES IDX 64 56 44 57 63 58 45 59 48 60 62 61 81 62 46 63 47 64 61 66
REMARK SMILES IDX 82 67 49 68 33 69 34 70 42 71 35 72 41 73 43 74 40 75 36 76
REMARK SMILES IDX 37 77 38 78 39 79 65 80 66 81 74 82 67 83 73 84 75 85 72 86
REMARK SMILES IDX 68 87 69 88 70 89 71 90 50 91 51 92 59 93 52 94 58 95 60 96
REMARK SMILES IDX 57 97 53 98 54 99 55 100 56 101
REMARK H PARENT 16 6 21 35 80 54 48 65
REMARK Flexibility Score: inf
ROOT
ATOM      1  C   UNL A   1      35.140  30.685  28.035  1.00  0.00     0.023 C 
ENDROOT
BRANCH   1   2
ATOM      2  C   UNL A   1      33.887  30.566  27.153  1.00  0.00     0.116 C 
BRANCH   2   3
ATOM      3  N   UNL A   1      32.895  29.680  27.752  1.00  0.00    -0.356 N 
ATOM      4  C   UNL A   1      32.534  28.403  27.441  1.00  0.00     0.222 C 
ATOM      5  O   UNL A   1      31.524  27.942  27.984  1.00  0.00    -0.275 OA
ATOM      6  H   UNL A   1      32.401  30.070  28.509  1.00  0.00     0.163 HD
BRANCH   4   7
ATOM      7  C   UNL A   1      33.313  27.553  26.448  1.00  0.00     0.135 C 
BRANCH   7   8
ATOM      8  C   UNL A   1      32.359  27.047  25.353  1.00  0.00     0.187 C 
ATOM      9  N   UNL A   1      31.869  27.542  22.989  1.00  0.00    -0.327 N 
ATOM     10  C   UNL A   1      32.386  28.018  24.177  1.00  0.00     0.247 C 
ATOM     11  C   UNL A   1      32.711  26.465  22.466  1.00  0.00     0.149 C 
ATOM     12  O   UNL A   1      32.850  29.156  24.221  1.00  0.00    -0.272 OA
ATOM     13  C   UNL A   1      32.767  25.394  23.522  1.00  0.00     0.133 A 
ATOM     14  C   UNL A   1      32.352  25.885  21.107  1.00  0.00     0.040 C 
ATOM     15  N   UNL A   1      32.620  25.696  24.864  1.00  0.00    -0.313 N 
ATOM     16  N   UNL A   1      32.953  24.104  23.340  1.00  0.00    -0.231 NA
ATOM     17  C   UNL A   1      32.572  24.510  25.556  1.00  0.00     0.069 A 
ATOM     18  C   UNL A   1      32.836  23.544  24.586  1.00  0.00     0.089 A 
ATOM     19  C   UNL A   1      32.341  24.177  26.895  1.00  0.00     0.028 A 
ATOM     20  C   UNL A   1      32.923  22.194  24.950  1.00  0.00     0.030 A 
ATOM     21  C   UNL A   1      32.429  22.821  27.240  1.00  0.00     0.002 A 
ATOM     22  C   UNL A   1      32.722  21.843  26.288  1.00  0.00     0.002 A 
BRANCH   9  23
ATOM     23  C   UNL A   1      31.173  28.506  22.129  1.00  0.00     0.156 C 
BRANCH  23  24
ATOM     24  C   UNL A   1      29.812  28.853  22.707  1.00  0.00    -0.026 A 
ATOM     25  C   UNL A   1      29.189  26.445  23.418  1.00  0.00     0.044 C 
ATOM     26  C   UNL A   1      28.877  27.896  23.164  1.00  0.00    -0.046 A 
ATOM     27  C   UNL A   1      27.562  28.314  23.459  1.00  0.00     0.004 A 
ATOM     28  C   UNL A   1      27.179  29.648  23.330  1.00  0.00     0.000 A 
ATOM     29  C   UNL A   1      29.425  30.205  22.687  1.00  0.00     0.006 A 
ATOM     30  C   UNL A   1      28.121  30.599  22.969  1.00  0.00     0.000 A 
ENDBRANCH  23  24
ENDBRANCH   9  23
ENDBRANCH   7   8
ENDBRANCH   4   7
ENDBRANCH   2   3
ENDBRANCH   1   2
BRANCH   1  31
ATOM     31  C   UNL A   1      36.055  29.466  28.072  1.00  0.00     0.023 C 
BRANCH  31  32
ATOM     32  C   UNL A   1      37.552  29.792  27.956  1.00  0.00     0.116 C 
BRANCH  32  33
ATOM     33  N   UNL A   1      37.905  30.954  28.760  1.00  0.00    -0.352 N 
ATOM     34  C   UNL A   1      38.443  30.977  30.026  1.00  0.00     0.251 C 
ATOM     35  H   UNL A   1      37.737  31.832  28.346  1.00  0.00     0.163 HD
ATOM     36  O   UNL A   1      37.874  31.708  30.842  1.00  0.00    -0.269 OA
BRANCH  34  37
ATOM     37  C   UNL A   1      39.690  30.248  30.436  1.00  0.00     0.039 A 
ATOM     38  C   UNL A   1      40.806  30.382  29.595  1.00  0.00     0.014 A 
ATOM     39  C   UNL A   1      39.807  29.373  31.518  1.00  0.00     0.014 A 
ATOM     40  C   UNL A   1      42.023  29.727  29.869  1.00  0.00     0.010 A 
ATOM     41  C   UNL A   1      41.039  28.711  31.791  1.00  0.00     0.010 A 
ATOM     42  C   UNL A   1      42.181  28.908  31.002  1.00  0.00    -0.014 A 
BRANCH  42  43
ATOM     43  C   UNL A   1      43.602  28.742  31.490  1.00  0.00     0.031 A 
ATOM     44  C   UNL A   1      43.521  27.941  32.792  1.00  0.00     0.074 A 
ATOM     45  C   UNL A   1      44.827  28.565  30.888  1.00  0.00     0.049 A 
ATOM     46  N   UNL A   1      43.071  26.718  32.790  1.00  0.00    -0.248 NA
ATOM     47  C   UNL A   1      43.745  28.438  34.154  1.00  0.00     0.031 C 
ATOM     48  C   UNL A   1      46.072  28.971  31.572  1.00  0.00     0.029 A 
ATOM     49  N   UNL A   1      45.320  28.097  29.649  1.00  0.00    -0.354 N 
ATOM     50  C   UNL A   1      43.365  26.172  34.032  1.00  0.00     0.074 A 
ATOM     51  C   UNL A   1      43.573  27.320  34.895  1.00  0.00     0.031 C 
ATOM     52  C   UNL A   1      47.159  28.644  30.840  1.00  0.00     0.029 A 
ATOM     53  C   UNL A   1      46.749  27.898  29.656  1.00  0.00     0.049 A 
ATOM     54  H   UNL A   1      44.749  27.927  28.865  1.00  0.00     0.167 HD
ATOM     55  C   UNL A   1      43.857  24.890  34.104  1.00  0.00     0.034 A 
ATOM     56  C   UNL A   1      47.583  27.018  28.980  1.00  0.00     0.034 A 
ATOM     57  C   UNL A   1      44.446  24.610  32.821  1.00  0.00     0.049 A 
ATOM     58  C   UNL A   1      46.791  25.996  28.197  1.00  0.00     0.074 A 
ATOM     59  C   UNL A   1      45.650  25.155  32.479  1.00  0.00     0.029 A 
ATOM     60  N   UNL A   1      43.877  23.999  31.716  1.00  0.00    -0.354 N 
ATOM     61  N   UNL A   1      46.539  24.816  28.686  1.00  0.00    -0.248 NA
ATOM     62  C   UNL A   1      46.010  26.273  26.992  1.00  0.00     0.031 C 
ATOM     63  C   UNL A   1      45.590  25.173  31.118  1.00  0.00     0.029 A 
ATOM     64  C   UNL A   1      44.595  24.383  30.587  1.00  0.00     0.049 A 
ATOM     65  H   UNL A   1      43.099  23.398  31.727  1.00  0.00     0.167 HD
ATOM     66  C   UNL A   1      45.247  24.542  28.290  1.00  0.00     0.074 A 
ATOM     67  C   UNL A   1      45.105  25.278  27.038  1.00  0.00     0.031 C 
ATOM     68  C   UNL A   1      44.247  24.177  29.175  1.00  0.00     0.034 A 
BRANCH  55  69
ATOM     69  C   UNL A   1      44.477  24.105  35.238  1.00  0.00     0.023 A 
ATOM     70  C   UNL A   1      44.968  24.845  36.355  1.00  0.00     0.031 A 
ATOM     71  C   UNL A   1      44.705  22.734  35.272  1.00  0.00     0.131 A 
ATOM     72  C   UNL A   1      45.629  24.260  37.430  1.00  0.00     0.055 A 
ATOM     73  C   UNL A   1      45.389  22.136  36.352  1.00  0.00     0.041 A 
ATOM     74  F   UNL A   1      44.303  21.945  34.264  1.00  0.00    -0.206 F 
ATOM     75  C   UNL A   1      45.858  22.896  37.433  1.00  0.00     0.022 A 
BRANCH  72  76
ATOM     76  S   UNL A   1      46.215  25.349  38.762  1.00  0.00     0.124 S 
ATOM     77  O   UNL A   1      46.440  26.608  38.059  1.00  0.00    -0.237 OA
ATOM     78  O   UNL A   1      45.093  25.318  39.695  1.00  0.00    -0.237 OA
ATOM     79  O   UNL A   1      47.428  24.680  39.227  1.00  0.00    -0.744 OA
ENDBRANCH  72  76
ENDBRANCH  55  69
BRANCH  56  80
ATOM     80  C   UNL A   1      48.968  26.535  29.466  1.00  0.00     0.023 A 
ATOM     81  C   UNL A   1      49.173  25.766  30.627  1.00  0.00     0.031 A 
ATOM     82  C   UNL A   1      50.166  26.986  28.846  1.00  0.00     0.131 A 
ATOM     83  C   UNL A   1      50.497  25.542  31.122  1.00  0.00     0.055 A 
ATOM     84  C   UNL A   1      51.455  26.789  29.342  1.00  0.00     0.041 A 
ATOM     85  F   UNL A   1      50.160  27.652  27.699  1.00  0.00    -0.206 F 
ATOM     86  C   UNL A   1      51.630  26.070  30.498  1.00  0.00     0.022 A 
BRANCH  83  87
ATOM     87  S   UNL A   1      50.780  24.509  32.591  1.00  0.00     0.124 S 
ATOM     88  O   UNL A   1      51.913  25.175  33.224  1.00  0.00    -0.237 OA
ATOM     89  O   UNL A   1      49.506  24.613  33.299  1.00  0.00    -0.237 OA
ATOM     90  O   UNL A   1      51.064  23.184  32.043  1.00  0.00    -0.744 OA
ENDBRANCH  83  87
ENDBRANCH  56  80
BRANCH  68  91
ATOM     91  C   UNL A   1      42.853  23.939  28.667  1.00  0.00     0.023 A 
ATOM     92  C   UNL A   1      42.490  22.681  28.160  1.00  0.00     0.031 A 
ATOM     93  C   UNL A   1      41.853  24.928  28.648  1.00  0.00     0.131 A 
ATOM     94  C   UNL A   1      41.257  22.493  27.524  1.00  0.00     0.055 A 
ATOM     95  C   UNL A   1      40.603  24.726  28.063  1.00  0.00     0.041 A 
ATOM     96  F   UNL A   1      42.044  26.139  29.183  1.00  0.00    -0.206 F 
ATOM     97  C   UNL A   1      40.305  23.510  27.469  1.00  0.00     0.022 A 
BRANCH  94  98
ATOM     98  S   UNL A   1      40.917  20.918  26.703  1.00  0.00     0.124 S 
ATOM     99  O   UNL A   1      39.612  21.194  26.090  1.00  0.00    -0.237 OA
ATOM    100  O   UNL A   1      42.040  20.805  25.763  1.00  0.00    -0.237 OA
ATOM    101  O   UNL A   1      40.912  19.965  27.783  1.00  0.00    -0.744 OA
ENDBRANCH  94  98
ENDBRANCH  68  91
ENDBRANCH  42  43
ENDBRANCH  34  37
ENDBRANCH  32  33
ENDBRANCH  31  32
ENDBRANCH   1  31
TORSDOF 17
ENDMDL
MODEL 3
REMARK VINA RESULT:     -12.7      6.317     10.793
REMARK SMILES Cc1ccccc1CN1C(=O)[C@H](CC(=O)NCCCCNC(=O)c2ccc(-c3c4nc(c(-c5cc(S(=O)(=O)[O-])ccc5F)c5ccc([nH]5)c(-c5cc(S(=O)(=O)[O-])ccc5F)c5nc(c(-c6cc(S(=O)(=O)[O-])ccc6F)c6ccc3[nH]6)C=C5)C=C4)cc2)n2c(nc3ccccc32)[C@H]1C
REMARK SMILES IDX 18 1 17 2 16 3 14 4 15 5 13 7 12 8 9 9 10 10 96 11 11 12
REMARK SMILES IDX 88 13 97 14 87 15 89 16 95 17 90 18 94 19 91 20 93 21 92 22
REMARK SMILES IDX 8 23 7 24 1 25 2 26 3 27 4 28 6 29 5 30 19 31 20 32 21 33
REMARK SMILES IDX 22 34 23 36 24 37 25 38 86 39 26 40 85 41 27 42 28 43 29 44
REMARK SMILES IDX 79 45 30 46 84 47 78 48 80 49 31 50 83 51 77 52 76 53 32 55
REMARK SMILES IDX 64 56 44 57 63 58 45 59 48 60 62 61 81 62 46 63 47 64 61 66
REMARK SMILES IDX 82 67 49 68 33 69 34 70 42 71 35 72 41 73 43 74 40 75 36 76
REMARK SMILES IDX 37 77 38 78 39 79 65 80 66 81 74 82 67 83 73 84 75 85 72 86
REMARK SMILES IDX 68 87 69 88 70 89 71 90 50 91 51 92 59 93 52 94 58 95 60 96
REMARK SMILES IDX 57 97 53 98 54 99 55 100 56 101
REMARK H PARENT 16 6 21 35 80 54 48 65
REMARK Flexibility Score: inf
ROOT
ATOM      1  C   UNL A   1      35.628  30.617  27.998  1.00  0.00     0.023 C 
ENDROOT
BRANCH   1   2
ATOM      2  C   UNL A   1      34.400  30.456  27.088  1.00  0.00     0.116 C 
BRANCH   2   3
ATOM      3  N   UNL A   1      33.362  29.654  27.729  1.00  0.00    -0.356 N 
ATOM      4  C   UNL A   1      32.872  28.419  27.424  1.00  0.00     0.222 C 
ATOM      5  O   UNL A   1      31.853  28.043  28.014  1.00  0.00    -0.275 OA
ATOM      6  H   UNL A   1      32.944  30.077  28.514  1.00  0.00     0.163 HD
BRANCH   4   7
ATOM      7  C   UNL A   1      33.520  27.518  26.385  1.00  0.00     0.135 C 
BRANCH   7   8
ATOM      8  C   UNL A   1      32.458  27.068  25.367  1.00  0.00     0.187 C 
ATOM      9  N   UNL A   1      31.772  27.645  23.072  1.00  0.00    -0.327 N 
ATOM     10  C   UNL A   1      32.407  28.072  24.220  1.00  0.00     0.247 C 
ATOM     11  C   UNL A   1      32.534  26.563  22.445  1.00  0.00     0.149 C 
ATOM     12  O   UNL A   1      32.905  29.196  24.252  1.00  0.00    -0.272 OA
ATOM     13  C   UNL A   1      32.654  25.460  23.462  1.00  0.00     0.133 A 
ATOM     14  C   UNL A   1      32.037  26.032  21.109  1.00  0.00     0.040 C 
ATOM     15  N   UNL A   1      32.637  25.726  24.820  1.00  0.00    -0.313 N 
ATOM     16  N   UNL A   1      32.786  24.171  23.230  1.00  0.00    -0.231 NA
ATOM     17  C   UNL A   1      32.618  24.522  25.481  1.00  0.00     0.069 A 
ATOM     18  C   UNL A   1      32.766  23.578  24.466  1.00  0.00     0.089 A 
ATOM     19  C   UNL A   1      32.499  24.155  26.827  1.00  0.00     0.028 A 
ATOM     20  C   UNL A   1      32.848  22.216  24.784  1.00  0.00     0.030 A 
ATOM     21  C   UNL A   1      32.579  22.788  27.125  1.00  0.00     0.002 A 
ATOM     22  C   UNL A   1      32.758  21.832  26.125  1.00  0.00     0.002 A 
BRANCH   9  23
ATOM     23  C   UNL A   1      31.029  28.651  22.305  1.00  0.00     0.156 C 
BRANCH  23  24
ATOM     24  C   UNL A   1      29.540  28.541  22.581  1.00  0.00    -0.026 A 
ATOM     25  C   UNL A   1      28.880  30.768  21.444  1.00  0.00     0.044 C 
ATOM     26  C   UNL A   1      28.604  29.563  22.304  1.00  0.00    -0.046 A 
ATOM     27  C   UNL A   1      27.294  29.447  22.815  1.00  0.00     0.004 A 
ATOM     28  C   UNL A   1      26.904  28.338  23.564  1.00  0.00     0.000 A 
ATOM     29  C   UNL A   1      29.088  27.389  23.251  1.00  0.00     0.006 A 
ATOM     30  C   UNL A   1      27.797  27.295  23.760  1.00  0.00     0.000 A 
ENDBRANCH  23  24
ENDBRANCH   9  23
ENDBRANCH   7   8
ENDBRANCH   4   7
ENDBRANCH   2   3
ENDBRANCH   1   2
BRANCH   1  31
ATOM     31  C   UNL A   1      36.194  29.334  28.598  1.00  0.00     0.023 C 
BRANCH  31  32
ATOM     32  C   UNL A   1      37.709  29.163  28.415  1.00  0.00     0.116 C 
BRANCH  32  33
ATOM     33  N   UNL A   1      38.165  27.882  28.938  1.00  0.00    -0.352 N 
ATOM     34  C   UNL A   1      39.356  27.598  29.565  1.00  0.00     0.251 C 
ATOM     35  H   UNL A   1      37.543  27.126  28.828  1.00  0.00     0.163 HD
ATOM     36  O   UNL A   1      39.977  26.623  29.131  1.00  0.00    -0.269 OA
BRANCH  34  37
ATOM     37  C   UNL A   1      39.888  28.335  30.759  1.00  0.00     0.039 A 
ATOM     38  C   UNL A   1      41.280  28.319  30.943  1.00  0.00     0.014 A 
ATOM     39  C   UNL A   1      39.121  28.945  31.754  1.00  0.00     0.014 A 
ATOM     40  C   UNL A   1      41.891  28.958  32.040  1.00  0.00     0.010 A 
ATOM     41  C   UNL A   1      39.742  29.590  32.863  1.00  0.00     0.010 A 
ATOM     42  C   UNL A   1      41.135  29.649  33.005  1.00  0.00    -0.014 A 
BRANCH  42  43
ATOM     43  C   UNL A   1      41.877  30.727  33.761  1.00  0.00     0.031 A 
ATOM     44  C   UNL A   1      42.592  31.579  32.709  1.00  0.00     0.074 A 
ATOM     45  C   UNL A   1      41.639  31.463  34.900  1.00  0.00     0.049 A 
ATOM     46  N   UNL A   1      41.907  32.259  31.833  1.00  0.00    -0.248 NA
ATOM     47  C   UNL A   1      44.031  31.619  32.428  1.00  0.00     0.031 C 
ATOM     48  C   UNL A   1      42.756  32.034  35.679  1.00  0.00     0.029 A 
ATOM     49  N   UNL A   1      40.522  31.852  35.672  1.00  0.00    -0.354 N 
ATOM     50  C   UNL A   1      42.793  33.124  31.205  1.00  0.00     0.074 A 
ATOM     51  C   UNL A   1      44.101  32.543  31.443  1.00  0.00     0.031 C 
ATOM     52  C   UNL A   1      42.300  32.776  36.711  1.00  0.00     0.029 A 
ATOM     53  C   UNL A   1      40.844  32.857  36.655  1.00  0.00     0.049 A 
ATOM     54  H   UNL A   1      39.619  31.476  35.552  1.00  0.00     0.167 HD
ATOM     55  C   UNL A   1      42.414  34.426  30.975  1.00  0.00     0.034 A 
ATOM     56  C   UNL A   1      40.113  33.889  37.227  1.00  0.00     0.034 A 
ATOM     57  C   UNL A   1      41.372  34.717  31.923  1.00  0.00     0.049 A 
ATOM     58  C   UNL A   1      38.763  34.043  36.565  1.00  0.00     0.074 A 
ATOM     59  C   UNL A   1      41.674  34.937  33.237  1.00  0.00     0.029 A 
ATOM     60  N   UNL A   1      39.999  34.616  31.768  1.00  0.00    -0.354 N 
ATOM     61  N   UNL A   1      38.570  34.913  35.615  1.00  0.00    -0.248 NA
ATOM     62  C   UNL A   1      37.648  33.105  36.690  1.00  0.00     0.031 C 
ATOM     63  C   UNL A   1      40.515  34.594  33.867  1.00  0.00     0.029 A 
ATOM     64  C   UNL A   1      39.424  34.502  33.031  1.00  0.00     0.049 A 
ATOM     65  H   UNL A   1      39.514  34.622  30.912  1.00  0.00     0.167 HD
ATOM     66  C   UNL A   1      37.742  34.272  34.717  1.00  0.00     0.074 A 
ATOM     67  C   UNL A   1      36.977  33.349  35.548  1.00  0.00     0.031 C 
ATOM     68  C   UNL A   1      38.039  34.151  33.371  1.00  0.00     0.034 A 
BRANCH  55  69
ATOM     69  C   UNL A   1      43.193  35.646  30.539  1.00  0.00     0.023 A 
ATOM     70  C   UNL A   1      42.831  36.245  29.296  1.00  0.00     0.031 A 
ATOM     71  C   UNL A   1      44.295  36.201  31.181  1.00  0.00     0.131 A 
ATOM     72  C   UNL A   1      43.512  37.322  28.737  1.00  0.00     0.055 A 
ATOM     73  C   UNL A   1      45.000  37.283  30.612  1.00  0.00     0.041 A 
ATOM     74  F   UNL A   1      44.734  35.703  32.346  1.00  0.00    -0.206 F 
ATOM     75  C   UNL A   1      44.616  37.845  29.387  1.00  0.00     0.022 A 
BRANCH  72  76
ATOM     76  S   UNL A   1      42.938  37.951  27.132  1.00  0.00     0.124 S 
ATOM     77  O   UNL A   1      42.614  36.722  26.414  1.00  0.00    -0.237 OA
ATOM     78  O   UNL A   1      41.811  38.792  27.520  1.00  0.00    -0.237 OA
ATOM     79  O   UNL A   1      44.104  38.670  26.622  1.00  0.00    -0.744 OA
ENDBRANCH  72  76
ENDBRANCH  55  69
BRANCH  56  80
ATOM     80  C   UNL A   1      40.700  35.191  37.817  1.00  0.00     0.023 A 
ATOM     81  C   UNL A   1      41.888  35.798  37.366  1.00  0.00     0.031 A 
ATOM     82  C   UNL A   1      40.154  35.781  38.990  1.00  0.00     0.131 A 
ATOM     83  C   UNL A   1      42.474  36.877  38.100  1.00  0.00     0.055 A 
ATOM     84  C   UNL A   1      40.738  36.816  39.721  1.00  0.00     0.041 A 
ATOM     85  F   UNL A   1      38.996  35.388  39.503  1.00  0.00    -0.206 F 
ATOM     86  C   UNL A   1      41.917  37.367  39.284  1.00  0.00     0.022 A 
BRANCH  83  87
ATOM     87  S   UNL A   1      43.979  37.702  37.501  1.00  0.00     0.124 S 
ATOM     88  O   UNL A   1      43.682  37.897  36.086  1.00  0.00    -0.237 OA
ATOM     89  O   UNL A   1      44.019  38.914  38.315  1.00  0.00    -0.237 OA
ATOM     90  O   UNL A   1      45.046  36.743  37.786  1.00  0.00    -0.744 OA
ENDBRANCH  83  87
ENDBRANCH  56  80
BRANCH  68  91
ATOM     91  C   UNL A   1      37.104  33.398  32.467  1.00  0.00     0.023 A 
ATOM     92  C   UNL A   1      36.368  34.081  31.485  1.00  0.00     0.031 A 
ATOM     93  C   UNL A   1      36.895  32.011  32.547  1.00  0.00     0.131 A 
ATOM     94  C   UNL A   1      35.367  33.426  30.756  1.00  0.00     0.055 A 
ATOM     95  C   UNL A   1      35.935  31.346  31.782  1.00  0.00     0.041 A 
ATOM     96  F   UNL A   1      37.600  31.234  33.378  1.00  0.00    -0.206 F 
ATOM     97  C   UNL A   1      35.141  32.058  30.898  1.00  0.00     0.022 A 
BRANCH  94  98
ATOM     98  S   UNL A   1      34.304  34.389  29.654  1.00  0.00     0.124 S 
ATOM     99  O   UNL A   1      35.293  34.946  28.722  1.00  0.00    -0.237 OA
ATOM    100  O   UNL A   1      33.422  33.360  29.090  1.00  0.00    -0.237 OA
ATOM    101  O   UNL A   1      33.671  35.337  30.535  1.00  0.00    -0.744 OA
ENDBRANCH  94  98
ENDBRANCH  68  91
ENDBRANCH  42  43
ENDBRANCH  34  37
ENDBRANCH  32  33
ENDBRANCH  31  32
ENDBRANCH   1  31
TORSDOF 17
ENDMDL
