MODEL 1
REMARK VINA RESULT:     -12.5      0.000      0.000
REMARK SMILES O=C(NCCCCNC(=O)c1noc(-c2ccccc2C(F)(F)F)n1)c1ccc(-c2c3nc(c(-c4cc(S(=O)(=O)[O-])ccc4F)c4ccc([nH]4)c(-c4cc(S(=O)(=O)[O-])ccc4F)c4nc(c(-c5cc(S(=O)(=O)[O-])ccc5F)c5ccc2[nH]5)C=C4)C=C3)cc1
REMARK SMILES IDX 5 1 4 2 3 3 1 4 2 5 26 7 27 8 88 9 28 10 87 11 29 12 30 13
REMARK SMILES IDX 31 14 81 15 32 16 86 17 80 18 82 19 33 20 85 21 79 22 78 23
REMARK SMILES IDX 34 25 66 26 46 27 65 28 47 29 50 30 64 31 83 32 48 33 49 34
REMARK SMILES IDX 63 36 84 37 51 38 35 39 36 40 44 41 37 42 43 43 45 44 42 45
REMARK SMILES IDX 38 46 39 47 40 48 41 49 67 50 68 51 76 52 69 53 75 54 77 55
REMARK SMILES IDX 74 56 70 57 71 58 72 59 73 60 52 61 53 62 61 63 54 64 60 65
REMARK SMILES IDX 62 66 59 67 55 68 56 69 57 70 58 71 6 72 7 73 8 74 9 75
REMARK SMILES IDX 10 77 11 78 12 79 25 80 13 81 14 82 15 83 16 84 20 85 17 86
REMARK SMILES IDX 19 87 18 88 21 89 22 90 23 91 24 92
REMARK H PARENT 3 6 82 24 50 35 8 76
REMARK Flexibility Score: inf
ROOT
ATOM      1  C   UNL A   1      35.533  22.853  24.710  1.00  0.00     0.023 C 
ENDROOT
BRANCH   1   2
ATOM      2  C   UNL A   1      36.249  22.505  26.009  1.00  0.00     0.116 C 
BRANCH   2   3
ATOM      3  N   UNL A   1      37.228  21.436  25.857  1.00  0.00    -0.352 N 
ATOM      4  O   UNL A   1      39.286  20.516  25.736  1.00  0.00    -0.269 OA
ATOM      5  C   UNL A   1      38.593  21.489  26.019  1.00  0.00     0.251 C 
ATOM      6  H   UNL A   1      36.862  20.556  25.606  1.00  0.00     0.163 HD
BRANCH   5   7
ATOM      7  C   UNL A   1      39.218  22.737  26.505  1.00  0.00     0.039 A 
ATOM      8  C   UNL A   1      38.745  23.978  26.074  1.00  0.00     0.014 A 
ATOM      9  C   UNL A   1      40.313  22.663  27.371  1.00  0.00     0.014 A 
ATOM     10  C   UNL A   1      39.461  25.130  26.377  1.00  0.00     0.010 A 
ATOM     11  C   UNL A   1      40.979  23.834  27.746  1.00  0.00     0.010 A 
ATOM     12  C   UNL A   1      40.583  25.073  27.219  1.00  0.00    -0.014 A 
BRANCH  12  13
ATOM     13  C   UNL A   1      41.301  26.332  27.551  1.00  0.00     0.031 A 
ATOM     14  C   UNL A   1      42.669  26.619  26.996  1.00  0.00     0.074 A 
ATOM     15  C   UNL A   1      40.680  27.242  28.327  1.00  0.00     0.049 A 
ATOM     16  N   UNL A   1      43.418  27.681  27.151  1.00  0.00    -0.248 NA
ATOM     17  C   UNL A   1      43.282  25.571  26.167  1.00  0.00     0.031 C 
ATOM     18  C   UNL A   1      39.353  27.070  28.924  1.00  0.00     0.029 A 
ATOM     19  N   UNL A   1      41.060  28.499  28.722  1.00  0.00    -0.354 N 
ATOM     20  C   UNL A   1      44.597  27.427  26.457  1.00  0.00     0.074 A 
ATOM     21  C   UNL A   1      44.474  26.090  25.910  1.00  0.00     0.031 C 
ATOM     22  C   UNL A   1      39.006  28.199  29.558  1.00  0.00     0.029 A 
ATOM     23  C   UNL A   1      40.108  29.149  29.471  1.00  0.00     0.049 A 
ATOM     24  H   UNL A   1      41.930  28.896  28.491  1.00  0.00     0.167 HD
ATOM     25  C   UNL A   1      45.674  28.234  26.289  1.00  0.00     0.034 A 
ATOM     26  C   UNL A   1      40.124  30.371  30.038  1.00  0.00     0.034 A 
ATOM     27  C   UNL A   1      45.773  29.568  26.837  1.00  0.00     0.049 A 
ATOM     28  C   UNL A   1      41.342  31.233  29.861  1.00  0.00     0.074 A 
ATOM     29  C   UNL A   1      46.802  30.484  26.698  1.00  0.00     0.029 A 
ATOM     30  N   UNL A   1      44.813  30.174  27.638  1.00  0.00    -0.354 N 
ATOM     31  N   UNL A   1      42.442  30.981  29.191  1.00  0.00    -0.248 NA
ATOM     32  C   UNL A   1      41.318  32.545  30.518  1.00  0.00     0.031 C 
ATOM     33  C   UNL A   1      46.493  31.616  27.464  1.00  0.00     0.029 A 
ATOM     34  C   UNL A   1      45.238  31.438  28.026  1.00  0.00     0.049 A 
ATOM     35  H   UNL A   1      43.953  29.766  27.892  1.00  0.00     0.167 HD
ATOM     36  C   UNL A   1      43.237  32.113  29.332  1.00  0.00     0.074 A 
ATOM     37  C   UNL A   1      42.478  33.055  30.132  1.00  0.00     0.031 C 
ATOM     38  C   UNL A   1      44.481  32.354  28.845  1.00  0.00     0.034 A 
BRANCH  25  39
ATOM     39  C   UNL A   1      46.850  27.674  25.521  1.00  0.00     0.023 A 
ATOM     40  C   UNL A   1      47.111  28.040  24.189  1.00  0.00     0.031 A 
ATOM     41  C   UNL A   1      47.708  26.736  26.124  1.00  0.00     0.131 A 
ATOM     42  C   UNL A   1      48.153  27.418  23.480  1.00  0.00     0.055 A 
ATOM     43  C   UNL A   1      48.790  26.179  25.439  1.00  0.00     0.041 A 
ATOM     44  F   UNL A   1      47.500  26.332  27.387  1.00  0.00    -0.206 F 
ATOM     45  C   UNL A   1      49.008  26.507  24.104  1.00  0.00     0.022 A 
BRANCH  42  46
ATOM     46  S   UNL A   1      48.281  27.705  21.693  1.00  0.00     0.124 S 
ATOM     47  O   UNL A   1      49.347  28.702  21.630  1.00  0.00    -0.237 OA
ATOM     48  O   UNL A   1      48.614  26.380  21.185  1.00  0.00    -0.237 OA
ATOM     49  O   UNL A   1      46.955  28.199  21.329  1.00  0.00    -0.744 OA
ENDBRANCH  42  46
ENDBRANCH  25  39
BRANCH  26  50
ATOM     50  C   UNL A   1      38.960  30.836  30.842  1.00  0.00     0.023 A 
ATOM     51  C   UNL A   1      37.831  31.394  30.224  1.00  0.00     0.031 A 
ATOM     52  C   UNL A   1      38.969  30.743  32.245  1.00  0.00     0.131 A 
ATOM     53  C   UNL A   1      36.769  31.867  31.009  1.00  0.00     0.055 A 
ATOM     54  C   UNL A   1      37.890  31.169  33.019  1.00  0.00     0.041 A 
ATOM     55  F   UNL A   1      40.024  30.212  32.884  1.00  0.00    -0.206 F 
ATOM     56  C   UNL A   1      36.784  31.746  32.400  1.00  0.00     0.022 A 
BRANCH  53  57
ATOM     57  S   UNL A   1      35.388  32.706  30.186  1.00  0.00     0.124 S 
ATOM     58  O   UNL A   1      36.011  33.953  29.754  1.00  0.00    -0.237 OA
ATOM     59  O   UNL A   1      35.045  31.760  29.130  1.00  0.00    -0.237 OA
ATOM     60  O   UNL A   1      34.392  32.840  31.246  1.00  0.00    -0.744 OA
ENDBRANCH  53  57
ENDBRANCH  26  50
BRANCH  38  61
ATOM     61  C   UNL A   1      45.071  33.708  29.150  1.00  0.00     0.023 A 
ATOM     62  C   UNL A   1      44.904  34.798  28.278  1.00  0.00     0.031 A 
ATOM     63  C   UNL A   1      45.848  33.896  30.306  1.00  0.00     0.131 A 
ATOM     64  C   UNL A   1      45.558  36.011  28.543  1.00  0.00     0.055 A 
ATOM     65  C   UNL A   1      46.449  35.123  30.594  1.00  0.00     0.041 A 
ATOM     66  F   UNL A   1      46.043  32.887  31.171  1.00  0.00    -0.206 F 
ATOM     67  C   UNL A   1      46.318  36.184  29.702  1.00  0.00     0.022 A 
BRANCH  64  68
ATOM     68  S   UNL A   1      45.487  37.328  27.298  1.00  0.00     0.124 S 
ATOM     69  O   UNL A   1      44.063  37.371  26.981  1.00  0.00    -0.237 OA
ATOM     70  O   UNL A   1      46.013  38.476  28.029  1.00  0.00    -0.237 OA
ATOM     71  O   UNL A   1      46.346  36.832  26.224  1.00  0.00    -0.744 OA
ENDBRANCH  64  68
ENDBRANCH  38  61
ENDBRANCH  12  13
ENDBRANCH   5   7
ENDBRANCH   2   3
ENDBRANCH   1   2
BRANCH   1  72
ATOM     72  C   UNL A   1      34.481  21.841  24.256  1.00  0.00     0.023 C 
BRANCH  72  73
ATOM     73  C   UNL A   1      33.070  22.100  24.782  1.00  0.00     0.116 C 
BRANCH  73  74
ATOM     74  N   UNL A   1      32.955  21.793  26.198  1.00  0.00    -0.349 N 
ATOM     75  C   UNL A   1      32.459  22.588  27.213  1.00  0.00     0.292 C 
ATOM     76  H   UNL A   1      33.272  20.901  26.469  1.00  0.00     0.163 HD
ATOM     77  O   UNL A   1      32.628  22.227  28.378  1.00  0.00    -0.266 OA
BRANCH  75  78
ATOM     78  C   UNL A   1      31.757  23.826  26.856  1.00  0.00     0.260 A 
ATOM     79  N   UNL A   1      30.415  23.935  26.881  1.00  0.00    -0.051 NA
ATOM     80  N   UNL A   1      32.406  24.997  26.495  1.00  0.00    -0.182 NA
ATOM     81  O   UNL A   1      30.189  25.278  26.575  1.00  0.00    -0.333 OA
ATOM     82  C   UNL A   1      31.412  25.836  26.360  1.00  0.00     0.259 A 
BRANCH  82  83
ATOM     83  C   UNL A   1      31.448  27.255  26.063  1.00  0.00     0.052 A 
ATOM     84  C   UNL A   1      31.753  28.152  27.103  1.00  0.00     0.014 A 
ATOM     85  C   UNL A   1      31.262  27.748  24.756  1.00  0.00     0.068 A 
ATOM     86  C   UNL A   1      31.893  29.516  26.854  1.00  0.00     0.001 A 
ATOM     87  C   UNL A   1      31.414  29.129  24.523  1.00  0.00     0.014 A 
ATOM     88  C   UNL A   1      31.727  30.005  25.563  1.00  0.00     0.001 A 
BRANCH  85  89
ATOM     89  C   UNL A   1      30.935  26.847  23.586  1.00  0.00     0.417 C 
ATOM     90  F   UNL A   1      29.751  26.188  23.768  1.00  0.00    -0.166 F 
ATOM     91  F   UNL A   1      30.793  27.534  22.422  1.00  0.00    -0.166 F 
ATOM     92  F   UNL A   1      31.846  25.865  23.354  1.00  0.00    -0.166 F 
ENDBRANCH  85  89
ENDBRANCH  82  83
ENDBRANCH  75  78
ENDBRANCH  73  74
ENDBRANCH  72  73
ENDBRANCH   1  72
TORSDOF 16
ENDMDL
MODEL 2
REMARK VINA RESULT:     -12.5      1.538      1.796
REMARK SMILES O=C(NCCCCNC(=O)c1noc(-c2ccccc2C(F)(F)F)n1)c1ccc(-c2c3nc(c(-c4cc(S(=O)(=O)[O-])ccc4F)c4ccc([nH]4)c(-c4cc(S(=O)(=O)[O-])ccc4F)c4nc(c(-c5cc(S(=O)(=O)[O-])ccc5F)c5ccc2[nH]5)C=C4)C=C3)cc1
REMARK SMILES IDX 5 1 4 2 3 3 1 4 2 5 26 7 27 8 88 9 28 10 87 11 29 12 30 13
REMARK SMILES IDX 31 14 81 15 32 16 86 17 80 18 82 19 33 20 85 21 79 22 78 23
REMARK SMILES IDX 34 25 66 26 46 27 65 28 47 29 50 30 64 31 83 32 48 33 49 34
REMARK SMILES IDX 63 36 84 37 51 38 35 39 36 40 44 41 37 42 43 43 45 44 42 45
REMARK SMILES IDX 38 46 39 47 40 48 41 49 67 50 68 51 76 52 69 53 75 54 77 55
REMARK SMILES IDX 74 56 70 57 71 58 72 59 73 60 52 61 53 62 61 63 54 64 60 65
REMARK SMILES IDX 62 66 59 67 55 68 56 69 57 70 58 71 6 72 7 73 8 74 9 75
REMARK SMILES IDX 10 77 11 78 12 79 25 80 13 81 14 82 15 83 16 84 20 85 17 86
REMARK SMILES IDX 19 87 18 88 21 89 22 90 23 91 24 92
REMARK H PARENT 3 6 82 24 50 35 8 76
REMARK Flexibility Score: inf
ROOT
ATOM      1  C   UNL A   1      35.449  21.914  24.222  1.00  0.00     0.023 C 
ENDROOT
BRANCH   1   2
ATOM      2  C   UNL A   1      36.499  22.113  25.308  1.00  0.00     0.116 C 
BRANCH   2   3
ATOM      3  N   UNL A   1      37.421  20.991  25.430  1.00  0.00    -0.352 N 
ATOM      4  O   UNL A   1      39.398  19.969  25.804  1.00  0.00    -0.269 OA
ATOM      5  C   UNL A   1      38.722  20.991  25.877  1.00  0.00     0.251 C 
ATOM      6  H   UNL A   1      37.063  20.115  25.157  1.00  0.00     0.163 HD
BRANCH   5   7
ATOM      7  C   UNL A   1      39.305  22.238  26.415  1.00  0.00     0.039 A 
ATOM      8  C   UNL A   1      38.833  23.480  25.986  1.00  0.00     0.014 A 
ATOM      9  C   UNL A   1      40.361  22.163  27.328  1.00  0.00     0.014 A 
ATOM     10  C   UNL A   1      39.517  24.637  26.342  1.00  0.00     0.010 A 
ATOM     11  C   UNL A   1      40.991  23.336  27.755  1.00  0.00     0.010 A 
ATOM     12  C   UNL A   1      40.600  24.580  27.234  1.00  0.00    -0.014 A 
BRANCH  12  13
ATOM     13  C   UNL A   1      41.283  25.842  27.622  1.00  0.00     0.031 A 
ATOM     14  C   UNL A   1      42.684  26.142  27.166  1.00  0.00     0.074 A 
ATOM     15  C   UNL A   1      40.601  26.743  28.357  1.00  0.00     0.049 A 
ATOM     16  N   UNL A   1      43.412  27.209  27.379  1.00  0.00    -0.248 NA
ATOM     17  C   UNL A   1      43.362  25.103  26.377  1.00  0.00     0.031 C 
ATOM     18  C   UNL A   1      39.237  26.557  28.858  1.00  0.00     0.029 A 
ATOM     19  N   UNL A   1      40.943  28.000  28.783  1.00  0.00    -0.354 N 
ATOM     20  C   UNL A   1      44.638  26.968  26.768  1.00  0.00     0.074 A 
ATOM     21  C   UNL A   1      44.565  25.634  26.207  1.00  0.00     0.031 C 
ATOM     22  C   UNL A   1      38.837  27.680  29.472  1.00  0.00     0.029 A 
ATOM     23  C   UNL A   1      39.936  28.639  29.468  1.00  0.00     0.049 A 
ATOM     24  H   UNL A   1      41.824  28.406  28.617  1.00  0.00     0.167 HD
ATOM     25  C   UNL A   1      45.719  27.784  26.680  1.00  0.00     0.034 A 
ATOM     26  C   UNL A   1      39.902  29.857  30.040  1.00  0.00     0.034 A 
ATOM     27  C   UNL A   1      45.768  29.115  27.241  1.00  0.00     0.049 A 
ATOM     28  C   UNL A   1      41.122  30.731  29.954  1.00  0.00     0.074 A 
ATOM     29  C   UNL A   1      46.797  30.041  27.179  1.00  0.00     0.029 A 
ATOM     30  N   UNL A   1      44.749  29.710  27.975  1.00  0.00    -0.354 N 
ATOM     31  N   UNL A   1      42.269  30.490  29.361  1.00  0.00    -0.248 NA
ATOM     32  C   UNL A   1      41.042  32.039  30.614  1.00  0.00     0.031 C 
ATOM     33  C   UNL A   1      46.425  31.166  27.927  1.00  0.00     0.029 A 
ATOM     34  C   UNL A   1      45.136  30.975  28.398  1.00  0.00     0.049 A 
ATOM     35  H   UNL A   1      43.877  29.294  28.166  1.00  0.00     0.167 HD
ATOM     36  C   UNL A   1      43.043  31.627  29.564  1.00  0.00     0.074 A 
ATOM     37  C   UNL A   1      42.222  32.559  30.313  1.00  0.00     0.031 C 
ATOM     38  C   UNL A   1      44.315  31.881  29.166  1.00  0.00     0.034 A 
BRANCH  25  39
ATOM     39  C   UNL A   1      46.950  27.238  25.994  1.00  0.00     0.023 A 
ATOM     40  C   UNL A   1      47.942  26.531  26.696  1.00  0.00     0.031 A 
ATOM     41  C   UNL A   1      47.149  27.454  24.618  1.00  0.00     0.131 A 
ATOM     42  C   UNL A   1      49.117  26.130  26.040  1.00  0.00     0.055 A 
ATOM     43  C   UNL A   1      48.284  26.985  23.954  1.00  0.00     0.041 A 
ATOM     44  F   UNL A   1      46.248  28.138  23.896  1.00  0.00    -0.206 F 
ATOM     45  C   UNL A   1      49.285  26.333  24.668  1.00  0.00     0.022 A 
BRANCH  42  46
ATOM     46  S   UNL A   1      50.487  25.475  27.034  1.00  0.00     0.124 S 
ATOM     47  O   UNL A   1      50.793  26.611  27.900  1.00  0.00    -0.237 OA
ATOM     48  O   UNL A   1      49.880  24.321  27.683  1.00  0.00    -0.237 OA
ATOM     49  O   UNL A   1      51.514  25.166  26.041  1.00  0.00    -0.744 OA
ENDBRANCH  42  46
ENDBRANCH  25  39
BRANCH  26  50
ATOM     50  C   UNL A   1      38.680  30.309  30.762  1.00  0.00     0.023 A 
ATOM     51  C   UNL A   1      37.659  31.001  30.094  1.00  0.00     0.031 A 
ATOM     52  C   UNL A   1      38.526  30.068  32.139  1.00  0.00     0.131 A 
ATOM     53  C   UNL A   1      36.541  31.457  30.809  1.00  0.00     0.055 A 
ATOM     54  C   UNL A   1      37.390  30.479  32.837  1.00  0.00     0.041 A 
ATOM     55  F   UNL A   1      39.472  29.405  32.823  1.00  0.00    -0.206 F 
ATOM     56  C   UNL A   1      36.393  31.188  32.172  1.00  0.00     0.022 A 
BRANCH  53  57
ATOM     57  S   UNL A   1      35.308  32.465  29.943  1.00  0.00     0.124 S 
ATOM     58  O   UNL A   1      36.104  33.614  29.524  1.00  0.00    -0.237 OA
ATOM     59  O   UNL A   1      34.872  31.565  28.882  1.00  0.00    -0.237 OA
ATOM     60  O   UNL A   1      34.310  32.740  30.974  1.00  0.00    -0.744 OA
ENDBRANCH  53  57
ENDBRANCH  26  50
BRANCH  38  61
ATOM     61  C   UNL A   1      44.872  33.237  29.519  1.00  0.00     0.023 A 
ATOM     62  C   UNL A   1      44.734  34.338  28.655  1.00  0.00     0.031 A 
ATOM     63  C   UNL A   1      45.588  33.419  30.715  1.00  0.00     0.131 A 
ATOM     64  C   UNL A   1      45.358  35.554  28.968  1.00  0.00     0.055 A 
ATOM     65  C   UNL A   1      46.157  34.649  31.050  1.00  0.00     0.041 A 
ATOM     66  F   UNL A   1      45.752  32.400  31.575  1.00  0.00    -0.206 F 
ATOM     67  C   UNL A   1      46.058  35.721  30.167  1.00  0.00     0.022 A 
BRANCH  64  68
ATOM     68  S   UNL A   1      45.332  36.888  27.739  1.00  0.00     0.124 S 
ATOM     69  O   UNL A   1      46.363  36.457  26.800  1.00  0.00    -0.237 OA
ATOM     70  O   UNL A   1      43.959  36.833  27.248  1.00  0.00    -0.237 OA
ATOM     71  O   UNL A   1      45.664  38.080  28.519  1.00  0.00    -0.744 OA
ENDBRANCH  64  68
ENDBRANCH  38  61
ENDBRANCH  12  13
ENDBRANCH   5   7
ENDBRANCH   2   3
ENDBRANCH   1   2
BRANCH   1  72
ATOM     72  C   UNL A   1      34.225  22.821  24.326  1.00  0.00     0.023 C 
BRANCH  72  73
ATOM     73  C   UNL A   1      32.939  22.118  24.759  1.00  0.00     0.116 C 
BRANCH  73  74
ATOM     74  N   UNL A   1      32.927  21.839  26.185  1.00  0.00    -0.349 N 
ATOM     75  C   UNL A   1      32.502  22.653  27.217  1.00  0.00     0.292 C 
ATOM     76  H   UNL A   1      33.267  20.954  26.450  1.00  0.00     0.163 HD
ATOM     77  O   UNL A   1      32.757  22.317  28.374  1.00  0.00    -0.266 OA
BRANCH  75  78
ATOM     78  C   UNL A   1      31.772  23.883  26.887  1.00  0.00     0.260 A 
ATOM     79  N   UNL A   1      30.431  23.978  26.976  1.00  0.00    -0.051 NA
ATOM     80  N   UNL A   1      32.390  25.057  26.488  1.00  0.00    -0.182 NA
ATOM     81  O   UNL A   1      30.177  25.317  26.673  1.00  0.00    -0.333 OA
ATOM     82  C   UNL A   1      31.383  25.886  26.396  1.00  0.00     0.259 A 
BRANCH  82  83
ATOM     83  C   UNL A   1      31.390  27.303  26.090  1.00  0.00     0.052 A 
ATOM     84  C   UNL A   1      31.802  28.205  27.088  1.00  0.00     0.014 A 
ATOM     85  C   UNL A   1      31.072  27.789  24.806  1.00  0.00     0.068 A 
ATOM     86  C   UNL A   1      31.917  29.567  26.819  1.00  0.00     0.001 A 
ATOM     87  C   UNL A   1      31.201  29.169  24.551  1.00  0.00     0.014 A 
ATOM     88  C   UNL A   1      31.620  30.049  25.549  1.00  0.00     0.001 A 
BRANCH  85  89
ATOM     89  C   UNL A   1      30.625  26.883  23.681  1.00  0.00     0.417 C 
ATOM     90  F   UNL A   1      30.511  27.561  22.498  1.00  0.00    -0.166 F 
ATOM     91  F   UNL A   1      31.507  25.877  23.439  1.00  0.00    -0.166 F 
ATOM     92  F   UNL A   1      29.409  26.304  23.867  1.00  0.00    -0.166 F 
ENDBRANCH  85  89
ENDBRANCH  82  83
ENDBRANCH  75  78
ENDBRANCH  73  74
ENDBRANCH  72  73
ENDBRANCH   1  72
TORSDOF 16
ENDMDL
MODEL 3
REMARK VINA RESULT:     -12.5      4.300      6.991
REMARK SMILES O=C(NCCCCNC(=O)c1noc(-c2ccccc2C(F)(F)F)n1)c1ccc(-c2c3nc(c(-c4cc(S(=O)(=O)[O-])ccc4F)c4ccc([nH]4)c(-c4cc(S(=O)(=O)[O-])ccc4F)c4nc(c(-c5cc(S(=O)(=O)[O-])ccc5F)c5ccc2[nH]5)C=C4)C=C3)cc1
REMARK SMILES IDX 5 1 4 2 3 3 1 4 2 5 26 7 27 8 88 9 28 10 87 11 29 12 30 13
REMARK SMILES IDX 31 14 81 15 32 16 86 17 80 18 82 19 33 20 85 21 79 22 78 23
REMARK SMILES IDX 34 25 66 26 46 27 65 28 47 29 50 30 64 31 83 32 48 33 49 34
REMARK SMILES IDX 63 36 84 37 51 38 35 39 36 40 44 41 37 42 43 43 45 44 42 45
REMARK SMILES IDX 38 46 39 47 40 48 41 49 67 50 68 51 76 52 69 53 75 54 77 55
REMARK SMILES IDX 74 56 70 57 71 58 72 59 73 60 52 61 53 62 61 63 54 64 60 65
REMARK SMILES IDX 62 66 59 67 55 68 56 69 57 70 58 71 6 72 7 73 8 74 9 75
REMARK SMILES IDX 10 77 11 78 12 79 25 80 13 81 14 82 15 83 16 84 20 85 17 86
REMARK SMILES IDX 19 87 18 88 21 89 22 90 23 91 24 92
REMARK H PARENT 3 6 82 24 50 35 8 76
REMARK Flexibility Score: inf
ROOT
ATOM      1  C   UNL A   1      40.819  20.062  26.810  1.00  0.00     0.023 C 
ENDROOT
BRANCH   1   2
ATOM      2  C   UNL A   1      40.599  21.446  26.212  1.00  0.00     0.116 C 
BRANCH   2   3
ATOM      3  N   UNL A   1      39.204  21.722  25.897  1.00  0.00    -0.352 N 
ATOM      4  O   UNL A   1      37.268  22.884  25.916  1.00  0.00    -0.269 OA
ATOM      5  C   UNL A   1      38.475  22.862  26.143  1.00  0.00     0.251 C 
ATOM      6  H   UNL A   1      38.717  20.993  25.446  1.00  0.00     0.163 HD
BRANCH   5   7
ATOM      7  C   UNL A   1      39.151  24.047  26.712  1.00  0.00     0.039 A 
ATOM      8  C   UNL A   1      39.031  24.343  28.071  1.00  0.00     0.014 A 
ATOM      9  C   UNL A   1      39.879  24.892  25.869  1.00  0.00     0.014 A 
ATOM     10  C   UNL A   1      39.501  25.559  28.555  1.00  0.00     0.010 A 
ATOM     11  C   UNL A   1      40.427  26.073  26.378  1.00  0.00     0.010 A 
ATOM     12  C   UNL A   1      40.207  26.436  27.716  1.00  0.00    -0.014 A 
BRANCH  12  13
ATOM     13  C   UNL A   1      40.727  27.710  28.278  1.00  0.00     0.031 A 
ATOM     14  C   UNL A   1      42.193  28.045  28.223  1.00  0.00     0.074 A 
ATOM     15  C   UNL A   1      39.850  28.590  28.800  1.00  0.00     0.049 A 
ATOM     16  N   UNL A   1      42.808  29.127  28.628  1.00  0.00    -0.248 NA
ATOM     17  C   UNL A   1      43.085  27.029  27.647  1.00  0.00     0.031 C 
ATOM     18  C   UNL A   1      38.405  28.369  28.909  1.00  0.00     0.029 A 
ATOM     19  N   UNL A   1      40.031  29.851  29.306  1.00  0.00    -0.354 N 
ATOM     20  C   UNL A   1      44.160  28.918  28.376  1.00  0.00     0.074 A 
ATOM     21  C   UNL A   1      44.275  27.588  27.814  1.00  0.00     0.031 C 
ATOM     22  C   UNL A   1      37.826  29.478  29.392  1.00  0.00     0.029 A 
ATOM     23  C   UNL A   1      38.860  30.461  29.689  1.00  0.00     0.049 A 
ATOM     24  H   UNL A   1      40.914  30.277  29.387  1.00  0.00     0.167 HD
ATOM     25  C   UNL A   1      45.204  29.760  28.588  1.00  0.00     0.034 A 
ATOM     26  C   UNL A   1      38.642  31.674  30.232  1.00  0.00     0.034 A 
ATOM     27  C   UNL A   1      45.066  31.087  29.142  1.00  0.00     0.049 A 
ATOM     28  C   UNL A   1      39.818  32.575  30.484  1.00  0.00     0.074 A 
ATOM     29  C   UNL A   1      46.050  32.037  29.366  1.00  0.00     0.029 A 
ATOM     30  N   UNL A   1      43.871  31.653  29.570  1.00  0.00    -0.354 N 
ATOM     31  N   UNL A   1      41.088  32.365  30.227  1.00  0.00    -0.248 NA
ATOM     32  C   UNL A   1      39.529  33.876  31.099  1.00  0.00     0.031 C 
ATOM     33  C   UNL A   1      45.462  33.147  29.985  1.00  0.00     0.029 A 
ATOM     34  C   UNL A   1      44.097  32.923  30.085  1.00  0.00     0.049 A 
ATOM     35  H   UNL A   1      42.990  31.216  29.516  1.00  0.00     0.167 HD
ATOM     36  C   UNL A   1      41.750  33.518  30.636  1.00  0.00     0.074 A 
ATOM     37  C   UNL A   1      40.734  34.425  31.133  1.00  0.00     0.031 C 
ATOM     38  C   UNL A   1      43.077  33.804  30.602  1.00  0.00     0.034 A 
BRANCH  25  39
ATOM     39  C   UNL A   1      46.589  29.247  28.263  1.00  0.00     0.023 A 
ATOM     40  C   UNL A   1      46.992  28.977  26.944  1.00  0.00     0.031 A 
ATOM     41  C   UNL A   1      47.511  28.996  29.296  1.00  0.00     0.131 A 
ATOM     42  C   UNL A   1      48.251  28.404  26.698  1.00  0.00     0.055 A 
ATOM     43  C   UNL A   1      48.791  28.500  29.038  1.00  0.00     0.041 A 
ATOM     44  F   UNL A   1      47.179  29.217  30.578  1.00  0.00    -0.206 F 
ATOM     45  C   UNL A   1      49.162  28.186  27.734  1.00  0.00     0.022 A 
BRANCH  42  46
ATOM     46  S   UNL A   1      48.624  27.812  25.024  1.00  0.00     0.124 S 
ATOM     47  O   UNL A   1      47.558  28.439  24.244  1.00  0.00    -0.237 OA
ATOM     48  O   UNL A   1      49.968  28.328  24.799  1.00  0.00    -0.237 OA
ATOM     49  O   UNL A   1      48.523  26.359  25.144  1.00  0.00    -0.744 OA
ENDBRANCH  42  46
ENDBRANCH  25  39
BRANCH  26  50
ATOM     50  C   UNL A   1      37.259  32.092  30.594  1.00  0.00     0.023 A 
ATOM     51  C   UNL A   1      36.418  32.700  29.651  1.00  0.00     0.031 A 
ATOM     52  C   UNL A   1      36.766  31.903  31.897  1.00  0.00     0.131 A 
ATOM     53  C   UNL A   1      35.136  33.127  30.032  1.00  0.00     0.055 A 
ATOM     54  C   UNL A   1      35.473  32.284  32.259  1.00  0.00     0.041 A 
ATOM     55  F   UNL A   1      37.530  31.321  32.835  1.00  0.00    -0.206 F 
ATOM     56  C   UNL A   1      34.654  32.911  31.324  1.00  0.00     0.022 A 
BRANCH  53  57
ATOM     57  S   UNL A   1      34.128  34.032  28.826  1.00  0.00     0.124 S 
ATOM     58  O   UNL A   1      35.089  34.992  28.295  1.00  0.00    -0.237 OA
ATOM     59  O   UNL A   1      33.715  32.967  27.918  1.00  0.00    -0.237 OA
ATOM     60  O   UNL A   1      33.058  34.604  29.639  1.00  0.00    -0.744 OA
ENDBRANCH  53  57
ENDBRANCH  26  50
BRANCH  38  61
ATOM     61  C   UNL A   1      43.483  35.170  31.095  1.00  0.00     0.023 A 
ATOM     62  C   UNL A   1      43.549  36.276  30.230  1.00  0.00     0.031 A 
ATOM     63  C   UNL A   1      43.851  35.356  32.439  1.00  0.00     0.131 A 
ATOM     64  C   UNL A   1      44.034  37.504  30.703  1.00  0.00     0.055 A 
ATOM     65  C   UNL A   1      44.278  36.596  32.917  1.00  0.00     0.041 A 
ATOM     66  F   UNL A   1      43.810  34.332  33.306  1.00  0.00    -0.206 F 
ATOM     67  C   UNL A   1      44.387  37.675  32.044  1.00  0.00     0.022 A 
BRANCH  64  68
ATOM     68  S   UNL A   1      44.299  38.851  29.516  1.00  0.00     0.124 S 
ATOM     69  O   UNL A   1      42.935  39.302  29.259  1.00  0.00    -0.237 OA
ATOM     70  O   UNL A   1      45.143  39.771  30.272  1.00  0.00    -0.237 OA
ATOM     71  O   UNL A   1      44.956  38.192  28.389  1.00  0.00    -0.744 OA
ENDBRANCH  64  68
ENDBRANCH  38  61
ENDBRANCH  12  13
ENDBRANCH   5   7
ENDBRANCH   2   3
ENDBRANCH   1   2
BRANCH   1  72
ATOM     72  C   UNL A   1      41.547  19.070  25.905  1.00  0.00     0.023 C 
BRANCH  72  73
ATOM     73  C   UNL A   1      43.041  18.920  26.186  1.00  0.00     0.116 C 
BRANCH  73  74
ATOM     74  N   UNL A   1      43.826  18.931  24.963  1.00  0.00    -0.349 N 
ATOM     75  C   UNL A   1      44.407  20.008  24.323  1.00  0.00     0.292 C 
ATOM     76  H   UNL A   1      43.961  18.055  24.534  1.00  0.00     0.163 HD
ATOM     77  O   UNL A   1      44.863  19.844  23.191  1.00  0.00    -0.266 OA
BRANCH  75  78
ATOM     78  C   UNL A   1      44.448  21.300  25.019  1.00  0.00     0.260 A 
ATOM     79  N   UNL A   1      43.620  22.317  24.714  1.00  0.00    -0.051 NA
ATOM     80  N   UNL A   1      45.315  21.579  26.063  1.00  0.00    -0.182 NA
ATOM     81  O   UNL A   1      43.932  23.290  25.665  1.00  0.00    -0.333 OA
ATOM     82  C   UNL A   1      44.942  22.780  26.423  1.00  0.00     0.259 A 
BRANCH  82  83
ATOM     83  C   UNL A   1      45.421  23.596  27.521  1.00  0.00     0.052 A 
ATOM     84  C   UNL A   1      46.647  24.270  27.373  1.00  0.00     0.014 A 
ATOM     85  C   UNL A   1      44.660  23.791  28.691  1.00  0.00     0.068 A 
ATOM     86  C   UNL A   1      47.108  25.141  28.358  1.00  0.00     0.001 A 
ATOM     87  C   UNL A   1      45.141  24.680  29.673  1.00  0.00     0.014 A 
ATOM     88  C   UNL A   1      46.354  25.349  29.508  1.00  0.00     0.001 A 
BRANCH  85  89
ATOM     89  C   UNL A   1      43.333  23.105  28.923  1.00  0.00     0.417 C 
ATOM     90  F   UNL A   1      42.310  23.752  28.287  1.00  0.00    -0.166 F 
ATOM     91  F   UNL A   1      43.311  21.833  28.444  1.00  0.00    -0.166 F 
ATOM     92  F   UNL A   1      42.947  23.041  30.225  1.00  0.00    -0.166 F 
ENDBRANCH  85  89
ENDBRANCH  82  83
ENDBRANCH  75  78
ENDBRANCH  73  74
ENDBRANCH  72  73
ENDBRANCH   1  72
TORSDOF 16
ENDMDL
