MODEL 1
REMARK VINA RESULT:     -11.6      0.000      0.000
REMARK SMILES O=C(CCN1C(=O)S/C(=C\c2ccc(F)cc2)C1=O)Nc1ccc(O)cc1C(=O)NCCCCNC(=O)c1ccc(-c2c3nc(c(-c4cc(S(=O)(=O)[O-])ccc4F)c4ccc([nH]4)c(-c4cc(S(=O)(=O)[O-])ccc4F)c4nc(c(-c5cc(S(=O)(=O)[O-])ccc5F)c5ccc2[nH]5)C=C4)C=C3)cc1
REMARK SMILES IDX 31 1 30 2 28 3 29 4 27 6 21 7 22 8 23 9 26 10 24 11 20 12
REMARK SMILES IDX 1 13 2 14 3 16 4 17 5 18 6 19 18 20 7 21 8 22 9 23 19 24
REMARK SMILES IDX 10 25 11 26 12 27 17 28 13 29 16 30 14 31 15 32 25 33 32 35
REMARK SMILES IDX 33 36 34 37 35 38 36 39 37 41 38 42 39 43 100 44 40 45 99 46
REMARK SMILES IDX 41 47 42 48 43 49 93 50 44 51 98 52 92 53 94 54 45 55 97 56
REMARK SMILES IDX 91 57 90 58 46 60 78 61 58 62 77 63 59 64 62 65 76 66 95 67
REMARK SMILES IDX 60 68 61 69 75 71 96 72 63 73 47 74 48 75 56 76 49 77 55 78
REMARK SMILES IDX 57 79 54 80 50 81 51 82 52 83 53 84 79 85 80 86 88 87 81 88
REMARK SMILES IDX 87 89 89 90 86 91 82 92 83 93 84 94 85 95 64 96 65 97 73 98
REMARK SMILES IDX 66 99 72 100 74 101 71 102 67 103 68 104 69 105 70 106
REMARK H PARENT 30 5 20 15 25 34 35 40 94 59 62 70
REMARK Flexibility Score: inf
ROOT
ATOM      1  C   UNL A   1      30.001  31.321  25.257  1.00  0.00     0.116 C 
ENDROOT
BRANCH   1   2
ATOM      2  N   UNL A   1      29.979  31.307  23.803  1.00  0.00    -0.352 N 
ATOM      3  C   UNL A   1      29.435  30.412  22.894  1.00  0.00     0.253 C 
ATOM      4  O   UNL A   1      29.448  30.722  21.701  1.00  0.00    -0.269 OA
ATOM      5  H   UNL A   1      30.437  32.074  23.388  1.00  0.00     0.163 HD
BRANCH   3   6
ATOM      6  C   UNL A   1      28.841  29.083  23.247  1.00  0.00     0.067 A 
ATOM      7  C   UNL A   1      29.551  27.960  23.710  1.00  0.00     0.054 A 
ATOM      8  C   UNL A   1      28.867  26.751  23.940  1.00  0.00     0.031 A 
ATOM      9  C   UNL A   1      27.477  26.682  23.847  1.00  0.00     0.048 A 
ATOM     10  C   UNL A   1      27.433  29.008  23.200  1.00  0.00     0.062 A 
ATOM     11  C   UNL A   1      26.767  27.825  23.518  1.00  0.00     0.116 A 
BRANCH   7  12
ATOM     12  N   UNL A   1      30.888  28.089  24.139  1.00  0.00    -0.325 N 
ATOM     13  O   UNL A   1      32.016  27.825  22.145  1.00  0.00    -0.275 OA
ATOM     14  C   UNL A   1      32.018  27.916  23.372  1.00  0.00     0.226 C 
ATOM     15  H   UNL A   1      31.028  28.327  25.085  1.00  0.00     0.169 HD
BRANCH  14  16
ATOM     16  C   UNL A   1      33.318  27.788  24.152  1.00  0.00     0.122 C 
BRANCH  16  17
ATOM     17  C   UNL A   1      33.227  27.079  25.502  1.00  0.00     0.140 C 
BRANCH  17  18
ATOM     18  N   UNL A   1      32.789  25.681  25.457  1.00  0.00    -0.268 N 
ATOM     19  C   UNL A   1      31.623  25.267  26.034  1.00  0.00     0.293 C 
ATOM     20  C   UNL A   1      33.369  24.763  24.621  1.00  0.00     0.268 C 
ATOM     21  O   UNL A   1      30.817  25.968  26.629  1.00  0.00    -0.261 OA
ATOM     22  S   UNL A   1      31.411  23.530  25.810  1.00  0.00    -0.022 SA
ATOM     23  C   UNL A   1      32.805  23.413  24.827  1.00  0.00     0.083 C 
ATOM     24  O   UNL A   1      34.254  24.990  23.818  1.00  0.00    -0.268 OA
ATOM     25  C   UNL A   1      33.420  22.346  24.303  1.00  0.00     0.029 C 
BRANCH  25  26
ATOM     26  C   UNL A   1      33.050  20.942  24.448  1.00  0.00    -0.024 A 
ATOM     27  C   UNL A   1      32.495  20.265  23.355  1.00  0.00     0.011 A 
ATOM     28  C   UNL A   1      33.331  20.244  25.630  1.00  0.00     0.011 A 
ATOM     29  C   UNL A   1      32.201  18.905  23.450  1.00  0.00     0.040 A 
ATOM     30  C   UNL A   1      33.033  18.883  25.722  1.00  0.00     0.040 A 
ATOM     31  C   UNL A   1      32.469  18.227  24.634  1.00  0.00     0.123 A 
ATOM     32  F   UNL A   1      32.192  16.920  24.724  1.00  0.00    -0.207 F 
ENDBRANCH  25  26
ENDBRANCH  17  18
ENDBRANCH  16  17
ENDBRANCH  14  16
ENDBRANCH   7  12
BRANCH  11  33
ATOM     33  O   UNL A   1      25.403  27.826  23.515  1.00  0.00    -0.508 OA
ATOM     34  H   UNL A   1      24.933  27.045  23.730  1.00  0.00     0.293 HD
ENDBRANCH  11  33
ENDBRANCH   3   6
ENDBRANCH   1   2
BRANCH   1  35
ATOM     35  C   UNL A   1      31.071  32.153  26.000  1.00  0.00     0.023 C 
BRANCH  35  36
ATOM     36  C   UNL A   1      32.164  31.671  26.996  1.00  0.00     0.023 C 
BRANCH  36  37
ATOM     37  C   UNL A   1      33.225  32.507  27.761  1.00  0.00     0.116 C 
BRANCH  37  38
ATOM     38  N   UNL A   1      32.865  33.865  28.116  1.00  0.00    -0.352 N 
ATOM     39  C   UNL A   1      33.359  34.681  29.116  1.00  0.00     0.251 C 
ATOM     40  H   UNL A   1      32.160  34.269  27.559  1.00  0.00     0.163 HD
ATOM     41  O   UNL A   1      32.867  35.793  29.287  1.00  0.00    -0.269 OA
BRANCH  39  42
ATOM     42  C   UNL A   1      34.501  34.248  29.957  1.00  0.00     0.039 A 
ATOM     43  C   UNL A   1      34.289  33.727  31.239  1.00  0.00     0.014 A 
ATOM     44  C   UNL A   1      35.804  34.419  29.481  1.00  0.00     0.014 A 
ATOM     45  C   UNL A   1      35.379  33.265  31.991  1.00  0.00     0.010 A 
ATOM     46  C   UNL A   1      36.886  33.939  30.221  1.00  0.00     0.010 A 
ATOM     47  C   UNL A   1      36.680  33.312  31.459  1.00  0.00    -0.014 A 
BRANCH  47  48
ATOM     48  C   UNL A   1      37.797  32.557  32.085  1.00  0.00     0.031 A 
ATOM     49  C   UNL A   1      38.325  32.902  33.447  1.00  0.00     0.074 A 
ATOM     50  C   UNL A   1      38.404  31.606  31.343  1.00  0.00     0.049 A 
ATOM     51  N   UNL A   1      39.338  32.380  34.092  1.00  0.00    -0.248 NA
ATOM     52  C   UNL A   1      37.644  33.985  34.168  1.00  0.00     0.031 C 
ATOM     53  C   UNL A   1      38.011  31.230  29.982  1.00  0.00     0.029 A 
ATOM     54  N   UNL A   1      39.473  30.790  31.614  1.00  0.00    -0.354 N 
ATOM     55  C   UNL A   1      39.416  33.064  35.298  1.00  0.00     0.074 A 
ATOM     56  C   UNL A   1      38.374  34.072  35.273  1.00  0.00     0.031 C 
ATOM     57  C   UNL A   1      38.800  30.234  29.553  1.00  0.00     0.029 A 
ATOM     58  C   UNL A   1      39.781  29.928  30.587  1.00  0.00     0.049 A 
ATOM     59  H   UNL A   1      39.971  30.818  32.462  1.00  0.00     0.167 HD
ATOM     60  C   UNL A   1      40.268  32.858  36.335  1.00  0.00     0.034 A 
ATOM     61  C   UNL A   1      40.747  28.996  30.483  1.00  0.00     0.034 A 
ATOM     62  C   UNL A   1      41.302  31.851  36.338  1.00  0.00     0.049 A 
ATOM     63  C   UNL A   1      41.689  28.796  31.637  1.00  0.00     0.074 A 
ATOM     64  C   UNL A   1      42.193  31.533  37.350  1.00  0.00     0.029 A 
ATOM     65  N   UNL A   1      41.593  31.003  35.275  1.00  0.00    -0.354 N 
ATOM     66  N   UNL A   1      41.730  29.435  32.782  1.00  0.00    -0.248 NA
ATOM     67  C   UNL A   1      42.710  27.752  31.488  1.00  0.00     0.031 C 
ATOM     68  C   UNL A   1      43.053  30.533  36.881  1.00  0.00     0.029 A 
ATOM     69  C   UNL A   1      42.661  30.181  35.599  1.00  0.00     0.049 A 
ATOM     70  H   UNL A   1      41.109  30.989  34.419  1.00  0.00     0.167 HD
ATOM     71  C   UNL A   1      42.771  28.859  33.499  1.00  0.00     0.074 A 
ATOM     72  C   UNL A   1      43.329  27.817  32.660  1.00  0.00     0.031 C 
ATOM     73  C   UNL A   1      43.218  29.162  34.743  1.00  0.00     0.034 A 
BRANCH  60  74
ATOM     74  C   UNL A   1      40.125  33.744  37.546  1.00  0.00     0.023 A 
ATOM     75  C   UNL A   1      39.352  33.352  38.652  1.00  0.00     0.031 A 
ATOM     76  C   UNL A   1      40.778  34.989  37.605  1.00  0.00     0.131 A 
ATOM     77  C   UNL A   1      39.206  34.217  39.748  1.00  0.00     0.055 A 
ATOM     78  C   UNL A   1      40.684  35.816  38.727  1.00  0.00     0.041 A 
ATOM     79  F   UNL A   1      41.519  35.420  36.573  1.00  0.00    -0.206 F 
ATOM     80  C   UNL A   1      39.886  35.436  39.802  1.00  0.00     0.022 A 
BRANCH  77  81
ATOM     81  S   UNL A   1      38.046  33.763  41.064  1.00  0.00     0.124 S 
ATOM     82  O   UNL A   1      38.816  32.767  41.803  1.00  0.00    -0.237 OA
ATOM     83  O   UNL A   1      37.824  35.034  41.745  1.00  0.00    -0.237 OA
ATOM     84  O   UNL A   1      36.891  33.237  40.337  1.00  0.00    -0.744 OA
ENDBRANCH  77  81
ENDBRANCH  60  74
BRANCH  61  85
ATOM     85  C   UNL A   1      40.854  28.178  29.244  1.00  0.00     0.023 A 
ATOM     86  C   UNL A   1      41.810  28.481  28.265  1.00  0.00     0.031 A 
ATOM     87  C   UNL A   1      40.025  27.060  29.041  1.00  0.00     0.131 A 
ATOM     88  C   UNL A   1      41.909  27.682  27.116  1.00  0.00     0.055 A 
ATOM     89  C   UNL A   1      40.149  26.249  27.913  1.00  0.00     0.041 A 
ATOM     90  F   UNL A   1      39.108  26.720  29.961  1.00  0.00    -0.206 F 
ATOM     91  C   UNL A   1      41.093  26.561  26.940  1.00  0.00     0.022 A 
BRANCH  88  92
ATOM     92  S   UNL A   1      43.118  28.133  25.841  1.00  0.00     0.124 S 
ATOM     93  O   UNL A   1      42.398  27.801  24.618  1.00  0.00    -0.237 OA
ATOM     94  O   UNL A   1      43.321  29.554  26.103  1.00  0.00    -0.237 OA
ATOM     95  O   UNL A   1      44.265  27.278  26.145  1.00  0.00    -0.744 OA
ENDBRANCH  88  92
ENDBRANCH  61  85
BRANCH  73  96
ATOM     96  C   UNL A   1      44.357  28.340  35.283  1.00  0.00     0.023 A 
ATOM     97  C   UNL A   1      44.153  27.040  35.777  1.00  0.00     0.031 A 
ATOM     98  C   UNL A   1      45.666  28.850  35.263  1.00  0.00     0.131 A 
ATOM     99  C   UNL A   1      45.244  26.301  36.255  1.00  0.00     0.055 A 
ATOM    100  C   UNL A   1      46.754  28.092  35.700  1.00  0.00     0.041 A 
ATOM    101  F   UNL A   1      45.911  30.086  34.800  1.00  0.00    -0.206 F 
ATOM    102  C   UNL A   1      46.544  26.811  36.203  1.00  0.00     0.022 A 
BRANCH  99 103
ATOM    103  S   UNL A   1      44.940  24.664  36.975  1.00  0.00     0.124 S 
ATOM    104  O   UNL A   1      43.865  24.157  36.128  1.00  0.00    -0.237 OA
ATOM    105  O   UNL A   1      46.233  24.006  36.824  1.00  0.00    -0.237 OA
ATOM    106  O   UNL A   1      44.555  24.961  38.354  1.00  0.00    -0.744 OA
ENDBRANCH  99 103
ENDBRANCH  73  96
ENDBRANCH  47  48
ENDBRANCH  39  42
ENDBRANCH  37  38
ENDBRANCH  36  37
ENDBRANCH  35  36
ENDBRANCH   1  35
TORSDOF 20
ENDMDL
MODEL 2
REMARK VINA RESULT:     -11.6      5.824     11.658
REMARK SMILES O=C(CCN1C(=O)S/C(=C\c2ccc(F)cc2)C1=O)Nc1ccc(O)cc1C(=O)NCCCCNC(=O)c1ccc(-c2c3nc(c(-c4cc(S(=O)(=O)[O-])ccc4F)c4ccc([nH]4)c(-c4cc(S(=O)(=O)[O-])ccc4F)c4nc(c(-c5cc(S(=O)(=O)[O-])ccc5F)c5ccc2[nH]5)C=C4)C=C3)cc1
REMARK SMILES IDX 31 1 30 2 28 3 29 4 27 6 21 7 22 8 23 9 26 10 24 11 20 12
REMARK SMILES IDX 1 13 2 14 3 16 4 17 5 18 6 19 18 20 7 21 8 22 9 23 19 24
REMARK SMILES IDX 10 25 11 26 12 27 17 28 13 29 16 30 14 31 15 32 25 33 32 35
REMARK SMILES IDX 33 36 34 37 35 38 36 39 37 41 38 42 39 43 100 44 40 45 99 46
REMARK SMILES IDX 41 47 42 48 43 49 93 50 44 51 98 52 92 53 94 54 45 55 97 56
REMARK SMILES IDX 91 57 90 58 46 60 78 61 58 62 77 63 59 64 62 65 76 66 95 67
REMARK SMILES IDX 60 68 61 69 75 71 96 72 63 73 47 74 48 75 56 76 49 77 55 78
REMARK SMILES IDX 57 79 54 80 50 81 51 82 52 83 53 84 79 85 80 86 88 87 81 88
REMARK SMILES IDX 87 89 89 90 86 91 82 92 83 93 84 94 85 95 64 96 65 97 73 98
REMARK SMILES IDX 66 99 72 100 74 101 71 102 67 103 68 104 69 105 70 106
REMARK H PARENT 30 5 20 15 25 34 35 40 94 59 62 70
REMARK Flexibility Score: inf
ROOT
ATOM      1  C   UNL A   1      44.902  23.324  27.382  1.00  0.00     0.116 C 
ENDROOT
BRANCH   1   2
ATOM      2  N   UNL A   1      44.255  23.390  26.081  1.00  0.00    -0.352 N 
ATOM      3  C   UNL A   1      43.601  22.429  25.323  1.00  0.00     0.253 C 
ATOM      4  O   UNL A   1      43.021  22.798  24.300  1.00  0.00    -0.269 OA
ATOM      5  H   UNL A   1      44.288  24.279  25.660  1.00  0.00     0.163 HD
BRANCH   3   6
ATOM      6  C   UNL A   1      43.556  20.966  25.643  1.00  0.00     0.067 A 
ATOM      7  C   UNL A   1      42.503  20.297  26.292  1.00  0.00     0.054 A 
ATOM      8  C   UNL A   1      42.628  18.926  26.587  1.00  0.00     0.031 A 
ATOM      9  C   UNL A   1      43.719  18.187  26.128  1.00  0.00     0.048 A 
ATOM     10  C   UNL A   1      44.631  20.196  25.148  1.00  0.00     0.062 A 
ATOM     11  C   UNL A   1      44.692  18.822  25.374  1.00  0.00     0.116 A 
BRANCH   7  12
ATOM     12  N   UNL A   1      41.254  20.928  26.463  1.00  0.00    -0.325 N 
ATOM     13  O   UNL A   1      39.824  19.289  25.697  1.00  0.00    -0.275 OA
ATOM     14  C   UNL A   1      40.026  20.442  26.072  1.00  0.00     0.226 C 
ATOM     15  H   UNL A   1      41.260  21.806  26.910  1.00  0.00     0.169 HD
BRANCH  14  16
ATOM     16  C   UNL A   1      38.895  21.460  26.077  1.00  0.00     0.122 C 
BRANCH  16  17
ATOM     17  C   UNL A   1      38.065  21.551  24.798  1.00  0.00     0.140 C 
BRANCH  17  18
ATOM     18  N   UNL A   1      36.676  21.985  24.972  1.00  0.00    -0.268 N 
ATOM     19  C   UNL A   1      35.639  21.096  25.019  1.00  0.00     0.293 C 
ATOM     20  C   UNL A   1      36.352  23.258  25.361  1.00  0.00     0.268 C 
ATOM     21  O   UNL A   1      35.721  19.879  24.939  1.00  0.00    -0.261 OA
ATOM     22  S   UNL A   1      34.108  21.950  25.219  1.00  0.00    -0.022 SA
ATOM     23  C   UNL A   1      34.890  23.461  25.382  1.00  0.00     0.083 C 
ATOM     24  O   UNL A   1      37.144  24.140  25.638  1.00  0.00    -0.268 OA
ATOM     25  C   UNL A   1      34.390  24.700  25.474  1.00  0.00     0.029 C 
BRANCH  25  26
ATOM     26  C   UNL A   1      32.986  25.100  25.450  1.00  0.00    -0.024 A 
ATOM     27  C   UNL A   1      32.534  25.945  24.429  1.00  0.00     0.011 A 
ATOM     28  C   UNL A   1      32.074  24.574  26.374  1.00  0.00     0.011 A 
ATOM     29  C   UNL A   1      31.184  26.282  24.346  1.00  0.00     0.040 A 
ATOM     30  C   UNL A   1      30.723  24.914  26.288  1.00  0.00     0.040 A 
ATOM     31  C   UNL A   1      30.291  25.766  25.278  1.00  0.00     0.123 A 
ATOM     32  F   UNL A   1      28.992  26.084  25.195  1.00  0.00    -0.207 F 
ENDBRANCH  25  26
ENDBRANCH  17  18
ENDBRANCH  16  17
ENDBRANCH  14  16
ENDBRANCH   7  12
BRANCH  11  33
ATOM     33  O   UNL A   1      45.721  18.118  24.822  1.00  0.00    -0.508 OA
ATOM     34  H   UNL A   1      45.627  17.743  23.969  1.00  0.00     0.293 HD
ENDBRANCH  11  33
ENDBRANCH   3   6
ENDBRANCH   1   2
BRANCH   1  35
ATOM     35  C   UNL A   1      44.098  23.670  28.656  1.00  0.00     0.023 C 
BRANCH  35  36
ATOM     36  C   UNL A   1      42.585  23.449  28.945  1.00  0.00     0.023 C 
BRANCH  36  37
ATOM     37  C   UNL A   1      41.364  24.252  28.423  1.00  0.00     0.116 C 
BRANCH  37  38
ATOM     38  N   UNL A   1      41.426  24.734  27.058  1.00  0.00    -0.352 N 
ATOM     39  C   UNL A   1      41.476  26.029  26.576  1.00  0.00     0.251 C 
ATOM     40  H   UNL A   1      41.435  24.032  26.367  1.00  0.00     0.163 HD
ATOM     41  O   UNL A   1      41.464  26.223  25.364  1.00  0.00    -0.269 OA
BRANCH  39  42
ATOM     42  C   UNL A   1      41.586  27.181  27.503  1.00  0.00     0.039 A 
ATOM     43  C   UNL A   1      42.369  27.095  28.662  1.00  0.00     0.014 A 
ATOM     44  C   UNL A   1      40.852  28.340  27.242  1.00  0.00     0.014 A 
ATOM     45  C   UNL A   1      42.508  28.218  29.490  1.00  0.00     0.010 A 
ATOM     46  C   UNL A   1      41.009  29.464  28.056  1.00  0.00     0.010 A 
ATOM     47  C   UNL A   1      41.877  29.430  29.157  1.00  0.00    -0.014 A 
BRANCH  47  48
ATOM     48  C   UNL A   1      42.250  30.704  29.827  1.00  0.00     0.031 A 
ATOM     49  C   UNL A   1      43.560  31.387  29.563  1.00  0.00     0.074 A 
ATOM     50  C   UNL A   1      41.413  31.183  30.773  1.00  0.00     0.049 A 
ATOM     51  N   UNL A   1      44.053  32.462  30.123  1.00  0.00    -0.248 NA
ATOM     52  C   UNL A   1      44.438  30.773  28.559  1.00  0.00     0.031 C 
ATOM     53  C   UNL A   1      40.140  30.565  31.153  1.00  0.00     0.029 A 
ATOM     54  N   UNL A   1      41.501  32.284  31.586  1.00  0.00    -0.354 N 
ATOM     55  C   UNL A   1      45.297  32.662  29.538  1.00  0.00     0.074 A 
ATOM     56  C   UNL A   1      45.501  31.565  28.612  1.00  0.00     0.031 C 
ATOM     57  C   UNL A   1      39.549  31.315  32.095  1.00  0.00     0.029 A 
ATOM     58  C   UNL A   1      40.416  32.441  32.418  1.00  0.00     0.049 A 
ATOM     59  H   UNL A   1      42.266  32.903  31.575  1.00  0.00     0.167 HD
ATOM     60  C   UNL A   1      46.177  33.675  29.744  1.00  0.00     0.034 A 
ATOM     61  C   UNL A   1      40.147  33.383  33.342  1.00  0.00     0.034 A 
ATOM     62  C   UNL A   1      45.956  34.756  30.675  1.00  0.00     0.049 A 
ATOM     63  C   UNL A   1      41.143  34.485  33.565  1.00  0.00     0.074 A 
ATOM     64  C   UNL A   1      46.764  35.851  30.931  1.00  0.00     0.029 A 
ATOM     65  N   UNL A   1      44.851  34.876  31.509  1.00  0.00    -0.354 N 
ATOM     66  N   UNL A   1      42.304  34.672  32.981  1.00  0.00    -0.248 NA
ATOM     67  C   UNL A   1      40.796  35.503  34.563  1.00  0.00     0.031 C 
ATOM     68  C   UNL A   1      46.175  36.602  31.956  1.00  0.00     0.029 A 
ATOM     69  C   UNL A   1      44.968  36.012  32.295  1.00  0.00     0.049 A 
ATOM     70  H   UNL A   1      44.095  34.246  31.536  1.00  0.00     0.167 HD
ATOM     71  C   UNL A   1      42.820  35.839  33.531  1.00  0.00     0.074 A 
ATOM     72  C   UNL A   1      41.842  36.317  34.488  1.00  0.00     0.031 C 
ATOM     73  C   UNL A   1      43.993  36.462  33.260  1.00  0.00     0.034 A 
BRANCH  60  74
ATOM     74  C   UNL A   1      47.463  33.655  28.958  1.00  0.00     0.023 A 
ATOM     75  C   UNL A   1      47.597  34.373  27.757  1.00  0.00     0.031 A 
ATOM     76  C   UNL A   1      48.574  32.926  29.417  1.00  0.00     0.131 A 
ATOM     77  C   UNL A   1      48.794  34.303  27.028  1.00  0.00     0.055 A 
ATOM     78  C   UNL A   1      49.786  32.914  28.722  1.00  0.00     0.041 A 
ATOM     79  F   UNL A   1      48.500  32.212  30.551  1.00  0.00    -0.206 F 
ATOM     80  C   UNL A   1      49.897  33.598  27.514  1.00  0.00     0.022 A 
BRANCH  77  81
ATOM     81  S   UNL A   1      48.860  35.078  25.391  1.00  0.00     0.124 S 
ATOM     82  O   UNL A   1      47.586  34.657  24.816  1.00  0.00    -0.237 OA
ATOM     83  O   UNL A   1      48.978  36.496  25.713  1.00  0.00    -0.237 OA
ATOM     84  O   UNL A   1      50.044  34.480  24.776  1.00  0.00    -0.744 OA
ENDBRANCH  77  81
ENDBRANCH  60  74
BRANCH  61  85
ATOM     85  C   UNL A   1      38.873  33.322  34.108  1.00  0.00     0.023 A 
ATOM     86  C   UNL A   1      38.835  32.769  35.396  1.00  0.00     0.031 A 
ATOM     87  C   UNL A   1      37.683  33.852  33.577  1.00  0.00     0.131 A 
ATOM     88  C   UNL A   1      37.628  32.745  36.109  1.00  0.00     0.055 A 
ATOM     89  C   UNL A   1      36.492  33.855  34.303  1.00  0.00     0.041 A 
ATOM     90  F   UNL A   1      37.676  34.409  32.355  1.00  0.00    -0.206 F 
ATOM     91  C   UNL A   1      36.459  33.295  35.577  1.00  0.00     0.022 A 
BRANCH  88  92
ATOM     92  S   UNL A   1      37.600  31.972  37.750  1.00  0.00     0.124 S 
ATOM     93  O   UNL A   1      38.881  32.397  38.300  1.00  0.00    -0.237 OA
ATOM     94  O   UNL A   1      36.411  32.572  38.349  1.00  0.00    -0.237 OA
ATOM     95  O   UNL A   1      37.488  30.545  37.451  1.00  0.00    -0.744 OA
ENDBRANCH  88  92
ENDBRANCH  61  85
BRANCH  73  96
ATOM     96  C   UNL A   1      44.277  37.743  33.995  1.00  0.00     0.023 A 
ATOM     97  C   UNL A   1      43.744  38.969  33.564  1.00  0.00     0.031 A 
ATOM     98  C   UNL A   1      45.056  37.728  35.165  1.00  0.00     0.131 A 
ATOM     99  C   UNL A   1      44.019  40.139  34.287  1.00  0.00     0.055 A 
ATOM    100  C   UNL A   1      45.289  38.888  35.905  1.00  0.00     0.041 A 
ATOM    101  F   UNL A   1      45.586  36.580  35.617  1.00  0.00    -0.206 F 
ATOM    102  C   UNL A   1      44.772  40.102  35.464  1.00  0.00     0.022 A 
BRANCH  99 103
ATOM    103  S   UNL A   1      43.398  41.722  33.656  1.00  0.00     0.124 S 
ATOM    104  O   UNL A   1      44.246  42.679  34.358  1.00  0.00    -0.237 OA
ATOM    105  O   UNL A   1      43.627  41.602  32.220  1.00  0.00    -0.237 OA
ATOM    106  O   UNL A   1      41.992  41.725  34.059  1.00  0.00    -0.744 OA
ENDBRANCH  99 103
ENDBRANCH  73  96
ENDBRANCH  47  48
ENDBRANCH  39  42
ENDBRANCH  37  38
ENDBRANCH  36  37
ENDBRANCH  35  36
ENDBRANCH   1  35
TORSDOF 20
ENDMDL
MODEL 3
REMARK VINA RESULT:     -11.5      2.976      4.686
REMARK SMILES O=C(CCN1C(=O)S/C(=C\c2ccc(F)cc2)C1=O)Nc1ccc(O)cc1C(=O)NCCCCNC(=O)c1ccc(-c2c3nc(c(-c4cc(S(=O)(=O)[O-])ccc4F)c4ccc([nH]4)c(-c4cc(S(=O)(=O)[O-])ccc4F)c4nc(c(-c5cc(S(=O)(=O)[O-])ccc5F)c5ccc2[nH]5)C=C4)C=C3)cc1
REMARK SMILES IDX 31 1 30 2 28 3 29 4 27 6 21 7 22 8 23 9 26 10 24 11 20 12
REMARK SMILES IDX 1 13 2 14 3 16 4 17 5 18 6 19 18 20 7 21 8 22 9 23 19 24
REMARK SMILES IDX 10 25 11 26 12 27 17 28 13 29 16 30 14 31 15 32 25 33 32 35
REMARK SMILES IDX 33 36 34 37 35 38 36 39 37 41 38 42 39 43 100 44 40 45 99 46
REMARK SMILES IDX 41 47 42 48 43 49 93 50 44 51 98 52 92 53 94 54 45 55 97 56
REMARK SMILES IDX 91 57 90 58 46 60 78 61 58 62 77 63 59 64 62 65 76 66 95 67
REMARK SMILES IDX 60 68 61 69 75 71 96 72 63 73 47 74 48 75 56 76 49 77 55 78
REMARK SMILES IDX 57 79 54 80 50 81 51 82 52 83 53 84 79 85 80 86 88 87 81 88
REMARK SMILES IDX 87 89 89 90 86 91 82 92 83 93 84 94 85 95 64 96 65 97 73 98
REMARK SMILES IDX 66 99 72 100 74 101 71 102 67 103 68 104 69 105 70 106
REMARK H PARENT 30 5 20 15 25 34 35 40 94 59 62 70
REMARK Flexibility Score: inf
ROOT
ATOM      1  C   UNL A   1      33.331  26.406  26.042  1.00  0.00     0.116 C 
ENDROOT
BRANCH   1   2
ATOM      2  N   UNL A   1      33.142  25.080  26.608  1.00  0.00    -0.352 N 
ATOM      3  C   UNL A   1      33.882  23.912  26.494  1.00  0.00     0.253 C 
ATOM      4  O   UNL A   1      33.559  22.954  27.200  1.00  0.00    -0.269 OA
ATOM      5  H   UNL A   1      32.341  24.995  27.174  1.00  0.00     0.163 HD
BRANCH   3   6
ATOM      6  C   UNL A   1      35.040  23.714  25.565  1.00  0.00     0.067 A 
ATOM      7  C   UNL A   1      34.954  23.449  24.185  1.00  0.00     0.054 A 
ATOM      8  C   UNL A   1      36.130  23.220  23.447  1.00  0.00     0.031 A 
ATOM      9  C   UNL A   1      37.388  23.383  24.027  1.00  0.00     0.048 A 
ATOM     10  C   UNL A   1      36.319  23.918  26.125  1.00  0.00     0.062 A 
ATOM     11  C   UNL A   1      37.471  23.773  25.354  1.00  0.00     0.116 A 
BRANCH   7  12
ATOM     12  N   UNL A   1      33.731  23.614  23.502  1.00  0.00    -0.325 N 
ATOM     13  O   UNL A   1      33.876  25.828  22.871  1.00  0.00    -0.275 OA
ATOM     14  C   UNL A   1      33.229  24.788  22.987  1.00  0.00     0.226 C 
ATOM     15  H   UNL A   1      33.181  22.806  23.381  1.00  0.00     0.169 HD
BRANCH  14  16
ATOM     16  C   UNL A   1      31.759  24.749  22.599  1.00  0.00     0.122 C 
BRANCH  16  17
ATOM     17  C   UNL A   1      30.823  24.037  23.575  1.00  0.00     0.140 C 
BRANCH  17  18
ATOM     18  N   UNL A   1      31.296  22.745  24.079  1.00  0.00    -0.268 N 
ATOM     19  C   UNL A   1      31.122  22.366  25.380  1.00  0.00     0.293 C 
ATOM     20  C   UNL A   1      31.694  21.737  23.241  1.00  0.00     0.268 C 
ATOM     21  O   UNL A   1      30.568  23.012  26.258  1.00  0.00    -0.261 OA
ATOM     22  S   UNL A   1      31.821  20.770  25.652  1.00  0.00    -0.022 SA
ATOM     23  C   UNL A   1      32.201  20.574  23.997  1.00  0.00     0.083 C 
ATOM     24  O   UNL A   1      31.669  21.771  22.024  1.00  0.00    -0.268 OA
ATOM     25  C   UNL A   1      32.877  19.609  23.362  1.00  0.00     0.029 C 
BRANCH  25  26
ATOM     26  C   UNL A   1      33.501  18.424  23.944  1.00  0.00    -0.024 A 
ATOM     27  C   UNL A   1      32.831  17.197  23.878  1.00  0.00     0.011 A 
ATOM     28  C   UNL A   1      34.794  18.485  24.479  1.00  0.00     0.011 A 
ATOM     29  C   UNL A   1      33.440  16.040  24.364  1.00  0.00     0.040 A 
ATOM     30  C   UNL A   1      35.401  17.325  24.966  1.00  0.00     0.040 A 
ATOM     31  C   UNL A   1      34.718  16.115  24.907  1.00  0.00     0.123 A 
ATOM     32  F   UNL A   1      35.306  15.004  25.369  1.00  0.00    -0.207 F 
ENDBRANCH  25  26
ENDBRANCH  17  18
ENDBRANCH  16  17
ENDBRANCH  14  16
ENDBRANCH   7  12
BRANCH  11  33
ATOM     33  O   UNL A   1      38.677  24.041  25.931  1.00  0.00    -0.508 OA
ATOM     34  H   UNL A   1      39.126  23.372  26.410  1.00  0.00     0.293 HD
ENDBRANCH  11  33
ENDBRANCH   3   6
ENDBRANCH   1   2
BRANCH   1  35
ATOM     35  C   UNL A   1      32.107  27.318  25.802  1.00  0.00     0.023 C 
BRANCH  35  36
ATOM     36  C   UNL A   1      31.927  28.823  26.154  1.00  0.00     0.023 C 
BRANCH  36  37
ATOM     37  C   UNL A   1      32.802  30.035  25.737  1.00  0.00     0.116 C 
BRANCH  37  38
ATOM     38  N   UNL A   1      32.520  31.304  26.378  1.00  0.00    -0.352 N 
ATOM     39  C   UNL A   1      33.232  31.985  27.348  1.00  0.00     0.251 C 
ATOM     40  H   UNL A   1      31.696  31.750  26.076  1.00  0.00     0.163 HD
ATOM     41  O   UNL A   1      32.780  33.032  27.804  1.00  0.00    -0.269 OA
BRANCH  39  42
ATOM     42  C   UNL A   1      34.549  31.489  27.813  1.00  0.00     0.039 A 
ATOM     43  C   UNL A   1      35.641  32.359  27.930  1.00  0.00     0.014 A 
ATOM     44  C   UNL A   1      34.712  30.127  28.079  1.00  0.00     0.014 A 
ATOM     45  C   UNL A   1      36.860  31.881  28.431  1.00  0.00     0.010 A 
ATOM     46  C   UNL A   1      35.920  29.657  28.599  1.00  0.00     0.010 A 
ATOM     47  C   UNL A   1      36.987  30.537  28.827  1.00  0.00    -0.014 A 
BRANCH  47  48
ATOM     48  C   UNL A   1      38.143  30.080  29.643  1.00  0.00     0.031 A 
ATOM     49  C   UNL A   1      38.384  30.585  31.036  1.00  0.00     0.074 A 
ATOM     50  C   UNL A   1      39.044  29.266  29.051  1.00  0.00     0.049 A 
ATOM     51  N   UNL A   1      39.385  30.332  31.840  1.00  0.00    -0.248 NA
ATOM     52  C   UNL A   1      37.385  31.510  31.588  1.00  0.00     0.031 C 
ATOM     53  C   UNL A   1      38.941  28.762  27.679  1.00  0.00     0.029 A 
ATOM     54  N   UNL A   1      40.217  28.725  29.513  1.00  0.00    -0.354 N 
ATOM     55  C   UNL A   1      39.138  31.058  32.998  1.00  0.00     0.074 A 
ATOM     56  C   UNL A   1      37.914  31.800  32.770  1.00  0.00     0.031 C 
ATOM     57  C   UNL A   1      39.982  27.957  27.424  1.00  0.00     0.029 A 
ATOM     58  C   UNL A   1      40.851  27.920  28.595  1.00  0.00     0.049 A 
ATOM     59  H   UNL A   1      40.571  28.897  30.415  1.00  0.00     0.167 HD
ATOM     60  C   UNL A   1      39.859  31.089  34.148  1.00  0.00     0.034 A 
ATOM     61  C   UNL A   1      42.004  27.229  28.680  1.00  0.00     0.034 A 
ATOM     62  C   UNL A   1      41.079  30.345  34.352  1.00  0.00     0.049 A 
ATOM     63  C   UNL A   1      42.793  27.291  29.957  1.00  0.00     0.074 A 
ATOM     64  C   UNL A   1      41.865  30.275  35.491  1.00  0.00     0.029 A 
ATOM     65  N   UNL A   1      41.697  29.548  33.396  1.00  0.00    -0.354 N 
ATOM     66  N   UNL A   1      42.529  27.964  31.052  1.00  0.00    -0.248 NA
ATOM     67  C   UNL A   1      44.029  26.503  30.013  1.00  0.00     0.031 C 
ATOM     68  C   UNL A   1      42.983  29.481  35.206  1.00  0.00     0.029 A 
ATOM     69  C   UNL A   1      42.863  29.003  33.910  1.00  0.00     0.049 A 
ATOM     70  H   UNL A   1      41.354  29.393  32.487  1.00  0.00     0.167 HD
ATOM     71  C   UNL A   1      43.559  27.667  31.936  1.00  0.00     0.074 A 
ATOM     72  C   UNL A   1      44.446  26.749  31.248  1.00  0.00     0.031 C 
ATOM     73  C   UNL A   1      43.748  28.107  33.204  1.00  0.00     0.034 A 
BRANCH  60  74
ATOM     74  C   UNL A   1      39.354  31.962  35.268  1.00  0.00     0.023 A 
ATOM     75  C   UNL A   1      39.782  33.294  35.406  1.00  0.00     0.031 A 
ATOM     76  C   UNL A   1      38.423  31.468  36.199  1.00  0.00     0.131 A 
ATOM     77  C   UNL A   1      39.323  34.069  36.482  1.00  0.00     0.055 A 
ATOM     78  C   UNL A   1      37.919  32.266  37.229  1.00  0.00     0.041 A 
ATOM     79  F   UNL A   1      37.989  30.201  36.124  1.00  0.00    -0.206 F 
ATOM     80  C   UNL A   1      38.377  33.572  37.381  1.00  0.00     0.022 A 
BRANCH  77  81
ATOM     81  S   UNL A   1      40.048  35.711  36.741  1.00  0.00     0.124 S 
ATOM     82  O   UNL A   1      39.523  36.446  35.593  1.00  0.00    -0.237 OA
ATOM     83  O   UNL A   1      39.513  36.093  38.043  1.00  0.00    -0.237 OA
ATOM     84  O   UNL A   1      41.487  35.459  36.709  1.00  0.00    -0.744 OA
ENDBRANCH  77  81
ENDBRANCH  60  74
BRANCH  61  85
ATOM     85  C   UNL A   1      42.462  26.414  27.523  1.00  0.00     0.023 A 
ATOM     86  C   UNL A   1      42.192  25.039  27.463  1.00  0.00     0.031 A 
ATOM     87  C   UNL A   1      43.142  27.006  26.444  1.00  0.00     0.131 A 
ATOM     88  C   UNL A   1      42.612  24.294  26.351  1.00  0.00     0.055 A 
ATOM     89  C   UNL A   1      43.530  26.268  25.326  1.00  0.00     0.041 A 
ATOM     90  F   UNL A   1      43.406  28.323  26.449  1.00  0.00    -0.206 F 
ATOM     91  C   UNL A   1      43.268  24.901  25.277  1.00  0.00     0.022 A 
BRANCH  88  92
ATOM     92  S   UNL A   1      42.298  22.508  26.328  1.00  0.00     0.124 S 
ATOM     93  O   UNL A   1      42.960  22.075  27.553  1.00  0.00    -0.237 OA
ATOM     94  O   UNL A   1      40.839  22.456  26.332  1.00  0.00    -0.237 OA
ATOM     95  O   UNL A   1      42.929  22.068  25.085  1.00  0.00    -0.744 OA
ENDBRANCH  88  92
ENDBRANCH  61  85
BRANCH  73  96
ATOM     96  C   UNL A   1      44.951  27.587  33.941  1.00  0.00     0.023 A 
ATOM     97  C   UNL A   1      44.855  26.500  34.827  1.00  0.00     0.031 A 
ATOM     98  C   UNL A   1      46.216  28.159  33.721  1.00  0.00     0.131 A 
ATOM     99  C   UNL A   1      46.004  26.034  35.482  1.00  0.00     0.055 A 
ATOM    100  C   UNL A   1      47.363  27.662  34.342  1.00  0.00     0.041 A 
ATOM    101  F   UNL A   1      46.358  29.199  32.883  1.00  0.00    -0.206 F 
ATOM    102  C   UNL A   1      47.259  26.597  35.231  1.00  0.00     0.022 A 
BRANCH  99 103
ATOM    103  S   UNL A   1      45.835  24.693  36.691  1.00  0.00     0.124 S 
ATOM    104  O   UNL A   1      47.201  24.563  37.188  1.00  0.00    -0.237 OA
ATOM    105  O   UNL A   1      44.864  25.237  37.634  1.00  0.00    -0.237 OA
ATOM    106  O   UNL A   1      45.356  23.567  35.891  1.00  0.00    -0.744 OA
ENDBRANCH  99 103
ENDBRANCH  73  96
ENDBRANCH  47  48
ENDBRANCH  39  42
ENDBRANCH  37  38
ENDBRANCH  36  37
ENDBRANCH  35  36
ENDBRANCH   1  35
TORSDOF 20
ENDMDL
