MODEL 1
REMARK VINA RESULT:     -12.1      0.000      0.000
REMARK SMILES CCC(=O)Nc1ccc(NC(=O)[C@@H]2CC=CC[C@@H]2C(=O)NCCCCNC(=O)c2ccc(-c3c4nc(c(-c5cc(S(=O)(=O)[O-])ccc5F)c5ccc([nH]5)c(-c5cc(S(=O)(=O)[O-])ccc5F)c5nc(c(-c6cc(S(=O)(=O)[O-])ccc6F)c6ccc3[nH]6)C=C5)C=C4)cc2)cc1
REMARK SMILES IDX 23 1 22 2 21 3 19 4 20 5 18 7 13 8 14 9 15 10 17 11 16 12
REMARK SMILES IDX 11 13 10 14 12 16 9 17 6 18 7 19 93 20 8 21 92 22 5 23 3 24
REMARK SMILES IDX 4 25 2 27 1 28 24 29 25 30 26 31 27 32 28 34 29 35 30 36
REMARK SMILES IDX 91 37 31 38 90 39 32 40 33 41 34 42 84 43 35 44 89 45 83 46
REMARK SMILES IDX 85 47 36 48 88 49 82 50 81 51 37 53 69 54 49 55 68 56 50 57
REMARK SMILES IDX 53 58 67 59 86 60 51 61 52 62 66 64 87 65 54 66 38 67 39 68
REMARK SMILES IDX 47 69 40 70 46 71 48 72 45 73 41 74 42 75 43 76 44 77 70 78
REMARK SMILES IDX 71 79 79 80 72 81 78 82 80 83 77 84 73 85 74 86 75 87 76 88
REMARK SMILES IDX 55 89 56 90 64 91 57 92 63 93 65 94 62 95 58 96 59 97 60 98
REMARK SMILES IDX 61 99
REMARK H PARENT 21 6 10 15 5 26 26 33 85 52 53 63
REMARK Flexibility Score: inf
ROOT
ATOM      1  C   UNL A   1      35.778  23.251  23.322  1.00  0.00     0.023 C 
ENDROOT
BRANCH   1   2
ATOM      2  C   UNL A   1      35.181  24.317  24.248  1.00  0.00     0.116 C 
BRANCH   2   3
ATOM      3  N   UNL A   1      34.120  25.128  23.683  1.00  0.00    -0.356 N 
ATOM      4  C   UNL A   1      33.353  26.109  24.246  1.00  0.00     0.224 C 
ATOM      5  O   UNL A   1      32.898  26.960  23.477  1.00  0.00    -0.275 OA
ATOM      6  H   UNL A   1      33.918  24.941  22.737  1.00  0.00     0.163 HD
BRANCH   4   7
ATOM      7  C   UNL A   1      33.099  26.176  25.754  1.00  0.00     0.095 C 
ATOM      8  C   UNL A   1      31.635  26.088  26.264  1.00  0.00     0.095 C 
ATOM      9  C   UNL A   1      30.979  27.315  26.927  1.00  0.00     0.041 C 
ATOM     10  C   UNL A   1      31.792  28.564  26.957  1.00  0.00    -0.030 C 
ATOM     11  C   UNL A   1      33.888  27.354  26.379  1.00  0.00     0.041 C 
ATOM     12  C   UNL A   1      33.100  28.587  26.691  1.00  0.00    -0.030 C 
BRANCH   8  13
ATOM     13  C   UNL A   1      30.588  25.385  25.415  1.00  0.00     0.228 C 
ATOM     14  N   UNL A   1      30.696  24.156  24.853  1.00  0.00    -0.326 N 
ATOM     15  H   UNL A   1      29.929  23.925  24.280  1.00  0.00     0.169 HD
ATOM     16  O   UNL A   1      29.516  25.976  25.211  1.00  0.00    -0.274 OA
BRANCH  14  17
ATOM     17  C   UNL A   1      31.659  23.142  24.909  1.00  0.00     0.041 A 
ATOM     18  C   UNL A   1      33.320  20.873  24.744  1.00  0.00     0.041 A 
ATOM     19  C   UNL A   1      33.084  21.490  25.972  1.00  0.00     0.028 A 
ATOM     20  C   UNL A   1      32.719  21.400  23.614  1.00  0.00     0.028 A 
ATOM     21  C   UNL A   1      32.255  22.624  26.052  1.00  0.00     0.028 A 
ATOM     22  C   UNL A   1      31.975  22.569  23.681  1.00  0.00     0.028 A 
BRANCH  18  23
ATOM     23  N   UNL A   1      34.090  19.705  24.692  1.00  0.00    -0.326 N 
ATOM     24  C   UNL A   1      33.704  18.404  24.499  1.00  0.00     0.224 C 
ATOM     25  O   UNL A   1      34.505  17.505  24.766  1.00  0.00    -0.275 OA
ATOM     26  H   UNL A   1      35.058  19.838  24.812  1.00  0.00     0.169 HD
BRANCH  24  27
ATOM     27  C   UNL A   1      32.366  18.084  23.843  1.00  0.00     0.097 C 
ATOM     28  C   UNL A   1      32.404  18.057  22.323  1.00  0.00     0.014 C 
ENDBRANCH  24  27
ENDBRANCH  18  23
ENDBRANCH  14  17
ENDBRANCH   8  13
ENDBRANCH   4   7
ENDBRANCH   2   3
ENDBRANCH   1   2
BRANCH   1  29
ATOM     29  C   UNL A   1      36.790  22.248  23.884  1.00  0.00     0.023 C 
BRANCH  29  30
ATOM     30  C   UNL A   1      36.923  22.137  25.398  1.00  0.00     0.116 C 
BRANCH  30  31
ATOM     31  N   UNL A   1      37.942  21.179  25.773  1.00  0.00    -0.352 N 
ATOM     32  C   UNL A   1      39.239  21.392  26.181  1.00  0.00     0.251 C 
ATOM     33  H   UNL A   1      37.665  20.236  25.731  1.00  0.00     0.163 HD
ATOM     34  O   UNL A   1      40.024  20.447  26.151  1.00  0.00    -0.269 OA
BRANCH  32  35
ATOM     35  C   UNL A   1      39.704  22.724  26.649  1.00  0.00     0.039 A 
ATOM     36  C   UNL A   1      39.308  23.863  25.937  1.00  0.00     0.014 A 
ATOM     37  C   UNL A   1      40.605  22.861  27.710  1.00  0.00     0.014 A 
ATOM     38  C   UNL A   1      39.787  25.128  26.300  1.00  0.00     0.010 A 
ATOM     39  C   UNL A   1      41.040  24.131  28.107  1.00  0.00     0.010 A 
ATOM     40  C   UNL A   1      40.649  25.279  27.397  1.00  0.00    -0.014 A 
BRANCH  40  41
ATOM     41  C   UNL A   1      41.191  26.615  27.781  1.00  0.00     0.031 A 
ATOM     42  C   UNL A   1      42.631  26.960  27.488  1.00  0.00     0.074 A 
ATOM     43  C   UNL A   1      40.411  27.504  28.427  1.00  0.00     0.049 A 
ATOM     44  N   UNL A   1      43.318  28.021  27.828  1.00  0.00    -0.248 NA
ATOM     45  C   UNL A   1      43.403  25.962  26.733  1.00  0.00     0.031 C 
ATOM     46  C   UNL A   1      39.008  27.292  28.787  1.00  0.00     0.029 A 
ATOM     47  N   UNL A   1      40.688  28.761  28.911  1.00  0.00    -0.354 N 
ATOM     48  C   UNL A   1      44.606  27.814  27.342  1.00  0.00     0.074 A 
ATOM     49  C   UNL A   1      44.613  26.501  26.732  1.00  0.00     0.031 C 
ATOM     50  C   UNL A   1      38.548  28.379  29.429  1.00  0.00     0.029 A 
ATOM     51  C   UNL A   1      39.631  29.350  29.563  1.00  0.00     0.049 A 
ATOM     52  H   UNL A   1      41.564  29.198  28.800  1.00  0.00     0.167 HD
ATOM     53  C   UNL A   1      45.677  28.648  27.378  1.00  0.00     0.034 A 
ATOM     54  C   UNL A   1      39.544  30.529  30.213  1.00  0.00     0.034 A 
ATOM     55  C   UNL A   1      45.656  29.961  27.977  1.00  0.00     0.049 A 
ATOM     56  C   UNL A   1      40.751  31.432  30.259  1.00  0.00     0.074 A 
ATOM     57  C   UNL A   1      46.676  30.895  28.045  1.00  0.00     0.029 A 
ATOM     58  N   UNL A   1      44.560  30.529  28.612  1.00  0.00    -0.354 N 
ATOM     59  N   UNL A   1      41.954  31.229  29.772  1.00  0.00    -0.248 NA
ATOM     60  C   UNL A   1      40.588  32.730  30.929  1.00  0.00     0.031 C 
ATOM     61  C   UNL A   1      46.214  32.003  28.766  1.00  0.00     0.029 A 
ATOM     62  C   UNL A   1      44.883  31.791  29.088  1.00  0.00     0.049 A 
ATOM     63  H   UNL A   1      43.680  30.098  28.709  1.00  0.00     0.167 HD
ATOM     64  C   UNL A   1      42.677  32.386  30.052  1.00  0.00     0.074 A 
ATOM     65  C   UNL A   1      41.773  33.288  30.734  1.00  0.00     0.031 C 
ATOM     66  C   UNL A   1      43.973  32.679  29.769  1.00  0.00     0.034 A 
BRANCH  53  67
ATOM     67  C   UNL A   1      46.967  28.150  26.769  1.00  0.00     0.023 A 
ATOM     68  C   UNL A   1      47.186  28.188  25.381  1.00  0.00     0.031 A 
ATOM     69  C   UNL A   1      47.983  27.614  27.581  1.00  0.00     0.131 A 
ATOM     70  C   UNL A   1      48.357  27.633  24.840  1.00  0.00     0.055 A 
ATOM     71  C   UNL A   1      49.180  27.136  27.043  1.00  0.00     0.041 A 
ATOM     72  F   UNL A   1      47.825  27.535  28.912  1.00  0.00    -0.206 F 
ATOM     73  C   UNL A   1      49.366  27.129  25.664  1.00  0.00     0.022 A 
BRANCH  70  74
ATOM     74  S   UNL A   1      48.478  27.458  23.039  1.00  0.00     0.124 S 
ATOM     75  O   UNL A   1      47.315  28.218  22.590  1.00  0.00    -0.237 OA
ATOM     76  O   UNL A   1      49.778  28.048  22.750  1.00  0.00    -0.237 OA
ATOM     77  O   UNL A   1      48.387  26.013  22.830  1.00  0.00    -0.744 OA
ENDBRANCH  70  74
ENDBRANCH  53  67
BRANCH  54  78
ATOM     78  C   UNL A   1      38.279  30.925  30.900  1.00  0.00     0.023 A 
ATOM     79  C   UNL A   1      37.266  31.615  30.215  1.00  0.00     0.031 A 
ATOM     80  C   UNL A   1      38.090  30.667  32.269  1.00  0.00     0.131 A 
ATOM     81  C   UNL A   1      36.136  32.071  30.913  1.00  0.00     0.055 A 
ATOM     82  C   UNL A   1      36.939  31.074  32.946  1.00  0.00     0.041 A 
ATOM     83  F   UNL A   1      39.025  30.006  32.971  1.00  0.00    -0.206 F 
ATOM     84  C   UNL A   1      35.960  31.795  32.270  1.00  0.00     0.022 A 
BRANCH  81  85
ATOM     85  S   UNL A   1      34.941  33.120  30.038  1.00  0.00     0.124 S 
ATOM     86  O   UNL A   1      34.327  32.169  29.118  1.00  0.00    -0.237 OA
ATOM     87  O   UNL A   1      34.098  33.591  31.131  1.00  0.00    -0.237 OA
ATOM     88  O   UNL A   1      35.778  34.142  29.413  1.00  0.00    -0.744 OA
ENDBRANCH  81  85
ENDBRANCH  54  78
BRANCH  66  89
ATOM     89  C   UNL A   1      44.466  34.051  30.155  1.00  0.00     0.023 A 
ATOM     90  C   UNL A   1      44.269  35.171  29.327  1.00  0.00     0.031 A 
ATOM     91  C   UNL A   1      45.155  34.238  31.367  1.00  0.00     0.131 A 
ATOM     92  C   UNL A   1      44.803  36.415  29.696  1.00  0.00     0.055 A 
ATOM     93  C   UNL A   1      45.634  35.490  31.755  1.00  0.00     0.041 A 
ATOM     94  F   UNL A   1      45.372  33.203  32.196  1.00  0.00    -0.206 F 
ATOM     95  C   UNL A   1      45.470  36.584  30.912  1.00  0.00     0.022 A 
BRANCH  92  96
ATOM     96  S   UNL A   1      44.686  37.796  28.525  1.00  0.00     0.124 S 
ATOM     97  O   UNL A   1      43.256  37.832  28.240  1.00  0.00    -0.237 OA
ATOM     98  O   UNL A   1      45.210  38.913  29.305  1.00  0.00    -0.237 OA
ATOM     99  O   UNL A   1      45.530  37.371  27.409  1.00  0.00    -0.744 OA
ENDBRANCH  92  96
ENDBRANCH  66  89
ENDBRANCH  40  41
ENDBRANCH  32  35
ENDBRANCH  30  31
ENDBRANCH  29  30
ENDBRANCH   1  29
TORSDOF 18
ENDMDL
MODEL 2
REMARK VINA RESULT:     -12.0      4.501      9.263
REMARK SMILES CCC(=O)Nc1ccc(NC(=O)[C@@H]2CC=CC[C@@H]2C(=O)NCCCCNC(=O)c2ccc(-c3c4nc(c(-c5cc(S(=O)(=O)[O-])ccc5F)c5ccc([nH]5)c(-c5cc(S(=O)(=O)[O-])ccc5F)c5nc(c(-c6cc(S(=O)(=O)[O-])ccc6F)c6ccc3[nH]6)C=C5)C=C4)cc2)cc1
REMARK SMILES IDX 23 1 22 2 21 3 19 4 20 5 18 7 13 8 14 9 15 10 17 11 16 12
REMARK SMILES IDX 11 13 10 14 12 16 9 17 6 18 7 19 93 20 8 21 92 22 5 23 3 24
REMARK SMILES IDX 4 25 2 27 1 28 24 29 25 30 26 31 27 32 28 34 29 35 30 36
REMARK SMILES IDX 91 37 31 38 90 39 32 40 33 41 34 42 84 43 35 44 89 45 83 46
REMARK SMILES IDX 85 47 36 48 88 49 82 50 81 51 37 53 69 54 49 55 68 56 50 57
REMARK SMILES IDX 53 58 67 59 86 60 51 61 52 62 66 64 87 65 54 66 38 67 39 68
REMARK SMILES IDX 47 69 40 70 46 71 48 72 45 73 41 74 42 75 43 76 44 77 70 78
REMARK SMILES IDX 71 79 79 80 72 81 78 82 80 83 77 84 73 85 74 86 75 87 76 88
REMARK SMILES IDX 55 89 56 90 64 91 57 92 63 93 65 94 62 95 58 96 59 97 60 98
REMARK SMILES IDX 61 99
REMARK H PARENT 21 6 10 15 5 26 26 33 85 52 53 63
REMARK Flexibility Score: inf
ROOT
ATOM      1  C   UNL A   1      31.446  27.745  25.899  1.00  0.00     0.023 C 
ENDROOT
BRANCH   1   2
ATOM      2  C   UNL A   1      31.515  26.558  24.931  1.00  0.00     0.116 C 
BRANCH   2   3
ATOM      3  N   UNL A   1      31.690  25.252  25.540  1.00  0.00    -0.356 N 
ATOM      4  C   UNL A   1      32.818  24.503  25.728  1.00  0.00     0.224 C 
ATOM      5  O   UNL A   1      32.797  23.708  26.672  1.00  0.00    -0.275 OA
ATOM      6  H   UNL A   1      30.861  24.838  25.871  1.00  0.00     0.163 HD
BRANCH   4   7
ATOM      7  C   UNL A   1      34.057  24.662  24.844  1.00  0.00     0.095 C 
ATOM      8  C   UNL A   1      34.055  24.006  23.437  1.00  0.00     0.095 C 
ATOM      9  C   UNL A   1      35.001  22.827  23.140  1.00  0.00     0.041 C 
ATOM     10  C   UNL A   1      35.818  22.330  24.283  1.00  0.00    -0.030 C 
ATOM     11  C   UNL A   1      35.339  24.349  25.656  1.00  0.00     0.041 C 
ATOM     12  C   UNL A   1      35.956  23.005  25.426  1.00  0.00    -0.030 C 
BRANCH   8  13
ATOM     13  C   UNL A   1      32.730  23.746  22.736  1.00  0.00     0.228 C 
ATOM     14  N   UNL A   1      32.066  22.566  22.677  1.00  0.00    -0.326 N 
ATOM     15  H   UNL A   1      31.264  22.604  22.107  1.00  0.00     0.169 HD
ATOM     16  O   UNL A   1      32.183  24.701  22.162  1.00  0.00    -0.274 OA
BRANCH  14  17
ATOM     17  C   UNL A   1      32.269  21.305  23.248  1.00  0.00     0.041 A 
ATOM     18  C   UNL A   1      32.332  18.633  24.137  1.00  0.00     0.041 A 
ATOM     19  C   UNL A   1      32.441  19.684  25.047  1.00  0.00     0.028 A 
ATOM     20  C   UNL A   1      32.192  18.934  22.793  1.00  0.00     0.028 A 
ATOM     21  C   UNL A   1      32.410  21.018  24.600  1.00  0.00     0.028 A 
ATOM     22  C   UNL A   1      32.251  20.246  22.345  1.00  0.00     0.028 A 
BRANCH  18  23
ATOM     23  N   UNL A   1      32.294  17.313  24.604  1.00  0.00    -0.326 N 
ATOM     24  C   UNL A   1      33.291  16.375  24.673  1.00  0.00     0.224 C 
ATOM     25  O   UNL A   1      32.979  15.196  24.856  1.00  0.00    -0.275 OA
ATOM     26  H   UNL A   1      31.417  17.013  24.935  1.00  0.00     0.169 HD
BRANCH  24  27
ATOM     27  C   UNL A   1      34.755  16.800  24.658  1.00  0.00     0.097 C 
ATOM     28  C   UNL A   1      35.685  15.867  25.418  1.00  0.00     0.014 C 
ENDBRANCH  24  27
ENDBRANCH  18  23
ENDBRANCH  14  17
ENDBRANCH   8  13
ENDBRANCH   4   7
ENDBRANCH   2   3
ENDBRANCH   1   2
BRANCH   1  29
ATOM     29  C   UNL A   1      31.888  29.132  25.420  1.00  0.00     0.023 C 
BRANCH  29  30
ATOM     30  C   UNL A   1      33.224  29.669  25.919  1.00  0.00     0.116 C 
BRANCH  30  31
ATOM     31  N   UNL A   1      33.108  31.037  26.379  1.00  0.00    -0.352 N 
ATOM     32  C   UNL A   1      33.796  31.689  27.377  1.00  0.00     0.251 C 
ATOM     33  H   UNL A   1      32.439  31.582  25.906  1.00  0.00     0.163 HD
ATOM     34  O   UNL A   1      33.335  32.741  27.814  1.00  0.00    -0.269 OA
BRANCH  32  35
ATOM     35  C   UNL A   1      35.066  31.152  27.932  1.00  0.00     0.039 A 
ATOM     36  C   UNL A   1      35.056  29.885  28.530  1.00  0.00     0.014 A 
ATOM     37  C   UNL A   1      36.238  31.915  27.967  1.00  0.00     0.014 A 
ATOM     38  C   UNL A   1      36.214  29.377  29.132  1.00  0.00     0.010 A 
ATOM     39  C   UNL A   1      37.409  31.383  28.520  1.00  0.00     0.010 A 
ATOM     40  C   UNL A   1      37.407  30.115  29.124  1.00  0.00    -0.014 A 
BRANCH  40  41
ATOM     41  C   UNL A   1      38.643  29.601  29.785  1.00  0.00     0.031 A 
ATOM     42  C   UNL A   1      39.064  30.145  31.128  1.00  0.00     0.074 A 
ATOM     43  C   UNL A   1      39.410  28.681  29.168  1.00  0.00     0.049 A 
ATOM     44  N   UNL A   1      40.149  29.906  31.819  1.00  0.00    -0.248 NA
ATOM     45  C   UNL A   1      38.148  31.105  31.763  1.00  0.00     0.031 C 
ATOM     46  C   UNL A   1      39.129  28.085  27.860  1.00  0.00     0.029 A 
ATOM     47  N   UNL A   1      40.593  28.093  29.549  1.00  0.00    -0.354 N 
ATOM     48  C   UNL A   1      40.057  30.694  32.962  1.00  0.00     0.074 A 
ATOM     49  C   UNL A   1      38.832  31.459  32.840  1.00  0.00     0.031 C 
ATOM     50  C   UNL A   1      40.106  27.217  27.552  1.00  0.00     0.029 A 
ATOM     51  C   UNL A   1      41.106  27.221  28.617  1.00  0.00     0.049 A 
ATOM     52  H   UNL A   1      41.033  28.280  30.411  1.00  0.00     0.167 HD
ATOM     53  C   UNL A   1      40.898  30.760  34.026  1.00  0.00     0.034 A 
ATOM     54  C   UNL A   1      42.257  26.518  28.609  1.00  0.00     0.034 A 
ATOM     55  C   UNL A   1      42.110  29.985  34.145  1.00  0.00     0.049 A 
ATOM     56  C   UNL A   1      43.188  26.621  29.791  1.00  0.00     0.074 A 
ATOM     57  C   UNL A   1      43.018  29.957  35.189  1.00  0.00     0.029 A 
ATOM     58  N   UNL A   1      42.584  29.099  33.186  1.00  0.00    -0.354 N 
ATOM     59  N   UNL A   1      43.070  27.355  30.875  1.00  0.00    -0.248 NA
ATOM     60  C   UNL A   1      44.401  25.792  29.759  1.00  0.00     0.031 C 
ATOM     61  C   UNL A   1      44.066  29.097  34.840  1.00  0.00     0.029 A 
ATOM     62  C   UNL A   1      43.778  28.533  33.608  1.00  0.00     0.049 A 
ATOM     63  H   UNL A   1      42.136  28.901  32.332  1.00  0.00     0.167 HD
ATOM     64  C   UNL A   1      44.178  27.049  31.661  1.00  0.00     0.074 A 
ATOM     65  C   UNL A   1      44.942  26.055  30.938  1.00  0.00     0.031 C 
ATOM     66  C   UNL A   1      44.532  27.545  32.876  1.00  0.00     0.034 A 
BRANCH  53  67
ATOM     67  C   UNL A   1      40.542  31.723  35.135  1.00  0.00     0.023 A 
ATOM     68  C   UNL A   1      39.562  31.410  36.093  1.00  0.00     0.031 A 
ATOM     69  C   UNL A   1      41.175  32.975  35.228  1.00  0.00     0.131 A 
ATOM     70  C   UNL A   1      39.191  32.363  37.055  1.00  0.00     0.055 A 
ATOM     71  C   UNL A   1      40.858  33.889  36.237  1.00  0.00     0.041 A 
ATOM     72  F   UNL A   1      42.107  33.339  34.332  1.00  0.00    -0.206 F 
ATOM     73  C   UNL A   1      39.850  33.591  37.148  1.00  0.00     0.022 A 
BRANCH  70  74
ATOM     74  S   UNL A   1      37.744  32.023  38.094  1.00  0.00     0.124 S 
ATOM     75  O   UNL A   1      38.304  32.164  39.435  1.00  0.00    -0.237 OA
ATOM     76  O   UNL A   1      36.807  33.060  37.680  1.00  0.00    -0.237 OA
ATOM     77  O   UNL A   1      37.369  30.659  37.722  1.00  0.00    -0.744 OA
ENDBRANCH  70  74
ENDBRANCH  53  67
BRANCH  54  78
ATOM     78  C   UNL A   1      42.618  25.670  27.435  1.00  0.00     0.023 A 
ATOM     79  C   UNL A   1      42.163  24.346  27.328  1.00  0.00     0.031 A 
ATOM     80  C   UNL A   1      43.473  26.155  26.430  1.00  0.00     0.131 A 
ATOM     81  C   UNL A   1      42.608  23.537  26.270  1.00  0.00     0.055 A 
ATOM     82  C   UNL A   1      43.868  25.363  25.350  1.00  0.00     0.041 A 
ATOM     83  F   UNL A   1      43.935  27.415  26.480  1.00  0.00    -0.206 F 
ATOM     84  C   UNL A   1      43.447  24.040  25.274  1.00  0.00     0.022 A 
BRANCH  81  85
ATOM     85  S   UNL A   1      42.149  21.781  26.268  1.00  0.00     0.124 S 
ATOM     86  O   UNL A   1      40.729  21.844  25.943  1.00  0.00    -0.237 OA
ATOM     87  O   UNL A   1      43.022  21.243  25.231  1.00  0.00    -0.237 OA
ATOM     88  O   UNL A   1      42.459  21.347  27.629  1.00  0.00    -0.744 OA
ENDBRANCH  81  85
ENDBRANCH  54  78
BRANCH  66  89
ATOM     89  C   UNL A   1      45.775  26.976  33.513  1.00  0.00     0.023 A 
ATOM     90  C   UNL A   1      47.034  27.583  33.358  1.00  0.00     0.031 A 
ATOM     91  C   UNL A   1      45.699  25.798  34.278  1.00  0.00     0.131 A 
ATOM     92  C   UNL A   1      48.173  26.982  33.913  1.00  0.00     0.055 A 
ATOM     93  C   UNL A   1      46.828  25.235  34.876  1.00  0.00     0.041 A 
ATOM     94  F   UNL A   1      44.523  25.175  34.458  1.00  0.00    -0.206 F 
ATOM     95  C   UNL A   1      48.075  25.821  34.684  1.00  0.00     0.022 A 
BRANCH  92  96
ATOM     96  S   UNL A   1      49.801  27.693  33.545  1.00  0.00     0.124 S 
ATOM     97  O   UNL A   1      49.536  28.441  32.321  1.00  0.00    -0.237 OA
ATOM     98  O   UNL A   1      50.069  28.493  34.736  1.00  0.00    -0.237 OA
ATOM     99  O   UNL A   1      50.658  26.520  33.382  1.00  0.00    -0.744 OA
ENDBRANCH  92  96
ENDBRANCH  66  89
ENDBRANCH  40  41
ENDBRANCH  32  35
ENDBRANCH  30  31
ENDBRANCH  29  30
ENDBRANCH   1  29
TORSDOF 18
ENDMDL
MODEL 3
REMARK VINA RESULT:     -11.9      1.391      7.480
REMARK SMILES CCC(=O)Nc1ccc(NC(=O)[C@@H]2CC=CC[C@@H]2C(=O)NCCCCNC(=O)c2ccc(-c3c4nc(c(-c5cc(S(=O)(=O)[O-])ccc5F)c5ccc([nH]5)c(-c5cc(S(=O)(=O)[O-])ccc5F)c5nc(c(-c6cc(S(=O)(=O)[O-])ccc6F)c6ccc3[nH]6)C=C5)C=C4)cc2)cc1
REMARK SMILES IDX 23 1 22 2 21 3 19 4 20 5 18 7 13 8 14 9 15 10 17 11 16 12
REMARK SMILES IDX 11 13 10 14 12 16 9 17 6 18 7 19 93 20 8 21 92 22 5 23 3 24
REMARK SMILES IDX 4 25 2 27 1 28 24 29 25 30 26 31 27 32 28 34 29 35 30 36
REMARK SMILES IDX 91 37 31 38 90 39 32 40 33 41 34 42 84 43 35 44 89 45 83 46
REMARK SMILES IDX 85 47 36 48 88 49 82 50 81 51 37 53 69 54 49 55 68 56 50 57
REMARK SMILES IDX 53 58 67 59 86 60 51 61 52 62 66 64 87 65 54 66 38 67 39 68
REMARK SMILES IDX 47 69 40 70 46 71 48 72 45 73 41 74 42 75 43 76 44 77 70 78
REMARK SMILES IDX 71 79 79 80 72 81 78 82 80 83 77 84 73 85 74 86 75 87 76 88
REMARK SMILES IDX 55 89 56 90 64 91 57 92 63 93 65 94 62 95 58 96 59 97 60 98
REMARK SMILES IDX 61 99
REMARK H PARENT 21 6 10 15 5 26 26 33 85 52 53 63
REMARK Flexibility Score: inf
ROOT
ATOM      1  C   UNL A   1      35.731  23.324  23.279  1.00  0.00     0.023 C 
ENDROOT
BRANCH   1   2
ATOM      2  C   UNL A   1      35.187  24.406  24.218  1.00  0.00     0.116 C 
BRANCH   2   3
ATOM      3  N   UNL A   1      34.078  25.191  23.707  1.00  0.00    -0.356 N 
ATOM      4  C   UNL A   1      33.311  26.146  24.313  1.00  0.00     0.224 C 
ATOM      5  O   UNL A   1      32.798  26.989  23.573  1.00  0.00    -0.275 OA
ATOM      6  H   UNL A   1      33.839  25.005  22.770  1.00  0.00     0.163 HD
BRANCH   4   7
ATOM      7  C   UNL A   1      33.124  26.195  25.832  1.00  0.00     0.095 C 
ATOM      8  C   UNL A   1      31.687  26.070  26.407  1.00  0.00     0.095 C 
ATOM      9  C   UNL A   1      31.034  27.277  27.109  1.00  0.00     0.041 C 
ATOM     10  C   UNL A   1      31.820  28.543  27.114  1.00  0.00    -0.030 C 
ATOM     11  C   UNL A   1      33.914  27.386  26.431  1.00  0.00     0.041 C 
ATOM     12  C   UNL A   1      33.113  28.598  26.790  1.00  0.00    -0.030 C 
BRANCH   8  13
ATOM     13  C   UNL A   1      30.618  25.351  25.599  1.00  0.00     0.228 C 
ATOM     14  N   UNL A   1      30.716  24.114  25.053  1.00  0.00    -0.326 N 
ATOM     15  H   UNL A   1      29.933  23.871  24.506  1.00  0.00     0.169 HD
ATOM     16  O   UNL A   1      29.538  25.934  25.418  1.00  0.00    -0.274 OA
BRANCH  14  17
ATOM     17  C   UNL A   1      31.684  23.104  25.094  1.00  0.00     0.041 A 
ATOM     18  C   UNL A   1      33.354  20.844  24.906  1.00  0.00     0.041 A 
ATOM     19  C   UNL A   1      33.132  21.459  26.137  1.00  0.00     0.028 A 
ATOM     20  C   UNL A   1      32.735  21.369  23.784  1.00  0.00     0.028 A 
ATOM     21  C   UNL A   1      32.299  22.589  26.229  1.00  0.00     0.028 A 
ATOM     22  C   UNL A   1      31.985  22.534  23.862  1.00  0.00     0.028 A 
BRANCH  18  23
ATOM     23  N   UNL A   1      34.129  19.680  24.843  1.00  0.00    -0.326 N 
ATOM     24  C   UNL A   1      33.749  18.380  24.632  1.00  0.00     0.224 C 
ATOM     25  O   UNL A   1      34.553  17.481  24.892  1.00  0.00    -0.275 OA
ATOM     26  H   UNL A   1      35.096  19.815  24.967  1.00  0.00     0.169 HD
BRANCH  24  27
ATOM     27  C   UNL A   1      32.415  18.062  23.967  1.00  0.00     0.097 C 
ATOM     28  C   UNL A   1      32.460  18.049  22.447  1.00  0.00     0.014 C 
ENDBRANCH  24  27
ENDBRANCH  18  23
ENDBRANCH  14  17
ENDBRANCH   8  13
ENDBRANCH   4   7
ENDBRANCH   2   3
ENDBRANCH   1   2
BRANCH   1  29
ATOM     29  C   UNL A   1      36.641  22.227  23.842  1.00  0.00     0.023 C 
BRANCH  29  30
ATOM     30  C   UNL A   1      36.908  22.221  25.342  1.00  0.00     0.116 C 
BRANCH  30  31
ATOM     31  N   UNL A   1      37.832  21.169  25.713  1.00  0.00    -0.352 N 
ATOM     32  C   UNL A   1      39.133  21.257  26.151  1.00  0.00     0.251 C 
ATOM     33  H   UNL A   1      37.475  20.255  25.641  1.00  0.00     0.163 HD
ATOM     34  O   UNL A   1      39.834  20.248  26.112  1.00  0.00    -0.269 OA
BRANCH  32  35
ATOM     35  C   UNL A   1      39.703  22.532  26.662  1.00  0.00     0.039 A 
ATOM     36  C   UNL A   1      39.254  23.738  26.109  1.00  0.00     0.014 A 
ATOM     37  C   UNL A   1      40.741  22.554  27.599  1.00  0.00     0.014 A 
ATOM     38  C   UNL A   1      39.821  24.955  26.509  1.00  0.00     0.010 A 
ATOM     39  C   UNL A   1      41.268  23.775  28.038  1.00  0.00     0.010 A 
ATOM     40  C   UNL A   1      40.826  24.989  27.487  1.00  0.00    -0.014 A 
BRANCH  40  41
ATOM     41  C   UNL A   1      41.460  26.273  27.905  1.00  0.00     0.031 A 
ATOM     42  C   UNL A   1      40.643  27.322  28.620  1.00  0.00     0.074 A 
ATOM     43  C   UNL A   1      42.751  26.522  27.611  1.00  0.00     0.049 A 
ATOM     44  N   UNL A   1      40.976  28.536  28.976  1.00  0.00    -0.248 NA
ATOM     45  C   UNL A   1      39.258  26.957  28.955  1.00  0.00     0.031 C 
ATOM     46  C   UNL A   1      43.649  25.603  26.907  1.00  0.00     0.029 A 
ATOM     47  N   UNL A   1      43.534  27.626  27.850  1.00  0.00    -0.354 N 
ATOM     48  C   UNL A   1      39.842  29.088  29.564  1.00  0.00     0.074 A 
ATOM     49  C   UNL A   1      38.797  28.090  29.464  1.00  0.00     0.031 C 
ATOM     50  C   UNL A   1      44.855  26.179  26.777  1.00  0.00     0.029 A 
ATOM     51  C   UNL A   1      44.811  27.522  27.350  1.00  0.00     0.049 A 
ATOM     52  H   UNL A   1      43.209  28.419  28.336  1.00  0.00     0.167 HD
ATOM     53  C   UNL A   1      39.689  30.302  30.153  1.00  0.00     0.034 A 
ATOM     54  C   UNL A   1      45.826  28.410  27.334  1.00  0.00     0.034 A 
ATOM     55  C   UNL A   1      40.740  31.285  30.258  1.00  0.00     0.049 A 
ATOM     56  C   UNL A   1      45.628  29.761  27.976  1.00  0.00     0.074 A 
ATOM     57  C   UNL A   1      40.698  32.533  30.857  1.00  0.00     0.029 A 
ATOM     58  N   UNL A   1      42.025  31.133  29.755  1.00  0.00    -0.354 N 
ATOM     59  N   UNL A   1      44.554  30.254  28.549  1.00  0.00    -0.248 NA
ATOM     60  C   UNL A   1      46.783  30.670  27.983  1.00  0.00     0.031 C 
ATOM     61  C   UNL A   1      41.937  33.155  30.668  1.00  0.00     0.029 A 
ATOM     62  C   UNL A   1      42.777  32.269  30.014  1.00  0.00     0.049 A 
ATOM     63  H   UNL A   1      42.354  30.334  29.283  1.00  0.00     0.167 HD
ATOM     64  C   UNL A   1      44.916  31.518  29.009  1.00  0.00     0.074 A 
ATOM     65  C   UNL A   1      46.310  31.704  28.663  1.00  0.00     0.031 C 
ATOM     66  C   UNL A   1      44.165  32.443  29.661  1.00  0.00     0.034 A 
BRANCH  53  67
ATOM     67  C   UNL A   1      38.324  30.637  30.708  1.00  0.00     0.023 A 
ATOM     68  C   UNL A   1      37.354  31.290  29.928  1.00  0.00     0.031 A 
ATOM     69  C   UNL A   1      37.992  30.318  32.037  1.00  0.00     0.131 A 
ATOM     70  C   UNL A   1      36.130  31.669  30.502  1.00  0.00     0.055 A 
ATOM     71  C   UNL A   1      36.741  30.626  32.578  1.00  0.00     0.041 A 
ATOM     72  F   UNL A   1      38.882  29.709  32.836  1.00  0.00    -0.206 F 
ATOM     73  C   UNL A   1      35.808  31.319  31.814  1.00  0.00     0.022 A 
BRANCH  70  74
ATOM     74  S   UNL A   1      35.023  32.742  29.546  1.00  0.00     0.124 S 
ATOM     75  O   UNL A   1      34.411  31.789  28.625  1.00  0.00    -0.237 OA
ATOM     76  O   UNL A   1      34.148  33.290  30.574  1.00  0.00    -0.237 OA
ATOM     77  O   UNL A   1      35.933  33.704  28.924  1.00  0.00    -0.744 OA
ENDBRANCH  70  74
ENDBRANCH  53  67
BRANCH  54  78
ATOM     78  C   UNL A   1      47.119  28.072  26.669  1.00  0.00     0.023 A 
ATOM     79  C   UNL A   1      47.239  28.079  25.270  1.00  0.00     0.031 A 
ATOM     80  C   UNL A   1      48.238  27.681  27.425  1.00  0.00     0.131 A 
ATOM     81  C   UNL A   1      48.434  27.651  24.669  1.00  0.00     0.055 A 
ATOM     82  C   UNL A   1      49.443  27.310  26.823  1.00  0.00     0.041 A 
ATOM     83  F   UNL A   1      48.180  27.661  28.766  1.00  0.00    -0.206 F 
ATOM     84  C   UNL A   1      49.539  27.278  25.435  1.00  0.00     0.022 A 
BRANCH  81  85
ATOM     85  S   UNL A   1      48.488  27.495  22.862  1.00  0.00     0.124 S 
ATOM     86  O   UNL A   1      49.777  28.101  22.549  1.00  0.00    -0.237 OA
ATOM     87  O   UNL A   1      48.398  26.050  22.682  1.00  0.00    -0.237 OA
ATOM     88  O   UNL A   1      47.318  28.250  22.419  1.00  0.00    -0.744 OA
ENDBRANCH  81  85
ENDBRANCH  54  78
BRANCH  66  89
ATOM     89  C   UNL A   1      44.858  33.714  30.085  1.00  0.00     0.023 A 
ATOM     90  C   UNL A   1      45.562  33.807  31.298  1.00  0.00     0.031 A 
ATOM     91  C   UNL A   1      44.801  34.855  29.264  1.00  0.00     0.131 A 
ATOM     92  C   UNL A   1      46.135  35.029  31.682  1.00  0.00     0.055 A 
ATOM     93  C   UNL A   1      45.421  36.052  29.625  1.00  0.00     0.041 A 
ATOM     94  F   UNL A   1      44.140  34.823  28.095  1.00  0.00    -0.206 F 
ATOM     95  C   UNL A   1      46.082  36.147  30.846  1.00  0.00     0.022 A 
BRANCH  92  96
ATOM     96  S   UNL A   1      46.881  35.163  33.330  1.00  0.00     0.124 S 
ATOM     97  O   UNL A   1      47.585  36.437  33.242  1.00  0.00    -0.237 OA
ATOM     98  O   UNL A   1      45.713  35.139  34.205  1.00  0.00    -0.237 OA
ATOM     99  O   UNL A   1      47.741  33.983  33.414  1.00  0.00    -0.744 OA
ENDBRANCH  92  96
ENDBRANCH  66  89
ENDBRANCH  40  41
ENDBRANCH  32  35
ENDBRANCH  30  31
ENDBRANCH  29  30
ENDBRANCH   1  29
TORSDOF 18
ENDMDL
