MODEL 1
REMARK VINA RESULT:     -11.7      0.000      0.000
REMARK SMILES C[C@H]1CCN1c1cc(C(=O)NCCCCNC(=O)c2ccc(-c3c4nc(c(-c5cc(S(=O)(=O)[O-])ccc5F)c5ccc([nH]5)c(-c5cc(S(=O)(=O)[O-])ccc5F)c5nc(c(-c6cc(S(=O)(=O)[O-])ccc6F)c6ccc3[nH]6)C=C5)C=C4)cc2)ccc1Cl
REMARK SMILES IDX 14 1 13 2 12 3 11 4 9 5 10 6 8 8 6 9 7 10 84 11 83 12 85 13
REMARK SMILES IDX 82 14 5 15 1 16 2 17 3 18 4 19 15 20 16 21 17 22 18 24 19 25
REMARK SMILES IDX 20 26 81 27 21 28 80 29 22 30 23 31 24 32 74 33 25 34 79 35
REMARK SMILES IDX 73 36 75 37 26 38 78 39 72 40 71 41 27 43 59 44 39 45 58 46
REMARK SMILES IDX 40 47 43 48 57 49 76 50 41 51 42 52 56 54 77 55 44 56 28 57
REMARK SMILES IDX 29 58 37 59 30 60 36 61 38 62 35 63 31 64 32 65 33 66 34 67
REMARK SMILES IDX 60 68 61 69 69 70 62 71 68 72 70 73 67 74 63 75 64 76 65 77
REMARK SMILES IDX 66 78 45 79 46 80 54 81 47 82 53 83 55 84 52 85 48 86 49 87
REMARK SMILES IDX 50 88 51 89
REMARK H PARENT 11 7 16 23 75 42 43 53
REMARK Flexibility Score: inf
ROOT
ATOM      1  C   UNL A   1      31.790  31.558  26.809  1.00  0.00     0.023 C 
ENDROOT
BRANCH   1   2
ATOM      2  C   UNL A   1      32.029  30.043  26.785  1.00  0.00     0.023 C 
BRANCH   2   3
ATOM      3  C   UNL A   1      33.302  29.622  26.047  1.00  0.00     0.116 C 
BRANCH   3   4
ATOM      4  N   UNL A   1      33.090  29.639  24.615  1.00  0.00    -0.352 N 
ATOM      5  C   UNL A   1      32.618  28.713  23.723  1.00  0.00     0.251 C 
ATOM      6  O   UNL A   1      32.566  29.060  22.541  1.00  0.00    -0.269 OA
ATOM      7  H   UNL A   1      33.338  30.494  24.194  1.00  0.00     0.163 HD
BRANCH   5   8
ATOM      8  C   UNL A   1      32.135  27.347  24.087  1.00  0.00     0.041 A 
ATOM      9  C   UNL A   1      32.776  24.964  24.302  1.00  0.00     0.057 A 
ATOM     10  C   UNL A   1      33.079  26.307  23.995  1.00  0.00     0.041 A 
ATOM     11  C   UNL A   1      31.465  24.670  24.702  1.00  0.00     0.064 A 
ATOM     12  C   UNL A   1      30.523  25.698  24.832  1.00  0.00     0.023 A 
ATOM     13  Cl  UNL A   1      30.946  23.094  25.184  1.00  0.00    -0.082 Cl
ATOM     14  C   UNL A   1      30.862  27.026  24.553  1.00  0.00     0.015 A 
BRANCH   9  15
ATOM     15  N   UNL A   1      33.841  24.049  24.232  1.00  0.00    -0.367 N 
ATOM     16  C   UNL A   1      35.257  23.160  25.996  1.00  0.00     0.031 C 
ATOM     17  C   UNL A   1      35.173  24.027  24.749  1.00  0.00     0.081 C 
ATOM     18  C   UNL A   1      35.609  23.349  23.443  1.00  0.00     0.046 C 
ATOM     19  C   UNL A   1      34.125  23.191  23.120  1.00  0.00     0.119 C 
ENDBRANCH   9  15
ENDBRANCH   5   8
ENDBRANCH   3   4
ENDBRANCH   2   3
ENDBRANCH   1   2
BRANCH   1  20
ATOM     20  C   UNL A   1      32.967  32.396  27.306  1.00  0.00     0.116 C 
BRANCH  20  21
ATOM     21  N   UNL A   1      32.604  33.771  27.607  1.00  0.00    -0.352 N 
ATOM     22  C   UNL A   1      33.141  34.617  28.551  1.00  0.00     0.251 C 
ATOM     23  H   UNL A   1      31.876  34.149  27.062  1.00  0.00     0.163 HD
ATOM     24  O   UNL A   1      32.637  35.715  28.741  1.00  0.00    -0.269 OA
BRANCH  22  25
ATOM     25  C   UNL A   1      34.295  34.164  29.357  1.00  0.00     0.039 A 
ATOM     26  C   UNL A   1      34.056  33.386  30.493  1.00  0.00     0.014 A 
ATOM     27  C   UNL A   1      35.603  34.480  28.981  1.00  0.00     0.014 A 
ATOM     28  C   UNL A   1      35.132  32.863  31.212  1.00  0.00     0.010 A 
ATOM     29  C   UNL A   1      36.674  33.907  29.661  1.00  0.00     0.010 A 
ATOM     30  C   UNL A   1      36.449  33.087  30.779  1.00  0.00    -0.014 A 
BRANCH  30  31
ATOM     31  C   UNL A   1      37.606  32.467  31.477  1.00  0.00     0.031 A 
ATOM     32  C   UNL A   1      38.342  31.321  30.843  1.00  0.00     0.074 A 
ATOM     33  C   UNL A   1      37.944  32.894  32.709  1.00  0.00     0.049 A 
ATOM     34  N   UNL A   1      39.315  30.592  31.327  1.00  0.00    -0.248 NA
ATOM     35  C   UNL A   1      37.903  30.922  29.498  1.00  0.00     0.031 C 
ATOM     36  C   UNL A   1      37.277  33.973  33.444  1.00  0.00     0.029 A 
ATOM     37  N   UNL A   1      38.925  32.468  33.569  1.00  0.00    -0.354 N 
ATOM     38  C   UNL A   1      39.597  29.642  30.352  1.00  0.00     0.074 A 
ATOM     39  C   UNL A   1      38.649  29.851  29.278  1.00  0.00     0.031 C 
ATOM     40  C   UNL A   1      37.882  34.136  34.631  1.00  0.00     0.029 A 
ATOM     41  C   UNL A   1      38.949  33.150  34.763  1.00  0.00     0.049 A 
ATOM     42  H   UNL A   1      39.553  31.742  33.350  1.00  0.00     0.167 HD
ATOM     43  C   UNL A   1      40.571  28.696  30.344  1.00  0.00     0.034 A 
ATOM     44  C   UNL A   1      39.736  32.991  35.846  1.00  0.00     0.034 A 
ATOM     45  C   UNL A   1      41.513  28.508  31.420  1.00  0.00     0.049 A 
ATOM     46  C   UNL A   1      40.799  31.923  35.823  1.00  0.00     0.074 A 
ATOM     47  C   UNL A   1      42.569  27.615  31.498  1.00  0.00     0.029 A 
ATOM     48  N   UNL A   1      41.513  29.223  32.612  1.00  0.00    -0.354 N 
ATOM     49  N   UNL A   1      41.082  31.059  34.876  1.00  0.00    -0.248 NA
ATOM     50  C   UNL A   1      41.655  31.816  37.011  1.00  0.00     0.031 C 
ATOM     51  C   UNL A   1      43.167  27.749  32.756  1.00  0.00     0.029 A 
ATOM     52  C   UNL A   1      42.532  28.774  33.439  1.00  0.00     0.049 A 
ATOM     53  H   UNL A   1      40.882  29.944  32.837  1.00  0.00     0.167 HD
ATOM     54  C   UNL A   1      42.169  30.327  35.342  1.00  0.00     0.074 A 
ATOM     55  C   UNL A   1      42.498  30.860  36.649  1.00  0.00     0.031 C 
ATOM     56  C   UNL A   1      42.841  29.310  34.744  1.00  0.00     0.034 A 
BRANCH  43  57
ATOM     57  C   UNL A   1      40.640  27.786  29.142  1.00  0.00     0.023 A 
ATOM     58  C   UNL A   1      41.577  27.994  28.114  1.00  0.00     0.031 A 
ATOM     59  C   UNL A   1      39.736  26.718  29.000  1.00  0.00     0.131 A 
ATOM     60  C   UNL A   1      41.536  27.203  26.956  1.00  0.00     0.055 A 
ATOM     61  C   UNL A   1      39.755  25.881  27.882  1.00  0.00     0.041 A 
ATOM     62  F   UNL A   1      38.806  26.481  29.938  1.00  0.00    -0.206 F 
ATOM     63  C   UNL A   1      40.647  26.131  26.844  1.00  0.00     0.022 A 
BRANCH  60  64
ATOM     64  S   UNL A   1      42.556  27.691  25.538  1.00  0.00     0.124 S 
ATOM     65  O   UNL A   1      42.482  26.498  24.698  1.00  0.00    -0.237 OA
ATOM     66  O   UNL A   1      41.856  28.868  25.037  1.00  0.00    -0.237 OA
ATOM     67  O   UNL A   1      43.866  27.948  26.130  1.00  0.00    -0.744 OA
ENDBRANCH  60  64
ENDBRANCH  43  57
BRANCH  44  68
ATOM     68  C   UNL A   1      39.552  33.855  37.047  1.00  0.00     0.023 A 
ATOM     69  C   UNL A   1      38.943  33.353  38.208  1.00  0.00     0.031 A 
ATOM     70  C   UNL A   1      39.945  35.204  37.038  1.00  0.00     0.131 A 
ATOM     71  C   UNL A   1      38.702  34.206  39.296  1.00  0.00     0.055 A 
ATOM     72  C   UNL A   1      39.749  36.036  38.141  1.00  0.00     0.041 A 
ATOM     73  F   UNL A   1      40.540  35.731  35.955  1.00  0.00    -0.206 F 
ATOM     74  C   UNL A   1      39.111  35.541  39.275  1.00  0.00     0.022 A 
BRANCH  71  75
ATOM     75  S   UNL A   1      37.773  33.562  40.714  1.00  0.00     0.124 S 
ATOM     76  O   UNL A   1      38.699  32.572  41.251  1.00  0.00    -0.237 OA
ATOM     77  O   UNL A   1      37.579  34.763  41.519  1.00  0.00    -0.237 OA
ATOM     78  O   UNL A   1      36.560  33.018  40.107  1.00  0.00    -0.744 OA
ENDBRANCH  71  75
ENDBRANCH  44  68
BRANCH  56  79
ATOM     79  C   UNL A   1      44.027  28.746  35.485  1.00  0.00     0.023 A 
ATOM     80  C   UNL A   1      43.892  27.691  36.405  1.00  0.00     0.031 A 
ATOM     81  C   UNL A   1      45.309  29.283  35.276  1.00  0.00     0.131 A 
ATOM     82  C   UNL A   1      45.011  27.244  37.123  1.00  0.00     0.055 A 
ATOM     83  C   UNL A   1      46.429  28.795  35.952  1.00  0.00     0.041 A 
ATOM     84  F   UNL A   1      45.495  30.292  34.410  1.00  0.00    -0.206 F 
ATOM     85  C   UNL A   1      46.281  27.778  36.890  1.00  0.00     0.022 A 
BRANCH  82  86
ATOM     86  S   UNL A   1      44.772  26.008  38.430  1.00  0.00     0.124 S 
ATOM     87  O   UNL A   1      43.911  25.032  37.770  1.00  0.00    -0.237 OA
ATOM     88  O   UNL A   1      46.137  25.574  38.703  1.00  0.00    -0.237 OA
ATOM     89  O   UNL A   1      44.137  26.767  39.506  1.00  0.00    -0.744 OA
ENDBRANCH  82  86
ENDBRANCH  56  79
ENDBRANCH  30  31
ENDBRANCH  22  25
ENDBRANCH  20  21
ENDBRANCH   1  20
TORSDOF 15
ENDMDL
MODEL 2
REMARK VINA RESULT:     -11.6      5.700      8.950
REMARK SMILES C[C@H]1CCN1c1cc(C(=O)NCCCCNC(=O)c2ccc(-c3c4nc(c(-c5cc(S(=O)(=O)[O-])ccc5F)c5ccc([nH]5)c(-c5cc(S(=O)(=O)[O-])ccc5F)c5nc(c(-c6cc(S(=O)(=O)[O-])ccc6F)c6ccc3[nH]6)C=C5)C=C4)cc2)ccc1Cl
REMARK SMILES IDX 14 1 13 2 12 3 11 4 9 5 10 6 8 8 6 9 7 10 84 11 83 12 85 13
REMARK SMILES IDX 82 14 5 15 1 16 2 17 3 18 4 19 15 20 16 21 17 22 18 24 19 25
REMARK SMILES IDX 20 26 81 27 21 28 80 29 22 30 23 31 24 32 74 33 25 34 79 35
REMARK SMILES IDX 73 36 75 37 26 38 78 39 72 40 71 41 27 43 59 44 39 45 58 46
REMARK SMILES IDX 40 47 43 48 57 49 76 50 41 51 42 52 56 54 77 55 44 56 28 57
REMARK SMILES IDX 29 58 37 59 30 60 36 61 38 62 35 63 31 64 32 65 33 66 34 67
REMARK SMILES IDX 60 68 61 69 69 70 62 71 68 72 70 73 67 74 63 75 64 76 65 77
REMARK SMILES IDX 66 78 45 79 46 80 54 81 47 82 53 83 55 84 52 85 48 86 49 87
REMARK SMILES IDX 50 88 51 89
REMARK H PARENT 11 7 16 23 75 42 43 53
REMARK Flexibility Score: inf
ROOT
ATOM      1  C   UNL A   1      35.578  21.108  24.864  1.00  0.00     0.023 C 
ENDROOT
BRANCH   1   2
ATOM      2  C   UNL A   1      34.397  21.136  25.842  1.00  0.00     0.023 C 
BRANCH   2   3
ATOM      3  C   UNL A   1      34.487  22.237  26.901  1.00  0.00     0.116 C 
BRANCH   3   4
ATOM      4  N   UNL A   1      33.165  22.701  27.267  1.00  0.00    -0.352 N 
ATOM      5  C   UNL A   1      32.379  23.737  26.837  1.00  0.00     0.251 C 
ATOM      6  O   UNL A   1      31.276  23.855  27.374  1.00  0.00    -0.269 OA
ATOM      7  H   UNL A   1      32.743  22.159  27.973  1.00  0.00     0.163 HD
BRANCH   5   8
ATOM      8  C   UNL A   1      32.750  24.695  25.751  1.00  0.00     0.041 A 
ATOM      9  C   UNL A   1      33.274  27.058  25.230  1.00  0.00     0.057 A 
ATOM     10  C   UNL A   1      32.927  26.037  26.138  1.00  0.00     0.041 A 
ATOM     11  C   UNL A   1      33.434  26.704  23.883  1.00  0.00     0.064 A 
ATOM     12  C   UNL A   1      33.295  25.368  23.488  1.00  0.00     0.023 A 
ATOM     13  Cl  UNL A   1      33.929  27.815  22.656  1.00  0.00    -0.082 Cl
ATOM     14  C   UNL A   1      32.983  24.369  24.418  1.00  0.00     0.015 A 
BRANCH   9  15
ATOM     15  N   UNL A   1      33.487  28.337  25.776  1.00  0.00    -0.367 N 
ATOM     16  C   UNL A   1      35.204  29.118  27.308  1.00  0.00     0.031 C 
ATOM     17  C   UNL A   1      33.725  28.831  27.095  1.00  0.00     0.081 C 
ATOM     18  C   UNL A   1      32.863  30.049  26.735  1.00  0.00     0.046 C 
ATOM     19  C   UNL A   1      32.903  29.552  25.291  1.00  0.00     0.119 C 
ENDBRANCH   9  15
ENDBRANCH   5   8
ENDBRANCH   3   4
ENDBRANCH   2   3
ENDBRANCH   1   2
BRANCH   1  20
ATOM     20  C   UNL A   1      36.888  21.676  25.406  1.00  0.00     0.116 C 
BRANCH  20  21
ATOM     21  N   UNL A   1      37.926  20.669  25.567  1.00  0.00    -0.352 N 
ATOM     22  C   UNL A   1      39.221  20.829  26.006  1.00  0.00     0.251 C 
ATOM     23  H   UNL A   1      37.667  19.749  25.330  1.00  0.00     0.163 HD
ATOM     24  O   UNL A   1      39.994  19.884  25.977  1.00  0.00    -0.269 OA
BRANCH  22  25
ATOM     25  C   UNL A   1      39.671  22.161  26.465  1.00  0.00     0.039 A 
ATOM     26  C   UNL A   1      40.798  22.242  27.287  1.00  0.00     0.014 A 
ATOM     27  C   UNL A   1      39.005  23.322  26.066  1.00  0.00     0.014 A 
ATOM     28  C   UNL A   1      41.300  23.493  27.650  1.00  0.00     0.010 A 
ATOM     29  C   UNL A   1      39.542  24.568  26.376  1.00  0.00     0.010 A 
ATOM     30  C   UNL A   1      40.699  24.666  27.165  1.00  0.00    -0.014 A 
BRANCH  30  31
ATOM     31  C   UNL A   1      41.270  26.005  27.466  1.00  0.00     0.031 A 
ATOM     32  C   UNL A   1      42.652  26.358  26.993  1.00  0.00     0.074 A 
ATOM     33  C   UNL A   1      40.568  26.871  28.223  1.00  0.00     0.049 A 
ATOM     34  N   UNL A   1      43.357  27.436  27.226  1.00  0.00    -0.248 NA
ATOM     35  C   UNL A   1      43.342  25.352  26.174  1.00  0.00     0.031 C 
ATOM     36  C   UNL A   1      39.233  26.624  28.774  1.00  0.00     0.029 A 
ATOM     37  N   UNL A   1      40.882  28.129  28.672  1.00  0.00    -0.354 N 
ATOM     38  C   UNL A   1      44.579  27.232  26.594  1.00  0.00     0.074 A 
ATOM     39  C   UNL A   1      44.537  25.903  26.021  1.00  0.00     0.031 C 
ATOM     40  C   UNL A   1      38.836  27.704  29.466  1.00  0.00     0.029 A 
ATOM     41  C   UNL A   1      39.901  28.701  29.447  1.00  0.00     0.049 A 
ATOM     42  H   UNL A   1      41.731  28.580  28.457  1.00  0.00     0.167 HD
ATOM     43  C   UNL A   1      45.630  28.084  26.483  1.00  0.00     0.034 A 
ATOM     44  C   UNL A   1      39.866  29.891  30.079  1.00  0.00     0.034 A 
ATOM     45  C   UNL A   1      45.650  29.410  27.052  1.00  0.00     0.049 A 
ATOM     46  C   UNL A   1      41.052  30.814  29.957  1.00  0.00     0.074 A 
ATOM     47  C   UNL A   1      46.640  30.374  26.962  1.00  0.00     0.029 A 
ATOM     48  N   UNL A   1      44.634  29.959  27.825  1.00  0.00    -0.354 N 
ATOM     49  N   UNL A   1      42.184  30.625  29.320  1.00  0.00    -0.248 NA
ATOM     50  C   UNL A   1      40.950  32.114  30.632  1.00  0.00     0.031 C 
ATOM     51  C   UNL A   1      46.249  31.479  27.726  1.00  0.00     0.029 A 
ATOM     52  C   UNL A   1      44.984  31.236  28.237  1.00  0.00     0.049 A 
ATOM     53  H   UNL A   1      43.788  29.508  28.048  1.00  0.00     0.167 HD
ATOM     54  C   UNL A   1      42.916  31.796  29.491  1.00  0.00     0.074 A 
ATOM     55  C   UNL A   1      42.091  32.689  30.280  1.00  0.00     0.031 C 
ATOM     56  C   UNL A   1      44.155  32.110  29.033  1.00  0.00     0.034 A 
BRANCH  43  57
ATOM     57  C   UNL A   1      46.844  27.589  25.736  1.00  0.00     0.023 A 
ATOM     58  C   UNL A   1      47.107  27.985  24.412  1.00  0.00     0.031 A 
ATOM     59  C   UNL A   1      47.734  26.681  26.338  1.00  0.00     0.131 A 
ATOM     60  C   UNL A   1      48.177  27.413  23.707  1.00  0.00     0.055 A 
ATOM     61  C   UNL A   1      48.846  26.179  25.659  1.00  0.00     0.041 A 
ATOM     62  F   UNL A   1      47.526  26.251  27.592  1.00  0.00    -0.206 F 
ATOM     63  C   UNL A   1      49.064  26.532  24.330  1.00  0.00     0.022 A 
BRANCH  60  64
ATOM     64  S   UNL A   1      48.302  27.721  21.924  1.00  0.00     0.124 S 
ATOM     65  O   UNL A   1      46.988  28.289  21.632  1.00  0.00    -0.237 OA
ATOM     66  O   UNL A   1      49.429  28.643  21.842  1.00  0.00    -0.237 OA
ATOM     67  O   UNL A   1      48.538  26.393  21.362  1.00  0.00    -0.744 OA
ENDBRANCH  60  64
ENDBRANCH  43  57
BRANCH  44  68
ATOM     68  C   UNL A   1      38.678  30.283  30.889  1.00  0.00     0.023 A 
ATOM     69  C   UNL A   1      37.636  31.034  30.321  1.00  0.00     0.031 A 
ATOM     70  C   UNL A   1      38.584  29.948  32.250  1.00  0.00     0.131 A 
ATOM     71  C   UNL A   1      36.568  31.465  31.123  1.00  0.00     0.055 A 
ATOM     72  C   UNL A   1      37.495  30.337  33.032  1.00  0.00     0.041 A 
ATOM     73  F   UNL A   1      39.551  29.224  32.839  1.00  0.00    -0.206 F 
ATOM     74  C   UNL A   1      36.485  31.112  32.472  1.00  0.00     0.022 A 
BRANCH  71  75
ATOM     75  S   UNL A   1      35.324  32.564  30.392  1.00  0.00     0.124 S 
ATOM     76  O   UNL A   1      36.094  33.783  30.177  1.00  0.00    -0.237 OA
ATOM     77  O   UNL A   1      34.937  31.828  29.194  1.00  0.00    -0.237 OA
ATOM     78  O   UNL A   1      34.296  32.649  31.428  1.00  0.00    -0.744 OA
ENDBRANCH  71  75
ENDBRANCH  44  68
BRANCH  56  79
ATOM     79  C   UNL A   1      44.665  33.496  29.339  1.00  0.00     0.023 A 
ATOM     80  C   UNL A   1      44.562  34.546  28.410  1.00  0.00     0.031 A 
ATOM     81  C   UNL A   1      45.278  33.763  30.576  1.00  0.00     0.131 A 
ATOM     82  C   UNL A   1      45.112  35.801  28.711  1.00  0.00     0.055 A 
ATOM     83  C   UNL A   1      45.773  35.030  30.892  1.00  0.00     0.041 A 
ATOM     84  F   UNL A   1      45.405  32.797  31.499  1.00  0.00    -0.206 F 
ATOM     85  C   UNL A   1      45.702  36.054  29.952  1.00  0.00     0.022 A 
BRANCH  82  86
ATOM     86  S   UNL A   1      45.121  37.079  27.424  1.00  0.00     0.124 S 
ATOM     87  O   UNL A   1      45.822  38.173  28.088  1.00  0.00    -0.237 OA
ATOM     88  O   UNL A   1      45.843  36.424  26.339  1.00  0.00    -0.237 OA
ATOM     89  O   UNL A   1      43.702  37.318  27.167  1.00  0.00    -0.744 OA
ENDBRANCH  82  86
ENDBRANCH  56  79
ENDBRANCH  30  31
ENDBRANCH  22  25
ENDBRANCH  20  21
ENDBRANCH   1  20
TORSDOF 15
ENDMDL
MODEL 3
REMARK VINA RESULT:     -11.5      5.881     11.040
REMARK SMILES C[C@H]1CCN1c1cc(C(=O)NCCCCNC(=O)c2ccc(-c3c4nc(c(-c5cc(S(=O)(=O)[O-])ccc5F)c5ccc([nH]5)c(-c5cc(S(=O)(=O)[O-])ccc5F)c5nc(c(-c6cc(S(=O)(=O)[O-])ccc6F)c6ccc3[nH]6)C=C5)C=C4)cc2)ccc1Cl
REMARK SMILES IDX 14 1 13 2 12 3 11 4 9 5 10 6 8 8 6 9 7 10 84 11 83 12 85 13
REMARK SMILES IDX 82 14 5 15 1 16 2 17 3 18 4 19 15 20 16 21 17 22 18 24 19 25
REMARK SMILES IDX 20 26 81 27 21 28 80 29 22 30 23 31 24 32 74 33 25 34 79 35
REMARK SMILES IDX 73 36 75 37 26 38 78 39 72 40 71 41 27 43 59 44 39 45 58 46
REMARK SMILES IDX 40 47 43 48 57 49 76 50 41 51 42 52 56 54 77 55 44 56 28 57
REMARK SMILES IDX 29 58 37 59 30 60 36 61 38 62 35 63 31 64 32 65 33 66 34 67
REMARK SMILES IDX 60 68 61 69 69 70 62 71 68 72 70 73 67 74 63 75 64 76 65 77
REMARK SMILES IDX 66 78 45 79 46 80 54 81 47 82 53 83 55 84 52 85 48 86 49 87
REMARK SMILES IDX 50 88 51 89
REMARK H PARENT 11 7 16 23 75 42 43 53
REMARK Flexibility Score: inf
ROOT
ATOM      1  C   UNL A   1      35.143  21.688  26.593  1.00  0.00     0.023 C 
ENDROOT
BRANCH   1   2
ATOM      2  C   UNL A   1      34.404  22.908  27.156  1.00  0.00     0.023 C 
BRANCH   2   3
ATOM      3  C   UNL A   1      32.908  22.684  27.385  1.00  0.00     0.116 C 
BRANCH   3   4
ATOM      4  N   UNL A   1      32.433  21.569  26.591  1.00  0.00    -0.352 N 
ATOM      5  C   UNL A   1      32.143  21.417  25.262  1.00  0.00     0.251 C 
ATOM      6  O   UNL A   1      31.748  20.305  24.904  1.00  0.00    -0.269 OA
ATOM      7  H   UNL A   1      32.289  20.749  27.117  1.00  0.00     0.163 HD
BRANCH   5   8
ATOM      8  C   UNL A   1      32.305  22.482  24.226  1.00  0.00     0.041 A 
ATOM      9  C   UNL A   1      31.670  24.786  23.575  1.00  0.00     0.057 A 
ATOM     10  C   UNL A   1      31.618  23.689  24.460  1.00  0.00     0.041 A 
ATOM     11  C   UNL A   1      32.434  24.644  22.408  1.00  0.00     0.064 A 
ATOM     12  C   UNL A   1      33.150  23.463  22.177  1.00  0.00     0.023 A 
ATOM     13  Cl  UNL A   1      32.662  25.912  21.258  1.00  0.00    -0.082 Cl
ATOM     14  C   UNL A   1      33.107  22.403  23.091  1.00  0.00     0.015 A 
BRANCH   9  15
ATOM     15  N   UNL A   1      30.990  25.949  23.978  1.00  0.00    -0.367 N 
ATOM     16  C   UNL A   1      28.612  26.445  23.994  1.00  0.00     0.031 C 
ATOM     17  C   UNL A   1      29.973  26.763  23.393  1.00  0.00     0.081 C 
ATOM     18  C   UNL A   1      30.686  27.986  23.987  1.00  0.00     0.046 C 
ATOM     19  C   UNL A   1      31.550  27.002  24.772  1.00  0.00     0.119 C 
ENDBRANCH   9  15
ENDBRANCH   5   8
ENDBRANCH   3   4
ENDBRANCH   2   3
ENDBRANCH   1   2
BRANCH   1  20
ATOM     20  C   UNL A   1      36.285  22.004  25.628  1.00  0.00     0.116 C 
BRANCH  20  21
ATOM     21  N   UNL A   1      37.263  20.933  25.529  1.00  0.00    -0.352 N 
ATOM     22  C   UNL A   1      38.617  20.977  25.778  1.00  0.00     0.251 C 
ATOM     23  H   UNL A   1      36.911  20.059  25.246  1.00  0.00     0.163 HD
ATOM     24  O   UNL A   1      39.312  20.001  25.538  1.00  0.00    -0.269 OA
BRANCH  22  25
ATOM     25  C   UNL A   1      39.219  22.227  26.290  1.00  0.00     0.039 A 
ATOM     26  C   UNL A   1      40.285  22.139  27.190  1.00  0.00     0.014 A 
ATOM     27  C   UNL A   1      38.756  23.475  25.866  1.00  0.00     0.014 A 
ATOM     28  C   UNL A   1      40.933  23.302  27.610  1.00  0.00     0.010 A 
ATOM     29  C   UNL A   1      39.443  24.628  26.235  1.00  0.00     0.010 A 
ATOM     30  C   UNL A   1      40.542  24.552  27.104  1.00  0.00    -0.014 A 
BRANCH  30  31
ATOM     31  C   UNL A   1      41.276  25.793  27.468  1.00  0.00     0.031 A 
ATOM     32  C   UNL A   1      40.606  26.847  28.304  1.00  0.00     0.074 A 
ATOM     33  C   UNL A   1      42.518  25.996  26.985  1.00  0.00     0.049 A 
ATOM     34  N   UNL A   1      41.044  28.030  28.653  1.00  0.00    -0.248 NA
ATOM     35  C   UNL A   1      39.252  26.539  28.785  1.00  0.00     0.031 C 
ATOM     36  C   UNL A   1      43.256  25.063  26.130  1.00  0.00     0.029 A 
ATOM     37  N   UNL A   1      43.376  27.056  27.134  1.00  0.00    -0.354 N 
ATOM     38  C   UNL A   1      40.014  28.613  29.383  1.00  0.00     0.074 A 
ATOM     39  C   UNL A   1      38.911  27.676  29.372  1.00  0.00     0.031 C 
ATOM     40  C   UNL A   1      44.462  25.582  25.850  1.00  0.00     0.029 A 
ATOM     41  C   UNL A   1      44.569  26.901  26.466  1.00  0.00     0.049 A 
ATOM     42  H   UNL A   1      43.159  27.852  27.670  1.00  0.00     0.167 HD
ATOM     43  C   UNL A   1      40.000  29.810  30.022  1.00  0.00     0.034 A 
ATOM     44  C   UNL A   1      45.624  27.731  26.354  1.00  0.00     0.034 A 
ATOM     45  C   UNL A   1      41.113  30.728  30.030  1.00  0.00     0.049 A 
ATOM     46  C   UNL A   1      45.579  29.064  27.057  1.00  0.00     0.074 A 
ATOM     47  C   UNL A   1      41.226  31.944  30.683  1.00  0.00     0.029 A 
ATOM     48  N   UNL A   1      42.309  30.534  29.348  1.00  0.00    -0.354 N 
ATOM     49  N   UNL A   1      44.615  29.584  27.780  1.00  0.00    -0.248 NA
ATOM     50  C   UNL A   1      46.769  29.916  26.937  1.00  0.00     0.031 C 
ATOM     51  C   UNL A   1      42.461  32.510  30.348  1.00  0.00     0.029 A 
ATOM     52  C   UNL A   1      43.152  31.617  29.544  1.00  0.00     0.049 A 
ATOM     53  H   UNL A   1      42.526  29.742  28.805  1.00  0.00     0.167 HD
ATOM     54  C   UNL A   1      45.095  30.811  28.226  1.00  0.00     0.074 A 
ATOM     55  C   UNL A   1      46.440  30.946  27.701  1.00  0.00     0.031 C 
ATOM     56  C   UNL A   1      44.486  31.742  29.005  1.00  0.00     0.034 A 
BRANCH  43  57
ATOM     57  C   UNL A   1      38.729  30.194  30.741  1.00  0.00     0.023 A 
ATOM     58  C   UNL A   1      37.694  30.887  30.088  1.00  0.00     0.031 A 
ATOM     59  C   UNL A   1      38.562  29.898  32.106  1.00  0.00     0.131 A 
ATOM     60  C   UNL A   1      36.580  31.333  30.815  1.00  0.00     0.055 A 
ATOM     61  C   UNL A   1      37.412  30.270  32.805  1.00  0.00     0.041 A 
ATOM     62  F   UNL A   1      39.522  29.256  32.789  1.00  0.00    -0.206 F 
ATOM     63  C   UNL A   1      36.420  31.007  32.164  1.00  0.00     0.022 A 
BRANCH  60  64
ATOM     64  S   UNL A   1      35.421  32.471  30.010  1.00  0.00     0.124 S 
ATOM     65  O   UNL A   1      36.282  33.617  29.728  1.00  0.00    -0.237 OA
ATOM     66  O   UNL A   1      34.980  31.704  28.851  1.00  0.00    -0.237 OA
ATOM     67  O   UNL A   1      34.402  32.703  31.031  1.00  0.00    -0.744 OA
ENDBRANCH  60  64
ENDBRANCH  43  57
BRANCH  44  68
ATOM     68  C   UNL A   1      46.812  27.339  25.543  1.00  0.00     0.023 A 
ATOM     69  C   UNL A   1      46.975  27.811  24.231  1.00  0.00     0.031 A 
ATOM     70  C   UNL A   1      47.779  26.456  26.053  1.00  0.00     0.131 A 
ATOM     71  C   UNL A   1      48.056  27.361  23.456  1.00  0.00     0.055 A 
ATOM     72  C   UNL A   1      48.880  26.051  25.296  1.00  0.00     0.041 A 
ATOM     73  F   UNL A   1      47.673  25.983  27.306  1.00  0.00    -0.206 F 
ATOM     74  C   UNL A   1      49.015  26.493  23.984  1.00  0.00     0.022 A 
BRANCH  71  75
ATOM     75  S   UNL A   1      48.147  27.868  21.717  1.00  0.00     0.124 S 
ATOM     76  O   UNL A   1      48.506  26.617  21.061  1.00  0.00    -0.237 OA
ATOM     77  O   UNL A   1      46.794  28.356  21.474  1.00  0.00    -0.237 OA
ATOM     78  O   UNL A   1      49.187  28.895  21.717  1.00  0.00    -0.744 OA
ENDBRANCH  71  75
ENDBRANCH  44  68
BRANCH  56  79
ATOM     79  C   UNL A   1      45.293  32.962  29.370  1.00  0.00     0.023 A 
ATOM     80  C   UNL A   1      45.246  34.138  28.601  1.00  0.00     0.031 A 
ATOM     81  C   UNL A   1      46.134  32.940  30.497  1.00  0.00     0.131 A 
ATOM     82  C   UNL A   1      46.065  35.226  28.938  1.00  0.00     0.055 A 
ATOM     83  C   UNL A   1      46.904  34.046  30.859  1.00  0.00     0.041 A 
ATOM     84  F   UNL A   1      46.219  31.843  31.265  1.00  0.00    -0.206 F 
ATOM     85  C   UNL A   1      46.882  35.193  30.071  1.00  0.00     0.022 A 
BRANCH  82  86
ATOM     86  S   UNL A   1      46.114  36.658  27.825  1.00  0.00     0.124 S 
ATOM     87  O   UNL A   1      44.999  36.382  26.926  1.00  0.00    -0.237 OA
ATOM     88  O   UNL A   1      45.931  37.775  28.745  1.00  0.00    -0.237 OA
ATOM     89  O   UNL A   1      47.439  36.570  27.213  1.00  0.00    -0.744 OA
ENDBRANCH  82  86
ENDBRANCH  56  79
ENDBRANCH  30  31
ENDBRANCH  22  25
ENDBRANCH  20  21
ENDBRANCH   1  20
TORSDOF 15
ENDMDL
