MODEL 1
REMARK VINA RESULT:     -11.3      0.000      0.000
REMARK SMILES O=C(NCCCCNC(=O)[C@H](CO)NC(=O)[C@H](CS)NC(=O)c1ccc(F)cc1)c1ccc(-c2c3nc(c(-c4cc(S(=O)(=O)[O-])ccc4F)c4ccc([nH]4)c(-c4cc(S(=O)(=O)[O-])ccc4F)c4nc(c(-c5cc(S(=O)(=O)[O-])ccc5F)c5ccc2[nH]5)C=C4)C=C3)cc1
REMARK SMILES IDX 6 1 5 2 4 3 3 4 1 5 2 6 30 8 31 9 92 10 32 11 91 12 33 13
REMARK SMILES IDX 34 14 35 15 85 16 36 17 90 18 84 19 86 20 37 21 89 22 83 23
REMARK SMILES IDX 82 24 38 26 70 27 50 28 69 29 51 30 54 31 68 32 87 33 52 34
REMARK SMILES IDX 53 35 67 37 88 38 55 39 39 40 40 41 48 42 41 43 47 44 49 45
REMARK SMILES IDX 46 46 42 47 43 48 44 49 45 50 71 51 72 52 80 53 73 54 79 55
REMARK SMILES IDX 81 56 78 57 74 58 75 59 76 60 77 61 56 62 57 63 65 64 58 65
REMARK SMILES IDX 64 66 66 67 63 68 59 69 60 70 61 71 62 72 7 73 8 74 9 75
REMARK SMILES IDX 10 77 11 78 14 79 15 80 16 82 17 83 20 84 21 85 22 87 23 88
REMARK SMILES IDX 24 89 29 90 25 91 28 92 26 93 27 94 18 95 19 96 12 98 13 99
REMARK H PARENT 3 7 86 25 54 36 8 76 14 81 20 86 19 97 13 100
REMARK Flexibility Score: inf
ROOT
ATOM      1  C   UNL A   1      31.910  27.360  26.393  1.00  0.00     0.023 C 
ENDROOT
BRANCH   1   2
ATOM      2  C   UNL A   1      32.374  28.052  25.107  1.00  0.00     0.023 C 
BRANCH   2   3
ATOM      3  C   UNL A   1      33.312  29.235  25.307  1.00  0.00     0.116 C 
BRANCH   3   4
ATOM      4  N   UNL A   1      32.653  30.425  25.828  1.00  0.00    -0.352 N 
ATOM      5  O   UNL A   1      32.382  32.159  27.256  1.00  0.00    -0.269 OA
ATOM      6  C   UNL A   1      33.076  31.228  26.863  1.00  0.00     0.251 C 
ATOM      7  H   UNL A   1      31.811  30.686  25.390  1.00  0.00     0.163 HD
BRANCH   6   8
ATOM      8  C   UNL A   1      34.362  30.915  27.516  1.00  0.00     0.039 A 
ATOM      9  C   UNL A   1      34.609  29.623  27.985  1.00  0.00     0.014 A 
ATOM     10  C   UNL A   1      35.293  31.938  27.718  1.00  0.00     0.014 A 
ATOM     11  C   UNL A   1      35.722  29.388  28.778  1.00  0.00     0.010 A 
ATOM     12  C   UNL A   1      36.455  31.675  28.449  1.00  0.00     0.010 A 
ATOM     13  C   UNL A   1      36.662  30.407  29.010  1.00  0.00    -0.014 A 
BRANCH  13  14
ATOM     14  C   UNL A   1      37.883  30.084  29.788  1.00  0.00     0.031 A 
ATOM     15  C   UNL A   1      38.027  30.495  31.225  1.00  0.00     0.074 A 
ATOM     16  C   UNL A   1      38.837  29.348  29.187  1.00  0.00     0.049 A 
ATOM     17  N   UNL A   1      39.002  30.234  32.057  1.00  0.00    -0.248 NA
ATOM     18  C   UNL A   1      36.947  31.308  31.801  1.00  0.00     0.031 C 
ATOM     19  C   UNL A   1      38.792  28.898  27.793  1.00  0.00     0.029 A 
ATOM     20  N   UNL A   1      39.999  28.811  29.672  1.00  0.00    -0.354 N 
ATOM     21  C   UNL A   1      38.669  30.868  33.249  1.00  0.00     0.074 A 
ATOM     22  C   UNL A   1      37.406  31.541  33.024  1.00  0.00     0.031 C 
ATOM     23  C   UNL A   1      39.833  28.088  27.559  1.00  0.00     0.029 A 
ATOM     24  C   UNL A   1      40.655  28.017  28.761  1.00  0.00     0.049 A 
ATOM     25  H   UNL A   1      40.332  28.977  30.583  1.00  0.00     0.167 HD
ATOM     26  C   UNL A   1      39.356  30.881  34.417  1.00  0.00     0.034 A 
ATOM     27  C   UNL A   1      41.797  27.313  28.873  1.00  0.00     0.034 A 
ATOM     28  C   UNL A   1      40.605  30.188  34.623  1.00  0.00     0.049 A 
ATOM     29  C   UNL A   1      42.547  27.355  30.170  1.00  0.00     0.074 A 
ATOM     30  C   UNL A   1      41.365  30.108  35.777  1.00  0.00     0.029 A 
ATOM     31  N   UNL A   1      41.279  29.458  33.652  1.00  0.00    -0.354 N 
ATOM     32  N   UNL A   1      42.228  27.980  31.279  1.00  0.00    -0.248 NA
ATOM     33  C   UNL A   1      43.813  26.617  30.228  1.00  0.00     0.031 C 
ATOM     34  C   UNL A   1      42.525  29.380  35.488  1.00  0.00     0.029 A 
ATOM     35  C   UNL A   1      42.460  28.951  34.173  1.00  0.00     0.049 A 
ATOM     36  H   UNL A   1      40.965  29.321  32.730  1.00  0.00     0.167 HD
ATOM     37  C   UNL A   1      43.259  27.712  32.171  1.00  0.00     0.074 A 
ATOM     38  C   UNL A   1      44.203  26.860  31.473  1.00  0.00     0.031 C 
ATOM     39  C   UNL A   1      43.405  28.132  33.452  1.00  0.00     0.034 A 
BRANCH  26  40
ATOM     40  C   UNL A   1      38.799  31.709  35.547  1.00  0.00     0.023 A 
ATOM     41  C   UNL A   1      38.193  31.123  36.671  1.00  0.00     0.031 A 
ATOM     42  C   UNL A   1      38.885  33.113  35.500  1.00  0.00     0.131 A 
ATOM     43  C   UNL A   1      37.655  31.939  37.680  1.00  0.00     0.055 A 
ATOM     44  C   UNL A   1      38.404  33.916  36.535  1.00  0.00     0.041 A 
ATOM     45  F   UNL A   1      39.438  33.726  34.442  1.00  0.00    -0.206 F 
ATOM     46  C   UNL A   1      37.776  33.330  37.630  1.00  0.00     0.022 A 
BRANCH  43  47
ATOM     47  S   UNL A   1      36.707  31.160  39.016  1.00  0.00     0.124 S 
ATOM     48  O   UNL A   1      37.663  31.205  40.121  1.00  0.00    -0.237 OA
ATOM     49  O   UNL A   1      35.551  32.040  39.137  1.00  0.00    -0.237 OA
ATOM     50  O   UNL A   1      36.423  29.823  38.501  1.00  0.00    -0.744 OA
ENDBRANCH  43  47
ENDBRANCH  26  40
BRANCH  27  51
ATOM     51  C   UNL A   1      42.285  26.540  27.703  1.00  0.00     0.023 A 
ATOM     52  C   UNL A   1      42.069  25.158  27.608  1.00  0.00     0.031 A 
ATOM     53  C   UNL A   1      42.894  27.198  26.619  1.00  0.00     0.131 A 
ATOM     54  C   UNL A   1      42.456  24.475  26.444  1.00  0.00     0.055 A 
ATOM     55  C   UNL A   1      43.250  26.520  25.454  1.00  0.00     0.041 A 
ATOM     56  F   UNL A   1      43.097  28.525  26.661  1.00  0.00    -0.206 F 
ATOM     57  C   UNL A   1      43.031  25.149  25.363  1.00  0.00     0.022 A 
BRANCH  54  58
ATOM     58  S   UNL A   1      42.171  22.687  26.345  1.00  0.00     0.124 S 
ATOM     59  O   UNL A   1      42.996  22.193  27.443  1.00  0.00    -0.237 OA
ATOM     60  O   UNL A   1      40.727  22.593  26.532  1.00  0.00    -0.237 OA
ATOM     61  O   UNL A   1      42.643  22.343  25.005  1.00  0.00    -0.744 OA
ENDBRANCH  54  58
ENDBRANCH  27  51
BRANCH  39  62
ATOM     62  C   UNL A   1      44.630  27.665  34.186  1.00  0.00     0.023 A 
ATOM     63  C   UNL A   1      44.646  26.442  34.877  1.00  0.00     0.031 A 
ATOM     64  C   UNL A   1      45.803  28.438  34.164  1.00  0.00     0.131 A 
ATOM     65  C   UNL A   1      45.813  26.037  35.542  1.00  0.00     0.055 A 
ATOM     66  C   UNL A   1      46.971  28.012  34.795  1.00  0.00     0.041 A 
ATOM     67  F   UNL A   1      45.832  29.613  33.515  1.00  0.00    -0.206 F 
ATOM     68  C   UNL A   1      46.979  26.806  35.491  1.00  0.00     0.022 A 
BRANCH  65  69
ATOM     69  S   UNL A   1      45.787  24.493  36.492  1.00  0.00     0.124 S 
ATOM     70  O   UNL A   1      46.439  24.894  37.735  1.00  0.00    -0.237 OA
ATOM     71  O   UNL A   1      44.361  24.199  36.587  1.00  0.00    -0.237 OA
ATOM     72  O   UNL A   1      46.554  23.567  35.660  1.00  0.00    -0.744 OA
ENDBRANCH  65  69
ENDBRANCH  39  62
ENDBRANCH  13  14
ENDBRANCH   6   8
ENDBRANCH   3   4
ENDBRANCH   2   3
ENDBRANCH   1   2
BRANCH   1  73
ATOM     73  C   UNL A   1      32.014  25.837  26.369  1.00  0.00     0.116 C 
BRANCH  73  74
ATOM     74  N   UNL A   1      31.558  25.276  25.113  1.00  0.00    -0.354 N 
ATOM     75  C   UNL A   1      30.943  24.110  24.792  1.00  0.00     0.244 C 
ATOM     76  H   UNL A   1      31.728  25.857  24.338  1.00  0.00     0.163 HD
ATOM     77  O   UNL A   1      30.624  23.962  23.605  1.00  0.00    -0.273 OA
BRANCH  75  78
ATOM     78  C   UNL A   1      30.671  22.957  25.784  1.00  0.00     0.197 C 
BRANCH  78  79
ATOM     79  N   UNL A   1      31.803  22.273  26.409  1.00  0.00    -0.340 N 
ATOM     80  C   UNL A   1      32.752  21.419  25.944  1.00  0.00     0.244 C 
ATOM     81  H   UNL A   1      31.896  22.473  27.368  1.00  0.00     0.164 HD
ATOM     82  O   UNL A   1      33.620  21.112  26.770  1.00  0.00    -0.273 OA
BRANCH  80  83
ATOM     83  C   UNL A   1      32.679  20.681  24.578  1.00  0.00     0.181 C 
BRANCH  83  84
ATOM     84  N   UNL A   1      32.904  21.517  23.401  1.00  0.00    -0.339 N 
ATOM     85  C   UNL A   1      33.778  22.552  23.179  1.00  0.00     0.251 C 
ATOM     86  H   UNL A   1      32.327  21.301  22.633  1.00  0.00     0.164 HD
ATOM     87  O   UNL A   1      33.618  23.235  22.170  1.00  0.00    -0.269 OA
BRANCH  85  88
ATOM     88  C   UNL A   1      34.911  22.868  24.090  1.00  0.00     0.040 A 
ATOM     89  C   UNL A   1      36.124  22.168  24.088  1.00  0.00     0.017 A 
ATOM     90  C   UNL A   1      34.786  24.009  24.899  1.00  0.00     0.017 A 
ATOM     91  C   UNL A   1      37.178  22.573  24.910  1.00  0.00     0.040 A 
ATOM     92  C   UNL A   1      35.843  24.419  25.714  1.00  0.00     0.040 A 
ATOM     93  C   UNL A   1      37.028  23.694  25.717  1.00  0.00     0.123 A 
ATOM     94  F   UNL A   1      38.045  24.089  26.492  1.00  0.00    -0.207 F 
ENDBRANCH  85  88
ENDBRANCH  83  84
BRANCH  83  95
ATOM     95  C   UNL A   1      33.682  19.504  24.615  1.00  0.00     0.101 C 
BRANCH  95  96
ATOM     96  S   UNL A   1      32.911  17.905  25.048  1.00  0.00    -0.177 SA
ATOM     97  H   UNL A   1      32.538  17.259  23.911  1.00  0.00     0.102 HD
ENDBRANCH  95  96
ENDBRANCH  83  95
ENDBRANCH  80  83
ENDBRANCH  78  79
BRANCH  78  98
ATOM     98  C   UNL A   1      29.728  23.516  26.874  1.00  0.00     0.191 C 
BRANCH  98  99
ATOM     99  O   UNL A   1      29.532  22.573  27.926  1.00  0.00    -0.394 OA
ATOM    100  H   UNL A   1      30.347  22.494  28.445  1.00  0.00     0.210 HD
ENDBRANCH  98  99
ENDBRANCH  78  98
ENDBRANCH  75  78
ENDBRANCH  73  74
ENDBRANCH   1  73
TORSDOF 22
ENDMDL
MODEL 2
REMARK VINA RESULT:     -11.1      2.161      3.115
REMARK SMILES O=C(NCCCCNC(=O)[C@H](CO)NC(=O)[C@H](CS)NC(=O)c1ccc(F)cc1)c1ccc(-c2c3nc(c(-c4cc(S(=O)(=O)[O-])ccc4F)c4ccc([nH]4)c(-c4cc(S(=O)(=O)[O-])ccc4F)c4nc(c(-c5cc(S(=O)(=O)[O-])ccc5F)c5ccc2[nH]5)C=C4)C=C3)cc1
REMARK SMILES IDX 6 1 5 2 4 3 3 4 1 5 2 6 30 8 31 9 92 10 32 11 91 12 33 13
REMARK SMILES IDX 34 14 35 15 85 16 36 17 90 18 84 19 86 20 37 21 89 22 83 23
REMARK SMILES IDX 82 24 38 26 70 27 50 28 69 29 51 30 54 31 68 32 87 33 52 34
REMARK SMILES IDX 53 35 67 37 88 38 55 39 39 40 40 41 48 42 41 43 47 44 49 45
REMARK SMILES IDX 46 46 42 47 43 48 44 49 45 50 71 51 72 52 80 53 73 54 79 55
REMARK SMILES IDX 81 56 78 57 74 58 75 59 76 60 77 61 56 62 57 63 65 64 58 65
REMARK SMILES IDX 64 66 66 67 63 68 59 69 60 70 61 71 62 72 7 73 8 74 9 75
REMARK SMILES IDX 10 77 11 78 14 79 15 80 16 82 17 83 20 84 21 85 22 87 23 88
REMARK SMILES IDX 24 89 29 90 25 91 28 92 26 93 27 94 18 95 19 96 12 98 13 99
REMARK H PARENT 3 7 86 25 54 36 8 76 14 81 20 86 19 97 13 100
REMARK Flexibility Score: inf
ROOT
ATOM      1  C   UNL A   1      33.042  29.111  23.598  1.00  0.00     0.023 C 
ENDROOT
BRANCH   1   2
ATOM      2  C   UNL A   1      33.849  29.022  24.898  1.00  0.00     0.023 C 
BRANCH   2   3
ATOM      3  C   UNL A   1      33.048  29.239  26.176  1.00  0.00     0.116 C 
BRANCH   3   4
ATOM      4  N   UNL A   1      32.657  30.625  26.396  1.00  0.00    -0.352 N 
ATOM      5  O   UNL A   1      32.836  32.683  27.317  1.00  0.00    -0.269 OA
ATOM      6  C   UNL A   1      33.318  31.569  27.148  1.00  0.00     0.251 C 
ATOM      7  H   UNL A   1      31.827  30.920  25.957  1.00  0.00     0.163 HD
BRANCH   6   8
ATOM      8  C   UNL A   1      34.599  31.195  27.779  1.00  0.00     0.039 A 
ATOM      9  C   UNL A   1      34.760  29.918  28.322  1.00  0.00     0.014 A 
ATOM     10  C   UNL A   1      35.613  32.150  27.887  1.00  0.00     0.014 A 
ATOM     11  C   UNL A   1      35.879  29.644  29.094  1.00  0.00     0.010 A 
ATOM     12  C   UNL A   1      36.776  31.840  28.597  1.00  0.00     0.010 A 
ATOM     13  C   UNL A   1      36.904  30.596  29.231  1.00  0.00    -0.014 A 
BRANCH  13  14
ATOM     14  C   UNL A   1      38.122  30.224  29.990  1.00  0.00     0.031 A 
ATOM     15  C   UNL A   1      38.333  30.680  31.406  1.00  0.00     0.074 A 
ATOM     16  C   UNL A   1      39.010  29.405  29.396  1.00  0.00     0.049 A 
ATOM     17  N   UNL A   1      39.311  30.389  32.223  1.00  0.00    -0.248 NA
ATOM     18  C   UNL A   1      37.323  31.583  31.976  1.00  0.00     0.031 C 
ATOM     19  C   UNL A   1      38.898  28.906  28.023  1.00  0.00     0.029 A 
ATOM     20  N   UNL A   1      40.148  28.813  29.873  1.00  0.00    -0.354 N 
ATOM     21  C   UNL A   1      39.053  31.088  33.396  1.00  0.00     0.074 A 
ATOM     22  C   UNL A   1      37.830  31.834  33.177  1.00  0.00     0.031 C 
ATOM     23  C   UNL A   1      39.877  28.021  27.796  1.00  0.00     0.029 A 
ATOM     24  C   UNL A   1      40.726  27.943  28.979  1.00  0.00     0.049 A 
ATOM     25  H   UNL A   1      40.517  28.991  30.768  1.00  0.00     0.167 HD
ATOM     26  C   UNL A   1      39.772  31.102  34.546  1.00  0.00     0.034 A 
ATOM     27  C   UNL A   1      41.823  27.171  29.090  1.00  0.00     0.034 A 
ATOM     28  C   UNL A   1      40.979  30.337  34.747  1.00  0.00     0.049 A 
ATOM     29  C   UNL A   1      42.611  27.214  30.365  1.00  0.00     0.074 A 
ATOM     30  C   UNL A   1      41.764  30.253  35.884  1.00  0.00     0.029 A 
ATOM     31  N   UNL A   1      41.578  29.528  33.790  1.00  0.00    -0.354 N 
ATOM     32  N   UNL A   1      42.364  27.901  31.455  1.00  0.00    -0.248 NA
ATOM     33  C   UNL A   1      43.827  26.398  30.420  1.00  0.00     0.031 C 
ATOM     34  C   UNL A   1      42.867  29.440  35.596  1.00  0.00     0.029 A 
ATOM     35  C   UNL A   1      42.738  28.966  34.301  1.00  0.00     0.049 A 
ATOM     36  H   UNL A   1      41.230  29.376  32.883  1.00  0.00     0.167 HD
ATOM     37  C   UNL A   1      43.400  27.601  32.331  1.00  0.00     0.074 A 
ATOM     38  C   UNL A   1      44.267  26.662  31.645  1.00  0.00     0.031 C 
ATOM     39  C   UNL A   1      43.608  28.059  33.590  1.00  0.00     0.034 A 
BRANCH  26  40
ATOM     40  C   UNL A   1      39.301  32.007  35.655  1.00  0.00     0.023 A 
ATOM     41  C   UNL A   1      39.746  33.335  35.773  1.00  0.00     0.031 A 
ATOM     42  C   UNL A   1      38.381  31.532  36.609  1.00  0.00     0.131 A 
ATOM     43  C   UNL A   1      39.308  34.126  36.847  1.00  0.00     0.055 A 
ATOM     44  C   UNL A   1      37.902  32.343  37.639  1.00  0.00     0.041 A 
ATOM     45  F   UNL A   1      37.937  30.267  36.555  1.00  0.00    -0.206 F 
ATOM     46  C   UNL A   1      38.372  33.646  37.767  1.00  0.00     0.022 A 
BRANCH  43  47
ATOM     47  S   UNL A   1      40.051  35.763  37.082  1.00  0.00     0.124 S 
ATOM     48  O   UNL A   1      39.408  36.205  38.318  1.00  0.00    -0.237 OA
ATOM     49  O   UNL A   1      41.473  35.454  37.178  1.00  0.00    -0.237 OA
ATOM     50  O   UNL A   1      39.652  36.497  35.883  1.00  0.00    -0.744 OA
ENDBRANCH  43  47
ENDBRANCH  26  40
BRANCH  27  51
ATOM     51  C   UNL A   1      42.229  26.323  27.940  1.00  0.00     0.023 A 
ATOM     52  C   UNL A   1      41.822  24.984  27.850  1.00  0.00     0.031 A 
ATOM     53  C   UNL A   1      42.952  26.876  26.868  1.00  0.00     0.131 A 
ATOM     54  C   UNL A   1      42.140  24.240  26.704  1.00  0.00     0.055 A 
ATOM     55  C   UNL A   1      43.239  26.141  25.719  1.00  0.00     0.041 A 
ATOM     56  F   UNL A   1      43.338  28.161  26.904  1.00  0.00    -0.206 F 
ATOM     57  C   UNL A   1      42.832  24.814  25.633  1.00  0.00     0.022 A 
BRANCH  54  58
ATOM     58  S   UNL A   1      41.609  22.508  26.611  1.00  0.00     0.124 S 
ATOM     59  O   UNL A   1      42.253  22.066  25.377  1.00  0.00    -0.237 OA
ATOM     60  O   UNL A   1      42.145  21.953  27.850  1.00  0.00    -0.237 OA
ATOM     61  O   UNL A   1      40.152  22.603  26.556  1.00  0.00    -0.744 OA
ENDBRANCH  54  58
ENDBRANCH  27  51
BRANCH  39  62
ATOM     62  C   UNL A   1      44.820  27.542  34.311  1.00  0.00     0.023 A 
ATOM     63  C   UNL A   1      44.781  26.341  35.039  1.00  0.00     0.031 A 
ATOM     64  C   UNL A   1      46.036  28.243  34.240  1.00  0.00     0.131 A 
ATOM     65  C   UNL A   1      45.937  25.888  35.690  1.00  0.00     0.055 A 
ATOM     66  C   UNL A   1      47.191  27.767  34.857  1.00  0.00     0.041 A 
ATOM     67  F   UNL A   1      46.119  29.395  33.554  1.00  0.00    -0.206 F 
ATOM     68  C   UNL A   1      47.145  26.584  35.590  1.00  0.00     0.022 A 
BRANCH  65  69
ATOM     69  S   UNL A   1      45.843  24.376  36.688  1.00  0.00     0.124 S 
ATOM     70  O   UNL A   1      45.889  24.910  38.046  1.00  0.00    -0.237 OA
ATOM     71  O   UNL A   1      44.569  23.798  36.274  1.00  0.00    -0.237 OA
ATOM     72  O   UNL A   1      47.026  23.621  36.277  1.00  0.00    -0.744 OA
ENDBRANCH  65  69
ENDBRANCH  39  62
ENDBRANCH  13  14
ENDBRANCH   6   8
ENDBRANCH   3   4
ENDBRANCH   2   3
ENDBRANCH   1   2
BRANCH   1  73
ATOM     73  C   UNL A   1      33.716  28.472  22.387  1.00  0.00     0.116 C 
BRANCH  73  74
ATOM     74  N   UNL A   1      32.839  27.550  21.694  1.00  0.00    -0.354 N 
ATOM     75  C   UNL A   1      32.687  26.203  21.748  1.00  0.00     0.244 C 
ATOM     76  H   UNL A   1      32.232  27.988  21.055  1.00  0.00     0.163 HD
ATOM     77  O   UNL A   1      31.782  25.720  21.056  1.00  0.00    -0.273 OA
BRANCH  75  78
ATOM     78  C   UNL A   1      33.589  25.248  22.563  1.00  0.00     0.197 C 
BRANCH  78  79
ATOM     79  N   UNL A   1      33.825  25.526  23.979  1.00  0.00    -0.340 N 
ATOM     80  C   UNL A   1      33.053  25.424  25.094  1.00  0.00     0.244 C 
ATOM     81  H   UNL A   1      34.733  25.858  24.164  1.00  0.00     0.164 HD
ATOM     82  O   UNL A   1      33.642  25.671  26.153  1.00  0.00    -0.273 OA
BRANCH  80  83
ATOM     83  C   UNL A   1      31.511  25.239  25.082  1.00  0.00     0.181 C 
BRANCH  83  84
ATOM     84  N   UNL A   1      30.948  24.589  26.264  1.00  0.00    -0.339 N 
ATOM     85  C   UNL A   1      31.044  23.298  26.718  1.00  0.00     0.251 C 
ATOM     86  H   UNL A   1      30.405  25.181  26.833  1.00  0.00     0.164 HD
ATOM     87  O   UNL A   1      30.294  22.950  27.628  1.00  0.00    -0.269 OA
BRANCH  85  88
ATOM     88  C   UNL A   1      32.017  22.314  26.173  1.00  0.00     0.040 A 
ATOM     89  C   UNL A   1      31.773  21.532  25.037  1.00  0.00     0.017 A 
ATOM     90  C   UNL A   1      33.288  22.272  26.767  1.00  0.00     0.017 A 
ATOM     91  C   UNL A   1      32.764  20.690  24.529  1.00  0.00     0.040 A 
ATOM     92  C   UNL A   1      34.283  21.437  26.253  1.00  0.00     0.040 A 
ATOM     93  C   UNL A   1      34.011  20.649  25.142  1.00  0.00     0.123 A 
ATOM     94  F   UNL A   1      34.964  19.853  24.642  1.00  0.00    -0.207 F 
ENDBRANCH  85  88
ENDBRANCH  83  84
BRANCH  83  95
ATOM     95  C   UNL A   1      30.864  26.626  24.858  1.00  0.00     0.101 C 
BRANCH  95  96
ATOM     96  S   UNL A   1      29.456  26.592  23.694  1.00  0.00    -0.177 SA
ATOM     97  H   UNL A   1      29.909  26.315  22.442  1.00  0.00     0.102 HD
ENDBRANCH  95  96
ENDBRANCH  83  95
ENDBRANCH  80  83
ENDBRANCH  78  79
BRANCH  78  98
ATOM     98  C   UNL A   1      33.004  23.827  22.395  1.00  0.00     0.191 C 
BRANCH  98  99
ATOM     99  O   UNL A   1      33.252  23.314  21.088  1.00  0.00    -0.394 OA
ATOM    100  H   UNL A   1      32.808  22.458  20.987  1.00  0.00     0.210 HD
ENDBRANCH  98  99
ENDBRANCH  78  98
ENDBRANCH  75  78
ENDBRANCH  73  74
ENDBRANCH   1  73
TORSDOF 22
ENDMDL
MODEL 3
REMARK VINA RESULT:     -11.0      1.485      7.527
REMARK SMILES O=C(NCCCCNC(=O)[C@H](CO)NC(=O)[C@H](CS)NC(=O)c1ccc(F)cc1)c1ccc(-c2c3nc(c(-c4cc(S(=O)(=O)[O-])ccc4F)c4ccc([nH]4)c(-c4cc(S(=O)(=O)[O-])ccc4F)c4nc(c(-c5cc(S(=O)(=O)[O-])ccc5F)c5ccc2[nH]5)C=C4)C=C3)cc1
REMARK SMILES IDX 6 1 5 2 4 3 3 4 1 5 2 6 30 8 31 9 92 10 32 11 91 12 33 13
REMARK SMILES IDX 34 14 35 15 85 16 36 17 90 18 84 19 86 20 37 21 89 22 83 23
REMARK SMILES IDX 82 24 38 26 70 27 50 28 69 29 51 30 54 31 68 32 87 33 52 34
REMARK SMILES IDX 53 35 67 37 88 38 55 39 39 40 40 41 48 42 41 43 47 44 49 45
REMARK SMILES IDX 46 46 42 47 43 48 44 49 45 50 71 51 72 52 80 53 73 54 79 55
REMARK SMILES IDX 81 56 78 57 74 58 75 59 76 60 77 61 56 62 57 63 65 64 58 65
REMARK SMILES IDX 64 66 66 67 63 68 59 69 60 70 61 71 62 72 7 73 8 74 9 75
REMARK SMILES IDX 10 77 11 78 14 79 15 80 16 82 17 83 20 84 21 85 22 87 23 88
REMARK SMILES IDX 24 89 29 90 25 91 28 92 26 93 27 94 18 95 19 96 12 98 13 99
REMARK H PARENT 3 7 86 25 54 36 8 76 14 81 20 86 19 97 13 100
REMARK Flexibility Score: inf
ROOT
ATOM      1  C   UNL A   1      31.908  27.289  26.213  1.00  0.00     0.023 C 
ENDROOT
BRANCH   1   2
ATOM      2  C   UNL A   1      32.305  28.048  24.943  1.00  0.00     0.023 C 
BRANCH   2   3
ATOM      3  C   UNL A   1      33.243  29.230  25.157  1.00  0.00     0.116 C 
BRANCH   3   4
ATOM      4  N   UNL A   1      32.590  30.401  25.727  1.00  0.00    -0.352 N 
ATOM      5  O   UNL A   1      32.307  32.055  27.244  1.00  0.00    -0.269 OA
ATOM      6  C   UNL A   1      32.995  31.134  26.818  1.00  0.00     0.251 C 
ATOM      7  H   UNL A   1      31.767  30.703  25.279  1.00  0.00     0.163 HD
BRANCH   6   8
ATOM      8  C   UNL A   1      34.255  30.759  27.489  1.00  0.00     0.039 A 
ATOM      9  C   UNL A   1      34.428  29.459  27.969  1.00  0.00     0.014 A 
ATOM     10  C   UNL A   1      35.236  31.733  27.698  1.00  0.00     0.014 A 
ATOM     11  C   UNL A   1      35.518  29.171  28.778  1.00  0.00     0.010 A 
ATOM     12  C   UNL A   1      36.373  31.415  28.445  1.00  0.00     0.010 A 
ATOM     13  C   UNL A   1      36.507  30.141  29.016  1.00  0.00    -0.014 A 
BRANCH  13  14
ATOM     14  C   UNL A   1      37.699  29.760  29.811  1.00  0.00     0.031 A 
ATOM     15  C   UNL A   1      38.795  28.918  29.224  1.00  0.00     0.074 A 
ATOM     16  C   UNL A   1      37.805  30.248  31.062  1.00  0.00     0.049 A 
ATOM     17  N   UNL A   1      39.927  28.554  29.767  1.00  0.00    -0.248 NA
ATOM     18  C   UNL A   1      38.595  28.415  27.857  1.00  0.00     0.031 C 
ATOM     19  C   UNL A   1      36.794  31.075  31.725  1.00  0.00     0.029 A 
ATOM     20  N   UNL A   1      38.819  30.163  31.978  1.00  0.00    -0.354 N 
ATOM     21  C   UNL A   1      40.568  27.759  28.822  1.00  0.00     0.074 A 
ATOM     22  C   UNL A   1      39.686  27.682  27.676  1.00  0.00     0.031 C 
ATOM     23  C   UNL A   1      37.271  31.489  32.906  1.00  0.00     0.029 A 
ATOM     24  C   UNL A   1      38.589  30.901  33.115  1.00  0.00     0.049 A 
ATOM     25  H   UNL A   1      39.632  29.627  31.837  1.00  0.00     0.167 HD
ATOM     26  C   UNL A   1      41.778  27.155  28.910  1.00  0.00     0.034 A 
ATOM     27  C   UNL A   1      39.349  31.082  34.211  1.00  0.00     0.034 A 
ATOM     28  C   UNL A   1      42.648  27.260  30.057  1.00  0.00     0.049 A 
ATOM     29  C   UNL A   1      40.677  30.392  34.292  1.00  0.00     0.074 A 
ATOM     30  C   UNL A   1      43.909  26.717  30.234  1.00  0.00     0.029 A 
ATOM     31  N   UNL A   1      42.347  27.953  31.223  1.00  0.00    -0.354 N 
ATOM     32  N   UNL A   1      41.255  29.624  33.399  1.00  0.00    -0.248 NA
ATOM     33  C   UNL A   1      41.445  30.575  35.528  1.00  0.00     0.031 C 
ATOM     34  C   UNL A   1      44.344  27.031  31.527  1.00  0.00     0.029 A 
ATOM     35  C   UNL A   1      43.384  27.824  32.134  1.00  0.00     0.049 A 
ATOM     36  H   UNL A   1      41.518  28.460  31.380  1.00  0.00     0.167 HD
ATOM     37  C   UNL A   1      42.459  29.228  33.966  1.00  0.00     0.074 A 
ATOM     38  C   UNL A   1      42.529  29.851  35.274  1.00  0.00     0.031 C 
ATOM     39  C   UNL A   1      43.420  28.425  33.447  1.00  0.00     0.034 A 
BRANCH  26  40
ATOM     40  C   UNL A   1      42.213  26.287  27.757  1.00  0.00     0.023 A 
ATOM     41  C   UNL A   1      41.984  24.900  27.742  1.00  0.00     0.031 A 
ATOM     42  C   UNL A   1      42.861  26.862  26.648  1.00  0.00     0.131 A 
ATOM     43  C   UNL A   1      42.443  24.129  26.661  1.00  0.00     0.055 A 
ATOM     44  C   UNL A   1      43.259  26.099  25.549  1.00  0.00     0.041 A 
ATOM     45  F   UNL A   1      43.120  28.179  26.618  1.00  0.00    -0.206 F 
ATOM     46  C   UNL A   1      43.059  24.722  25.555  1.00  0.00     0.022 A 
BRANCH  43  47
ATOM     47  S   UNL A   1      42.310  22.323  26.763  1.00  0.00     0.124 S 
ATOM     48  O   UNL A   1      42.045  22.127  28.187  1.00  0.00    -0.237 OA
ATOM     49  O   UNL A   1      41.199  22.037  25.862  1.00  0.00    -0.237 OA
ATOM     50  O   UNL A   1      43.617  21.856  26.309  1.00  0.00    -0.744 OA
ENDBRANCH  43  47
ENDBRANCH  26  40
BRANCH  27  51
ATOM     51  C   UNL A   1      38.835  31.938  35.311  1.00  0.00     0.023 A 
ATOM     52  C   UNL A   1      38.204  31.375  36.430  1.00  0.00     0.031 A 
ATOM     53  C   UNL A   1      39.057  33.326  35.296  1.00  0.00     0.131 A 
ATOM     54  C   UNL A   1      37.819  32.202  37.496  1.00  0.00     0.055 A 
ATOM     55  C   UNL A   1      38.699  34.139  36.371  1.00  0.00     0.041 A 
ATOM     56  F   UNL A   1      39.680  33.900  34.255  1.00  0.00    -0.206 F 
ATOM     57  C   UNL A   1      38.076  33.576  37.480  1.00  0.00     0.022 A 
BRANCH  54  58
ATOM     58  S   UNL A   1      36.999  31.455  38.931  1.00  0.00     0.124 S 
ATOM     59  O   UNL A   1      37.981  31.683  39.986  1.00  0.00    -0.237 OA
ATOM     60  O   UNL A   1      35.766  32.230  39.022  1.00  0.00    -0.237 OA
ATOM     61  O   UNL A   1      36.823  30.060  38.532  1.00  0.00    -0.744 OA
ENDBRANCH  54  58
ENDBRANCH  27  51
BRANCH  39  62
ATOM     62  C   UNL A   1      44.637  28.182  34.295  1.00  0.00     0.023 A 
ATOM     63  C   UNL A   1      45.747  29.041  34.243  1.00  0.00     0.031 A 
ATOM     64  C   UNL A   1      44.669  27.097  35.188  1.00  0.00     0.131 A 
ATOM     65  C   UNL A   1      46.859  28.785  35.057  1.00  0.00     0.055 A 
ATOM     66  C   UNL A   1      45.761  26.871  36.023  1.00  0.00     0.041 A 
ATOM     67  F   UNL A   1      43.628  26.252  35.271  1.00  0.00    -0.206 F 
ATOM     68  C   UNL A   1      46.866  27.715  35.959  1.00  0.00     0.022 A 
BRANCH  65  69
ATOM     69  S   UNL A   1      48.312  29.861  34.918  1.00  0.00     0.124 S 
ATOM     70  O   UNL A   1      49.279  28.977  34.272  1.00  0.00    -0.237 OA
ATOM     71  O   UNL A   1      47.816  30.964  34.103  1.00  0.00    -0.237 OA
ATOM     72  O   UNL A   1      48.616  30.207  36.305  1.00  0.00    -0.744 OA
ENDBRANCH  65  69
ENDBRANCH  39  62
ENDBRANCH  13  14
ENDBRANCH   6   8
ENDBRANCH   3   4
ENDBRANCH   2   3
ENDBRANCH   1   2
BRANCH   1  73
ATOM     73  C   UNL A   1      32.215  25.794  26.182  1.00  0.00     0.116 C 
BRANCH  73  74
ATOM     74  N   UNL A   1      31.713  25.155  24.982  1.00  0.00    -0.354 N 
ATOM     75  C   UNL A   1      31.065  23.984  24.762  1.00  0.00     0.244 C 
ATOM     76  H   UNL A   1      31.874  25.675  24.163  1.00  0.00     0.163 HD
ATOM     77  O   UNL A   1      30.710  23.758  23.598  1.00  0.00    -0.273 OA
BRANCH  75  78
ATOM     78  C   UNL A   1      30.796  22.911  25.842  1.00  0.00     0.197 C 
BRANCH  78  79
ATOM     79  N   UNL A   1      31.930  22.244  26.481  1.00  0.00    -0.340 N 
ATOM     80  C   UNL A   1      32.918  21.431  26.021  1.00  0.00     0.244 C 
ATOM     81  H   UNL A   1      31.990  22.420  27.448  1.00  0.00     0.164 HD
ATOM     82  O   UNL A   1      33.771  21.129  26.865  1.00  0.00    -0.273 OA
BRANCH  80  83
ATOM     83  C   UNL A   1      32.907  20.730  24.636  1.00  0.00     0.181 C 
BRANCH  83  84
ATOM     84  N   UNL A   1      33.183  21.597  23.491  1.00  0.00    -0.339 N 
ATOM     85  C   UNL A   1      34.132  22.569  23.302  1.00  0.00     0.251 C 
ATOM     86  H   UNL A   1      32.583  21.459  22.723  1.00  0.00     0.164 HD
ATOM     87  O   UNL A   1      34.015  23.306  22.325  1.00  0.00    -0.269 OA
BRANCH  85  88
ATOM     88  C   UNL A   1      35.296  22.758  24.209  1.00  0.00     0.040 A 
ATOM     89  C   UNL A   1      36.439  21.949  24.179  1.00  0.00     0.017 A 
ATOM     90  C   UNL A   1      35.283  23.885  25.045  1.00  0.00     0.017 A 
ATOM     91  C   UNL A   1      37.532  22.234  25.001  1.00  0.00     0.040 A 
ATOM     92  C   UNL A   1      36.379  24.176  25.860  1.00  0.00     0.040 A 
ATOM     93  C   UNL A   1      37.492  23.344  25.835  1.00  0.00     0.123 A 
ATOM     94  F   UNL A   1      38.547  23.625  26.610  1.00  0.00    -0.207 F 
ENDBRANCH  85  88
ENDBRANCH  83  84
BRANCH  83  95
ATOM     95  C   UNL A   1      33.908  19.552  24.686  1.00  0.00     0.101 C 
BRANCH  95  96
ATOM     96  S   UNL A   1      33.296  18.041  23.860  1.00  0.00    -0.177 SA
ATOM     97  H   UNL A   1      33.536  16.963  24.653  1.00  0.00     0.102 HD
ENDBRANCH  95  96
ENDBRANCH  83  95
ENDBRANCH  80  83
ENDBRANCH  78  79
BRANCH  78  98
ATOM     98  C   UNL A   1      29.900  23.570  26.915  1.00  0.00     0.191 C 
BRANCH  98  99
ATOM     99  O   UNL A   1      29.568  22.649  27.953  1.00  0.00    -0.394 OA
ATOM    100  H   UNL A   1      29.649  21.743  27.618  1.00  0.00     0.210 HD
ENDBRANCH  98  99
ENDBRANCH  78  98
ENDBRANCH  75  78
ENDBRANCH  73  74
ENDBRANCH   1  73
TORSDOF 22
ENDMDL
