MODEL 1
REMARK VINA RESULT:     -10.7      0.000      0.000
REMARK SMILES COCCC(=O)NC[C@@H]1CC[C@@H](C(=O)NCCCCNC(=O)c2ccc(-c3c4nc(c(-c5cc(S(=O)(=O)[O-])ccc5F)c5ccc([nH]5)c(-c5cc(S(=O)(=O)[O-])ccc5F)c5nc(c(-c6cc(S(=O)(=O)[O-])ccc6F)c6ccc3[nH]6)C=C5)C=C4)cc2)O1
REMARK SMILES IDX 16 1 15 2 13 3 14 4 12 6 9 7 10 8 86 9 11 10 8 11 7 12 5 13
REMARK SMILES IDX 6 14 4 16 3 17 2 18 1 19 17 20 18 21 19 22 20 23 21 24 22 26
REMARK SMILES IDX 23 27 24 28 85 29 25 30 84 31 26 32 27 33 28 34 78 35 29 36
REMARK SMILES IDX 83 37 77 38 79 39 30 40 82 41 76 42 75 43 31 45 63 46 43 47
REMARK SMILES IDX 62 48 44 49 47 50 61 51 80 52 45 53 46 54 60 56 81 57 48 58
REMARK SMILES IDX 32 59 33 60 41 61 34 62 40 63 42 64 39 65 35 66 36 67 37 68
REMARK SMILES IDX 38 69 64 70 65 71 73 72 66 73 72 74 74 75 71 76 67 77 68 78
REMARK SMILES IDX 69 79 70 80 49 81 50 82 58 83 51 84 57 85 59 86 56 87 52 88
REMARK SMILES IDX 53 89 54 90 55 91
REMARK H PARENT 15 5 7 15 20 25 79 44 47 55
REMARK Flexibility Score: inf
ROOT
ATOM      1  C   UNL A   1      31.131  26.315  24.773  1.00  0.00     0.116 C 
ENDROOT
BRANCH   1   2
ATOM      2  N   UNL A   1      30.598  25.539  25.875  1.00  0.00    -0.354 N 
ATOM      3  C   UNL A   1      30.891  24.251  26.239  1.00  0.00     0.249 C 
ATOM      4  O   UNL A   1      30.287  23.766  27.198  1.00  0.00    -0.272 OA
ATOM      5  H   UNL A   1      29.935  25.999  26.439  1.00  0.00     0.163 HD
BRANCH   3   6
ATOM      6  C   UNL A   1      31.971  23.479  25.455  1.00  0.00     0.207 C 
ATOM      7  C   UNL A   1      32.353  21.188  25.682  1.00  0.00     0.138 C 
ATOM      8  C   UNL A   1      32.211  21.483  24.204  1.00  0.00     0.037 C 
ATOM      9  O   UNL A   1      32.636  22.479  26.255  1.00  0.00    -0.363 OA
ATOM     10  C   UNL A   1      31.392  22.744  24.249  1.00  0.00     0.045 C 
BRANCH   7  11
ATOM     11  C   UNL A   1      33.461  20.185  26.030  1.00  0.00     0.147 C 
BRANCH  11  12
ATOM     12  N   UNL A   1      32.928  18.853  26.299  1.00  0.00    -0.353 N 
ATOM     13  C   UNL A   1      32.711  17.797  25.468  1.00  0.00     0.222 C 
ATOM     14  O   UNL A   1      32.162  16.790  25.920  1.00  0.00    -0.275 OA
ATOM     15  H   UNL A   1      32.685  18.690  27.240  1.00  0.00     0.163 HD
BRANCH  13  16
ATOM     16  C   UNL A   1      33.132  17.863  24.022  1.00  0.00     0.128 C 
BRANCH  16  17
ATOM     17  C   UNL A   1      34.477  17.192  23.791  1.00  0.00     0.169 C 
BRANCH  17  18
ATOM     18  O   UNL A   1      35.204  16.957  24.996  1.00  0.00    -0.384 OA
ATOM     19  C   UNL A   1      35.493  15.581  25.228  1.00  0.00     0.194 C 
ENDBRANCH  17  18
ENDBRANCH  16  17
ENDBRANCH  13  16
ENDBRANCH  11  12
ENDBRANCH   7  11
ENDBRANCH   3   6
ENDBRANCH   1   2
BRANCH   1  20
ATOM     20  C   UNL A   1      31.430  27.754  25.197  1.00  0.00     0.023 C 
BRANCH  20  21
ATOM     21  C   UNL A   1      32.919  28.069  25.359  1.00  0.00     0.023 C 
BRANCH  21  22
ATOM     22  C   UNL A   1      33.332  29.476  24.940  1.00  0.00     0.116 C 
BRANCH  22  23
ATOM     23  N   UNL A   1      32.607  30.520  25.647  1.00  0.00    -0.352 N 
ATOM     24  C   UNL A   1      32.949  31.146  26.823  1.00  0.00     0.251 C 
ATOM     25  H   UNL A   1      31.765  30.816  25.232  1.00  0.00     0.163 HD
ATOM     26  O   UNL A   1      32.162  31.924  27.354  1.00  0.00    -0.269 OA
BRANCH  24  27
ATOM     27  C   UNL A   1      34.248  30.836  27.457  1.00  0.00     0.039 A 
ATOM     28  C   UNL A   1      35.142  31.877  27.714  1.00  0.00     0.014 A 
ATOM     29  C   UNL A   1      34.558  29.528  27.840  1.00  0.00     0.014 A 
ATOM     30  C   UNL A   1      36.320  31.617  28.418  1.00  0.00     0.010 A 
ATOM     31  C   UNL A   1      35.694  29.284  28.605  1.00  0.00     0.010 A 
ATOM     32  C   UNL A   1      36.586  30.326  28.903  1.00  0.00    -0.014 A 
BRANCH  32  33
ATOM     33  C   UNL A   1      37.793  30.041  29.721  1.00  0.00     0.031 A 
ATOM     34  C   UNL A   1      38.877  29.153  29.178  1.00  0.00     0.074 A 
ATOM     35  C   UNL A   1      37.881  30.525  30.975  1.00  0.00     0.049 A 
ATOM     36  N   UNL A   1      39.968  28.723  29.759  1.00  0.00    -0.248 NA
ATOM     37  C   UNL A   1      38.686  28.654  27.809  1.00  0.00     0.031 C 
ATOM     38  C   UNL A   1      36.877  31.368  31.629  1.00  0.00     0.029 A 
ATOM     39  N   UNL A   1      38.856  30.373  31.928  1.00  0.00    -0.354 N 
ATOM     40  C   UNL A   1      40.589  27.895  28.830  1.00  0.00     0.074 A 
ATOM     41  C   UNL A   1      39.709  27.825  27.683  1.00  0.00     0.031 C 
ATOM     42  C   UNL A   1      37.305  31.685  32.861  1.00  0.00     0.029 A 
ATOM     43  C   UNL A   1      38.588  31.033  33.103  1.00  0.00     0.049 A 
ATOM     44  H   UNL A   1      39.672  29.841  31.782  1.00  0.00     0.167 HD
ATOM     45  C   UNL A   1      41.795  27.277  28.914  1.00  0.00     0.034 A 
ATOM     46  C   UNL A   1      39.292  31.100  34.250  1.00  0.00     0.034 A 
ATOM     47  C   UNL A   1      42.657  27.357  30.069  1.00  0.00     0.049 A 
ATOM     48  C   UNL A   1      40.604  30.364  34.345  1.00  0.00     0.074 A 
ATOM     49  C   UNL A   1      43.915  26.811  30.248  1.00  0.00     0.029 A 
ATOM     50  N   UNL A   1      42.342  28.017  31.252  1.00  0.00    -0.354 N 
ATOM     51  N   UNL A   1      41.204  29.623  33.443  1.00  0.00    -0.248 NA
ATOM     52  C   UNL A   1      41.336  30.482  35.612  1.00  0.00     0.031 C 
ATOM     53  C   UNL A   1      44.329  27.079  31.559  1.00  0.00     0.029 A 
ATOM     54  C   UNL A   1      43.366  27.862  32.175  1.00  0.00     0.049 A 
ATOM     55  H   UNL A   1      41.512  28.522  31.411  1.00  0.00     0.167 HD
ATOM     56  C   UNL A   1      42.401  29.213  34.023  1.00  0.00     0.074 A 
ATOM     57  C   UNL A   1      42.439  29.797  35.350  1.00  0.00     0.031 C 
ATOM     58  C   UNL A   1      43.384  28.433  33.503  1.00  0.00     0.034 A 
BRANCH  45  59
ATOM     59  C   UNL A   1      42.219  26.439  27.727  1.00  0.00     0.023 A 
ATOM     60  C   UNL A   1      41.742  25.128  27.546  1.00  0.00     0.031 A 
ATOM     61  C   UNL A   1      43.163  26.924  26.806  1.00  0.00     0.131 A 
ATOM     62  C   UNL A   1      42.294  24.312  26.547  1.00  0.00     0.055 A 
ATOM     63  C   UNL A   1      43.634  26.139  25.751  1.00  0.00     0.041 A 
ATOM     64  F   UNL A   1      43.672  28.159  26.932  1.00  0.00    -0.206 F 
ATOM     65  C   UNL A   1      43.217  24.816  25.631  1.00  0.00     0.022 A 
BRANCH  62  66
ATOM     66  S   UNL A   1      41.938  22.533  26.595  1.00  0.00     0.124 S 
ATOM     67  O   UNL A   1      42.698  22.112  27.771  1.00  0.00    -0.237 OA
ATOM     68  O   UNL A   1      40.486  22.506  26.729  1.00  0.00    -0.237 OA
ATOM     69  O   UNL A   1      42.460  22.044  25.321  1.00  0.00    -0.744 OA
ENDBRANCH  62  66
ENDBRANCH  45  59
BRANCH  46  70
ATOM     70  C   UNL A   1      38.781  31.899  35.398  1.00  0.00     0.023 A 
ATOM     71  C   UNL A   1      38.234  31.266  36.525  1.00  0.00     0.031 A 
ATOM     72  C   UNL A   1      38.819  33.304  35.383  1.00  0.00     0.131 A 
ATOM     73  C   UNL A   1      37.716  32.036  37.577  1.00  0.00     0.055 A 
ATOM     74  C   UNL A   1      38.344  34.066  36.451  1.00  0.00     0.041 A 
ATOM     75  F   UNL A   1      39.341  33.957  34.331  1.00  0.00    -0.206 F 
ATOM     76  C   UNL A   1      37.778  33.431  37.554  1.00  0.00     0.022 A 
BRANCH  73  77
ATOM     77  S   UNL A   1      36.905  31.186  38.959  1.00  0.00     0.124 S 
ATOM     78  O   UNL A   1      35.666  31.944  39.089  1.00  0.00    -0.237 OA
ATOM     79  O   UNL A   1      36.776  29.826  38.444  1.00  0.00    -0.237 OA
ATOM     80  O   UNL A   1      37.854  31.344  40.060  1.00  0.00    -0.744 OA
ENDBRANCH  73  77
ENDBRANCH  46  70
BRANCH  58  81
ATOM     81  C   UNL A   1      44.606  28.208  34.361  1.00  0.00     0.023 A 
ATOM     82  C   UNL A   1      44.706  27.111  35.235  1.00  0.00     0.031 A 
ATOM     83  C   UNL A   1      45.680  29.114  34.312  1.00  0.00     0.131 A 
ATOM     84  C   UNL A   1      45.833  26.977  36.063  1.00  0.00     0.055 A 
ATOM     85  C   UNL A   1      46.824  28.942  35.093  1.00  0.00     0.041 A 
ATOM     86  F   UNL A   1      45.636  30.181  33.499  1.00  0.00    -0.206 F 
ATOM     87  C   UNL A   1      46.899  27.877  35.984  1.00  0.00     0.022 A 
BRANCH  84  88
ATOM     88  S   UNL A   1      45.846  25.663  37.314  1.00  0.00     0.124 S 
ATOM     89  O   UNL A   1      47.064  25.964  38.057  1.00  0.00    -0.237 OA
ATOM     90  O   UNL A   1      44.592  25.895  38.023  1.00  0.00    -0.237 OA
ATOM     91  O   UNL A   1      45.890  24.435  36.522  1.00  0.00    -0.744 OA
ENDBRANCH  84  88
ENDBRANCH  58  81
ENDBRANCH  32  33
ENDBRANCH  24  27
ENDBRANCH  22  23
ENDBRANCH  21  22
ENDBRANCH  20  21
ENDBRANCH   1  20
TORSDOF 19
ENDMDL
MODEL 2
REMARK VINA RESULT:     -10.5      1.446      2.119
REMARK SMILES COCCC(=O)NC[C@@H]1CC[C@@H](C(=O)NCCCCNC(=O)c2ccc(-c3c4nc(c(-c5cc(S(=O)(=O)[O-])ccc5F)c5ccc([nH]5)c(-c5cc(S(=O)(=O)[O-])ccc5F)c5nc(c(-c6cc(S(=O)(=O)[O-])ccc6F)c6ccc3[nH]6)C=C5)C=C4)cc2)O1
REMARK SMILES IDX 16 1 15 2 13 3 14 4 12 6 9 7 10 8 86 9 11 10 8 11 7 12 5 13
REMARK SMILES IDX 6 14 4 16 3 17 2 18 1 19 17 20 18 21 19 22 20 23 21 24 22 26
REMARK SMILES IDX 23 27 24 28 85 29 25 30 84 31 26 32 27 33 28 34 78 35 29 36
REMARK SMILES IDX 83 37 77 38 79 39 30 40 82 41 76 42 75 43 31 45 63 46 43 47
REMARK SMILES IDX 62 48 44 49 47 50 61 51 80 52 45 53 46 54 60 56 81 57 48 58
REMARK SMILES IDX 32 59 33 60 41 61 34 62 40 63 42 64 39 65 35 66 36 67 37 68
REMARK SMILES IDX 38 69 64 70 65 71 73 72 66 73 72 74 74 75 71 76 67 77 68 78
REMARK SMILES IDX 69 79 70 80 49 81 50 82 58 83 51 84 57 85 59 86 56 87 52 88
REMARK SMILES IDX 53 89 54 90 55 91
REMARK H PARENT 15 5 7 15 20 25 79 44 47 55
REMARK Flexibility Score: inf
ROOT
ATOM      1  C   UNL A   1      33.845  28.366  22.882  1.00  0.00     0.116 C 
ENDROOT
BRANCH   1   2
ATOM      2  N   UNL A   1      32.633  27.952  22.204  1.00  0.00    -0.354 N 
ATOM      3  C   UNL A   1      32.167  26.685  21.975  1.00  0.00     0.249 C 
ATOM      4  O   UNL A   1      31.120  26.556  21.337  1.00  0.00    -0.272 OA
ATOM      5  H   UNL A   1      32.068  28.682  21.861  1.00  0.00     0.163 HD
BRANCH   3   6
ATOM      6  C   UNL A   1      32.953  25.485  22.539  1.00  0.00     0.207 C 
ATOM      7  C   UNL A   1      31.949  23.569  23.416  1.00  0.00     0.138 C 
ATOM      8  C   UNL A   1      32.981  23.120  22.403  1.00  0.00     0.037 C 
ATOM      9  O   UNL A   1      32.344  24.921  23.720  1.00  0.00    -0.363 OA
ATOM     10  C   UNL A   1      33.065  24.344  21.531  1.00  0.00     0.045 C 
BRANCH   7  11
ATOM     11  C   UNL A   1      31.896  22.721  24.693  1.00  0.00     0.147 C 
BRANCH  11  12
ATOM     12  N   UNL A   1      33.152  22.770  25.436  1.00  0.00    -0.353 N 
ATOM     13  C   UNL A   1      34.108  21.822  25.632  1.00  0.00     0.222 C 
ATOM     14  O   UNL A   1      35.052  22.078  26.381  1.00  0.00    -0.275 OA
ATOM     15  H   UNL A   1      33.339  23.636  25.867  1.00  0.00     0.163 HD
BRANCH  13  16
ATOM     16  C   UNL A   1      34.008  20.483  24.946  1.00  0.00     0.128 C 
BRANCH  16  17
ATOM     17  C   UNL A   1      33.083  19.531  25.689  1.00  0.00     0.169 C 
BRANCH  17  18
ATOM     18  O   UNL A   1      32.152  18.868  24.835  1.00  0.00    -0.384 OA
ATOM     19  C   UNL A   1      32.718  17.779  24.111  1.00  0.00     0.194 C 
ENDBRANCH  17  18
ENDBRANCH  16  17
ENDBRANCH  13  16
ENDBRANCH  11  12
ENDBRANCH   7  11
ENDBRANCH   3   6
ENDBRANCH   1   2
BRANCH   1  20
ATOM     20  C   UNL A   1      33.617  28.526  24.386  1.00  0.00     0.023 C 
BRANCH  20  21
ATOM     21  C   UNL A   1      32.422  29.411  24.753  1.00  0.00     0.023 C 
BRANCH  21  22
ATOM     22  C   UNL A   1      32.324  29.787  26.227  1.00  0.00     0.116 C 
BRANCH  22  23
ATOM     23  N   UNL A   1      32.094  31.206  26.443  1.00  0.00    -0.352 N 
ATOM     24  C   UNL A   1      32.854  32.090  27.174  1.00  0.00     0.251 C 
ATOM     25  H   UNL A   1      31.293  31.583  26.012  1.00  0.00     0.163 HD
ATOM     26  O   UNL A   1      32.452  33.236  27.359  1.00  0.00    -0.269 OA
BRANCH  24  27
ATOM     27  C   UNL A   1      34.127  31.631  27.767  1.00  0.00     0.039 A 
ATOM     28  C   UNL A   1      35.137  32.565  28.009  1.00  0.00     0.014 A 
ATOM     29  C   UNL A   1      34.303  30.292  28.127  1.00  0.00     0.014 A 
ATOM     30  C   UNL A   1      36.298  32.168  28.677  1.00  0.00     0.010 A 
ATOM     31  C   UNL A   1      35.426  29.915  28.856  1.00  0.00     0.010 A 
ATOM     32  C   UNL A   1      36.434  30.849  29.140  1.00  0.00    -0.014 A 
BRANCH  32  33
ATOM     33  C   UNL A   1      37.625  30.424  29.919  1.00  0.00     0.031 A 
ATOM     34  C   UNL A   1      38.633  29.493  29.305  1.00  0.00     0.074 A 
ATOM     35  C   UNL A   1      37.762  30.818  31.200  1.00  0.00     0.049 A 
ATOM     36  N   UNL A   1      39.695  28.946  29.841  1.00  0.00    -0.248 NA
ATOM     37  C   UNL A   1      38.391  29.099  27.911  1.00  0.00     0.031 C 
ATOM     38  C   UNL A   1      36.832  31.689  31.921  1.00  0.00     0.029 A 
ATOM     39  N   UNL A   1      38.733  30.532  32.127  1.00  0.00    -0.354 N 
ATOM     40  C   UNL A   1      40.242  28.136  28.852  1.00  0.00     0.074 A 
ATOM     41  C   UNL A   1      39.347  28.205  27.716  1.00  0.00     0.031 C 
ATOM     42  C   UNL A   1      37.295  31.894  33.164  1.00  0.00     0.029 A 
ATOM     43  C   UNL A   1      38.527  31.133  33.345  1.00  0.00     0.049 A 
ATOM     44  H   UNL A   1      39.505  29.952  31.935  1.00  0.00     0.167 HD
ATOM     45  C   UNL A   1      41.398  27.425  28.878  1.00  0.00     0.034 A 
ATOM     46  C   UNL A   1      39.247  31.074  34.483  1.00  0.00     0.034 A 
ATOM     47  C   UNL A   1      42.276  27.366  30.023  1.00  0.00     0.049 A 
ATOM     48  C   UNL A   1      40.501  30.238  34.511  1.00  0.00     0.074 A 
ATOM     49  C   UNL A   1      43.491  26.717  30.148  1.00  0.00     0.029 A 
ATOM     50  N   UNL A   1      42.024  27.971  31.250  1.00  0.00    -0.354 N 
ATOM     51  N   UNL A   1      41.034  29.513  33.555  1.00  0.00    -0.248 NA
ATOM     52  C   UNL A   1      41.252  30.219  35.772  1.00  0.00     0.031 C 
ATOM     53  C   UNL A   1      43.937  26.869  31.467  1.00  0.00     0.029 A 
ATOM     54  C   UNL A   1      43.042  27.681  32.146  1.00  0.00     0.049 A 
ATOM     55  H   UNL A   1      41.236  28.525  31.453  1.00  0.00     0.167 HD
ATOM     56  C   UNL A   1      42.202  28.979  34.090  1.00  0.00     0.074 A 
ATOM     57  C   UNL A   1      42.298  29.472  35.450  1.00  0.00     0.031 C 
ATOM     58  C   UNL A   1      43.118  28.163  33.507  1.00  0.00     0.034 A 
BRANCH  45  59
ATOM     59  C   UNL A   1      41.745  26.636  27.635  1.00  0.00     0.023 A 
ATOM     60  C   UNL A   1      41.366  25.289  27.490  1.00  0.00     0.031 A 
ATOM     61  C   UNL A   1      42.524  27.209  26.614  1.00  0.00     0.131 A 
ATOM     62  C   UNL A   1      41.861  24.532  26.418  1.00  0.00     0.055 A 
ATOM     63  C   UNL A   1      42.928  26.476  25.496  1.00  0.00     0.041 A 
ATOM     64  F   UNL A   1      42.935  28.484  26.699  1.00  0.00    -0.206 F 
ATOM     65  C   UNL A   1      42.617  25.122  25.405  1.00  0.00     0.022 A 
BRANCH  62  66
ATOM     66  S   UNL A   1      41.670  22.728  26.478  1.00  0.00     0.124 S 
ATOM     67  O   UNL A   1      40.214  22.587  26.497  1.00  0.00    -0.237 OA
ATOM     68  O   UNL A   1      42.337  22.299  25.254  1.00  0.00    -0.237 OA
ATOM     69  O   UNL A   1      42.339  22.353  27.721  1.00  0.00    -0.744 OA
ENDBRANCH  62  66
ENDBRANCH  45  59
BRANCH  46  70
ATOM     70  C   UNL A   1      38.809  31.834  35.687  1.00  0.00     0.023 A 
ATOM     71  C   UNL A   1      38.148  31.186  36.742  1.00  0.00     0.031 A 
ATOM     72  C   UNL A   1      39.033  33.217  35.798  1.00  0.00     0.131 A 
ATOM     73  C   UNL A   1      37.703  31.926  37.848  1.00  0.00     0.055 A 
ATOM     74  C   UNL A   1      38.629  33.942  36.920  1.00  0.00     0.041 A 
ATOM     75  F   UNL A   1      39.670  33.881  34.819  1.00  0.00    -0.206 F 
ATOM     76  C   UNL A   1      37.949  33.297  37.950  1.00  0.00     0.022 A 
BRANCH  73  77
ATOM     77  S   UNL A   1      36.743  31.078  39.132  1.00  0.00     0.124 S 
ATOM     78  O   UNL A   1      36.636  29.732  38.583  1.00  0.00    -0.237 OA
ATOM     79  O   UNL A   1      37.604  31.229  40.302  1.00  0.00    -0.237 OA
ATOM     80  O   UNL A   1      35.495  31.836  39.180  1.00  0.00    -0.744 OA
ENDBRANCH  73  77
ENDBRANCH  46  70
BRANCH  58  81
ATOM     81  C   UNL A   1      44.328  27.792  34.331  1.00  0.00     0.023 A 
ATOM     82  C   UNL A   1      44.353  26.638  35.134  1.00  0.00     0.031 A 
ATOM     83  C   UNL A   1      45.468  28.614  34.320  1.00  0.00     0.131 A 
ATOM     84  C   UNL A   1      45.475  26.368  35.935  1.00  0.00     0.055 A 
ATOM     85  C   UNL A   1      46.604  28.308  35.071  1.00  0.00     0.041 A 
ATOM     86  F   UNL A   1      45.497  29.731  33.574  1.00  0.00    -0.206 F 
ATOM     87  C   UNL A   1      46.606  27.187  35.894  1.00  0.00     0.022 A 
BRANCH  84  88
ATOM     88  S   UNL A   1      45.400  24.981  37.102  1.00  0.00     0.124 S 
ATOM     89  O   UNL A   1      44.052  24.471  36.880  1.00  0.00    -0.237 OA
ATOM     90  O   UNL A   1      46.490  24.127  36.643  1.00  0.00    -0.237 OA
ATOM     91  O   UNL A   1      45.617  25.615  38.402  1.00  0.00    -0.744 OA
ENDBRANCH  84  88
ENDBRANCH  58  81
ENDBRANCH  32  33
ENDBRANCH  24  27
ENDBRANCH  22  23
ENDBRANCH  21  22
ENDBRANCH  20  21
ENDBRANCH   1  20
TORSDOF 19
ENDMDL
MODEL 3
REMARK VINA RESULT:     -10.4      2.140      7.989
REMARK SMILES COCCC(=O)NC[C@@H]1CC[C@@H](C(=O)NCCCCNC(=O)c2ccc(-c3c4nc(c(-c5cc(S(=O)(=O)[O-])ccc5F)c5ccc([nH]5)c(-c5cc(S(=O)(=O)[O-])ccc5F)c5nc(c(-c6cc(S(=O)(=O)[O-])ccc6F)c6ccc3[nH]6)C=C5)C=C4)cc2)O1
REMARK SMILES IDX 16 1 15 2 13 3 14 4 12 6 9 7 10 8 86 9 11 10 8 11 7 12 5 13
REMARK SMILES IDX 6 14 4 16 3 17 2 18 1 19 17 20 18 21 19 22 20 23 21 24 22 26
REMARK SMILES IDX 23 27 24 28 85 29 25 30 84 31 26 32 27 33 28 34 78 35 29 36
REMARK SMILES IDX 83 37 77 38 79 39 30 40 82 41 76 42 75 43 31 45 63 46 43 47
REMARK SMILES IDX 62 48 44 49 47 50 61 51 80 52 45 53 46 54 60 56 81 57 48 58
REMARK SMILES IDX 32 59 33 60 41 61 34 62 40 63 42 64 39 65 35 66 36 67 37 68
REMARK SMILES IDX 38 69 64 70 65 71 73 72 66 73 72 74 74 75 71 76 67 77 68 78
REMARK SMILES IDX 69 79 70 80 49 81 50 82 58 83 51 84 57 85 59 86 56 87 52 88
REMARK SMILES IDX 53 89 54 90 55 91
REMARK H PARENT 15 5 7 15 20 25 79 44 47 55
REMARK Flexibility Score: inf
ROOT
ATOM      1  C   UNL A   1      31.786  26.802  25.827  1.00  0.00     0.116 C 
ENDROOT
BRANCH   1   2
ATOM      2  N   UNL A   1      30.784  25.942  26.424  1.00  0.00    -0.354 N 
ATOM      3  C   UNL A   1      30.679  24.578  26.369  1.00  0.00     0.249 C 
ATOM      4  O   UNL A   1      29.716  24.044  26.922  1.00  0.00    -0.272 OA
ATOM      5  H   UNL A   1      30.082  26.401  26.940  1.00  0.00     0.163 HD
BRANCH   3   6
ATOM      6  C   UNL A   1      31.775  23.772  25.642  1.00  0.00     0.207 C 
ATOM      7  C   UNL A   1      33.043  22.095  26.655  1.00  0.00     0.138 C 
ATOM      8  C   UNL A   1      32.484  21.529  25.368  1.00  0.00     0.037 C 
ATOM      9  O   UNL A   1      32.929  23.519  26.472  1.00  0.00    -0.363 OA
ATOM     10  C   UNL A   1      31.275  22.406  25.180  1.00  0.00     0.045 C 
BRANCH   7  11
ATOM     11  C   UNL A   1      34.497  21.702  26.948  1.00  0.00     0.147 C 
BRANCH  11  12
ATOM     12  N   UNL A   1      35.406  22.839  26.827  1.00  0.00    -0.353 N 
ATOM     13  C   UNL A   1      36.352  23.125  25.892  1.00  0.00     0.222 C 
ATOM     14  O   UNL A   1      37.065  24.118  26.054  1.00  0.00    -0.275 OA
ATOM     15  H   UNL A   1      35.320  23.510  27.542  1.00  0.00     0.163 HD
BRANCH  13  16
ATOM     16  C   UNL A   1      36.524  22.241  24.682  1.00  0.00     0.128 C 
BRANCH  16  17
ATOM     17  C   UNL A   1      35.960  22.884  23.424  1.00  0.00     0.169 C 
BRANCH  17  18
ATOM     18  O   UNL A   1      34.634  23.384  23.593  1.00  0.00    -0.384 OA
ATOM     19  C   UNL A   1      33.847  23.323  22.407  1.00  0.00     0.194 C 
ENDBRANCH  17  18
ENDBRANCH  16  17
ENDBRANCH  13  16
ENDBRANCH  11  12
ENDBRANCH   7  11
ENDBRANCH   3   6
ENDBRANCH   1   2
BRANCH   1  20
ATOM     20  C   UNL A   1      32.548  27.594  26.891  1.00  0.00     0.023 C 
BRANCH  20  21
ATOM     21  C   UNL A   1      34.021  27.845  26.558  1.00  0.00     0.023 C 
BRANCH  21  22
ATOM     22  C   UNL A   1      34.289  29.078  25.700  1.00  0.00     0.116 C 
BRANCH  22  23
ATOM     23  N   UNL A   1      33.660  30.283  26.218  1.00  0.00    -0.352 N 
ATOM     24  C   UNL A   1      34.022  31.026  27.317  1.00  0.00     0.251 C 
ATOM     25  H   UNL A   1      32.877  30.609  25.718  1.00  0.00     0.163 HD
ATOM     26  O   UNL A   1      33.308  31.952  27.692  1.00  0.00    -0.269 OA
BRANCH  24  27
ATOM     27  C   UNL A   1      35.247  30.667  28.062  1.00  0.00     0.039 A 
ATOM     28  C   UNL A   1      35.153  29.766  29.125  1.00  0.00     0.014 A 
ATOM     29  C   UNL A   1      36.489  31.181  27.680  1.00  0.00     0.014 A 
ATOM     30  C   UNL A   1      36.317  29.326  29.761  1.00  0.00     0.010 A 
ATOM     31  C   UNL A   1      37.650  30.687  28.265  1.00  0.00     0.010 A 
ATOM     32  C   UNL A   1      37.576  29.754  29.310  1.00  0.00    -0.014 A 
BRANCH  32  33
ATOM     33  C   UNL A   1      38.830  29.240  29.919  1.00  0.00     0.031 A 
ATOM     34  C   UNL A   1      39.320  29.808  31.222  1.00  0.00     0.074 A 
ATOM     35  C   UNL A   1      39.562  28.316  29.267  1.00  0.00     0.049 A 
ATOM     36  N   UNL A   1      40.423  29.552  31.878  1.00  0.00    -0.248 NA
ATOM     37  C   UNL A   1      38.468  30.826  31.851  1.00  0.00     0.031 C 
ATOM     38  C   UNL A   1      39.212  27.716  27.979  1.00  0.00     0.029 A 
ATOM     39  N   UNL A   1      40.755  27.723  29.595  1.00  0.00    -0.354 N 
ATOM     40  C   UNL A   1      40.403  30.384  32.992  1.00  0.00     0.074 A 
ATOM     41  C   UNL A   1      39.216  31.206  32.874  1.00  0.00     0.031 C 
ATOM     42  C   UNL A   1      40.150  26.817  27.643  1.00  0.00     0.029 A 
ATOM     43  C   UNL A   1      41.191  26.809  28.666  1.00  0.00     0.049 A 
ATOM     44  H   UNL A   1      41.251  27.933  30.420  1.00  0.00     0.167 HD
ATOM     45  C   UNL A   1      41.275  30.437  34.030  1.00  0.00     0.034 A 
ATOM     46  C   UNL A   1      42.307  26.055  28.638  1.00  0.00     0.034 A 
ATOM     47  C   UNL A   1      42.455  29.611  34.128  1.00  0.00     0.049 A 
ATOM     48  C   UNL A   1      43.291  26.164  29.774  1.00  0.00     0.074 A 
ATOM     49  C   UNL A   1      43.383  29.546  35.152  1.00  0.00     0.029 A 
ATOM     50  N   UNL A   1      42.877  28.711  33.156  1.00  0.00    -0.354 N 
ATOM     51  N   UNL A   1      43.238  26.921  30.845  1.00  0.00    -0.248 NA
ATOM     52  C   UNL A   1      44.483  25.310  29.697  1.00  0.00     0.031 C 
ATOM     53  C   UNL A   1      44.401  28.664  34.768  1.00  0.00     0.029 A 
ATOM     54  C   UNL A   1      44.069  28.114  33.540  1.00  0.00     0.049 A 
ATOM     55  H   UNL A   1      42.399  28.524  32.315  1.00  0.00     0.167 HD
ATOM     56  C   UNL A   1      44.373  26.609  31.587  1.00  0.00     0.074 A 
ATOM     57  C   UNL A   1      45.087  25.590  30.843  1.00  0.00     0.031 C 
ATOM     58  C   UNL A   1      44.783  27.112  32.780  1.00  0.00     0.034 A 
BRANCH  45  59
ATOM     59  C   UNL A   1      40.985  31.449  35.117  1.00  0.00     0.023 A 
ATOM     60  C   UNL A   1      39.895  31.296  35.992  1.00  0.00     0.031 A 
ATOM     61  C   UNL A   1      41.759  32.617  35.236  1.00  0.00     0.131 A 
ATOM     62  C   UNL A   1      39.540  32.338  36.862  1.00  0.00     0.055 A 
ATOM     63  C   UNL A   1      41.460  33.606  36.176  1.00  0.00     0.041 A 
ATOM     64  F   UNL A   1      42.802  32.835  34.419  1.00  0.00    -0.206 F 
ATOM     65  C   UNL A   1      40.331  33.481  36.980  1.00  0.00     0.022 A 
BRANCH  62  66
ATOM     66  S   UNL A   1      37.923  32.260  37.684  1.00  0.00     0.124 S 
ATOM     67  O   UNL A   1      38.237  32.809  39.003  1.00  0.00    -0.237 OA
ATOM     68  O   UNL A   1      37.093  33.096  36.825  1.00  0.00    -0.237 OA
ATOM     69  O   UNL A   1      37.602  30.835  37.673  1.00  0.00    -0.744 OA
ENDBRANCH  62  66
ENDBRANCH  45  59
BRANCH  46  70
ATOM     70  C   UNL A   1      42.552  25.122  27.502  1.00  0.00     0.023 A 
ATOM     71  C   UNL A   1      42.035  23.817  27.522  1.00  0.00     0.031 A 
ATOM     72  C   UNL A   1      43.316  25.513  26.390  1.00  0.00     0.131 A 
ATOM     73  C   UNL A   1      42.315  22.938  26.465  1.00  0.00     0.055 A 
ATOM     74  C   UNL A   1      43.554  24.650  25.319  1.00  0.00     0.041 A 
ATOM     75  F   UNL A   1      43.826  26.754  26.319  1.00  0.00    -0.206 F 
ATOM     76  C   UNL A   1      43.061  23.349  25.358  1.00  0.00     0.022 A 
BRANCH  73  77
ATOM     77  S   UNL A   1      41.735  21.223  26.584  1.00  0.00     0.124 S 
ATOM     78  O   UNL A   1      42.331  20.794  27.843  1.00  0.00    -0.237 OA
ATOM     79  O   UNL A   1      40.285  21.394  26.585  1.00  0.00    -0.237 OA
ATOM     80  O   UNL A   1      42.284  20.594  25.385  1.00  0.00    -0.744 OA
ENDBRANCH  73  77
ENDBRANCH  46  70
BRANCH  58  81
ATOM     81  C   UNL A   1      46.043  26.528  33.373  1.00  0.00     0.023 A 
ATOM     82  C   UNL A   1      46.019  25.376  34.179  1.00  0.00     0.031 A 
ATOM     83  C   UNL A   1      47.285  27.145  33.139  1.00  0.00     0.131 A 
ATOM     84  C   UNL A   1      47.206  24.907  34.764  1.00  0.00     0.055 A 
ATOM     85  C   UNL A   1      48.471  26.639  33.674  1.00  0.00     0.041 A 
ATOM     86  F   UNL A   1      47.366  28.251  32.381  1.00  0.00    -0.206 F 
ATOM     87  C   UNL A   1      48.433  25.522  34.502  1.00  0.00     0.022 A 
BRANCH  84  88
ATOM     88  S   UNL A   1      47.113  23.537  35.950  1.00  0.00     0.124 S 
ATOM     89  O   UNL A   1      47.408  22.385  35.106  1.00  0.00    -0.237 OA
ATOM     90  O   UNL A   1      48.140  23.896  36.923  1.00  0.00    -0.237 OA
ATOM     91  O   UNL A   1      45.740  23.606  36.447  1.00  0.00    -0.744 OA
ENDBRANCH  84  88
ENDBRANCH  58  81
ENDBRANCH  32  33
ENDBRANCH  24  27
ENDBRANCH  22  23
ENDBRANCH  21  22
ENDBRANCH  20  21
ENDBRANCH   1  20
TORSDOF 19
ENDMDL
