MODEL 1
REMARK VINA RESULT:     -13.0      0.000      0.000
REMARK SMILES Cn1c(COc2ccc(C(=O)NCCCCNC(=O)c3ccc(-c4c5nc(c(-c6cc(S(=O)(=O)[O-])ccc6F)c6ccc([nH]6)c(-c6cc(S(=O)(=O)[O-])ccc6F)c6nc(c(-c7cc(S(=O)(=O)[O-])ccc7F)c7ccc4[nH]7)C=C6)C=C5)cc3)cc2)nc2ccccc21
REMARK SMILES IDX 14 1 13 2 12 3 10 4 11 5 9 7 6 8 7 9 84 10 8 11 83 12 5 13
REMARK SMILES IDX 4 14 3 15 1 16 2 17 91 18 85 19 86 20 90 21 87 22 89 23
REMARK SMILES IDX 88 24 15 25 16 26 17 27 18 28 19 30 20 31 21 32 82 33 22 34
REMARK SMILES IDX 81 35 23 36 24 37 25 38 75 39 26 40 80 41 74 42 76 43 27 44
REMARK SMILES IDX 79 45 73 46 72 47 28 49 60 50 40 51 59 52 41 53 44 54 58 55
REMARK SMILES IDX 77 56 42 57 43 58 57 60 78 61 45 62 29 63 30 64 38 65 31 66
REMARK SMILES IDX 37 67 39 68 36 69 32 70 33 71 34 72 35 73 61 74 62 75 70 76
REMARK SMILES IDX 63 77 69 78 71 79 68 80 64 81 65 82 66 83 67 84 46 85 47 86
REMARK SMILES IDX 55 87 48 88 54 89 56 90 53 91 49 92 50 93 51 94 52 95
REMARK H PARENT 12 6 17 29 76 48 44 59
REMARK Flexibility Score: inf
ROOT
ATOM      1  C   UNL A   1      35.184  22.076  26.093  1.00  0.00     0.023 C 
ENDROOT
BRANCH   1   2
ATOM      2  C   UNL A   1      34.127  21.462  27.012  1.00  0.00     0.116 C 
BRANCH   2   3
ATOM      3  N   UNL A   1      33.346  20.439  26.335  1.00  0.00    -0.352 N 
ATOM      4  C   UNL A   1      32.539  20.527  25.227  1.00  0.00     0.251 C 
ATOM      5  O   UNL A   1      32.099  19.499  24.717  1.00  0.00    -0.269 OA
ATOM      6  H   UNL A   1      33.405  19.542  26.735  1.00  0.00     0.163 HD
BRANCH   4   7
ATOM      7  C   UNL A   1      32.227  21.834  24.595  1.00  0.00     0.040 A 
ATOM      8  C   UNL A   1      31.532  24.283  23.455  1.00  0.00     0.120 A 
ATOM      9  C   UNL A   1      31.034  23.948  24.711  1.00  0.00     0.047 A 
ATOM     10  C   UNL A   1      32.448  23.453  22.813  1.00  0.00     0.047 A 
ATOM     11  C   UNL A   1      31.382  22.719  25.281  1.00  0.00     0.017 A 
ATOM     12  C   UNL A   1      32.796  22.232  23.384  1.00  0.00     0.017 A 
BRANCH   8  13
ATOM     13  O   UNL A   1      31.182  25.467  22.864  1.00  0.00    -0.486 OA
BRANCH  13  14
ATOM     14  C   UNL A   1      31.725  26.601  23.576  1.00  0.00     0.304 C 
BRANCH  14  15
ATOM     15  C   UNL A   1      30.902  27.827  23.303  1.00  0.00     0.147 A 
ATOM     16  C   UNL A   1      31.948  29.362  25.033  1.00  0.00     0.151 C 
ATOM     17  N   UNL A   1      30.990  29.007  24.013  1.00  0.00    -0.328 N 
ATOM     18  C   UNL A   1      29.945  29.820  23.630  1.00  0.00     0.068 A 
ATOM     19  N   UNL A   1      29.938  27.909  22.400  1.00  0.00    -0.229 NA
ATOM     20  C   UNL A   1      29.308  29.105  22.623  1.00  0.00     0.089 A 
ATOM     21  C   UNL A   1      29.495  31.072  24.068  1.00  0.00     0.028 A 
ATOM     22  C   UNL A   1      28.162  29.637  22.015  1.00  0.00     0.030 A 
ATOM     23  C   UNL A   1      28.343  31.584  23.458  1.00  0.00     0.002 A 
ATOM     24  C   UNL A   1      27.684  30.879  22.450  1.00  0.00     0.002 A 
ENDBRANCH  14  15
ENDBRANCH  13  14
ENDBRANCH   8  13
ENDBRANCH   4   7
ENDBRANCH   2   3
ENDBRANCH   1   2
BRANCH   1  25
ATOM     25  C   UNL A   1      36.045  21.063  25.337  1.00  0.00     0.023 C 
BRANCH  25  26
ATOM     26  C   UNL A   1      37.511  21.449  25.181  1.00  0.00     0.116 C 
BRANCH  26  27
ATOM     27  N   UNL A   1      38.431  20.376  25.526  1.00  0.00    -0.352 N 
ATOM     28  C   UNL A   1      39.633  20.469  26.197  1.00  0.00     0.251 C 
ATOM     29  H   UNL A   1      38.162  19.472  25.247  1.00  0.00     0.163 HD
ATOM     30  O   UNL A   1      40.342  19.487  26.334  1.00  0.00    -0.269 OA
BRANCH  28  31
ATOM     31  C   UNL A   1      40.062  21.793  26.702  1.00  0.00     0.039 A 
ATOM     32  C   UNL A   1      41.048  21.853  27.688  1.00  0.00     0.014 A 
ATOM     33  C   UNL A   1      39.544  22.964  26.145  1.00  0.00     0.014 A 
ATOM     34  C   UNL A   1      41.577  23.092  28.059  1.00  0.00     0.010 A 
ATOM     35  C   UNL A   1      40.118  24.189  26.465  1.00  0.00     0.010 A 
ATOM     36  C   UNL A   1      41.148  24.265  27.416  1.00  0.00    -0.014 A 
BRANCH  36  37
ATOM     37  C   UNL A   1      41.761  25.584  27.712  1.00  0.00     0.031 A 
ATOM     38  C   UNL A   1      40.984  26.614  28.482  1.00  0.00     0.074 A 
ATOM     39  C   UNL A   1      42.975  25.886  27.211  1.00  0.00     0.049 A 
ATOM     40  N   UNL A   1      41.283  27.862  28.738  1.00  0.00    -0.248 NA
ATOM     41  C   UNL A   1      39.676  26.188  29.000  1.00  0.00     0.031 C 
ATOM     42  C   UNL A   1      43.813  24.983  26.418  1.00  0.00     0.029 A 
ATOM     43  N   UNL A   1      43.709  27.043  27.280  1.00  0.00    -0.354 N 
ATOM     44  C   UNL A   1      40.193  28.377  29.432  1.00  0.00     0.074 A 
ATOM     45  C   UNL A   1      39.203  27.321  29.493  1.00  0.00     0.031 C 
ATOM     46  C   UNL A   1      44.956  25.612  26.098  1.00  0.00     0.029 A 
ATOM     47  C   UNL A   1      44.913  26.974  26.620  1.00  0.00     0.049 A 
ATOM     48  H   UNL A   1      43.403  27.847  27.759  1.00  0.00     0.167 HD
ATOM     49  C   UNL A   1      40.043  29.606  29.986  1.00  0.00     0.034 A 
ATOM     50  C   UNL A   1      45.868  27.908  26.445  1.00  0.00     0.034 A 
ATOM     51  C   UNL A   1      41.045  30.643  29.920  1.00  0.00     0.049 A 
ATOM     52  C   UNL A   1      45.666  29.280  27.034  1.00  0.00     0.074 A 
ATOM     53  C   UNL A   1      41.023  31.905  30.488  1.00  0.00     0.029 A 
ATOM     54  N   UNL A   1      42.250  30.539  29.236  1.00  0.00    -0.354 N 
ATOM     55  N   UNL A   1      44.647  29.742  27.721  1.00  0.00    -0.248 NA
ATOM     56  C   UNL A   1      46.745  30.253  26.825  1.00  0.00     0.031 C 
ATOM     57  C   UNL A   1      42.184  32.583  30.099  1.00  0.00     0.029 A 
ATOM     58  C   UNL A   1      42.966  31.723  29.344  1.00  0.00     0.049 A 
ATOM     59  H   UNL A   1      42.553  29.741  28.746  1.00  0.00     0.167 HD
ATOM     60  C   UNL A   1      44.980  31.051  28.056  1.00  0.00     0.074 A 
ATOM     61  C   UNL A   1      46.294  31.302  27.498  1.00  0.00     0.031 C 
ATOM     62  C   UNL A   1      44.269  31.962  28.771  1.00  0.00     0.034 A 
BRANCH  49  63
ATOM     63  C   UNL A   1      38.729  29.889  30.677  1.00  0.00     0.023 A 
ATOM     64  C   UNL A   1      37.703  30.610  30.037  1.00  0.00     0.031 A 
ATOM     65  C   UNL A   1      38.523  29.501  32.012  1.00  0.00     0.131 A 
ATOM     66  C   UNL A   1      36.571  31.011  30.762  1.00  0.00     0.055 A 
ATOM     67  C   UNL A   1      37.349  29.822  32.699  1.00  0.00     0.041 A 
ATOM     68  F   UNL A   1      39.470  28.828  32.683  1.00  0.00    -0.206 F 
ATOM     69  C   UNL A   1      36.375  30.601  32.082  1.00  0.00     0.022 A 
BRANCH  66  70
ATOM     70  S   UNL A   1      35.458  32.233  30.013  1.00  0.00     0.124 S 
ATOM     71  O   UNL A   1      35.066  31.556  28.778  1.00  0.00    -0.237 OA
ATOM     72  O   UNL A   1      34.418  32.374  31.023  1.00  0.00    -0.237 OA
ATOM     73  O   UNL A   1      36.312  33.404  29.826  1.00  0.00    -0.744 OA
ENDBRANCH  66  70
ENDBRANCH  49  63
BRANCH  50  74
ATOM     74  C   UNL A   1      47.108  27.585  25.687  1.00  0.00     0.023 A 
ATOM     75  C   UNL A   1      47.193  27.846  24.310  1.00  0.00     0.031 A 
ATOM     76  C   UNL A   1      48.214  26.987  26.316  1.00  0.00     0.131 A 
ATOM     77  C   UNL A   1      48.344  27.476  23.598  1.00  0.00     0.055 A 
ATOM     78  C   UNL A   1      49.374  26.660  25.612  1.00  0.00     0.041 A 
ATOM     79  F   UNL A   1      48.186  26.726  27.633  1.00  0.00    -0.206 F 
ATOM     80  C   UNL A   1      49.439  26.894  24.241  1.00  0.00     0.022 A 
BRANCH  77  81
ATOM     81  S   UNL A   1      48.363  27.713  21.800  1.00  0.00     0.124 S 
ATOM     82  O   UNL A   1      47.030  28.251  21.556  1.00  0.00    -0.237 OA
ATOM     83  O   UNL A   1      49.474  28.644  21.630  1.00  0.00    -0.237 OA
ATOM     84  O   UNL A   1      48.598  26.366  21.283  1.00  0.00    -0.744 OA
ENDBRANCH  77  81
ENDBRANCH  50  74
BRANCH  62  85
ATOM     85  C   UNL A   1      44.932  33.291  29.030  1.00  0.00     0.023 A 
ATOM     86  C   UNL A   1      44.701  34.408  28.207  1.00  0.00     0.031 A 
ATOM     87  C   UNL A   1      45.823  33.434  30.108  1.00  0.00     0.131 A 
ATOM     88  C   UNL A   1      45.392  35.605  28.447  1.00  0.00     0.055 A 
ATOM     89  C   UNL A   1      46.467  34.643  30.373  1.00  0.00     0.041 A 
ATOM     90  F   UNL A   1      46.081  32.398  30.923  1.00  0.00    -0.206 F 
ATOM     91  C   UNL A   1      46.263  35.734  29.533  1.00  0.00     0.022 A 
BRANCH  88  92
ATOM     92  S   UNL A   1      45.202  36.973  27.271  1.00  0.00     0.124 S 
ATOM     93  O   UNL A   1      46.234  36.670  26.284  1.00  0.00    -0.237 OA
ATOM     94  O   UNL A   1      43.824  36.810  26.822  1.00  0.00    -0.237 OA
ATOM     95  O   UNL A   1      45.452  38.162  28.083  1.00  0.00    -0.744 OA
ENDBRANCH  88  92
ENDBRANCH  62  85
ENDBRANCH  36  37
ENDBRANCH  28  31
ENDBRANCH  26  27
ENDBRANCH  25  26
ENDBRANCH   1  25
TORSDOF 17
ENDMDL
MODEL 2
REMARK VINA RESULT:     -12.8      4.346      8.001
REMARK SMILES Cn1c(COc2ccc(C(=O)NCCCCNC(=O)c3ccc(-c4c5nc(c(-c6cc(S(=O)(=O)[O-])ccc6F)c6ccc([nH]6)c(-c6cc(S(=O)(=O)[O-])ccc6F)c6nc(c(-c7cc(S(=O)(=O)[O-])ccc7F)c7ccc4[nH]7)C=C6)C=C5)cc3)cc2)nc2ccccc21
REMARK SMILES IDX 14 1 13 2 12 3 10 4 11 5 9 7 6 8 7 9 84 10 8 11 83 12 5 13
REMARK SMILES IDX 4 14 3 15 1 16 2 17 91 18 85 19 86 20 90 21 87 22 89 23
REMARK SMILES IDX 88 24 15 25 16 26 17 27 18 28 19 30 20 31 21 32 82 33 22 34
REMARK SMILES IDX 81 35 23 36 24 37 25 38 75 39 26 40 80 41 74 42 76 43 27 44
REMARK SMILES IDX 79 45 73 46 72 47 28 49 60 50 40 51 59 52 41 53 44 54 58 55
REMARK SMILES IDX 77 56 42 57 43 58 57 60 78 61 45 62 29 63 30 64 38 65 31 66
REMARK SMILES IDX 37 67 39 68 36 69 32 70 33 71 34 72 35 73 61 74 62 75 70 76
REMARK SMILES IDX 63 77 69 78 71 79 68 80 64 81 65 82 66 83 67 84 46 85 47 86
REMARK SMILES IDX 55 87 48 88 54 89 56 90 53 91 49 92 50 93 51 94 52 95
REMARK H PARENT 12 6 17 29 76 48 44 59
REMARK Flexibility Score: inf
ROOT
ATOM      1  C   UNL A   1      33.190  29.398  24.797  1.00  0.00     0.023 C 
ENDROOT
BRANCH   1   2
ATOM      2  C   UNL A   1      33.358  28.987  23.333  1.00  0.00     0.116 C 
BRANCH   2   3
ATOM      3  N   UNL A   1      32.135  29.181  22.570  1.00  0.00    -0.352 N 
ATOM      4  C   UNL A   1      31.002  28.408  22.499  1.00  0.00     0.251 C 
ATOM      5  O   UNL A   1      30.010  28.843  21.919  1.00  0.00    -0.269 OA
ATOM      6  H   UNL A   1      32.117  29.995  22.017  1.00  0.00     0.163 HD
BRANCH   4   7
ATOM      7  C   UNL A   1      30.926  27.078  23.155  1.00  0.00     0.040 A 
ATOM      8  C   UNL A   1      30.804  24.632  24.491  1.00  0.00     0.120 A 
ATOM      9  C   UNL A   1      30.304  25.775  25.109  1.00  0.00     0.047 A 
ATOM     10  C   UNL A   1      31.270  24.685  23.180  1.00  0.00     0.047 A 
ATOM     11  C   UNL A   1      30.367  27.001  24.439  1.00  0.00     0.017 A 
ATOM     12  C   UNL A   1      31.329  25.906  22.513  1.00  0.00     0.017 A 
BRANCH   8  13
ATOM     13  O   UNL A   1      30.781  23.427  25.139  1.00  0.00    -0.486 OA
BRANCH  13  14
ATOM     14  C   UNL A   1      31.620  23.436  26.315  1.00  0.00     0.304 C 
BRANCH  14  15
ATOM     15  C   UNL A   1      33.048  23.175  25.935  1.00  0.00     0.147 A 
ATOM     16  C   UNL A   1      32.804  20.746  25.241  1.00  0.00     0.151 C 
ATOM     17  N   UNL A   1      33.542  21.953  25.524  1.00  0.00    -0.328 N 
ATOM     18  C   UNL A   1      34.917  22.038  25.475  1.00  0.00     0.068 A 
ATOM     19  N   UNL A   1      34.030  24.059  26.015  1.00  0.00    -0.229 NA
ATOM     20  C   UNL A   1      35.188  23.364  25.787  1.00  0.00     0.089 A 
ATOM     21  C   UNL A   1      35.925  21.102  25.212  1.00  0.00     0.028 A 
ATOM     22  C   UNL A   1      36.519  23.801  25.856  1.00  0.00     0.030 A 
ATOM     23  C   UNL A   1      37.249  21.552  25.296  1.00  0.00     0.002 A 
ATOM     24  C   UNL A   1      37.544  22.878  25.615  1.00  0.00     0.002 A 
ENDBRANCH  14  15
ENDBRANCH  13  14
ENDBRANCH   8  13
ENDBRANCH   4   7
ENDBRANCH   2   3
ENDBRANCH   1   2
BRANCH   1  25
ATOM     25  C   UNL A   1      33.642  28.350  25.814  1.00  0.00     0.023 C 
BRANCH  25  26
ATOM     26  C   UNL A   1      33.462  28.746  27.274  1.00  0.00     0.116 C 
BRANCH  26  27
ATOM     27  N   UNL A   1      33.550  30.181  27.500  1.00  0.00    -0.352 N 
ATOM     28  C   UNL A   1      34.614  30.900  28.003  1.00  0.00     0.251 C 
ATOM     29  H   UNL A   1      32.751  30.704  27.262  1.00  0.00     0.163 HD
ATOM     30  O   UNL A   1      34.505  32.095  28.221  1.00  0.00    -0.269 OA
BRANCH  28  31
ATOM     31  C   UNL A   1      35.868  30.181  28.318  1.00  0.00     0.039 A 
ATOM     32  C   UNL A   1      36.910  30.198  27.388  1.00  0.00     0.014 A 
ATOM     33  C   UNL A   1      36.035  29.559  29.558  1.00  0.00     0.014 A 
ATOM     34  C   UNL A   1      38.153  29.663  27.735  1.00  0.00     0.010 A 
ATOM     35  C   UNL A   1      37.291  29.089  29.926  1.00  0.00     0.010 A 
ATOM     36  C   UNL A   1      38.365  29.145  29.023  1.00  0.00    -0.014 A 
BRANCH  36  37
ATOM     37  C   UNL A   1      39.700  28.664  29.459  1.00  0.00     0.031 A 
ATOM     38  C   UNL A   1      40.441  29.395  30.543  1.00  0.00     0.074 A 
ATOM     39  C   UNL A   1      40.281  27.630  28.819  1.00  0.00     0.049 A 
ATOM     40  N   UNL A   1      41.660  29.216  30.982  1.00  0.00    -0.248 NA
ATOM     41  C   UNL A   1      39.721  30.500  31.191  1.00  0.00     0.031 C 
ATOM     42  C   UNL A   1      39.677  26.862  27.728  1.00  0.00     0.029 A 
ATOM     43  N   UNL A   1      41.517  27.057  28.983  1.00  0.00    -0.354 N 
ATOM     44  C   UNL A   1      41.862  30.198  31.947  1.00  0.00     0.074 A 
ATOM     45  C   UNL A   1      40.660  31.005  31.974  1.00  0.00     0.031 C 
ATOM     46  C   UNL A   1      40.534  25.903  27.339  1.00  0.00     0.029 A 
ATOM     47  C   UNL A   1      41.763  26.017  28.118  1.00  0.00     0.049 A 
ATOM     48  H   UNL A   1      42.166  27.361  29.658  1.00  0.00     0.167 HD
ATOM     49  C   UNL A   1      42.938  30.392  32.750  1.00  0.00     0.034 A 
ATOM     50  C   UNL A   1      42.859  25.249  27.963  1.00  0.00     0.034 A 
ATOM     51  C   UNL A   1      44.124  29.570  32.712  1.00  0.00     0.049 A 
ATOM     52  C   UNL A   1      44.059  25.506  28.838  1.00  0.00     0.074 A 
ATOM     53  C   UNL A   1      45.251  29.641  33.513  1.00  0.00     0.029 A 
ATOM     54  N   UNL A   1      44.340  28.529  31.818  1.00  0.00    -0.354 N 
ATOM     55  N   UNL A   1      44.222  26.413  29.773  1.00  0.00    -0.248 NA
ATOM     56  C   UNL A   1      45.220  24.630  28.635  1.00  0.00     0.031 C 
ATOM     57  C   UNL A   1      46.170  28.685  33.064  1.00  0.00     0.029 A 
ATOM     58  C   UNL A   1      45.592  27.969  32.027  1.00  0.00     0.049 A 
ATOM     59  H   UNL A   1      43.698  28.231  31.133  1.00  0.00     0.167 HD
ATOM     60  C   UNL A   1      45.494  26.193  30.294  1.00  0.00     0.074 A 
ATOM     61  C   UNL A   1      46.051  25.067  29.572  1.00  0.00     0.031 C 
ATOM     62  C   UNL A   1      46.139  26.855  31.289  1.00  0.00     0.034 A 
BRANCH  49  63
ATOM     63  C   UNL A   1      42.877  31.560  33.707  1.00  0.00     0.023 A 
ATOM     64  C   UNL A   1      42.363  31.417  35.010  1.00  0.00     0.031 A 
ATOM     65  C   UNL A   1      43.266  32.846  33.293  1.00  0.00     0.131 A 
ATOM     66  C   UNL A   1      42.154  32.551  35.809  1.00  0.00     0.055 A 
ATOM     67  C   UNL A   1      43.143  33.957  34.132  1.00  0.00     0.041 A 
ATOM     68  F   UNL A   1      43.745  33.052  32.056  1.00  0.00    -0.206 F 
ATOM     69  C   UNL A   1      42.563  33.817  35.388  1.00  0.00     0.022 A 
BRANCH  66  70
ATOM     70  S   UNL A   1      41.166  32.367  37.319  1.00  0.00     0.124 S 
ATOM     71  O   UNL A   1      40.002  31.635  36.823  1.00  0.00    -0.237 OA
ATOM     72  O   UNL A   1      42.063  31.624  38.195  1.00  0.00    -0.237 OA
ATOM     73  O   UNL A   1      40.897  33.745  37.723  1.00  0.00    -0.744 OA
ENDBRANCH  66  70
ENDBRANCH  49  63
BRANCH  50  74
ATOM     74  C   UNL A   1      42.880  24.161  26.948  1.00  0.00     0.023 A 
ATOM     75  C   UNL A   1      42.241  22.936  27.198  1.00  0.00     0.031 A 
ATOM     76  C   UNL A   1      43.560  24.316  25.727  1.00  0.00     0.131 A 
ATOM     77  C   UNL A   1      42.326  21.899  26.258  1.00  0.00     0.055 A 
ATOM     78  C   UNL A   1      43.605  23.295  24.776  1.00  0.00     0.041 A 
ATOM     79  F   UNL A   1      44.179  25.471  25.436  1.00  0.00    -0.206 F 
ATOM     80  C   UNL A   1      42.995  22.073  25.044  1.00  0.00     0.022 A 
BRANCH  77  81
ATOM     81  S   UNL A   1      41.597  20.291  26.674  1.00  0.00     0.124 S 
ATOM     82  O   UNL A   1      40.219  20.658  26.978  1.00  0.00    -0.237 OA
ATOM     83  O   UNL A   1      41.805  19.536  25.443  1.00  0.00    -0.237 OA
ATOM     84  O   UNL A   1      42.391  19.844  27.817  1.00  0.00    -0.744 OA
ENDBRANCH  77  81
ENDBRANCH  50  74
BRANCH  62  85
ATOM     85  C   UNL A   1      47.499  26.334  31.683  1.00  0.00     0.023 A 
ATOM     86  C   UNL A   1      48.662  26.691  30.979  1.00  0.00     0.031 A 
ATOM     87  C   UNL A   1      47.626  25.452  32.770  1.00  0.00     0.131 A 
ATOM     88  C   UNL A   1      49.895  26.129  31.339  1.00  0.00     0.055 A 
ATOM     89  C   UNL A   1      48.863  24.937  33.158  1.00  0.00     0.041 A 
ATOM     90  F   UNL A   1      46.546  25.077  33.475  1.00  0.00    -0.206 F 
ATOM     91  C   UNL A   1      50.006  25.266  32.433  1.00  0.00     0.022 A 
BRANCH  88  92
ATOM     92  S   UNL A   1      51.348  26.475  30.309  1.00  0.00     0.124 S 
ATOM     93  O   UNL A   1      52.432  25.934  31.121  1.00  0.00    -0.237 OA
ATOM     94  O   UNL A   1      51.043  25.744  29.083  1.00  0.00    -0.237 OA
ATOM     95  O   UNL A   1      51.337  27.931  30.179  1.00  0.00    -0.744 OA
ENDBRANCH  88  92
ENDBRANCH  62  85
ENDBRANCH  36  37
ENDBRANCH  28  31
ENDBRANCH  26  27
ENDBRANCH  25  26
ENDBRANCH   1  25
TORSDOF 17
ENDMDL
MODEL 3
REMARK VINA RESULT:     -12.8      4.835      8.693
REMARK SMILES Cn1c(COc2ccc(C(=O)NCCCCNC(=O)c3ccc(-c4c5nc(c(-c6cc(S(=O)(=O)[O-])ccc6F)c6ccc([nH]6)c(-c6cc(S(=O)(=O)[O-])ccc6F)c6nc(c(-c7cc(S(=O)(=O)[O-])ccc7F)c7ccc4[nH]7)C=C6)C=C5)cc3)cc2)nc2ccccc21
REMARK SMILES IDX 14 1 13 2 12 3 10 4 11 5 9 7 6 8 7 9 84 10 8 11 83 12 5 13
REMARK SMILES IDX 4 14 3 15 1 16 2 17 91 18 85 19 86 20 90 21 87 22 89 23
REMARK SMILES IDX 88 24 15 25 16 26 17 27 18 28 19 30 20 31 21 32 82 33 22 34
REMARK SMILES IDX 81 35 23 36 24 37 25 38 75 39 26 40 80 41 74 42 76 43 27 44
REMARK SMILES IDX 79 45 73 46 72 47 28 49 60 50 40 51 59 52 41 53 44 54 58 55
REMARK SMILES IDX 77 56 42 57 43 58 57 60 78 61 45 62 29 63 30 64 38 65 31 66
REMARK SMILES IDX 37 67 39 68 36 69 32 70 33 71 34 72 35 73 61 74 62 75 70 76
REMARK SMILES IDX 63 77 69 78 71 79 68 80 64 81 65 82 66 83 67 84 46 85 47 86
REMARK SMILES IDX 55 87 48 88 54 89 56 90 53 91 49 92 50 93 51 94 52 95
REMARK H PARENT 12 6 17 29 76 48 44 59
REMARK Flexibility Score: inf
ROOT
ATOM      1  C   UNL A   1      33.091  29.190  24.796  1.00  0.00     0.023 C 
ENDROOT
BRANCH   1   2
ATOM      2  C   UNL A   1      33.204  29.066  23.275  1.00  0.00     0.116 C 
BRANCH   2   3
ATOM      3  N   UNL A   1      31.917  29.231  22.619  1.00  0.00    -0.352 N 
ATOM      4  C   UNL A   1      30.863  28.357  22.501  1.00  0.00     0.251 C 
ATOM      5  O   UNL A   1      29.795  28.758  22.046  1.00  0.00    -0.269 OA
ATOM      6  H   UNL A   1      31.780  30.106  22.191  1.00  0.00     0.163 HD
BRANCH   4   7
ATOM      7  C   UNL A   1      30.966  26.949  22.961  1.00  0.00     0.040 A 
ATOM      8  C   UNL A   1      31.163  24.343  23.937  1.00  0.00     0.120 A 
ATOM      9  C   UNL A   1      30.431  25.288  24.652  1.00  0.00     0.047 A 
ATOM     10  C   UNL A   1      31.709  24.663  22.697  1.00  0.00     0.047 A 
ATOM     11  C   UNL A   1      30.335  26.594  24.162  1.00  0.00     0.017 A 
ATOM     12  C   UNL A   1      31.609  25.964  22.209  1.00  0.00     0.017 A 
BRANCH   8  13
ATOM     13  O   UNL A   1      31.296  23.066  24.412  1.00  0.00    -0.486 OA
BRANCH  13  14
ATOM     14  C   UNL A   1      32.650  22.793  24.835  1.00  0.00     0.304 C 
BRANCH  14  15
ATOM     15  C   UNL A   1      32.948  21.327  24.705  1.00  0.00     0.147 A 
ATOM     16  C   UNL A   1      35.243  21.322  25.788  1.00  0.00     0.151 C 
ATOM     17  N   UNL A   1      34.133  20.729  25.083  1.00  0.00    -0.328 N 
ATOM     18  C   UNL A   1      34.129  19.431  24.616  1.00  0.00     0.068 A 
ATOM     19  N   UNL A   1      32.145  20.436  24.145  1.00  0.00    -0.229 NA
ATOM     20  C   UNL A   1      32.875  19.282  24.036  1.00  0.00     0.089 A 
ATOM     21  C   UNL A   1      35.083  18.406  24.629  1.00  0.00     0.028 A 
ATOM     22  C   UNL A   1      32.536  18.066  23.425  1.00  0.00     0.030 A 
ATOM     23  C   UNL A   1      34.732  17.202  24.005  1.00  0.00     0.002 A 
ATOM     24  C   UNL A   1      33.481  17.033  23.410  1.00  0.00     0.002 A 
ENDBRANCH  14  15
ENDBRANCH  13  14
ENDBRANCH   8  13
ENDBRANCH   4   7
ENDBRANCH   2   3
ENDBRANCH   1   2
BRANCH   1  25
ATOM     25  C   UNL A   1      31.948  30.080  25.285  1.00  0.00     0.023 C 
BRANCH  25  26
ATOM     26  C   UNL A   1      32.051  30.525  26.739  1.00  0.00     0.116 C 
BRANCH  26  27
ATOM     27  N   UNL A   1      32.061  31.971  26.902  1.00  0.00    -0.352 N 
ATOM     28  C   UNL A   1      33.040  32.755  27.475  1.00  0.00     0.251 C 
ATOM     29  H   UNL A   1      31.272  32.448  26.560  1.00  0.00     0.163 HD
ATOM     30  O   UNL A   1      32.865  33.953  27.624  1.00  0.00    -0.269 OA
BRANCH  28  31
ATOM     31  C   UNL A   1      34.282  32.104  27.950  1.00  0.00     0.039 A 
ATOM     32  C   UNL A   1      35.460  32.852  28.001  1.00  0.00     0.014 A 
ATOM     33  C   UNL A   1      34.258  30.786  28.412  1.00  0.00     0.014 A 
ATOM     34  C   UNL A   1      36.600  32.302  28.595  1.00  0.00     0.010 A 
ATOM     35  C   UNL A   1      35.371  30.266  29.063  1.00  0.00     0.010 A 
ATOM     36  C   UNL A   1      36.549  31.022  29.171  1.00  0.00    -0.014 A 
BRANCH  36  37
ATOM     37  C   UNL A   1      37.709  30.450  29.900  1.00  0.00     0.031 A 
ATOM     38  C   UNL A   1      37.977  30.863  31.320  1.00  0.00     0.074 A 
ATOM     39  C   UNL A   1      38.569  29.635  29.257  1.00  0.00     0.049 A 
ATOM     40  N   UNL A   1      38.997  30.581  32.089  1.00  0.00    -0.248 NA
ATOM     41  C   UNL A   1      36.977  31.743  31.940  1.00  0.00     0.031 C 
ATOM     42  C   UNL A   1      38.435  29.190  27.868  1.00  0.00     0.029 A 
ATOM     43  N   UNL A   1      39.734  29.049  29.683  1.00  0.00    -0.354 N 
ATOM     44  C   UNL A   1      38.771  31.263  33.280  1.00  0.00     0.074 A 
ATOM     45  C   UNL A   1      37.552  32.023  33.098  1.00  0.00     0.031 C 
ATOM     46  C   UNL A   1      39.464  28.380  27.566  1.00  0.00     0.029 A 
ATOM     47  C   UNL A   1      40.352  28.286  28.721  1.00  0.00     0.049 A 
ATOM     48  H   UNL A   1      40.092  29.161  30.593  1.00  0.00     0.167 HD
ATOM     49  C   UNL A   1      39.500  31.239  34.424  1.00  0.00     0.034 A 
ATOM     50  C   UNL A   1      41.510  27.599  28.761  1.00  0.00     0.034 A 
ATOM     51  C   UNL A   1      40.710  30.468  34.587  1.00  0.00     0.049 A 
ATOM     52  C   UNL A   1      42.326  27.616  30.028  1.00  0.00     0.074 A 
ATOM     53  C   UNL A   1      41.499  30.326  35.715  1.00  0.00     0.029 A 
ATOM     54  N   UNL A   1      41.310  29.712  33.588  1.00  0.00    -0.354 N 
ATOM     55  N   UNL A   1      42.082  28.234  31.160  1.00  0.00    -0.248 NA
ATOM     56  C   UNL A   1      43.571  26.838  30.020  1.00  0.00     0.031 C 
ATOM     57  C   UNL A   1      42.606  29.536  35.381  1.00  0.00     0.029 A 
ATOM     58  C   UNL A   1      42.474  29.126  34.064  1.00  0.00     0.049 A 
ATOM     59  H   UNL A   1      40.961  29.608  32.673  1.00  0.00     0.167 HD
ATOM     60  C   UNL A   1      43.127  27.890  32.011  1.00  0.00     0.074 A 
ATOM     61  C   UNL A   1      44.001  27.008  31.262  1.00  0.00     0.031 C 
ATOM     62  C   UNL A   1      43.341  28.260  33.300  1.00  0.00     0.034 A 
BRANCH  49  63
ATOM     63  C   UNL A   1      39.012  32.101  35.565  1.00  0.00     0.023 A 
ATOM     64  C   UNL A   1      39.422  33.441  35.700  1.00  0.00     0.031 A 
ATOM     65  C   UNL A   1      38.189  31.563  36.569  1.00  0.00     0.131 A 
ATOM     66  C   UNL A   1      39.098  34.160  36.861  1.00  0.00     0.055 A 
ATOM     67  C   UNL A   1      37.791  32.317  37.677  1.00  0.00     0.041 A 
ATOM     68  F   UNL A   1      37.780  30.286  36.508  1.00  0.00    -0.206 F 
ATOM     69  C   UNL A   1      38.264  33.615  37.838  1.00  0.00     0.022 A 
BRANCH  66  70
ATOM     70  S   UNL A   1      39.940  35.740  37.157  1.00  0.00     0.124 S 
ATOM     71  O   UNL A   1      39.655  36.462  35.918  1.00  0.00    -0.237 OA
ATOM     72  O   UNL A   1      39.271  36.234  38.353  1.00  0.00    -0.237 OA
ATOM     73  O   UNL A   1      41.338  35.354  37.335  1.00  0.00    -0.744 OA
ENDBRANCH  66  70
ENDBRANCH  49  63
BRANCH  50  74
ATOM     74  C   UNL A   1      41.972  26.829  27.573  1.00  0.00     0.023 A 
ATOM     75  C   UNL A   1      41.730  25.450  27.476  1.00  0.00     0.031 A 
ATOM     76  C   UNL A   1      42.684  27.451  26.532  1.00  0.00     0.131 A 
ATOM     77  C   UNL A   1      42.228  24.728  26.381  1.00  0.00     0.055 A 
ATOM     78  C   UNL A   1      43.141  26.736  25.424  1.00  0.00     0.041 A 
ATOM     79  F   UNL A   1      42.933  28.770  26.574  1.00  0.00    -0.206 F 
ATOM     80  C   UNL A   1      42.923  25.363  25.350  1.00  0.00     0.022 A 
BRANCH  77  81
ATOM     81  S   UNL A   1      42.006  22.929  26.357  1.00  0.00     0.124 S 
ATOM     82  O   UNL A   1      42.534  22.580  25.043  1.00  0.00    -0.237 OA
ATOM     83  O   UNL A   1      42.806  22.509  27.503  1.00  0.00    -0.237 OA
ATOM     84  O   UNL A   1      40.562  22.763  26.514  1.00  0.00    -0.744 OA
ENDBRANCH  77  81
ENDBRANCH  50  74
BRANCH  62  85
ATOM     85  C   UNL A   1      44.542  27.662  33.990  1.00  0.00     0.023 A 
ATOM     86  C   UNL A   1      44.490  26.403  34.613  1.00  0.00     0.031 A 
ATOM     87  C   UNL A   1      45.753  28.375  34.036  1.00  0.00     0.131 A 
ATOM     88  C   UNL A   1      45.612  25.918  35.300  1.00  0.00     0.055 A 
ATOM     89  C   UNL A   1      46.882  27.864  34.675  1.00  0.00     0.041 A 
ATOM     90  F   UNL A   1      45.856  29.584  33.459  1.00  0.00    -0.206 F 
ATOM     91  C   UNL A   1      46.813  26.633  35.323  1.00  0.00     0.022 A 
BRANCH  88  92
ATOM     92  S   UNL A   1      45.462  24.371  36.236  1.00  0.00     0.124 S 
ATOM     93  O   UNL A   1      45.534  24.843  37.615  1.00  0.00    -0.237 OA
ATOM     94  O   UNL A   1      44.163  23.868  35.801  1.00  0.00    -0.237 OA
ATOM     95  O   UNL A   1      46.610  23.586  35.789  1.00  0.00    -0.744 OA
ENDBRANCH  88  92
ENDBRANCH  62  85
ENDBRANCH  36  37
ENDBRANCH  28  31
ENDBRANCH  26  27
ENDBRANCH  25  26
ENDBRANCH   1  25
TORSDOF 17
ENDMDL
