MODEL 1
REMARK VINA RESULT:     -11.0      0.000      0.000
REMARK SMILES CC(C)[C@H](NS(=O)(=O)c1cccc(F)c1)C(=O)NCCCCNC(=O)c1ccc(-c2c3nc(c(-c4cc(S(=O)(=O)[O-])ccc4F)c4ccc([nH]4)c(-c4cc(S(=O)(=O)[O-])ccc4F)c4nc(c(-c5cc(S(=O)(=O)[O-])ccc5F)c5ccc2[nH]5)C=C4)C=C3)cc1
REMARK SMILES IDX 20 1 19 2 18 3 16 4 17 5 4 7 2 8 1 9 3 10 5 11 6 13 7 14
REMARK SMILES IDX 8 15 9 16 10 17 15 18 11 19 13 20 12 21 14 22 21 23 22 24
REMARK SMILES IDX 23 25 24 26 25 28 26 29 27 30 88 31 28 32 87 33 29 34 30 35
REMARK SMILES IDX 31 36 81 37 32 38 86 39 80 40 82 41 33 42 85 43 79 44 78 45
REMARK SMILES IDX 34 47 66 48 46 49 65 50 47 51 50 52 64 53 83 54 48 55 49 56
REMARK SMILES IDX 63 58 84 59 51 60 35 61 36 62 44 63 37 64 43 65 45 66 42 67
REMARK SMILES IDX 38 68 39 69 40 70 41 71 67 72 68 73 76 74 69 75 75 76 77 77
REMARK SMILES IDX 74 78 70 79 71 80 72 81 73 82 52 83 53 84 61 85 54 86 60 87
REMARK SMILES IDX 62 88 59 89 55 90 56 91 57 92 58 93
REMARK H PARENT 18 6 5 12 23 27 82 46 50 57
REMARK Flexibility Score: inf
ROOT
ATOM      1  C   UNL A   1      36.341  22.672  23.352  1.00  0.00     0.023 C 
ENDROOT
BRANCH   1   2
ATOM      2  C   UNL A   1      35.162  23.628  23.243  1.00  0.00     0.116 C 
BRANCH   2   3
ATOM      3  N   UNL A   1      33.916  22.949  22.956  1.00  0.00    -0.355 N 
ATOM      4  C   UNL A   1      32.654  23.205  23.406  1.00  0.00     0.238 C 
ATOM      5  O   UNL A   1      31.720  22.624  22.846  1.00  0.00    -0.273 OA
ATOM      6  H   UNL A   1      33.991  22.183  22.342  1.00  0.00     0.163 HD
BRANCH   4   7
ATOM      7  C   UNL A   1      32.387  24.172  24.569  1.00  0.00     0.161 C 
BRANCH   7   8
ATOM      8  C   UNL A   1      32.440  23.554  26.000  1.00  0.00     0.010 C 
ATOM      9  C   UNL A   1      31.230  23.865  26.886  1.00  0.00     0.009 C 
ATOM     10  C   UNL A   1      32.759  22.054  26.080  1.00  0.00     0.009 C 
ENDBRANCH   7   8
BRANCH   7  11
ATOM     11  N   UNL A   1      31.168  24.958  24.309  1.00  0.00    -0.198 NA
ATOM     12  H   UNL A   1      30.613  24.916  25.164  1.00  0.00     0.142 HD
BRANCH  11  13
ATOM     13  S   UNL A   1      31.231  26.566  23.871  1.00  0.00     0.241 S 
ATOM     14  O   UNL A   1      32.219  26.639  22.818  1.00  0.00    -0.207 OA
ATOM     15  O   UNL A   1      29.874  27.022  23.659  1.00  0.00    -0.207 OA
BRANCH  13  16
ATOM     16  C   UNL A   1      31.884  27.410  25.287  1.00  0.00     0.085 A 
ATOM     17  C   UNL A   1      31.112  27.530  26.451  1.00  0.00     0.022 A 
ATOM     18  C   UNL A   1      33.206  27.859  25.263  1.00  0.00     0.061 A 
ATOM     19  C   UNL A   1      31.662  28.141  27.583  1.00  0.00     0.004 A 
ATOM     20  C   UNL A   1      33.731  28.471  26.393  1.00  0.00     0.124 A 
ATOM     21  C   UNL A   1      32.973  28.618  27.550  1.00  0.00     0.039 A 
ATOM     22  F   UNL A   1      34.995  28.913  26.373  1.00  0.00    -0.207 F 
ENDBRANCH  13  16
ENDBRANCH  11  13
ENDBRANCH   7  11
ENDBRANCH   4   7
ENDBRANCH   2   3
ENDBRANCH   1   2
BRANCH   1  23
ATOM     23  C   UNL A   1      36.120  21.505  24.316  1.00  0.00     0.023 C 
BRANCH  23  24
ATOM     24  C   UNL A   1      36.874  21.599  25.639  1.00  0.00     0.116 C 
BRANCH  24  25
ATOM     25  N   UNL A   1      37.955  20.630  25.747  1.00  0.00    -0.352 N 
ATOM     26  C   UNL A   1      39.266  20.834  26.110  1.00  0.00     0.251 C 
ATOM     27  H   UNL A   1      37.714  19.700  25.531  1.00  0.00     0.163 HD
ATOM     28  O   UNL A   1      40.079  19.921  26.005  1.00  0.00    -0.269 OA
BRANCH  26  29
ATOM     29  C   UNL A   1      39.687  22.169  26.586  1.00  0.00     0.039 A 
ATOM     30  C   UNL A   1      40.741  22.261  27.495  1.00  0.00     0.014 A 
ATOM     31  C   UNL A   1      39.075  23.325  26.094  1.00  0.00     0.014 A 
ATOM     32  C   UNL A   1      41.240  23.519  27.844  1.00  0.00     0.010 A 
ATOM     33  C   UNL A   1      39.625  24.571  26.379  1.00  0.00     0.010 A 
ATOM     34  C   UNL A   1      40.719  24.681  27.251  1.00  0.00    -0.014 A 
BRANCH  34  35
ATOM     35  C   UNL A   1      41.318  26.017  27.516  1.00  0.00     0.031 A 
ATOM     36  C   UNL A   1      42.691  26.346  26.998  1.00  0.00     0.074 A 
ATOM     37  C   UNL A   1      40.647  26.912  28.271  1.00  0.00     0.049 A 
ATOM     38  N   UNL A   1      43.408  27.423  27.194  1.00  0.00    -0.248 NA
ATOM     39  C   UNL A   1      43.355  25.327  26.170  1.00  0.00     0.031 C 
ATOM     40  C   UNL A   1      39.321  26.697  28.856  1.00  0.00     0.029 A 
ATOM     41  N   UNL A   1      40.983  28.180  28.677  1.00  0.00    -0.354 N 
ATOM     42  C   UNL A   1      44.607  27.208  26.524  1.00  0.00     0.074 A 
ATOM     43  C   UNL A   1      44.542  25.877  25.959  1.00  0.00     0.031 C 
ATOM     44  C   UNL A   1      38.945  27.806  29.514  1.00  0.00     0.029 A 
ATOM     45  C   UNL A   1      40.020  28.791  29.448  1.00  0.00     0.049 A 
ATOM     46  H   UNL A   1      41.836  28.612  28.440  1.00  0.00     0.167 HD
ATOM     47  C   UNL A   1      45.655  28.051  26.376  1.00  0.00     0.034 A 
ATOM     48  C   UNL A   1      40.005  29.998  30.047  1.00  0.00     0.034 A 
ATOM     49  C   UNL A   1      45.700  29.384  26.922  1.00  0.00     0.049 A 
ATOM     50  C   UNL A   1      41.199  30.905  29.896  1.00  0.00     0.074 A 
ATOM     51  C   UNL A   1      46.695  30.334  26.778  1.00  0.00     0.029 A 
ATOM     52  N   UNL A   1      44.714  29.954  27.717  1.00  0.00    -0.354 N 
ATOM     53  N   UNL A   1      42.317  30.689  29.243  1.00  0.00    -0.248 NA
ATOM     54  C   UNL A   1      41.132  32.213  30.560  1.00  0.00     0.031 C 
ATOM     55  C   UNL A   1      46.348  31.450  27.544  1.00  0.00     0.029 A 
ATOM     56  C   UNL A   1      45.097  31.230  28.098  1.00  0.00     0.049 A 
ATOM     57  H   UNL A   1      43.870  29.518  27.971  1.00  0.00     0.167 HD
ATOM     58  C   UNL A   1      43.076  31.844  29.399  1.00  0.00     0.074 A 
ATOM     59  C   UNL A   1      42.288  32.756  30.203  1.00  0.00     0.031 C 
ATOM     60  C   UNL A   1      44.310  32.126  28.911  1.00  0.00     0.034 A 
BRANCH  47  61
ATOM     61  C   UNL A   1      46.853  27.563  25.604  1.00  0.00     0.023 A 
ATOM     62  C   UNL A   1      47.040  27.888  24.251  1.00  0.00     0.031 A 
ATOM     63  C   UNL A   1      47.848  26.807  26.249  1.00  0.00     0.131 A 
ATOM     64  C   UNL A   1      48.182  27.434  23.575  1.00  0.00     0.055 A 
ATOM     65  C   UNL A   1      49.012  26.409  25.588  1.00  0.00     0.041 A 
ATOM     66  F   UNL A   1      47.710  26.453  27.536  1.00  0.00    -0.206 F 
ATOM     67  C   UNL A   1      49.181  26.720  24.242  1.00  0.00     0.022 A 
BRANCH  64  68
ATOM     68  S   UNL A   1      48.317  27.735  21.793  1.00  0.00     0.124 S 
ATOM     69  O   UNL A   1      47.007  28.305  21.491  1.00  0.00    -0.237 OA
ATOM     70  O   UNL A   1      49.447  28.652  21.710  1.00  0.00    -0.237 OA
ATOM     71  O   UNL A   1      48.553  26.403  21.237  1.00  0.00    -0.744 OA
ENDBRANCH  64  68
ENDBRANCH  47  61
BRANCH  48  72
ATOM     72  C   UNL A   1      38.827  30.411  30.860  1.00  0.00     0.023 A 
ATOM     73  C   UNL A   1      37.754  31.107  30.283  1.00  0.00     0.031 A 
ATOM     74  C   UNL A   1      38.755  30.107  32.232  1.00  0.00     0.131 A 
ATOM     75  C   UNL A   1      36.664  31.495  31.078  1.00  0.00     0.055 A 
ATOM     76  C   UNL A   1      37.651  30.458  33.009  1.00  0.00     0.041 A 
ATOM     77  F   UNL A   1      39.753  29.435  32.830  1.00  0.00    -0.206 F 
ATOM     78  C   UNL A   1      36.599  31.161  32.434  1.00  0.00     0.022 A 
BRANCH  75  79
ATOM     79  S   UNL A   1      35.336  32.473  30.323  1.00  0.00     0.124 S 
ATOM     80  O   UNL A   1      34.886  31.587  29.256  1.00  0.00    -0.237 OA
ATOM     81  O   UNL A   1      34.415  32.652  31.442  1.00  0.00    -0.237 OA
ATOM     82  O   UNL A   1      36.017  33.688  29.882  1.00  0.00    -0.744 OA
ENDBRANCH  75  79
ENDBRANCH  48  72
BRANCH  60  83
ATOM     83  C   UNL A   1      44.884  33.488  29.202  1.00  0.00     0.023 A 
ATOM     84  C   UNL A   1      44.708  34.566  28.318  1.00  0.00     0.031 A 
ATOM     85  C   UNL A   1      45.563  33.724  30.411  1.00  0.00     0.131 A 
ATOM     86  C   UNL A   1      45.227  35.827  28.645  1.00  0.00     0.055 A 
ATOM     87  C   UNL A   1      46.033  34.991  30.755  1.00  0.00     0.041 A 
ATOM     88  F   UNL A   1      45.755  32.727  31.290  1.00  0.00    -0.206 F 
ATOM     89  C   UNL A   1      45.870  36.050  29.867  1.00  0.00     0.022 A 
BRANCH  86  90
ATOM     90  S   UNL A   1      45.083  37.170  27.438  1.00  0.00     0.124 S 
ATOM     91  O   UNL A   1      43.703  37.024  26.986  1.00  0.00    -0.237 OA
ATOM     92  O   UNL A   1      45.367  38.353  28.246  1.00  0.00    -0.237 OA
ATOM     93  O   UNL A   1      46.101  36.847  26.439  1.00  0.00    -0.744 OA
ENDBRANCH  86  90
ENDBRANCH  60  83
ENDBRANCH  34  35
ENDBRANCH  26  29
ENDBRANCH  24  25
ENDBRANCH  23  24
ENDBRANCH   1  23
TORSDOF 18
ENDMDL
MODEL 2
REMARK VINA RESULT:     -11.0      5.681      8.569
REMARK SMILES CC(C)[C@H](NS(=O)(=O)c1cccc(F)c1)C(=O)NCCCCNC(=O)c1ccc(-c2c3nc(c(-c4cc(S(=O)(=O)[O-])ccc4F)c4ccc([nH]4)c(-c4cc(S(=O)(=O)[O-])ccc4F)c4nc(c(-c5cc(S(=O)(=O)[O-])ccc5F)c5ccc2[nH]5)C=C4)C=C3)cc1
REMARK SMILES IDX 20 1 19 2 18 3 16 4 17 5 4 7 2 8 1 9 3 10 5 11 6 13 7 14
REMARK SMILES IDX 8 15 9 16 10 17 15 18 11 19 13 20 12 21 14 22 21 23 22 24
REMARK SMILES IDX 23 25 24 26 25 28 26 29 27 30 88 31 28 32 87 33 29 34 30 35
REMARK SMILES IDX 31 36 81 37 32 38 86 39 80 40 82 41 33 42 85 43 79 44 78 45
REMARK SMILES IDX 34 47 66 48 46 49 65 50 47 51 50 52 64 53 83 54 48 55 49 56
REMARK SMILES IDX 63 58 84 59 51 60 35 61 36 62 44 63 37 64 43 65 45 66 42 67
REMARK SMILES IDX 38 68 39 69 40 70 41 71 67 72 68 73 76 74 69 75 75 76 77 77
REMARK SMILES IDX 74 78 70 79 71 80 72 81 73 82 52 83 53 84 61 85 54 86 60 87
REMARK SMILES IDX 62 88 59 89 55 90 56 91 57 92 58 93
REMARK H PARENT 18 6 5 12 23 27 82 46 50 57
REMARK Flexibility Score: inf
ROOT
ATOM      1  C   UNL A   1      32.138  29.854  25.807  1.00  0.00     0.023 C 
ENDROOT
BRANCH   1   2
ATOM      2  C   UNL A   1      33.568  29.333  25.773  1.00  0.00     0.116 C 
BRANCH   2   3
ATOM      3  N   UNL A   1      34.030  29.057  24.429  1.00  0.00    -0.355 N 
ATOM      4  C   UNL A   1      33.815  27.970  23.634  1.00  0.00     0.238 C 
ATOM      5  O   UNL A   1      34.129  28.063  22.445  1.00  0.00    -0.273 OA
ATOM      6  H   UNL A   1      34.587  29.762  24.027  1.00  0.00     0.163 HD
BRANCH   4   7
ATOM      7  C   UNL A   1      33.210  26.669  24.183  1.00  0.00     0.161 C 
BRANCH   7   8
ATOM      8  C   UNL A   1      34.217  25.513  24.469  1.00  0.00     0.010 C 
ATOM      9  C   UNL A   1      34.066  24.846  25.841  1.00  0.00     0.009 C 
ATOM     10  C   UNL A   1      34.334  24.431  23.387  1.00  0.00     0.009 C 
ENDBRANCH   7   8
BRANCH   7  11
ATOM     11  N   UNL A   1      32.055  26.259  23.365  1.00  0.00    -0.198 NA
ATOM     12  H   UNL A   1      32.307  25.365  22.942  1.00  0.00     0.142 HD
BRANCH  11  13
ATOM     13  S   UNL A   1      30.536  26.052  24.023  1.00  0.00     0.241 S 
ATOM     14  O   UNL A   1      30.001  24.869  23.387  1.00  0.00    -0.207 OA
ATOM     15  O   UNL A   1      30.661  26.138  25.462  1.00  0.00    -0.207 OA
BRANCH  13  16
ATOM     16  C   UNL A   1      29.592  27.444  23.463  1.00  0.00     0.085 A 
ATOM     17  C   UNL A   1      30.222  28.490  22.776  1.00  0.00     0.022 A 
ATOM     18  C   UNL A   1      28.205  27.435  23.624  1.00  0.00     0.061 A 
ATOM     19  C   UNL A   1      29.457  29.551  22.283  1.00  0.00     0.004 A 
ATOM     20  C   UNL A   1      27.462  28.502  23.137  1.00  0.00     0.124 A 
ATOM     21  C   UNL A   1      28.074  29.559  22.471  1.00  0.00     0.039 A 
ATOM     22  F   UNL A   1      26.133  28.505  23.297  1.00  0.00    -0.207 F 
ENDBRANCH  13  16
ENDBRANCH  11  13
ENDBRANCH   7  11
ENDBRANCH   4   7
ENDBRANCH   2   3
ENDBRANCH   1   2
BRANCH   1  23
ATOM     23  C   UNL A   1      31.863  30.871  26.916  1.00  0.00     0.023 C 
BRANCH  23  24
ATOM     24  C   UNL A   1      33.039  31.772  27.283  1.00  0.00     0.116 C 
BRANCH  24  25
ATOM     25  N   UNL A   1      32.653  33.162  27.476  1.00  0.00    -0.352 N 
ATOM     26  C   UNL A   1      33.150  34.081  28.370  1.00  0.00     0.251 C 
ATOM     27  H   UNL A   1      31.936  33.489  26.885  1.00  0.00     0.163 HD
ATOM     28  O   UNL A   1      32.602  35.171  28.494  1.00  0.00    -0.269 OA
BRANCH  26  29
ATOM     29  C   UNL A   1      34.320  33.725  29.201  1.00  0.00     0.039 A 
ATOM     30  C   UNL A   1      34.115  33.046  30.402  1.00  0.00     0.014 A 
ATOM     31  C   UNL A   1      35.616  34.018  28.766  1.00  0.00     0.014 A 
ATOM     32  C   UNL A   1      35.217  32.582  31.125  1.00  0.00     0.010 A 
ATOM     33  C   UNL A   1      36.707  33.485  29.445  1.00  0.00     0.010 A 
ATOM     34  C   UNL A   1      36.519  32.753  30.628  1.00  0.00    -0.014 A 
BRANCH  34  35
ATOM     35  C   UNL A   1      37.694  32.159  31.320  1.00  0.00     0.031 A 
ATOM     36  C   UNL A   1      38.497  31.076  30.653  1.00  0.00     0.074 A 
ATOM     37  C   UNL A   1      38.004  32.557  32.572  1.00  0.00     0.049 A 
ATOM     38  N   UNL A   1      39.500  30.384  31.128  1.00  0.00    -0.248 NA
ATOM     39  C   UNL A   1      38.110  30.705  29.283  1.00  0.00     0.031 C 
ATOM     40  C   UNL A   1      37.282  33.578  33.337  1.00  0.00     0.029 A 
ATOM     41  N   UNL A   1      39.002  32.154  33.425  1.00  0.00    -0.354 N 
ATOM     42  C   UNL A   1      39.858  29.494  30.123  1.00  0.00     0.074 A 
ATOM     43  C   UNL A   1      38.931  29.696  29.030  1.00  0.00     0.031 C 
ATOM     44  C   UNL A   1      37.882  33.744  34.526  1.00  0.00     0.029 A 
ATOM     45  C   UNL A   1      38.995  32.807  34.637  1.00  0.00     0.049 A 
ATOM     46  H   UNL A   1      39.662  31.462  33.190  1.00  0.00     0.167 HD
ATOM     47  C   UNL A   1      40.879  28.604  30.105  1.00  0.00     0.034 A 
ATOM     48  C   UNL A   1      39.783  32.661  35.721  1.00  0.00     0.034 A 
ATOM     49  C   UNL A   1      41.811  28.428  31.189  1.00  0.00     0.049 A 
ATOM     50  C   UNL A   1      40.891  31.640  35.689  1.00  0.00     0.074 A 
ATOM     51  C   UNL A   1      42.912  27.592  31.242  1.00  0.00     0.029 A 
ATOM     52  N   UNL A   1      41.754  29.091  32.408  1.00  0.00    -0.354 N 
ATOM     53  N   UNL A   1      41.223  30.819  34.720  1.00  0.00    -0.248 NA
ATOM     54  C   UNL A   1      41.727  31.524  36.891  1.00  0.00     0.031 C 
ATOM     55  C   UNL A   1      43.478  27.693  32.516  1.00  0.00     0.029 A 
ATOM     56  C   UNL A   1      42.780  28.654  33.230  1.00  0.00     0.049 A 
ATOM     57  H   UNL A   1      41.085  29.770  32.651  1.00  0.00     0.167 HD
ATOM     58  C   UNL A   1      42.322  30.106  35.189  1.00  0.00     0.074 A 
ATOM     59  C   UNL A   1      42.600  30.596  36.523  1.00  0.00     0.031 C 
ATOM     60  C   UNL A   1      43.040  29.140  34.564  1.00  0.00     0.034 A 
BRANCH  47  61
ATOM     61  C   UNL A   1      41.042  27.739  28.884  1.00  0.00     0.023 A 
ATOM     62  C   UNL A   1      42.038  27.995  27.927  1.00  0.00     0.031 A 
ATOM     63  C   UNL A   1      40.224  26.610  28.704  1.00  0.00     0.131 A 
ATOM     64  C   UNL A   1      42.172  27.149  26.816  1.00  0.00     0.055 A 
ATOM     65  C   UNL A   1      40.402  25.737  27.629  1.00  0.00     0.041 A 
ATOM     66  F   UNL A   1      39.245  26.330  29.579  1.00  0.00    -0.206 F 
ATOM     67  C   UNL A   1      41.379  26.008  26.675  1.00  0.00     0.022 A 
BRANCH  64  68
ATOM     68  S   UNL A   1      43.359  27.596  25.521  1.00  0.00     0.124 S 
ATOM     69  O   UNL A   1      42.470  27.944  24.415  1.00  0.00    -0.237 OA
ATOM     70  O   UNL A   1      44.088  28.703  26.126  1.00  0.00    -0.237 OA
ATOM     71  O   UNL A   1      44.133  26.371  25.328  1.00  0.00    -0.744 OA
ENDBRANCH  64  68
ENDBRANCH  47  61
BRANCH  48  72
ATOM     72  C   UNL A   1      39.540  33.491  36.934  1.00  0.00     0.023 A 
ATOM     73  C   UNL A   1      38.990  32.932  38.099  1.00  0.00     0.031 A 
ATOM     74  C   UNL A   1      39.862  34.860  36.948  1.00  0.00     0.131 A 
ATOM     75  C   UNL A   1      38.759  33.742  39.221  1.00  0.00     0.055 A 
ATOM     76  C   UNL A   1      39.669  35.652  38.080  1.00  0.00     0.041 A 
ATOM     77  F   UNL A   1      40.398  35.441  35.862  1.00  0.00    -0.206 F 
ATOM     78  C   UNL A   1      39.109  35.095  39.224  1.00  0.00     0.022 A 
BRANCH  75  79
ATOM     79  S   UNL A   1      37.964  33.010  40.678  1.00  0.00     0.124 S 
ATOM     80  O   UNL A   1      36.709  33.749  40.734  1.00  0.00    -0.237 OA
ATOM     81  O   UNL A   1      37.866  31.604  40.298  1.00  0.00    -0.237 OA
ATOM     82  O   UNL A   1      38.906  33.294  41.758  1.00  0.00    -0.744 OA
ENDBRANCH  75  79
ENDBRANCH  48  72
BRANCH  60  83
ATOM     83  C   UNL A   1      44.222  28.561  35.297  1.00  0.00     0.023 A 
ATOM     84  C   UNL A   1      44.061  27.630  36.337  1.00  0.00     0.031 A 
ATOM     85  C   UNL A   1      45.530  28.899  34.905  1.00  0.00     0.131 A 
ATOM     86  C   UNL A   1      45.190  27.088  36.967  1.00  0.00     0.055 A 
ATOM     87  C   UNL A   1      46.649  28.319  35.501  1.00  0.00     0.041 A 
ATOM     88  F   UNL A   1      45.737  29.782  33.914  1.00  0.00    -0.206 F 
ATOM     89  C   UNL A   1      46.483  27.411  36.542  1.00  0.00     0.022 A 
BRANCH  86  90
ATOM     90  S   UNL A   1      44.952  25.976  38.379  1.00  0.00     0.124 S 
ATOM     91  O   UNL A   1      43.660  26.415  38.895  1.00  0.00    -0.237 OA
ATOM     92  O   UNL A   1      44.973  24.659  37.751  1.00  0.00    -0.237 OA
ATOM     93  O   UNL A   1      46.096  26.266  39.242  1.00  0.00    -0.744 OA
ENDBRANCH  86  90
ENDBRANCH  60  83
ENDBRANCH  34  35
ENDBRANCH  26  29
ENDBRANCH  24  25
ENDBRANCH  23  24
ENDBRANCH   1  23
TORSDOF 18
ENDMDL
MODEL 3
REMARK VINA RESULT:     -11.0      2.197      7.948
REMARK SMILES CC(C)[C@H](NS(=O)(=O)c1cccc(F)c1)C(=O)NCCCCNC(=O)c1ccc(-c2c3nc(c(-c4cc(S(=O)(=O)[O-])ccc4F)c4ccc([nH]4)c(-c4cc(S(=O)(=O)[O-])ccc4F)c4nc(c(-c5cc(S(=O)(=O)[O-])ccc5F)c5ccc2[nH]5)C=C4)C=C3)cc1
REMARK SMILES IDX 20 1 19 2 18 3 16 4 17 5 4 7 2 8 1 9 3 10 5 11 6 13 7 14
REMARK SMILES IDX 8 15 9 16 10 17 15 18 11 19 13 20 12 21 14 22 21 23 22 24
REMARK SMILES IDX 23 25 24 26 25 28 26 29 27 30 88 31 28 32 87 33 29 34 30 35
REMARK SMILES IDX 31 36 81 37 32 38 86 39 80 40 82 41 33 42 85 43 79 44 78 45
REMARK SMILES IDX 34 47 66 48 46 49 65 50 47 51 50 52 64 53 83 54 48 55 49 56
REMARK SMILES IDX 63 58 84 59 51 60 35 61 36 62 44 63 37 64 43 65 45 66 42 67
REMARK SMILES IDX 38 68 39 69 40 70 41 71 67 72 68 73 76 74 69 75 75 76 77 77
REMARK SMILES IDX 74 78 70 79 71 80 72 81 73 82 52 83 53 84 61 85 54 86 60 87
REMARK SMILES IDX 62 88 59 89 55 90 56 91 57 92 58 93
REMARK H PARENT 18 6 5 12 23 27 82 46 50 57
REMARK Flexibility Score: inf
ROOT
ATOM      1  C   UNL A   1      35.294  23.352  23.596  1.00  0.00     0.023 C 
ENDROOT
BRANCH   1   2
ATOM      2  C   UNL A   1      34.003  23.457  22.797  1.00  0.00     0.116 C 
BRANCH   2   3
ATOM      3  N   UNL A   1      32.824  23.227  23.606  1.00  0.00    -0.355 N 
ATOM      4  C   UNL A   1      31.969  24.119  24.184  1.00  0.00     0.238 C 
ATOM      5  O   UNL A   1      30.911  23.680  24.640  1.00  0.00    -0.273 OA
ATOM      6  H   UNL A   1      32.607  22.280  23.765  1.00  0.00     0.163 HD
BRANCH   4   7
ATOM      7  C   UNL A   1      32.299  25.616  24.276  1.00  0.00     0.161 C 
BRANCH   7   8
ATOM      8  C   UNL A   1      32.897  26.104  25.632  1.00  0.00     0.010 C 
ATOM      9  C   UNL A   1      34.278  26.759  25.533  1.00  0.00     0.009 C 
ATOM     10  C   UNL A   1      31.982  26.974  26.504  1.00  0.00     0.009 C 
ENDBRANCH   7   8
BRANCH   7  11
ATOM     11  N   UNL A   1      31.154  26.419  23.812  1.00  0.00    -0.198 NA
ATOM     12  H   UNL A   1      30.877  27.005  24.599  1.00  0.00     0.142 HD
BRANCH  11  13
ATOM     13  S   UNL A   1      31.266  27.435  22.493  1.00  0.00     0.241 S 
ATOM     14  O   UNL A   1      32.404  28.285  22.758  1.00  0.00    -0.207 OA
ATOM     15  O   UNL A   1      31.201  26.620  21.299  1.00  0.00    -0.207 OA
BRANCH  13  16
ATOM     16  C   UNL A   1      29.809  28.443  22.555  1.00  0.00     0.085 A 
ATOM     17  C   UNL A   1      28.633  27.943  23.130  1.00  0.00     0.022 A 
ATOM     18  C   UNL A   1      29.879  29.769  22.121  1.00  0.00     0.061 A 
ATOM     19  C   UNL A   1      27.510  28.770  23.232  1.00  0.00     0.004 A 
ATOM     20  C   UNL A   1      28.751  30.572  22.222  1.00  0.00     0.124 A 
ATOM     21  C   UNL A   1      27.569  30.086  22.770  1.00  0.00     0.039 A 
ATOM     22  F   UNL A   1      28.808  31.840  21.797  1.00  0.00    -0.207 F 
ENDBRANCH  13  16
ENDBRANCH  11  13
ENDBRANCH   7  11
ENDBRANCH   4   7
ENDBRANCH   2   3
ENDBRANCH   1   2
BRANCH   1  23
ATOM     23  C   UNL A   1      35.531  21.983  24.236  1.00  0.00     0.023 C 
BRANCH  23  24
ATOM     24  C   UNL A   1      36.405  21.989  25.487  1.00  0.00     0.116 C 
BRANCH  24  25
ATOM     25  N   UNL A   1      37.389  20.917  25.498  1.00  0.00    -0.352 N 
ATOM     26  C   UNL A   1      38.720  20.968  25.841  1.00  0.00     0.251 C 
ATOM     27  H   UNL A   1      37.056  20.032  25.221  1.00  0.00     0.163 HD
ATOM     28  O   UNL A   1      39.439  19.992  25.650  1.00  0.00    -0.269 OA
BRANCH  26  29
ATOM     29  C   UNL A   1      39.277  22.217  26.401  1.00  0.00     0.039 A 
ATOM     30  C   UNL A   1      40.362  22.142  27.276  1.00  0.00     0.014 A 
ATOM     31  C   UNL A   1      38.760  23.459  26.021  1.00  0.00     0.014 A 
ATOM     32  C   UNL A   1      40.985  23.318  27.700  1.00  0.00     0.010 A 
ATOM     33  C   UNL A   1      39.432  24.623  26.380  1.00  0.00     0.010 A 
ATOM     34  C   UNL A   1      40.557  24.565  27.217  1.00  0.00    -0.014 A 
BRANCH  34  35
ATOM     35  C   UNL A   1      41.284  25.816  27.561  1.00  0.00     0.031 A 
ATOM     36  C   UNL A   1      40.617  26.874  28.397  1.00  0.00     0.074 A 
ATOM     37  C   UNL A   1      42.525  26.024  27.072  1.00  0.00     0.049 A 
ATOM     38  N   UNL A   1      41.058  28.059  28.732  1.00  0.00    -0.248 NA
ATOM     39  C   UNL A   1      39.270  26.571  28.907  1.00  0.00     0.031 C 
ATOM     40  C   UNL A   1      43.266  25.087  26.223  1.00  0.00     0.029 A 
ATOM     41  N   UNL A   1      43.383  27.086  27.214  1.00  0.00    -0.354 N 
ATOM     42  C   UNL A   1      40.044  28.645  29.480  1.00  0.00     0.074 A 
ATOM     43  C   UNL A   1      38.943  27.706  29.508  1.00  0.00     0.031 C 
ATOM     44  C   UNL A   1      44.477  25.601  25.952  1.00  0.00     0.029 A 
ATOM     45  C   UNL A   1      44.582  26.925  26.557  1.00  0.00     0.049 A 
ATOM     46  H   UNL A   1      43.161  27.890  27.739  1.00  0.00     0.167 HD
ATOM     47  C   UNL A   1      40.041  29.846  30.105  1.00  0.00     0.034 A 
ATOM     48  C   UNL A   1      45.642  27.750  26.440  1.00  0.00     0.034 A 
ATOM     49  C   UNL A   1      41.151  30.763  30.091  1.00  0.00     0.049 A 
ATOM     50  C   UNL A   1      45.599  29.096  27.115  1.00  0.00     0.074 A 
ATOM     51  C   UNL A   1      41.264  31.979  30.740  1.00  0.00     0.029 A 
ATOM     52  N   UNL A   1      42.336  30.572  29.393  1.00  0.00    -0.354 N 
ATOM     53  N   UNL A   1      44.636  29.624  27.834  1.00  0.00    -0.248 NA
ATOM     54  C   UNL A   1      46.780  29.956  26.965  1.00  0.00     0.031 C 
ATOM     55  C   UNL A   1      42.484  32.558  30.379  1.00  0.00     0.029 A 
ATOM     56  C   UNL A   1      43.169  31.666  29.570  1.00  0.00     0.049 A 
ATOM     57  H   UNL A   1      42.554  29.778  28.854  1.00  0.00     0.167 HD
ATOM     58  C   UNL A   1      45.106  30.869  28.241  1.00  0.00     0.074 A 
ATOM     59  C   UNL A   1      46.439  31.011  27.692  1.00  0.00     0.031 C 
ATOM     60  C   UNL A   1      44.491  31.803  29.007  1.00  0.00     0.034 A 
BRANCH  47  61
ATOM     61  C   UNL A   1      38.796  30.253  30.848  1.00  0.00     0.023 A 
ATOM     62  C   UNL A   1      37.775  30.991  30.227  1.00  0.00     0.031 A 
ATOM     63  C   UNL A   1      38.606  29.849  32.181  1.00  0.00     0.131 A 
ATOM     64  C   UNL A   1      36.620  31.329  30.949  1.00  0.00     0.055 A 
ATOM     65  C   UNL A   1      37.429  30.135  32.875  1.00  0.00     0.041 A 
ATOM     66  F   UNL A   1      39.558  29.159  32.828  1.00  0.00    -0.206 F 
ATOM     67  C   UNL A   1      36.429  30.883  32.259  1.00  0.00     0.022 A 
BRANCH  64  68
ATOM     68  S   UNL A   1      35.394  32.414  30.171  1.00  0.00     0.124 S 
ATOM     69  O   UNL A   1      36.185  33.615  29.915  1.00  0.00    -0.237 OA
ATOM     70  O   UNL A   1      34.995  31.650  28.995  1.00  0.00    -0.237 OA
ATOM     71  O   UNL A   1      34.365  32.560  31.198  1.00  0.00    -0.744 OA
ENDBRANCH  64  68
ENDBRANCH  47  61
BRANCH  48  72
ATOM     72  C   UNL A   1      46.824  27.334  25.634  1.00  0.00     0.023 A 
ATOM     73  C   UNL A   1      46.978  27.748  24.302  1.00  0.00     0.031 A 
ATOM     74  C   UNL A   1      47.824  26.516  26.192  1.00  0.00     0.131 A 
ATOM     75  C   UNL A   1      48.095  27.327  23.565  1.00  0.00     0.055 A 
ATOM     76  C   UNL A   1      48.954  26.134  25.467  1.00  0.00     0.041 A 
ATOM     77  F   UNL A   1      47.727  26.099  27.465  1.00  0.00    -0.206 F 
ATOM     78  C   UNL A   1      49.092  26.536  24.143  1.00  0.00     0.022 A 
BRANCH  75  79
ATOM     79  S   UNL A   1      48.220  27.805  21.819  1.00  0.00     0.124 S 
ATOM     80  O   UNL A   1      46.921  28.422  21.587  1.00  0.00    -0.237 OA
ATOM     81  O   UNL A   1      49.368  28.706  21.831  1.00  0.00    -0.237 OA
ATOM     82  O   UNL A   1      48.440  26.532  21.134  1.00  0.00    -0.744 OA
ENDBRANCH  75  79
ENDBRANCH  48  72
BRANCH  60  83
ATOM     83  C   UNL A   1      45.258  33.059  29.333  1.00  0.00     0.023 A 
ATOM     84  C   UNL A   1      46.109  33.134  30.447  1.00  0.00     0.031 A 
ATOM     85  C   UNL A   1      45.182  34.173  28.477  1.00  0.00     0.131 A 
ATOM     86  C   UNL A   1      46.834  34.309  30.692  1.00  0.00     0.055 A 
ATOM     87  C   UNL A   1      45.943  35.321  28.697  1.00  0.00     0.041 A 
ATOM     88  F   UNL A   1      44.384  34.150  27.397  1.00  0.00    -0.206 F 
ATOM     89  C   UNL A   1      46.771  35.395  29.812  1.00  0.00     0.022 A 
BRANCH  86  90
ATOM     90  S   UNL A   1      47.838  34.419  32.197  1.00  0.00     0.124 S 
ATOM     91  O   UNL A   1      47.035  35.307  33.031  1.00  0.00    -0.237 OA
ATOM     92  O   UNL A   1      47.909  33.028  32.632  1.00  0.00    -0.237 OA
ATOM     93  O   UNL A   1      49.102  34.984  31.727  1.00  0.00    -0.744 OA
ENDBRANCH  86  90
ENDBRANCH  60  83
ENDBRANCH  34  35
ENDBRANCH  26  29
ENDBRANCH  24  25
ENDBRANCH  23  24
ENDBRANCH   1  23
TORSDOF 18
ENDMDL
