MODEL 1
REMARK VINA RESULT:     -11.9      0.000      0.000
REMARK SMILES Cc1cc(C(=O)N[C@H]2C=C[C@@H](C(=O)NCCCCNC(=O)c3ccc(-c4c5nc(c(-c6cc(S(=O)(=O)[O-])ccc6F)c6ccc([nH]6)c(-c6cc(S(=O)(=O)[O-])ccc6F)c6nc(c(-c7cc(S(=O)(=O)[O-])ccc7F)c7ccc4[nH]7)C=C6)C=C5)cc3)C2)no1
REMARK SMILES IDX 17 1 16 2 15 3 14 4 12 5 13 6 11 8 8 9 9 10 85 11 10 12 7 13
REMARK SMILES IDX 5 14 6 15 4 17 1 18 2 19 3 20 87 21 86 22 18 23 19 24 20 25
REMARK SMILES IDX 21 27 22 28 23 29 84 30 24 31 83 32 25 33 26 34 27 35 77 36
REMARK SMILES IDX 28 37 82 38 76 39 78 40 29 41 81 42 75 43 74 44 30 46 62 47
REMARK SMILES IDX 42 48 61 49 43 50 46 51 60 52 79 53 44 54 45 55 59 57 80 58
REMARK SMILES IDX 47 59 31 60 32 61 40 62 33 63 39 64 41 65 38 66 34 67 35 68
REMARK SMILES IDX 36 69 37 70 63 71 64 72 72 73 65 74 71 75 73 76 70 77 66 78
REMARK SMILES IDX 67 79 68 80 69 81 48 82 49 83 57 84 50 85 56 86 58 87 55 88
REMARK SMILES IDX 51 89 52 90 53 91 54 92
REMARK H PARENT 14 7 7 16 19 26 78 45 46 56
REMARK Flexibility Score: inf
ROOT
ATOM      1  C   UNL A   1      33.159  27.878  26.743  1.00  0.00     0.023 C 
ENDROOT
BRANCH   1   2
ATOM      2  C   UNL A   1      31.956  27.473  25.887  1.00  0.00     0.023 C 
BRANCH   2   3
ATOM      3  C   UNL A   1      32.230  26.347  24.895  1.00  0.00     0.116 C 
BRANCH   3   4
ATOM      4  N   UNL A   1      32.843  26.849  23.677  1.00  0.00    -0.356 N 
ATOM      5  C   UNL A   1      33.318  26.200  22.579  1.00  0.00     0.227 C 
ATOM      6  O   UNL A   1      33.806  26.887  21.676  1.00  0.00    -0.274 OA
ATOM      7  H   UNL A   1      32.929  27.829  23.640  1.00  0.00     0.163 HD
BRANCH   5   8
ATOM      8  C   UNL A   1      33.249  24.680  22.422  1.00  0.00     0.103 C 
ATOM      9  C   UNL A   1      33.411  22.678  23.842  1.00  0.00     0.106 C 
ATOM     10  C   UNL A   1      31.994  23.066  23.568  1.00  0.00    -0.006 C 
ATOM     11  C   UNL A   1      34.214  23.878  23.303  1.00  0.00     0.047 C 
ATOM     12  C   UNL A   1      31.903  24.132  22.767  1.00  0.00    -0.016 C 
BRANCH   9  13
ATOM     13  N   UNL A   1      33.645  22.450  25.253  1.00  0.00    -0.344 N 
ATOM     14  C   UNL A   1      33.735  21.275  25.969  1.00  0.00     0.273 C 
ATOM     15  O   UNL A   1      34.031  21.358  27.161  1.00  0.00    -0.267 OA
ATOM     16  H   UNL A   1      33.758  23.269  25.788  1.00  0.00     0.164 HD
BRANCH  14  17
ATOM     17  C   UNL A   1      33.430  20.003  25.314  1.00  0.00     0.171 A 
ATOM     18  C   UNL A   1      33.668  17.060  23.132  1.00  0.00     0.091 C 
ATOM     19  C   UNL A   1      33.463  18.179  24.067  1.00  0.00     0.134 A 
ATOM     20  C   UNL A   1      34.300  19.068  24.691  1.00  0.00     0.082 A 
ATOM     21  O   UNL A   1      32.180  18.470  24.396  1.00  0.00    -0.361 OA
ATOM     22  N   UNL A   1      32.154  19.596  25.193  1.00  0.00    -0.074 NA
ENDBRANCH  14  17
ENDBRANCH   9  13
ENDBRANCH   5   8
ENDBRANCH   3   4
ENDBRANCH   2   3
ENDBRANCH   1   2
BRANCH   1  23
ATOM     23  C   UNL A   1      34.048  28.966  26.148  1.00  0.00     0.116 C 
BRANCH  23  24
ATOM     24  N   UNL A   1      33.782  30.283  26.697  1.00  0.00    -0.352 N 
ATOM     25  C   UNL A   1      34.484  30.983  27.647  1.00  0.00     0.251 C 
ATOM     26  H   UNL A   1      32.986  30.737  26.338  1.00  0.00     0.163 HD
ATOM     27  O   UNL A   1      34.026  32.040  28.075  1.00  0.00    -0.269 OA
BRANCH  25  28
ATOM     28  C   UNL A   1      35.760  30.455  28.177  1.00  0.00     0.039 A 
ATOM     29  C   UNL A   1      35.733  29.713  29.362  1.00  0.00     0.014 A 
ATOM     30  C   UNL A   1      36.976  30.701  27.533  1.00  0.00     0.014 A 
ATOM     31  C   UNL A   1      36.916  29.181  29.875  1.00  0.00     0.010 A 
ATOM     32  C   UNL A   1      38.147  30.120  28.013  1.00  0.00     0.010 A 
ATOM     33  C   UNL A   1      38.130  29.364  29.195  1.00  0.00    -0.014 A 
BRANCH  33  34
ATOM     34  C   UNL A   1      39.390  28.792  29.726  1.00  0.00     0.031 A 
ATOM     35  C   UNL A   1      40.069  29.427  30.907  1.00  0.00     0.074 A 
ATOM     36  C   UNL A   1      39.956  27.741  29.102  1.00  0.00     0.049 A 
ATOM     37  N   UNL A   1      41.186  29.092  31.501  1.00  0.00    -0.248 NA
ATOM     38  C   UNL A   1      39.424  30.622  31.466  1.00  0.00     0.031 C 
ATOM     39  C   UNL A   1      39.436  27.094  27.895  1.00  0.00     0.029 A 
ATOM     40  N   UNL A   1      41.101  27.044  29.387  1.00  0.00    -0.354 N 
ATOM     41  C   UNL A   1      41.391  30.050  32.489  1.00  0.00     0.074 A 
ATOM     42  C   UNL A   1      40.310  31.006  32.372  1.00  0.00     0.031 C 
ATOM     43  C   UNL A   1      40.259  26.090  27.547  1.00  0.00     0.029 A 
ATOM     44  C   UNL A   1      41.364  26.029  28.498  1.00  0.00     0.049 A 
ATOM     45  H   UNL A   1      41.679  27.250  30.156  1.00  0.00     0.167 HD
ATOM     46  C   UNL A   1      42.379  30.115  33.417  1.00  0.00     0.034 A 
ATOM     47  C   UNL A   1      42.380  25.148  28.458  1.00  0.00     0.034 A 
ATOM     48  C   UNL A   1      43.434  29.137  33.533  1.00  0.00     0.049 A 
ATOM     49  C   UNL A   1      43.415  25.179  29.549  1.00  0.00     0.074 A 
ATOM     50  C   UNL A   1      44.440  29.055  34.480  1.00  0.00     0.029 A 
ATOM     51  N   UNL A   1      43.622  28.069  32.664  1.00  0.00    -0.354 N 
ATOM     52  N   UNL A   1      43.552  26.038  30.532  1.00  0.00    -0.248 NA
ATOM     53  C   UNL A   1      44.411  24.100  29.542  1.00  0.00     0.031 C 
ATOM     54  C   UNL A   1      45.260  27.965  34.160  1.00  0.00     0.029 A 
ATOM     55  C   UNL A   1      44.735  27.333  33.043  1.00  0.00     0.049 A 
ATOM     56  H   UNL A   1      43.049  27.864  31.891  1.00  0.00     0.167 HD
ATOM     57  C   UNL A   1      44.643  25.594  31.271  1.00  0.00     0.074 A 
ATOM     58  C   UNL A   1      45.114  24.382  30.630  1.00  0.00     0.031 C 
ATOM     59  C   UNL A   1      45.203  26.138  32.382  1.00  0.00     0.034 A 
BRANCH  46  60
ATOM     60  C   UNL A   1      42.364  31.301  34.352  1.00  0.00     0.023 A 
ATOM     61  C   UNL A   1      41.475  31.372  35.439  1.00  0.00     0.031 A 
ATOM     62  C   UNL A   1      43.198  32.407  34.113  1.00  0.00     0.131 A 
ATOM     63  C   UNL A   1      41.371  32.558  36.182  1.00  0.00     0.055 A 
ATOM     64  C   UNL A   1      43.151  33.552  34.911  1.00  0.00     0.041 A 
ATOM     65  F   UNL A   1      44.056  32.406  33.080  1.00  0.00    -0.206 F 
ATOM     66  C   UNL A   1      42.218  33.640  35.940  1.00  0.00     0.022 A 
BRANCH  63  67
ATOM     67  S   UNL A   1      39.993  32.725  37.351  1.00  0.00     0.124 S 
ATOM     68  O   UNL A   1      39.166  31.573  36.999  1.00  0.00    -0.237 OA
ATOM     69  O   UNL A   1      40.666  32.657  38.644  1.00  0.00    -0.237 OA
ATOM     70  O   UNL A   1      39.413  34.024  37.015  1.00  0.00    -0.744 OA
ENDBRANCH  63  67
ENDBRANCH  46  60
BRANCH  47  71
ATOM     71  C   UNL A   1      42.457  24.155  27.356  1.00  0.00     0.023 A 
ATOM     72  C   UNL A   1      41.697  22.976  27.388  1.00  0.00     0.031 A 
ATOM     73  C   UNL A   1      43.297  24.376  26.252  1.00  0.00     0.131 A 
ATOM     74  C   UNL A   1      41.816  22.043  26.347  1.00  0.00     0.055 A 
ATOM     75  C   UNL A   1      43.388  23.461  25.203  1.00  0.00     0.041 A 
ATOM     76  F   UNL A   1      44.028  25.500  26.170  1.00  0.00    -0.206 F 
ATOM     77  C   UNL A   1      42.649  22.281  25.251  1.00  0.00     0.022 A 
BRANCH  74  78
ATOM     78  S   UNL A   1      40.881  20.494  26.459  1.00  0.00     0.124 S 
ATOM     79  O   UNL A   1      39.566  20.902  25.979  1.00  0.00    -0.237 OA
ATOM     80  O   UNL A   1      41.642  19.615  25.576  1.00  0.00    -0.237 OA
ATOM     81  O   UNL A   1      40.952  20.155  27.879  1.00  0.00    -0.744 OA
ENDBRANCH  74  78
ENDBRANCH  47  71
BRANCH  59  82
ATOM     82  C   UNL A   1      46.370  25.397  32.980  1.00  0.00     0.023 A 
ATOM     83  C   UNL A   1      46.186  24.384  33.936  1.00  0.00     0.031 A 
ATOM     84  C   UNL A   1      47.684  25.731  32.609  1.00  0.00     0.131 A 
ATOM     85  C   UNL A   1      47.301  23.776  34.531  1.00  0.00     0.055 A 
ATOM     86  C   UNL A   1      48.789  25.090  33.170  1.00  0.00     0.041 A 
ATOM     87  F   UNL A   1      47.913  26.694  31.701  1.00  0.00    -0.206 F 
ATOM     88  C   UNL A   1      48.601  24.115  34.147  1.00  0.00     0.022 A 
BRANCH  85  89
ATOM     89  S   UNL A   1      47.032  22.600  35.886  1.00  0.00     0.124 S 
ATOM     90  O   UNL A   1      47.771  23.219  36.982  1.00  0.00    -0.237 OA
ATOM     91  O   UNL A   1      45.578  22.602  36.015  1.00  0.00    -0.237 OA
ATOM     92  O   UNL A   1      47.607  21.355  35.379  1.00  0.00    -0.744 OA
ENDBRANCH  85  89
ENDBRANCH  59  82
ENDBRANCH  33  34
ENDBRANCH  25  28
ENDBRANCH  23  24
ENDBRANCH   1  23
TORSDOF 16
ENDMDL
MODEL 2
REMARK VINA RESULT:     -11.9      1.714      2.240
REMARK SMILES Cc1cc(C(=O)N[C@H]2C=C[C@@H](C(=O)NCCCCNC(=O)c3ccc(-c4c5nc(c(-c6cc(S(=O)(=O)[O-])ccc6F)c6ccc([nH]6)c(-c6cc(S(=O)(=O)[O-])ccc6F)c6nc(c(-c7cc(S(=O)(=O)[O-])ccc7F)c7ccc4[nH]7)C=C6)C=C5)cc3)C2)no1
REMARK SMILES IDX 17 1 16 2 15 3 14 4 12 5 13 6 11 8 8 9 9 10 85 11 10 12 7 13
REMARK SMILES IDX 5 14 6 15 4 17 1 18 2 19 3 20 87 21 86 22 18 23 19 24 20 25
REMARK SMILES IDX 21 27 22 28 23 29 84 30 24 31 83 32 25 33 26 34 27 35 77 36
REMARK SMILES IDX 28 37 82 38 76 39 78 40 29 41 81 42 75 43 74 44 30 46 62 47
REMARK SMILES IDX 42 48 61 49 43 50 46 51 60 52 79 53 44 54 45 55 59 57 80 58
REMARK SMILES IDX 47 59 31 60 32 61 40 62 33 63 39 64 41 65 38 66 34 67 35 68
REMARK SMILES IDX 36 69 37 70 63 71 64 72 72 73 65 74 71 75 73 76 70 77 66 78
REMARK SMILES IDX 67 79 68 80 69 81 48 82 49 83 57 84 50 85 56 86 58 87 55 88
REMARK SMILES IDX 51 89 52 90 53 91 54 92
REMARK H PARENT 14 7 7 16 19 26 78 45 46 56
REMARK Flexibility Score: inf
ROOT
ATOM      1  C   UNL A   1      33.944  28.219  25.282  1.00  0.00     0.023 C 
ENDROOT
BRANCH   1   2
ATOM      2  C   UNL A   1      33.677  29.281  24.212  1.00  0.00     0.023 C 
BRANCH   2   3
ATOM      3  C   UNL A   1      33.265  28.725  22.852  1.00  0.00     0.116 C 
BRANCH   3   4
ATOM      4  N   UNL A   1      32.120  29.438  22.312  1.00  0.00    -0.356 N 
ATOM      5  C   UNL A   1      30.819  29.066  22.169  1.00  0.00     0.227 C 
ATOM      6  O   UNL A   1      30.044  29.882  21.659  1.00  0.00    -0.274 OA
ATOM      7  H   UNL A   1      32.320  30.348  21.994  1.00  0.00     0.163 HD
BRANCH   5   8
ATOM      8  C   UNL A   1      30.291  27.705  22.629  1.00  0.00     0.103 C 
ATOM      9  C   UNL A   1      31.194  25.557  23.415  1.00  0.00     0.106 C 
ATOM     10  C   UNL A   1      30.761  26.437  24.543  1.00  0.00    -0.006 C 
ATOM     11  C   UNL A   1      31.119  26.492  22.192  1.00  0.00     0.047 C 
ATOM     12  C   UNL A   1      30.236  27.590  24.118  1.00  0.00    -0.016 C 
BRANCH   9  13
ATOM     13  N   UNL A   1      32.527  25.031  23.622  1.00  0.00    -0.344 N 
ATOM     14  C   UNL A   1      32.997  24.113  24.538  1.00  0.00     0.273 C 
ATOM     15  O   UNL A   1      34.175  23.768  24.443  1.00  0.00    -0.267 OA
ATOM     16  H   UNL A   1      33.210  25.387  23.009  1.00  0.00     0.164 HD
BRANCH  14  17
ATOM     17  C   UNL A   1      32.112  23.630  25.599  1.00  0.00     0.171 A 
ATOM     18  C   UNL A   1      29.127  22.456  27.384  1.00  0.00     0.091 C 
ATOM     19  C   UNL A   1      30.396  22.898  26.784  1.00  0.00     0.134 A 
ATOM     20  C   UNL A   1      30.907  22.883  25.511  1.00  0.00     0.082 A 
ATOM     21  O   UNL A   1      31.289  23.492  27.614  1.00  0.00    -0.361 OA
ATOM     22  N   UNL A   1      32.373  23.933  26.883  1.00  0.00    -0.074 NA
ENDBRANCH  14  17
ENDBRANCH   9  13
ENDBRANCH   5   8
ENDBRANCH   3   4
ENDBRANCH   2   3
ENDBRANCH   1   2
BRANCH   1  23
ATOM     23  C   UNL A   1      33.478  28.579  26.691  1.00  0.00     0.116 C 
BRANCH  23  24
ATOM     24  N   UNL A   1      33.426  30.011  26.924  1.00  0.00    -0.352 N 
ATOM     25  C   UNL A   1      34.308  30.810  27.608  1.00  0.00     0.251 C 
ATOM     26  H   UNL A   1      32.647  30.473  26.538  1.00  0.00     0.163 HD
ATOM     27  O   UNL A   1      34.024  31.989  27.805  1.00  0.00    -0.269 OA
BRANCH  25  28
ATOM     28  C   UNL A   1      35.573  30.250  28.134  1.00  0.00     0.039 A 
ATOM     29  C   UNL A   1      36.708  30.291  27.319  1.00  0.00     0.014 A 
ATOM     30  C   UNL A   1      35.642  29.671  29.404  1.00  0.00     0.014 A 
ATOM     31  C   UNL A   1      37.922  29.793  27.795  1.00  0.00     0.010 A 
ATOM     32  C   UNL A   1      36.866  29.228  29.900  1.00  0.00     0.010 A 
ATOM     33  C   UNL A   1      38.015  29.275  29.095  1.00  0.00    -0.014 A 
BRANCH  33  34
ATOM     34  C   UNL A   1      39.303  28.755  29.614  1.00  0.00     0.031 A 
ATOM     35  C   UNL A   1      39.983  29.437  30.768  1.00  0.00     0.074 A 
ATOM     36  C   UNL A   1      39.891  27.709  29.002  1.00  0.00     0.049 A 
ATOM     37  N   UNL A   1      41.121  29.152  31.347  1.00  0.00    -0.248 NA
ATOM     38  C   UNL A   1      39.310  30.624  31.314  1.00  0.00     0.031 C 
ATOM     39  C   UNL A   1      39.370  27.019  27.819  1.00  0.00     0.029 A 
ATOM     40  N   UNL A   1      41.063  27.055  29.280  1.00  0.00    -0.354 N 
ATOM     41  C   UNL A   1      41.313  30.138  32.310  1.00  0.00     0.074 A 
ATOM     42  C   UNL A   1      40.199  31.056  32.193  1.00  0.00     0.031 C 
ATOM     43  C   UNL A   1      40.218  26.035  27.478  1.00  0.00     0.029 A 
ATOM     44  C   UNL A   1      41.342  26.031  28.409  1.00  0.00     0.049 A 
ATOM     45  H   UNL A   1      41.649  27.297  30.033  1.00  0.00     0.167 HD
ATOM     46  C   UNL A   1      42.315  30.255  33.217  1.00  0.00     0.034 A 
ATOM     47  C   UNL A   1      42.386  25.182  28.368  1.00  0.00     0.034 A 
ATOM     48  C   UNL A   1      43.404  29.315  33.334  1.00  0.00     0.049 A 
ATOM     49  C   UNL A   1      43.439  25.270  29.437  1.00  0.00     0.074 A 
ATOM     50  C   UNL A   1      44.429  29.286  34.263  1.00  0.00     0.029 A 
ATOM     51  N   UNL A   1      43.610  28.234  32.485  1.00  0.00    -0.354 N 
ATOM     52  N   UNL A   1      43.567  26.155  30.399  1.00  0.00    -0.248 NA
ATOM     53  C   UNL A   1      44.470  24.224  29.435  1.00  0.00     0.031 C 
ATOM     54  C   UNL A   1      45.278  28.216  33.950  1.00  0.00     0.029 A 
ATOM     55  C   UNL A   1      44.753  27.543  32.858  1.00  0.00     0.049 A 
ATOM     56  H   UNL A   1      43.030  27.993  31.727  1.00  0.00     0.167 HD
ATOM     57  C   UNL A   1      44.685  25.763  31.126  1.00  0.00     0.074 A 
ATOM     58  C   UNL A   1      45.183  24.553  30.502  1.00  0.00     0.031 C 
ATOM     59  C   UNL A   1      45.248  26.349  32.214  1.00  0.00     0.034 A 
BRANCH  46  60
ATOM     60  C   UNL A   1      42.279  31.461  34.127  1.00  0.00     0.023 A 
ATOM     61  C   UNL A   1      41.505  31.477  35.301  1.00  0.00     0.031 A 
ATOM     62  C   UNL A   1      42.970  32.634  33.780  1.00  0.00     0.131 A 
ATOM     63  C   UNL A   1      41.360  32.667  36.028  1.00  0.00     0.055 A 
ATOM     64  C   UNL A   1      42.892  33.792  34.558  1.00  0.00     0.041 A 
ATOM     65  F   UNL A   1      43.712  32.687  32.662  1.00  0.00    -0.206 F 
ATOM     66  C   UNL A   1      42.066  33.819  35.678  1.00  0.00     0.022 A 
BRANCH  63  67
ATOM     67  S   UNL A   1      40.101  32.733  37.333  1.00  0.00     0.124 S 
ATOM     68  O   UNL A   1      40.905  32.504  38.531  1.00  0.00    -0.237 OA
ATOM     69  O   UNL A   1      39.555  34.077  37.176  1.00  0.00    -0.237 OA
ATOM     70  O   UNL A   1      39.190  31.644  36.986  1.00  0.00    -0.744 OA
ENDBRANCH  63  67
ENDBRANCH  46  60
BRANCH  47  71
ATOM     71  C   UNL A   1      42.474  24.167  27.286  1.00  0.00     0.023 A 
ATOM     72  C   UNL A   1      41.713  22.990  27.332  1.00  0.00     0.031 A 
ATOM     73  C   UNL A   1      43.327  24.367  26.187  1.00  0.00     0.131 A 
ATOM     74  C   UNL A   1      41.843  22.037  26.311  1.00  0.00     0.055 A 
ATOM     75  C   UNL A   1      43.429  23.431  25.158  1.00  0.00     0.041 A 
ATOM     76  F   UNL A   1      44.059  25.489  26.092  1.00  0.00    -0.206 F 
ATOM     77  C   UNL A   1      42.689  22.253  25.220  1.00  0.00     0.022 A 
BRANCH  74  78
ATOM     78  S   UNL A   1      40.906  20.490  26.443  1.00  0.00     0.124 S 
ATOM     79  O   UNL A   1      39.595  20.891  25.946  1.00  0.00    -0.237 OA
ATOM     80  O   UNL A   1      41.673  19.596  25.580  1.00  0.00    -0.237 OA
ATOM     81  O   UNL A   1      40.966  20.176  27.869  1.00  0.00    -0.744 OA
ENDBRANCH  74  78
ENDBRANCH  47  71
BRANCH  59  82
ATOM     82  C   UNL A   1      46.449  25.659  32.806  1.00  0.00     0.023 A 
ATOM     83  C   UNL A   1      46.316  24.669  33.793  1.00  0.00     0.031 A 
ATOM     84  C   UNL A   1      47.744  26.021  32.395  1.00  0.00     0.131 A 
ATOM     85  C   UNL A   1      47.462  24.110  34.379  1.00  0.00     0.055 A 
ATOM     86  C   UNL A   1      48.879  25.428  32.948  1.00  0.00     0.041 A 
ATOM     87  F   UNL A   1      47.924  26.964  31.456  1.00  0.00    -0.206 F 
ATOM     88  C   UNL A   1      48.742  24.476  33.955  1.00  0.00     0.022 A 
BRANCH  85  89
ATOM     89  S   UNL A   1      47.258  22.965  35.771  1.00  0.00     0.124 S 
ATOM     90  O   UNL A   1      48.168  23.526  36.765  1.00  0.00    -0.237 OA
ATOM     91  O   UNL A   1      45.834  23.089  36.069  1.00  0.00    -0.237 OA
ATOM     92  O   UNL A   1      47.665  21.676  35.218  1.00  0.00    -0.744 OA
ENDBRANCH  85  89
ENDBRANCH  59  82
ENDBRANCH  33  34
ENDBRANCH  25  28
ENDBRANCH  23  24
ENDBRANCH   1  23
TORSDOF 16
ENDMDL
MODEL 3
REMARK VINA RESULT:     -11.8      1.761      2.327
REMARK SMILES Cc1cc(C(=O)N[C@H]2C=C[C@@H](C(=O)NCCCCNC(=O)c3ccc(-c4c5nc(c(-c6cc(S(=O)(=O)[O-])ccc6F)c6ccc([nH]6)c(-c6cc(S(=O)(=O)[O-])ccc6F)c6nc(c(-c7cc(S(=O)(=O)[O-])ccc7F)c7ccc4[nH]7)C=C6)C=C5)cc3)C2)no1
REMARK SMILES IDX 17 1 16 2 15 3 14 4 12 5 13 6 11 8 8 9 9 10 85 11 10 12 7 13
REMARK SMILES IDX 5 14 6 15 4 17 1 18 2 19 3 20 87 21 86 22 18 23 19 24 20 25
REMARK SMILES IDX 21 27 22 28 23 29 84 30 24 31 83 32 25 33 26 34 27 35 77 36
REMARK SMILES IDX 28 37 82 38 76 39 78 40 29 41 81 42 75 43 74 44 30 46 62 47
REMARK SMILES IDX 42 48 61 49 43 50 46 51 60 52 79 53 44 54 45 55 59 57 80 58
REMARK SMILES IDX 47 59 31 60 32 61 40 62 33 63 39 64 41 65 38 66 34 67 35 68
REMARK SMILES IDX 36 69 37 70 63 71 64 72 72 73 65 74 71 75 73 76 70 77 66 78
REMARK SMILES IDX 67 79 68 80 69 81 48 82 49 83 57 84 50 85 56 86 58 87 55 88
REMARK SMILES IDX 51 89 52 90 53 91 54 92
REMARK H PARENT 14 7 7 16 19 26 78 45 46 56
REMARK Flexibility Score: inf
ROOT
ATOM      1  C   UNL A   1      33.938  28.238  26.060  1.00  0.00     0.023 C 
ENDROOT
BRANCH   1   2
ATOM      2  C   UNL A   1      33.241  26.970  25.559  1.00  0.00     0.023 C 
BRANCH   2   3
ATOM      3  C   UNL A   1      34.177  25.804  25.257  1.00  0.00     0.116 C 
BRANCH   3   4
ATOM      4  N   UNL A   1      34.016  25.332  23.894  1.00  0.00    -0.356 N 
ATOM      5  C   UNL A   1      33.595  24.134  23.404  1.00  0.00     0.227 C 
ATOM      6  O   UNL A   1      33.562  23.998  22.176  1.00  0.00    -0.274 OA
ATOM      7  H   UNL A   1      34.251  25.993  23.203  1.00  0.00     0.163 HD
BRANCH   5   8
ATOM      8  C   UNL A   1      33.150  22.980  24.306  1.00  0.00     0.103 C 
ATOM      9  C   UNL A   1      32.401  20.650  24.070  1.00  0.00     0.106 C 
ATOM     10  C   UNL A   1      33.853  20.747  24.412  1.00  0.00    -0.006 C 
ATOM     11  C   UNL A   1      32.016  22.109  23.756  1.00  0.00     0.047 C 
ATOM     12  C   UNL A   1      34.254  22.011  24.576  1.00  0.00    -0.016 C 
BRANCH   9  13
ATOM     13  N   UNL A   1      32.170  19.766  22.946  1.00  0.00    -0.344 N 
ATOM     14  C   UNL A   1      32.435  18.422  22.792  1.00  0.00     0.273 C 
ATOM     15  O   UNL A   1      32.055  17.883  21.752  1.00  0.00    -0.267 OA
ATOM     16  H   UNL A   1      31.755  20.196  22.164  1.00  0.00     0.164 HD
BRANCH  14  17
ATOM     17  C   UNL A   1      33.190  17.710  23.824  1.00  0.00     0.171 A 
ATOM     18  C   UNL A   1      35.715  15.621  25.478  1.00  0.00     0.091 C 
ATOM     19  C   UNL A   1      34.657  16.492  24.942  1.00  0.00     0.134 A 
ATOM     20  C   UNL A   1      34.548  17.291  23.832  1.00  0.00     0.082 A 
ATOM     21  O   UNL A   1      33.490  16.530  25.633  1.00  0.00    -0.361 OA
ATOM     22  N   UNL A   1      32.577  17.307  24.950  1.00  0.00    -0.074 NA
ENDBRANCH  14  17
ENDBRANCH   9  13
ENDBRANCH   5   8
ENDBRANCH   3   4
ENDBRANCH   2   3
ENDBRANCH   1   2
BRANCH   1  23
ATOM     23  C   UNL A   1      33.401  28.805  27.371  1.00  0.00     0.116 C 
BRANCH  23  24
ATOM     24  N   UNL A   1      33.456  30.254  27.428  1.00  0.00    -0.352 N 
ATOM     25  C   UNL A   1      34.443  31.065  27.935  1.00  0.00     0.251 C 
ATOM     26  H   UNL A   1      32.676  30.722  27.052  1.00  0.00     0.163 HD
ATOM     27  O   UNL A   1      34.248  32.276  28.006  1.00  0.00    -0.269 OA
BRANCH  25  28
ATOM     28  C   UNL A   1      35.712  30.483  28.423  1.00  0.00     0.039 A 
ATOM     29  C   UNL A   1      36.859  30.636  27.639  1.00  0.00     0.014 A 
ATOM     30  C   UNL A   1      35.775  29.775  29.627  1.00  0.00     0.014 A 
ATOM     31  C   UNL A   1      38.077  30.120  28.083  1.00  0.00     0.010 A 
ATOM     32  C   UNL A   1      37.002  29.312  30.097  1.00  0.00     0.010 A 
ATOM     33  C   UNL A   1      38.162  29.470  29.324  1.00  0.00    -0.014 A 
BRANCH  33  34
ATOM     34  C   UNL A   1      39.455  28.930  29.810  1.00  0.00     0.031 A 
ATOM     35  C   UNL A   1      40.170  29.595  30.953  1.00  0.00     0.074 A 
ATOM     36  C   UNL A   1      40.014  27.881  29.179  1.00  0.00     0.049 A 
ATOM     37  N   UNL A   1      41.316  29.291  31.504  1.00  0.00    -0.248 NA
ATOM     38  C   UNL A   1      39.525  30.787  31.521  1.00  0.00     0.031 C 
ATOM     39  C   UNL A   1      39.458  27.206  28.003  1.00  0.00     0.029 A 
ATOM     40  N   UNL A   1      41.183  27.209  29.425  1.00  0.00    -0.354 N 
ATOM     41  C   UNL A   1      41.544  30.267  32.469  1.00  0.00     0.074 A 
ATOM     42  C   UNL A   1      40.440  31.201  32.383  1.00  0.00     0.031 C 
ATOM     43  C   UNL A   1      40.284  26.213  27.636  1.00  0.00     0.029 A 
ATOM     44  C   UNL A   1      41.429  26.187  28.541  1.00  0.00     0.049 A 
ATOM     45  H   UNL A   1      41.789  27.438  30.167  1.00  0.00     0.167 HD
ATOM     46  C   UNL A   1      42.567  30.365  33.354  1.00  0.00     0.034 A 
ATOM     47  C   UNL A   1      42.460  25.324  28.472  1.00  0.00     0.034 A 
ATOM     48  C   UNL A   1      43.646  29.410  33.440  1.00  0.00     0.049 A 
ATOM     49  C   UNL A   1      43.538  25.391  29.517  1.00  0.00     0.074 A 
ATOM     50  C   UNL A   1      44.691  29.361  34.345  1.00  0.00     0.029 A 
ATOM     51  N   UNL A   1      43.818  28.332  32.579  1.00  0.00    -0.354 N 
ATOM     52  N   UNL A   1      43.699  26.268  30.481  1.00  0.00    -0.248 NA
ATOM     53  C   UNL A   1      44.554  24.332  29.484  1.00  0.00     0.031 C 
ATOM     54  C   UNL A   1      45.518  28.282  34.006  1.00  0.00     0.029 A 
ATOM     55  C   UNL A   1      44.960  27.623  32.922  1.00  0.00     0.049 A 
ATOM     56  H   UNL A   1      43.217  28.104  31.833  1.00  0.00     0.167 HD
ATOM     57  C   UNL A   1      44.829  25.856  31.181  1.00  0.00     0.074 A 
ATOM     58  C   UNL A   1      45.295  24.644  30.538  1.00  0.00     0.031 C 
ATOM     59  C   UNL A   1      45.424  26.427  32.259  1.00  0.00     0.034 A 
BRANCH  46  60
ATOM     60  C   UNL A   1      42.568  31.565  34.271  1.00  0.00     0.023 A 
ATOM     61  C   UNL A   1      41.980  31.518  35.548  1.00  0.00     0.031 A 
ATOM     62  C   UNL A   1      43.100  32.792  33.838  1.00  0.00     0.131 A 
ATOM     63  C   UNL A   1      41.848  32.694  36.302  1.00  0.00     0.055 A 
ATOM     64  C   UNL A   1      43.043  33.940  34.632  1.00  0.00     0.041 A 
ATOM     65  F   UNL A   1      43.659  32.905  32.623  1.00  0.00    -0.206 F 
ATOM     66  C   UNL A   1      42.396  33.900  35.863  1.00  0.00     0.022 A 
BRANCH  63  67
ATOM     67  S   UNL A   1      40.798  32.656  37.781  1.00  0.00     0.124 S 
ATOM     68  O   UNL A   1      41.630  31.902  38.715  1.00  0.00    -0.237 OA
ATOM     69  O   UNL A   1      40.623  34.073  38.079  1.00  0.00    -0.237 OA
ATOM     70  O   UNL A   1      39.595  31.959  37.330  1.00  0.00    -0.744 OA
ENDBRANCH  63  67
ENDBRANCH  46  60
BRANCH  47  71
ATOM     71  C   UNL A   1      42.510  24.316  27.381  1.00  0.00     0.023 A 
ATOM     72  C   UNL A   1      41.724  23.155  27.431  1.00  0.00     0.031 A 
ATOM     73  C   UNL A   1      43.350  24.505  26.271  1.00  0.00     0.131 A 
ATOM     74  C   UNL A   1      41.818  22.207  26.401  1.00  0.00     0.055 A 
ATOM     75  C   UNL A   1      43.416  23.575  25.234  1.00  0.00     0.041 A 
ATOM     76  F   UNL A   1      44.105  25.612  26.173  1.00  0.00    -0.206 F 
ATOM     77  C   UNL A   1      42.652  22.413  25.299  1.00  0.00     0.022 A 
BRANCH  74  78
ATOM     78  S   UNL A   1      40.849  20.680  26.536  1.00  0.00     0.124 S 
ATOM     79  O   UNL A   1      41.626  19.759  25.715  1.00  0.00    -0.237 OA
ATOM     80  O   UNL A   1      40.872  20.432  27.974  1.00  0.00    -0.237 OA
ATOM     81  O   UNL A   1      39.545  21.055  25.994  1.00  0.00    -0.744 OA
ENDBRANCH  74  78
ENDBRANCH  47  71
BRANCH  59  82
ATOM     82  C   UNL A   1      46.628  25.718  32.819  1.00  0.00     0.023 A 
ATOM     83  C   UNL A   1      47.917  25.940  32.305  1.00  0.00     0.031 A 
ATOM     84  C   UNL A   1      46.478  24.786  33.861  1.00  0.00     0.131 A 
ATOM     85  C   UNL A   1      49.001  25.197  32.798  1.00  0.00     0.055 A 
ATOM     86  C   UNL A   1      47.568  24.085  34.379  1.00  0.00     0.041 A 
ATOM     87  F   UNL A   1      45.267  24.537  34.385  1.00  0.00    -0.206 F 
ATOM     88  C   UNL A   1      48.836  24.279  33.838  1.00  0.00     0.022 A 
BRANCH  85  89
ATOM     89  S   UNL A   1      50.617  25.379  31.994  1.00  0.00     0.124 S 
ATOM     90  O   UNL A   1      50.627  26.796  31.642  1.00  0.00    -0.237 OA
ATOM     91  O   UNL A   1      51.537  24.979  33.054  1.00  0.00    -0.237 OA
ATOM     92  O   UNL A   1      50.542  24.461  30.860  1.00  0.00    -0.744 OA
ENDBRANCH  85  89
ENDBRANCH  59  82
ENDBRANCH  33  34
ENDBRANCH  25  28
ENDBRANCH  23  24
ENDBRANCH   1  23
TORSDOF 16
ENDMDL
