MODEL 1
REMARK VINA RESULT:     -13.7      0.000      0.000
REMARK SMILES Cc1[nH]c2ccccc2c1[C@H](C(=O)NCCCCNC(=O)c1ccc(-c2c3nc(c(-c4cc(S(=O)(=O)[O-])ccc4F)c4ccc([nH]4)c(-c4cc(S(=O)(=O)[O-])ccc4F)c4nc(c(-c5cc(S(=O)(=O)[O-])ccc5F)c5ccc2[nH]5)C=C4)C=C3)cc1)[NH+]1CCN(C(=O)c2ccco2)CC1
REMARK SMILES IDX 17 1 16 2 15 3 14 4 12 5 13 6 11 8 10 9 1 10 2 11 3 12 4 13
REMARK SMILES IDX 9 15 5 16 8 17 6 18 7 19 85 20 86 21 97 22 87 24 96 25 88 26
REMARK SMILES IDX 89 27 90 28 91 29 92 30 95 31 93 32 94 33 18 34 19 35 20 36
REMARK SMILES IDX 21 38 22 39 23 40 84 41 24 42 83 43 25 44 26 45 27 46 77 47
REMARK SMILES IDX 28 48 82 49 76 50 78 51 29 52 81 53 75 54 74 55 30 57 62 58
REMARK SMILES IDX 42 59 61 60 43 61 46 62 60 63 79 64 44 65 45 66 59 68 80 69
REMARK SMILES IDX 47 70 31 71 32 72 40 73 33 74 39 75 41 76 38 77 34 78 35 79
REMARK SMILES IDX 36 80 37 81 63 82 64 83 72 84 65 85 71 86 73 87 70 88 66 89
REMARK SMILES IDX 67 90 68 91 69 92 48 93 49 94 57 95 50 96 56 97 58 98 55 99
REMARK SMILES IDX 51 100 52 101 53 102 54 103
REMARK H PARENT 14 7 3 14 85 23 19 37 78 56 46 67
REMARK Flexibility Score: inf
ROOT
ATOM      1  C   UNL A   1      33.149  30.577  26.662  1.00  0.00     0.023 C 
ENDROOT
BRANCH   1   2
ATOM      2  C   UNL A   1      32.304  29.460  27.250  1.00  0.00     0.023 C 
BRANCH   2   3
ATOM      3  C   UNL A   1      32.776  28.071  26.846  1.00  0.00     0.116 C 
BRANCH   3   4
ATOM      4  N   UNL A   1      31.727  27.076  26.953  1.00  0.00    -0.351 N 
ATOM      5  C   UNL A   1      31.240  26.217  26.003  1.00  0.00     0.283 C 
ATOM      6  O   UNL A   1      30.344  25.440  26.355  1.00  0.00    -0.268 OA
ATOM      7  H   UNL A   1      31.302  27.008  27.838  1.00  0.00     0.163 HD
BRANCH   5   8
ATOM      8  C   UNL A   1      31.785  26.182  24.546  1.00  0.00     0.308 C 
BRANCH   8   9
ATOM      9  C   UNL A   1      31.549  27.504  23.810  1.00  0.00     0.047 A 
ATOM     10  C   UNL A   1      34.056  28.245  23.488  1.00  0.00     0.065 C 
ATOM     11  C   UNL A   1      32.574  28.328  23.335  1.00  0.00     0.022 A 
ATOM     12  N   UNL A   1      32.013  29.278  22.522  1.00  0.00    -0.358 N 
ATOM     13  C   UNL A   1      30.648  29.169  22.525  1.00  0.00     0.046 A 
ATOM     14  H   UNL A   1      32.521  29.946  22.007  1.00  0.00     0.166 HD
ATOM     15  C   UNL A   1      30.316  28.135  23.403  1.00  0.00     0.009 A 
ATOM     16  C   UNL A   1      29.696  29.903  21.806  1.00  0.00     0.027 A 
ATOM     17  C   UNL A   1      28.943  27.890  23.628  1.00  0.00     0.011 A 
ATOM     18  C   UNL A   1      28.349  29.613  22.029  1.00  0.00     0.002 A 
ATOM     19  C   UNL A   1      27.975  28.637  22.945  1.00  0.00     0.001 A 
ENDBRANCH   8   9
BRANCH   8  20
ATOM     20  N   UNL A   1      33.162  25.622  24.411  1.00  0.00    -0.318 N 
ATOM     21  C   UNL A   1      33.937  25.336  25.631  1.00  0.00     0.285 C 
ATOM     22  C   UNL A   1      33.220  24.429  23.546  1.00  0.00     0.285 C 
ATOM     23  H   UNL A   1      33.621  26.428  23.984  1.00  0.00     0.349 HD
ATOM     24  C   UNL A   1      33.615  24.023  26.376  1.00  0.00     0.181 C 
ATOM     25  C   UNL A   1      32.817  23.097  24.205  1.00  0.00     0.181 C 
ATOM     26  N   UNL A   1      33.458  22.861  25.503  1.00  0.00    -0.325 N 
ATOM     27  C   UNL A   1      33.417  21.610  26.148  1.00  0.00     0.289 C 
ATOM     28  O   UNL A   1      33.474  21.538  27.375  1.00  0.00    -0.265 OA
BRANCH  27  29
ATOM     29  C   UNL A   1      33.350  20.420  25.320  1.00  0.00     0.191 A 
ATOM     30  C   UNL A   1      34.331  19.626  24.751  1.00  0.00     0.056 A 
ATOM     31  O   UNL A   1      32.123  19.868  25.065  1.00  0.00    -0.459 OA
ATOM     32  C   UNL A   1      33.669  18.558  24.100  1.00  0.00     0.043 A 
ATOM     33  C   UNL A   1      32.326  18.752  24.320  1.00  0.00     0.196 A 
ENDBRANCH  27  29
ENDBRANCH   8  20
ENDBRANCH   5   8
ENDBRANCH   3   4
ENDBRANCH   2   3
ENDBRANCH   1   2
BRANCH   1  34
ATOM     34  C   UNL A   1      33.649  31.580  27.690  1.00  0.00     0.116 C 
BRANCH  34  35
ATOM     35  N   UNL A   1      33.020  32.893  27.568  1.00  0.00    -0.352 N 
ATOM     36  C   UNL A   1      33.261  34.008  28.343  1.00  0.00     0.251 C 
ATOM     37  H   UNL A   1      32.349  32.994  26.853  1.00  0.00     0.163 HD
ATOM     38  O   UNL A   1      32.606  35.030  28.232  1.00  0.00    -0.269 OA
BRANCH  36  39
ATOM     39  C   UNL A   1      34.337  33.879  29.341  1.00  0.00     0.039 A 
ATOM     40  C   UNL A   1      34.112  33.109  30.481  1.00  0.00     0.014 A 
ATOM     41  C   UNL A   1      35.620  34.291  28.974  1.00  0.00     0.014 A 
ATOM     42  C   UNL A   1      35.208  32.671  31.224  1.00  0.00     0.010 A 
ATOM     43  C   UNL A   1      36.706  33.768  29.656  1.00  0.00     0.010 A 
ATOM     44  C   UNL A   1      36.513  32.949  30.783  1.00  0.00    -0.014 A 
BRANCH  44  45
ATOM     45  C   UNL A   1      37.707  32.413  31.483  1.00  0.00     0.031 A 
ATOM     46  C   UNL A   1      38.483  31.300  30.835  1.00  0.00     0.074 A 
ATOM     47  C   UNL A   1      38.022  32.841  32.722  1.00  0.00     0.049 A 
ATOM     48  N   UNL A   1      39.440  30.560  31.327  1.00  0.00    -0.248 NA
ATOM     49  C   UNL A   1      38.078  30.931  29.469  1.00  0.00     0.031 C 
ATOM     50  C   UNL A   1      37.302  33.873  33.476  1.00  0.00     0.029 A 
ATOM     51  N   UNL A   1      39.021  32.448  33.578  1.00  0.00    -0.354 N 
ATOM     52  C   UNL A   1      39.719  29.612  30.348  1.00  0.00     0.074 A 
ATOM     53  C   UNL A   1      38.781  29.829  29.270  1.00  0.00     0.031 C 
ATOM     54  C   UNL A   1      37.899  34.046  34.667  1.00  0.00     0.029 A 
ATOM     55  C   UNL A   1      39.012  33.110  34.785  1.00  0.00     0.049 A 
ATOM     56  H   UNL A   1      39.682  31.756  33.348  1.00  0.00     0.167 HD
ATOM     57  C   UNL A   1      40.692  28.668  30.338  1.00  0.00     0.034 A 
ATOM     58  C   UNL A   1      39.805  32.963  35.865  1.00  0.00     0.034 A 
ATOM     59  C   UNL A   1      41.651  28.511  31.399  1.00  0.00     0.049 A 
ATOM     60  C   UNL A   1      40.898  31.925  35.822  1.00  0.00     0.074 A 
ATOM     61  C   UNL A   1      42.741  27.661  31.459  1.00  0.00     0.029 A 
ATOM     62  N   UNL A   1      41.635  29.224  32.591  1.00  0.00    -0.354 N 
ATOM     63  N   UNL A   1      41.193  31.078  34.862  1.00  0.00    -0.248 NA
ATOM     64  C   UNL A   1      41.767  31.824  37.002  1.00  0.00     0.031 C 
ATOM     65  C   UNL A   1      43.352  27.825  32.706  1.00  0.00     0.029 A 
ATOM     66  C   UNL A   1      42.681  28.817  33.403  1.00  0.00     0.049 A 
ATOM     67  H   UNL A   1      40.976  29.918  32.824  1.00  0.00     0.167 HD
ATOM     68  C   UNL A   1      42.293  30.357  35.317  1.00  0.00     0.074 A 
ATOM     69  C   UNL A   1      42.619  30.882  36.627  1.00  0.00     0.031 C 
ATOM     70  C   UNL A   1      42.975  29.353  34.710  1.00  0.00     0.034 A 
BRANCH  57  71
ATOM     71  C   UNL A   1      40.744  27.744  29.147  1.00  0.00     0.023 A 
ATOM     72  C   UNL A   1      41.677  27.927  28.111  1.00  0.00     0.031 A 
ATOM     73  C   UNL A   1      39.813  26.699  29.016  1.00  0.00     0.131 A 
ATOM     74  C   UNL A   1      41.597  27.144  26.950  1.00  0.00     0.055 A 
ATOM     75  C   UNL A   1      39.795  25.865  27.895  1.00  0.00     0.041 A 
ATOM     76  F   UNL A   1      38.885  26.486  29.962  1.00  0.00    -0.206 F 
ATOM     77  C   UNL A   1      40.680  26.098  26.845  1.00  0.00     0.022 A 
BRANCH  74  78
ATOM     78  S   UNL A   1      42.608  27.619  25.521  1.00  0.00     0.124 S 
ATOM     79  O   UNL A   1      43.933  27.741  26.125  1.00  0.00    -0.237 OA
ATOM     80  O   UNL A   1      42.422  26.493  24.612  1.00  0.00    -0.237 OA
ATOM     81  O   UNL A   1      42.012  28.880  25.084  1.00  0.00    -0.744 OA
ENDBRANCH  74  78
ENDBRANCH  57  71
BRANCH  58  82
ATOM     82  C   UNL A   1      39.597  33.800  37.083  1.00  0.00     0.023 A 
ATOM     83  C   UNL A   1      38.935  33.282  38.209  1.00  0.00     0.031 A 
ATOM     84  C   UNL A   1      40.019  35.140  37.126  1.00  0.00     0.131 A 
ATOM     85  C   UNL A   1      38.675  34.111  39.312  1.00  0.00     0.055 A 
ATOM     86  C   UNL A   1      39.797  35.948  38.244  1.00  0.00     0.041 A 
ATOM     87  F   UNL A   1      40.663  35.683  36.081  1.00  0.00    -0.206 F 
ATOM     88  C   UNL A   1      39.111  35.438  39.342  1.00  0.00     0.022 A 
BRANCH  85  89
ATOM     89  S   UNL A   1      37.689  33.450  40.684  1.00  0.00     0.124 S 
ATOM     90  O   UNL A   1      38.567  32.411  41.209  1.00  0.00    -0.237 OA
ATOM     91  O   UNL A   1      37.516  34.628  41.527  1.00  0.00    -0.237 OA
ATOM     92  O   UNL A   1      36.474  32.969  40.031  1.00  0.00    -0.744 OA
ENDBRANCH  85  89
ENDBRANCH  58  82
BRANCH  70  93
ATOM     93  C   UNL A   1      44.156  28.786  35.452  1.00  0.00     0.023 A 
ATOM     94  C   UNL A   1      44.009  27.729  36.364  1.00  0.00     0.031 A 
ATOM     95  C   UNL A   1      45.443  29.304  35.230  1.00  0.00     0.131 A 
ATOM     96  C   UNL A   1      45.130  27.248  37.057  1.00  0.00     0.055 A 
ATOM     97  C   UNL A   1      46.562  28.786  35.883  1.00  0.00     0.041 A 
ATOM     98  F   UNL A   1      45.635  30.314  34.367  1.00  0.00    -0.206 F 
ATOM     99  C   UNL A   1      46.408  27.758  36.809  1.00  0.00     0.022 A 
BRANCH  96 100
ATOM    100  S   UNL A   1      44.889  25.983  38.333  1.00  0.00     0.124 S 
ATOM    101  O   UNL A   1      44.194  26.733  39.374  1.00  0.00    -0.237 OA
ATOM    102  O   UNL A   1      44.094  24.978  37.634  1.00  0.00    -0.237 OA
ATOM    103  O   UNL A   1      46.250  25.570  38.668  1.00  0.00    -0.744 OA
ENDBRANCH  96 100
ENDBRANCH  70  93
ENDBRANCH  44  45
ENDBRANCH  36  39
ENDBRANCH  34  35
ENDBRANCH   1  34
TORSDOF 17
ENDMDL
MODEL 2
REMARK VINA RESULT:     -13.7      2.091      7.679
REMARK SMILES Cc1[nH]c2ccccc2c1[C@H](C(=O)NCCCCNC(=O)c1ccc(-c2c3nc(c(-c4cc(S(=O)(=O)[O-])ccc4F)c4ccc([nH]4)c(-c4cc(S(=O)(=O)[O-])ccc4F)c4nc(c(-c5cc(S(=O)(=O)[O-])ccc5F)c5ccc2[nH]5)C=C4)C=C3)cc1)[NH+]1CCN(C(=O)c2ccco2)CC1
REMARK SMILES IDX 17 1 16 2 15 3 14 4 12 5 13 6 11 8 10 9 1 10 2 11 3 12 4 13
REMARK SMILES IDX 9 15 5 16 8 17 6 18 7 19 85 20 86 21 97 22 87 24 96 25 88 26
REMARK SMILES IDX 89 27 90 28 91 29 92 30 95 31 93 32 94 33 18 34 19 35 20 36
REMARK SMILES IDX 21 38 22 39 23 40 84 41 24 42 83 43 25 44 26 45 27 46 77 47
REMARK SMILES IDX 28 48 82 49 76 50 78 51 29 52 81 53 75 54 74 55 30 57 62 58
REMARK SMILES IDX 42 59 61 60 43 61 46 62 60 63 79 64 44 65 45 66 59 68 80 69
REMARK SMILES IDX 47 70 31 71 32 72 40 73 33 74 39 75 41 76 38 77 34 78 35 79
REMARK SMILES IDX 36 80 37 81 63 82 64 83 72 84 65 85 71 86 73 87 70 88 66 89
REMARK SMILES IDX 67 90 68 91 69 92 48 93 49 94 57 95 50 96 56 97 58 98 55 99
REMARK SMILES IDX 51 100 52 101 53 102 54 103
REMARK H PARENT 14 7 3 14 85 23 19 37 78 56 46 67
REMARK Flexibility Score: inf
ROOT
ATOM      1  C   UNL A   1      31.658  29.963  26.445  1.00  0.00     0.023 C 
ENDROOT
BRANCH   1   2
ATOM      2  C   UNL A   1      31.579  28.755  27.363  1.00  0.00     0.023 C 
BRANCH   2   3
ATOM      3  C   UNL A   1      32.254  27.518  26.789  1.00  0.00     0.116 C 
BRANCH   3   4
ATOM      4  N   UNL A   1      31.375  26.366  26.771  1.00  0.00    -0.351 N 
ATOM      5  C   UNL A   1      31.066  25.521  25.737  1.00  0.00     0.283 C 
ATOM      6  O   UNL A   1      30.295  24.587  25.987  1.00  0.00    -0.268 OA
ATOM      7  H   UNL A   1      30.936  26.159  27.627  1.00  0.00     0.163 HD
BRANCH   5   8
ATOM      8  C   UNL A   1      31.659  25.692  24.309  1.00  0.00     0.308 C 
BRANCH   8   9
ATOM      9  C   UNL A   1      31.424  27.099  23.752  1.00  0.00     0.047 A 
ATOM     10  C   UNL A   1      33.932  27.846  23.458  1.00  0.00     0.065 C 
ATOM     11  C   UNL A   1      32.448  27.965  23.356  1.00  0.00     0.022 A 
ATOM     12  N   UNL A   1      31.881  29.015  22.684  1.00  0.00    -0.358 N 
ATOM     13  C   UNL A   1      30.514  28.922  22.710  1.00  0.00     0.046 A 
ATOM     14  H   UNL A   1      32.385  29.736  22.243  1.00  0.00     0.166 HD
ATOM     15  C   UNL A   1      30.190  27.789  23.460  1.00  0.00     0.009 A 
ATOM     16  C   UNL A   1      29.556  29.751  22.114  1.00  0.00     0.027 A 
ATOM     17  C   UNL A   1      28.820  27.533  23.689  1.00  0.00     0.011 A 
ATOM     18  C   UNL A   1      28.211  29.451  22.335  1.00  0.00     0.002 A 
ATOM     19  C   UNL A   1      27.845  28.371  23.131  1.00  0.00     0.001 A 
ENDBRANCH   8   9
BRANCH   8  20
ATOM     20  N   UNL A   1      33.050  25.174  24.148  1.00  0.00    -0.318 N 
ATOM     21  C   UNL A   1      33.883  24.988  25.349  1.00  0.00     0.285 C 
ATOM     22  C   UNL A   1      33.118  23.935  23.352  1.00  0.00     0.285 C 
ATOM     23  H   UNL A   1      33.461  25.969  23.657  1.00  0.00     0.349 HD
ATOM     24  C   UNL A   1      33.641  23.711  26.181  1.00  0.00     0.181 C 
ATOM     25  C   UNL A   1      32.793  22.631  24.103  1.00  0.00     0.181 C 
ATOM     26  N   UNL A   1      33.494  22.495  25.384  1.00  0.00    -0.325 N 
ATOM     27  C   UNL A   1      33.526  21.283  26.101  1.00  0.00     0.289 C 
ATOM     28  O   UNL A   1      33.635  21.286  27.327  1.00  0.00    -0.265 OA
BRANCH  27  29
ATOM     29  C   UNL A   1      33.471  20.045  25.347  1.00  0.00     0.191 A 
ATOM     30  C   UNL A   1      34.429  19.347  24.632  1.00  0.00     0.056 A 
ATOM     31  O   UNL A   1      32.305  19.327  25.352  1.00  0.00    -0.459 OA
ATOM     32  C   UNL A   1      33.811  18.165  24.160  1.00  0.00     0.043 A 
ATOM     33  C   UNL A   1      32.518  18.201  24.624  1.00  0.00     0.196 A 
ENDBRANCH  27  29
ENDBRANCH   8  20
ENDBRANCH   5   8
ENDBRANCH   3   4
ENDBRANCH   2   3
ENDBRANCH   1   2
BRANCH   1  34
ATOM     34  C   UNL A   1      32.997  30.682  26.483  1.00  0.00     0.116 C 
BRANCH  34  35
ATOM     35  N   UNL A   1      32.921  32.013  27.082  1.00  0.00    -0.352 N 
ATOM     36  C   UNL A   1      33.864  32.620  27.883  1.00  0.00     0.251 C 
ATOM     37  H   UNL A   1      32.108  32.534  26.892  1.00  0.00     0.163 HD
ATOM     38  O   UNL A   1      33.662  33.694  28.424  1.00  0.00    -0.269 OA
BRANCH  36  39
ATOM     39  C   UNL A   1      35.122  31.877  28.077  1.00  0.00     0.039 A 
ATOM     40  C   UNL A   1      36.318  32.588  28.171  1.00  0.00     0.014 A 
ATOM     41  C   UNL A   1      35.036  30.532  28.442  1.00  0.00     0.014 A 
ATOM     42  C   UNL A   1      37.433  31.958  28.722  1.00  0.00     0.010 A 
ATOM     43  C   UNL A   1      36.116  29.947  29.082  1.00  0.00     0.010 A 
ATOM     44  C   UNL A   1      37.323  30.654  29.234  1.00  0.00    -0.014 A 
BRANCH  44  45
ATOM     45  C   UNL A   1      38.454  29.986  29.925  1.00  0.00     0.031 A 
ATOM     46  C   UNL A   1      38.782  30.396  31.334  1.00  0.00     0.074 A 
ATOM     47  C   UNL A   1      39.237  29.110  29.263  1.00  0.00     0.049 A 
ATOM     48  N   UNL A   1      39.817  30.087  32.069  1.00  0.00    -0.248 NA
ATOM     49  C   UNL A   1      37.845  31.332  31.976  1.00  0.00     0.031 C 
ATOM     50  C   UNL A   1      39.052  28.683  27.872  1.00  0.00     0.029 A 
ATOM     51  N   UNL A   1      40.360  28.431  29.666  1.00  0.00    -0.354 N 
ATOM     52  C   UNL A   1      39.677  30.826  33.239  1.00  0.00     0.074 A 
ATOM     53  C   UNL A   1      38.497  31.648  33.081  1.00  0.00     0.031 C 
ATOM     54  C   UNL A   1      40.011  27.800  27.551  1.00  0.00     0.029 A 
ATOM     55  C   UNL A   1      40.907  27.630  28.690  1.00  0.00     0.049 A 
ATOM     56  H   UNL A   1      40.739  28.512  30.572  1.00  0.00     0.167 HD
ATOM     57  C   UNL A   1      40.445  30.796  34.355  1.00  0.00     0.034 A 
ATOM     58  C   UNL A   1      42.013  26.859  28.712  1.00  0.00     0.034 A 
ATOM     59  C   UNL A   1      41.580  29.925  34.509  1.00  0.00     0.049 A 
ATOM     60  C   UNL A   1      42.838  26.820  29.974  1.00  0.00     0.074 A 
ATOM     61  C   UNL A   1      42.375  29.731  35.625  1.00  0.00     0.029 A 
ATOM     62  N   UNL A   1      42.083  29.098  33.512  1.00  0.00    -0.354 N 
ATOM     63  N   UNL A   1      42.657  27.475  31.098  1.00  0.00    -0.248 NA
ATOM     64  C   UNL A   1      44.012  25.937  29.973  1.00  0.00     0.031 C 
ATOM     65  C   UNL A   1      43.387  28.827  35.286  1.00  0.00     0.029 A 
ATOM     66  C   UNL A   1      43.191  28.411  33.978  1.00  0.00     0.049 A 
ATOM     67  H   UNL A   1      41.707  29.014  32.606  1.00  0.00     0.167 HD
ATOM     68  C   UNL A   1      43.685  27.068  31.944  1.00  0.00     0.074 A 
ATOM     69  C   UNL A   1      44.469  26.099  31.206  1.00  0.00     0.031 C 
ATOM     70  C   UNL A   1      43.959  27.457  33.215  1.00  0.00     0.034 A 
BRANCH  57  71
ATOM     71  C   UNL A   1      40.074  31.738  35.473  1.00  0.00     0.023 A 
ATOM     72  C   UNL A   1      39.180  31.360  36.491  1.00  0.00     0.031 A 
ATOM     73  C   UNL A   1      40.577  33.050  35.494  1.00  0.00     0.131 A 
ATOM     74  C   UNL A   1      38.742  32.309  37.426  1.00  0.00     0.055 A 
ATOM     75  C   UNL A   1      40.204  33.965  36.481  1.00  0.00     0.041 A 
ATOM     76  F   UNL A   1      41.419  33.476  34.539  1.00  0.00    -0.206 F 
ATOM     77  C   UNL A   1      39.267  33.601  37.444  1.00  0.00     0.022 A 
BRANCH  74  78
ATOM     78  S   UNL A   1      37.362  31.868  38.517  1.00  0.00     0.124 S 
ATOM     79  O   UNL A   1      36.385  32.905  38.190  1.00  0.00    -0.237 OA
ATOM     80  O   UNL A   1      37.029  30.517  38.078  1.00  0.00    -0.237 OA
ATOM     81  O   UNL A   1      37.939  31.966  39.856  1.00  0.00    -0.744 OA
ENDBRANCH  74  78
ENDBRANCH  57  71
BRANCH  58  82
ATOM     82  C   UNL A   1      42.420  26.074  27.511  1.00  0.00     0.023 A 
ATOM     83  C   UNL A   1      42.053  24.725  27.373  1.00  0.00     0.031 A 
ATOM     84  C   UNL A   1      43.215  26.646  26.503  1.00  0.00     0.131 A 
ATOM     85  C   UNL A   1      42.518  23.981  26.276  1.00  0.00     0.055 A 
ATOM     86  C   UNL A   1      43.638  25.914  25.391  1.00  0.00     0.041 A 
ATOM     87  F   UNL A   1      43.588  27.934  26.581  1.00  0.00    -0.206 F 
ATOM     88  C   UNL A   1      43.299  24.569  25.279  1.00  0.00     0.022 A 
BRANCH  85  89
ATOM     89  S   UNL A   1      42.147  22.206  26.210  1.00  0.00     0.124 S 
ATOM     90  O   UNL A   1      40.695  22.209  26.081  1.00  0.00    -0.237 OA
ATOM     91  O   UNL A   1      42.894  21.785  25.029  1.00  0.00    -0.237 OA
ATOM     92  O   UNL A   1      42.661  21.702  27.481  1.00  0.00    -0.744 OA
ENDBRANCH  85  89
ENDBRANCH  58  82
BRANCH  70  93
ATOM     93  C   UNL A   1      45.138  26.805  33.888  1.00  0.00     0.023 A 
ATOM     94  C   UNL A   1      45.014  25.572  34.549  1.00  0.00     0.031 A 
ATOM     95  C   UNL A   1      46.400  27.422  33.855  1.00  0.00     0.131 A 
ATOM     96  C   UNL A   1      46.129  25.012  35.189  1.00  0.00     0.055 A 
ATOM     97  C   UNL A   1      47.517  26.834  34.447  1.00  0.00     0.041 A 
ATOM     98  F   UNL A   1      46.568  28.600  33.234  1.00  0.00    -0.206 F 
ATOM     99  C   UNL A   1      47.383  25.626  35.127  1.00  0.00     0.022 A 
BRANCH  96 100
ATOM    100  S   UNL A   1      45.907  23.494  36.155  1.00  0.00     0.124 S 
ATOM    101  O   UNL A   1      46.159  23.962  37.515  1.00  0.00    -0.237 OA
ATOM    102  O   UNL A   1      44.528  23.127  35.853  1.00  0.00    -0.237 OA
ATOM    103  O   UNL A   1      46.920  22.591  35.612  1.00  0.00    -0.744 OA
ENDBRANCH  96 100
ENDBRANCH  70  93
ENDBRANCH  44  45
ENDBRANCH  36  39
ENDBRANCH  34  35
ENDBRANCH   1  34
TORSDOF 17
ENDMDL
MODEL 3
REMARK VINA RESULT:     -13.3      5.185      8.030
REMARK SMILES Cc1[nH]c2ccccc2c1[C@H](C(=O)NCCCCNC(=O)c1ccc(-c2c3nc(c(-c4cc(S(=O)(=O)[O-])ccc4F)c4ccc([nH]4)c(-c4cc(S(=O)(=O)[O-])ccc4F)c4nc(c(-c5cc(S(=O)(=O)[O-])ccc5F)c5ccc2[nH]5)C=C4)C=C3)cc1)[NH+]1CCN(C(=O)c2ccco2)CC1
REMARK SMILES IDX 17 1 16 2 15 3 14 4 12 5 13 6 11 8 10 9 1 10 2 11 3 12 4 13
REMARK SMILES IDX 9 15 5 16 8 17 6 18 7 19 85 20 86 21 97 22 87 24 96 25 88 26
REMARK SMILES IDX 89 27 90 28 91 29 92 30 95 31 93 32 94 33 18 34 19 35 20 36
REMARK SMILES IDX 21 38 22 39 23 40 84 41 24 42 83 43 25 44 26 45 27 46 77 47
REMARK SMILES IDX 28 48 82 49 76 50 78 51 29 52 81 53 75 54 74 55 30 57 62 58
REMARK SMILES IDX 42 59 61 60 43 61 46 62 60 63 79 64 44 65 45 66 59 68 80 69
REMARK SMILES IDX 47 70 31 71 32 72 40 73 33 74 39 75 41 76 38 77 34 78 35 79
REMARK SMILES IDX 36 80 37 81 63 82 64 83 72 84 65 85 71 86 73 87 70 88 66 89
REMARK SMILES IDX 67 90 68 91 69 92 48 93 49 94 57 95 50 96 56 97 58 98 55 99
REMARK SMILES IDX 51 100 52 101 53 102 54 103
REMARK H PARENT 14 7 3 14 85 23 19 37 78 56 46 67
REMARK Flexibility Score: inf
ROOT
ATOM      1  C   UNL A   1      36.321  21.560  24.514  1.00  0.00     0.023 C 
ENDROOT
BRANCH   1   2
ATOM      2  C   UNL A   1      36.181  22.784  23.626  1.00  0.00     0.023 C 
BRANCH   2   3
ATOM      3  C   UNL A   1      35.190  23.807  24.163  1.00  0.00     0.116 C 
BRANCH   3   4
ATOM      4  N   UNL A   1      34.373  24.389  23.117  1.00  0.00    -0.351 N 
ATOM      5  C   UNL A   1      33.170  25.039  23.209  1.00  0.00     0.283 C 
ATOM      6  O   UNL A   1      32.681  25.467  22.157  1.00  0.00    -0.268 OA
ATOM      7  H   UNL A   1      34.735  24.306  22.205  1.00  0.00     0.163 HD
BRANCH   5   8
ATOM      8  C   UNL A   1      32.441  25.264  24.565  1.00  0.00     0.308 C 
BRANCH   8   9
ATOM      9  C   UNL A   1      32.079  26.736  24.788  1.00  0.00     0.047 A 
ATOM     10  C   UNL A   1      34.071  27.410  26.374  1.00  0.00     0.065 C 
ATOM     11  C   UNL A   1      32.852  27.625  25.542  1.00  0.00     0.022 A 
ATOM     12  N   UNL A   1      32.376  28.891  25.323  1.00  0.00    -0.358 N 
ATOM     13  C   UNL A   1      31.258  28.856  24.531  1.00  0.00     0.046 A 
ATOM     14  H   UNL A   1      32.781  29.712  25.684  1.00  0.00     0.166 HD
ATOM     15  C   UNL A   1      30.982  27.513  24.263  1.00  0.00     0.009 A 
ATOM     16  C   UNL A   1      30.490  29.914  24.032  1.00  0.00     0.027 A 
ATOM     17  C   UNL A   1      29.816  27.226  23.520  1.00  0.00     0.011 A 
ATOM     18  C   UNL A   1      29.362  29.596  23.274  1.00  0.00     0.002 A 
ATOM     19  C   UNL A   1      29.014  28.270  23.040  1.00  0.00     0.001 A 
ENDBRANCH   8   9
BRANCH   8  20
ATOM     20  N   UNL A   1      31.341  24.295  24.847  1.00  0.00    -0.318 N 
ATOM     21  C   UNL A   1      30.611  23.698  23.714  1.00  0.00     0.285 C 
ATOM     22  C   UNL A   1      31.748  23.203  25.750  1.00  0.00     0.285 C 
ATOM     23  H   UNL A   1      30.676  24.931  25.289  1.00  0.00     0.349 HD
ATOM     24  C   UNL A   1      31.289  22.520  22.984  1.00  0.00     0.181 C 
ATOM     25  C   UNL A   1      32.516  22.038  25.099  1.00  0.00     0.181 C 
ATOM     26  N   UNL A   1      31.889  21.528  23.874  1.00  0.00    -0.325 N 
ATOM     27  C   UNL A   1      32.290  20.321  23.269  1.00  0.00     0.289 C 
ATOM     28  O   UNL A   1      32.164  20.160  22.055  1.00  0.00    -0.265 OA
BRANCH  27  29
ATOM     29  C   UNL A   1      32.812  19.271  24.123  1.00  0.00     0.191 A 
ATOM     30  C   UNL A   1      34.082  18.744  24.281  1.00  0.00     0.056 A 
ATOM     31  O   UNL A   1      31.969  18.688  25.032  1.00  0.00    -0.459 OA
ATOM     32  C   UNL A   1      34.002  17.779  25.313  1.00  0.00     0.043 A 
ATOM     33  C   UNL A   1      32.694  17.782  25.736  1.00  0.00     0.196 A 
ENDBRANCH  27  29
ENDBRANCH   8  20
ENDBRANCH   5   8
ENDBRANCH   3   4
ENDBRANCH   2   3
ENDBRANCH   1   2
BRANCH   1  34
ATOM     34  C   UNL A   1      37.238  21.766  25.710  1.00  0.00     0.116 C 
BRANCH  34  35
ATOM     35  N   UNL A   1      38.371  20.843  25.735  1.00  0.00    -0.352 N 
ATOM     36  C   UNL A   1      39.639  21.094  26.214  1.00  0.00     0.251 C 
ATOM     37  H   UNL A   1      38.211  19.943  25.369  1.00  0.00     0.163 HD
ATOM     38  O   UNL A   1      40.549  20.292  26.092  1.00  0.00    -0.269 OA
BRANCH  36  39
ATOM     39  C   UNL A   1      39.840  22.406  26.852  1.00  0.00     0.039 A 
ATOM     40  C   UNL A   1      40.843  22.544  27.811  1.00  0.00     0.014 A 
ATOM     41  C   UNL A   1      39.220  23.516  26.273  1.00  0.00     0.014 A 
ATOM     42  C   UNL A   1      41.292  23.824  28.136  1.00  0.00     0.010 A 
ATOM     43  C   UNL A   1      39.741  24.775  26.524  1.00  0.00     0.010 A 
ATOM     44  C   UNL A   1      40.785  24.942  27.452  1.00  0.00    -0.014 A 
BRANCH  44  45
ATOM     45  C   UNL A   1      41.310  26.309  27.690  1.00  0.00     0.031 A 
ATOM     46  C   UNL A   1      42.682  26.653  27.182  1.00  0.00     0.074 A 
ATOM     47  C   UNL A   1      40.614  27.187  28.441  1.00  0.00     0.049 A 
ATOM     48  N   UNL A   1      43.415  27.709  27.418  1.00  0.00    -0.248 NA
ATOM     49  C   UNL A   1      43.342  25.638  26.344  1.00  0.00     0.031 C 
ATOM     50  C   UNL A   1      39.298  26.941  29.040  1.00  0.00     0.029 A 
ATOM     51  N   UNL A   1      40.924  28.462  28.846  1.00  0.00    -0.354 N 
ATOM     52  C   UNL A   1      44.635  27.463  26.797  1.00  0.00     0.074 A 
ATOM     53  C   UNL A   1      44.564  26.130  26.238  1.00  0.00     0.031 C 
ATOM     54  C   UNL A   1      38.908  28.037  29.712  1.00  0.00     0.029 A 
ATOM     55  C   UNL A   1      39.959  29.045  29.634  1.00  0.00     0.049 A 
ATOM     56  H   UNL A   1      41.761  28.915  28.595  1.00  0.00     0.167 HD
ATOM     57  C   UNL A   1      45.704  28.287  26.676  1.00  0.00     0.034 A 
ATOM     58  C   UNL A   1      39.936  30.252  30.235  1.00  0.00     0.034 A 
ATOM     59  C   UNL A   1      45.727  29.630  27.191  1.00  0.00     0.049 A 
ATOM     60  C   UNL A   1      41.126  31.164  30.065  1.00  0.00     0.074 A 
ATOM     61  C   UNL A   1      46.709  30.594  27.046  1.00  0.00     0.029 A 
ATOM     62  N   UNL A   1      44.715  30.202  27.953  1.00  0.00    -0.354 N 
ATOM     63  N   UNL A   1      42.248  30.944  29.419  1.00  0.00    -0.248 NA
ATOM     64  C   UNL A   1      41.045  32.486  30.700  1.00  0.00     0.031 C 
ATOM     65  C   UNL A   1      46.314  31.729  27.762  1.00  0.00     0.029 A 
ATOM     66  C   UNL A   1      45.060  31.497  28.305  1.00  0.00     0.049 A 
ATOM     67  H   UNL A   1      43.877  29.753  28.204  1.00  0.00     0.167 HD
ATOM     68  C   UNL A   1      42.999  32.108  29.556  1.00  0.00     0.074 A 
ATOM     69  C   UNL A   1      42.194  33.032  30.329  1.00  0.00     0.031 C 
ATOM     70  C   UNL A   1      44.240  32.391  29.086  1.00  0.00     0.034 A 
BRANCH  57  71
ATOM     71  C   UNL A   1      46.920  27.741  25.970  1.00  0.00     0.023 A 
ATOM     72  C   UNL A   1      47.201  28.061  24.630  1.00  0.00     0.031 A 
ATOM     73  C   UNL A   1      47.780  26.843  26.626  1.00  0.00     0.131 A 
ATOM     74  C   UNL A   1      48.253  27.417  23.961  1.00  0.00     0.055 A 
ATOM     75  C   UNL A   1      48.879  26.273  25.980  1.00  0.00     0.041 A 
ATOM     76  F   UNL A   1      47.553  26.484  27.899  1.00  0.00    -0.206 F 
ATOM     77  C   UNL A   1      49.109  26.545  24.633  1.00  0.00     0.022 A 
BRANCH  74  78
ATOM     78  S   UNL A   1      48.383  27.621  22.164  1.00  0.00     0.124 S 
ATOM     79  O   UNL A   1      47.081  28.201  21.839  1.00  0.00    -0.237 OA
ATOM     80  O   UNL A   1      49.530  28.512  22.028  1.00  0.00    -0.237 OA
ATOM     81  O   UNL A   1      48.588  26.258  21.679  1.00  0.00    -0.744 OA
ENDBRANCH  74  78
ENDBRANCH  57  71
BRANCH  58  82
ATOM     82  C   UNL A   1      38.767  30.671  31.061  1.00  0.00     0.023 A 
ATOM     83  C   UNL A   1      37.651  31.290  30.472  1.00  0.00     0.031 A 
ATOM     84  C   UNL A   1      38.763  30.499  32.456  1.00  0.00     0.131 A 
ATOM     85  C   UNL A   1      36.599  31.753  31.278  1.00  0.00     0.055 A 
ATOM     86  C   UNL A   1      37.693  30.921  33.249  1.00  0.00     0.041 A 
ATOM     87  F   UNL A   1      39.800  29.907  33.070  1.00  0.00    -0.206 F 
ATOM     88  C   UNL A   1      36.607  31.563  32.662  1.00  0.00     0.022 A 
BRANCH  85  89
ATOM     89  S   UNL A   1      35.247  32.677  30.497  1.00  0.00     0.124 S 
ATOM     90  O   UNL A   1      35.899  33.939  30.169  1.00  0.00    -0.237 OA
ATOM     91  O   UNL A   1      34.907  31.818  29.367  1.00  0.00    -0.237 OA
ATOM     92  O   UNL A   1      34.233  32.751  31.547  1.00  0.00    -0.744 OA
ENDBRANCH  85  89
ENDBRANCH  58  82
BRANCH  70  93
ATOM     93  C   UNL A   1      44.780  33.767  29.374  1.00  0.00     0.023 A 
ATOM     94  C   UNL A   1      44.581  34.833  28.482  1.00  0.00     0.031 A 
ATOM     95  C   UNL A   1      45.491  34.012  30.562  1.00  0.00     0.131 A 
ATOM     96  C   UNL A   1      45.125  36.093  28.774  1.00  0.00     0.055 A 
ATOM     97  C   UNL A   1      45.983  35.280  30.870  1.00  0.00     0.041 A 
ATOM     98  F   UNL A   1      45.706  33.025  31.446  1.00  0.00    -0.206 F 
ATOM     99  C   UNL A   1      45.810  36.327  29.970  1.00  0.00     0.022 A 
BRANCH  96 100
ATOM    100  S   UNL A   1      44.977  37.412  27.539  1.00  0.00     0.124 S 
ATOM    101  O   UNL A   1      46.043  37.071  26.603  1.00  0.00    -0.237 OA
ATOM    102  O   UNL A   1      43.615  37.231  27.047  1.00  0.00    -0.237 OA
ATOM    103  O   UNL A   1      45.197  38.633  28.313  1.00  0.00    -0.744 OA
ENDBRANCH  96 100
ENDBRANCH  70  93
ENDBRANCH  44  45
ENDBRANCH  36  39
ENDBRANCH  34  35
ENDBRANCH   1  34
TORSDOF 17
ENDMDL
