MODEL 1
REMARK VINA RESULT:     -13.7      0.000      0.000
REMARK SMILES Cc1ccccc1NC(=O)CSc1nc(C(=O)NCCCCNC(=O)c2ccc(-c3c4nc(c(-c5cc(S(=O)(=O)[O-])ccc5F)c5ccc([nH]5)c(-c5cc(S(=O)(=O)[O-])ccc5F)c5nc(c(-c6cc(S(=O)(=O)[O-])ccc6F)c6ccc3[nH]6)C=C5)C=C4)cc2)c2ccccc2n1
REMARK SMILES IDX 20 1 19 2 18 3 16 4 17 5 15 7 13 8 14 9 95 10 94 11 89 12
REMARK SMILES IDX 93 13 90 14 92 15 91 16 12 17 11 18 9 19 8 20 10 22 7 23
REMARK SMILES IDX 1 24 2 25 3 26 4 27 6 28 5 29 21 30 22 31 23 32 24 33 25 35
REMARK SMILES IDX 26 36 27 37 88 38 28 39 87 40 29 41 30 42 31 43 81 44 32 45
REMARK SMILES IDX 86 46 80 47 82 48 33 49 85 50 79 51 78 52 34 54 66 55 46 56
REMARK SMILES IDX 65 57 47 58 50 59 64 60 83 61 48 62 49 63 63 65 84 66 51 67
REMARK SMILES IDX 35 68 36 69 44 70 37 71 43 72 45 73 42 74 38 75 39 76 40 77
REMARK SMILES IDX 41 78 67 79 68 80 76 81 69 82 75 83 77 84 74 85 70 86 71 87
REMARK SMILES IDX 72 88 73 89 52 90 53 91 61 92 54 93 60 94 62 95 59 96 55 97
REMARK SMILES IDX 56 98 57 99 58 100
REMARK H PARENT 18 6 8 21 23 34 82 53 50 64
REMARK Flexibility Score: inf
ROOT
ATOM      1  C   UNL A   1      36.898  21.236  25.342  1.00  0.00     0.023 C 
ENDROOT
BRANCH   1   2
ATOM      2  C   UNL A   1      36.044  22.459  25.665  1.00  0.00     0.116 C 
BRANCH   2   3
ATOM      3  N   UNL A   1      35.113  22.325  26.778  1.00  0.00    -0.351 N 
ATOM      4  C   UNL A   1      33.790  21.905  26.810  1.00  0.00     0.270 C 
ATOM      5  O   UNL A   1      33.258  21.791  27.917  1.00  0.00    -0.267 OA
ATOM      6  H   UNL A   1      35.485  22.573  27.655  1.00  0.00     0.163 HD
BRANCH   4   7
ATOM      7  C   UNL A   1      32.957  21.709  25.569  1.00  0.00     0.140 A 
ATOM      8  C   UNL A   1      31.996  22.810  23.820  1.00  0.00     0.189 A 
ATOM      9  N   UNL A   1      32.556  22.887  25.023  1.00  0.00    -0.217 NA
ATOM     10  N   UNL A   1      31.919  21.702  23.075  1.00  0.00    -0.222 NA
ATOM     11  C   UNL A   1      32.299  20.555  23.640  1.00  0.00     0.076 A 
ATOM     12  C   UNL A   1      32.738  20.468  24.963  1.00  0.00     0.032 A 
ATOM     13  C   UNL A   1      32.299  19.407  22.856  1.00  0.00     0.029 A 
ATOM     14  C   UNL A   1      32.961  19.192  25.530  1.00  0.00     0.013 A 
ATOM     15  C   UNL A   1      32.676  18.170  23.373  1.00  0.00     0.002 A 
ATOM     16  C   UNL A   1      32.975  18.062  24.721  1.00  0.00     0.001 A 
BRANCH   8  17
ATOM     17  S   UNL A   1      31.469  24.304  23.040  1.00  0.00    -0.076 SA
BRANCH  17  18
ATOM     18  C   UNL A   1      33.076  25.085  22.731  1.00  0.00     0.178 C 
BRANCH  18  19
ATOM     19  C   UNL A   1      33.052  26.241  21.757  1.00  0.00     0.234 C 
ATOM     20  N   UNL A   1      32.754  27.534  22.057  1.00  0.00    -0.325 N 
ATOM     21  H   UNL A   1      32.746  28.101  21.253  1.00  0.00     0.169 HD
ATOM     22  O   UNL A   1      33.268  26.016  20.556  1.00  0.00    -0.274 OA
BRANCH  20  23
ATOM     23  C   UNL A   1      32.452  28.272  23.217  1.00  0.00     0.044 A 
ATOM     24  C   UNL A   1      29.930  28.283  22.593  1.00  0.00     0.046 C 
ATOM     25  C   UNL A   1      31.115  28.687  23.436  1.00  0.00    -0.027 A 
ATOM     26  C   UNL A   1      30.828  29.567  24.501  1.00  0.00     0.005 A 
ATOM     27  C   UNL A   1      31.822  29.993  25.372  1.00  0.00     0.000 A 
ATOM     28  C   UNL A   1      33.413  28.641  24.161  1.00  0.00     0.026 A 
ATOM     29  C   UNL A   1      33.110  29.508  25.217  1.00  0.00     0.002 A 
ENDBRANCH  20  23
ENDBRANCH  18  19
ENDBRANCH  17  18
ENDBRANCH   8  17
ENDBRANCH   4   7
ENDBRANCH   2   3
ENDBRANCH   1   2
BRANCH   1  30
ATOM     30  C   UNL A   1      38.399  21.372  25.539  1.00  0.00     0.023 C 
BRANCH  30  31
ATOM     31  C   UNL A   1      38.897  22.697  26.106  1.00  0.00     0.116 C 
BRANCH  31  32
ATOM     32  N   UNL A   1      40.304  22.721  26.492  1.00  0.00    -0.352 N 
ATOM     33  C   UNL A   1      41.085  23.790  26.929  1.00  0.00     0.251 C 
ATOM     34  H   UNL A   1      40.770  21.856  26.435  1.00  0.00     0.163 HD
ATOM     35  O   UNL A   1      42.266  23.641  27.168  1.00  0.00    -0.269 OA
BRANCH  33  36
ATOM     36  C   UNL A   1      40.434  25.103  27.192  1.00  0.00     0.039 A 
ATOM     37  C   UNL A   1      40.699  26.170  26.324  1.00  0.00     0.014 A 
ATOM     38  C   UNL A   1      39.747  25.327  28.377  1.00  0.00     0.014 A 
ATOM     39  C   UNL A   1      40.510  27.477  26.770  1.00  0.00     0.010 A 
ATOM     40  C   UNL A   1      39.707  26.608  28.878  1.00  0.00     0.010 A 
ATOM     41  C   UNL A   1      40.139  27.684  28.096  1.00  0.00    -0.014 A 
BRANCH  41  42
ATOM     42  C   UNL A   1      40.294  28.948  28.809  1.00  0.00     0.031 A 
ATOM     43  C   UNL A   1      39.224  29.968  28.779  1.00  0.00     0.074 A 
ATOM     44  C   UNL A   1      41.333  29.084  29.663  1.00  0.00     0.049 A 
ATOM     45  N   UNL A   1      39.342  31.172  29.220  1.00  0.00    -0.248 NA
ATOM     46  C   UNL A   1      37.918  29.709  28.186  1.00  0.00     0.031 C 
ATOM     47  C   UNL A   1      41.469  30.036  30.761  1.00  0.00     0.029 A 
ATOM     48  N   UNL A   1      42.604  28.520  29.533  1.00  0.00    -0.354 N 
ATOM     49  C   UNL A   1      38.087  31.740  29.254  1.00  0.00     0.074 A 
ATOM     50  C   UNL A   1      37.252  30.813  28.531  1.00  0.00     0.031 C 
ATOM     51  C   UNL A   1      42.771  30.197  31.038  1.00  0.00     0.029 A 
ATOM     52  C   UNL A   1      43.513  29.482  30.016  1.00  0.00     0.049 A 
ATOM     53  H   UNL A   1      42.821  27.628  29.176  1.00  0.00     0.167 HD
ATOM     54  C   UNL A   1      37.893  32.861  30.006  1.00  0.00     0.034 A 
ATOM     55  C   UNL A   1      44.433  30.052  29.186  1.00  0.00     0.034 A 
ATOM     56  C   UNL A   1      39.171  33.393  30.492  1.00  0.00     0.049 A 
ATOM     57  C   UNL A   1      44.310  31.549  29.070  1.00  0.00     0.074 A 
ATOM     58  C   UNL A   1      39.816  33.361  31.718  1.00  0.00     0.029 A 
ATOM     59  N   UNL A   1      40.112  33.837  29.568  1.00  0.00    -0.354 N 
ATOM     60  N   UNL A   1      43.242  32.228  29.394  1.00  0.00    -0.248 NA
ATOM     61  C   UNL A   1      45.389  32.399  28.585  1.00  0.00     0.031 C 
ATOM     62  C   UNL A   1      41.173  33.734  31.509  1.00  0.00     0.029 A 
ATOM     63  C   UNL A   1      41.343  34.026  30.166  1.00  0.00     0.049 A 
ATOM     64  H   UNL A   1      39.925  33.997  28.615  1.00  0.00     0.167 HD
ATOM     65  C   UNL A   1      43.459  33.566  29.165  1.00  0.00     0.074 A 
ATOM     66  C   UNL A   1      44.830  33.617  28.683  1.00  0.00     0.031 C 
ATOM     67  C   UNL A   1      42.483  34.501  29.384  1.00  0.00     0.034 A 
BRANCH  54  68
ATOM     68  C   UNL A   1      36.546  33.332  30.534  1.00  0.00     0.023 A 
ATOM     69  C   UNL A   1      35.651  33.975  29.650  1.00  0.00     0.031 A 
ATOM     70  C   UNL A   1      36.102  33.257  31.869  1.00  0.00     0.131 A 
ATOM     71  C   UNL A   1      34.460  34.578  30.105  1.00  0.00     0.055 A 
ATOM     72  C   UNL A   1      34.943  33.896  32.333  1.00  0.00     0.041 A 
ATOM     73  F   UNL A   1      36.724  32.516  32.789  1.00  0.00    -0.206 F 
ATOM     74  C   UNL A   1      34.119  34.573  31.452  1.00  0.00     0.022 A 
BRANCH  71  75
ATOM     75  S   UNL A   1      33.354  35.378  28.910  1.00  0.00     0.124 S 
ATOM     76  O   UNL A   1      32.452  36.129  29.778  1.00  0.00    -0.237 OA
ATOM     77  O   UNL A   1      34.283  36.163  28.106  1.00  0.00    -0.237 OA
ATOM     78  O   UNL A   1      32.738  34.250  28.211  1.00  0.00    -0.744 OA
ENDBRANCH  71  75
ENDBRANCH  54  68
BRANCH  55  79
ATOM     79  C   UNL A   1      44.919  29.126  28.124  1.00  0.00     0.023 A 
ATOM     80  C   UNL A   1      45.856  28.155  28.526  1.00  0.00     0.031 A 
ATOM     81  C   UNL A   1      44.200  28.897  26.944  1.00  0.00     0.131 A 
ATOM     82  C   UNL A   1      45.906  26.915  27.877  1.00  0.00     0.055 A 
ATOM     83  C   UNL A   1      44.317  27.686  26.247  1.00  0.00     0.041 A 
ATOM     84  F   UNL A   1      43.273  29.772  26.527  1.00  0.00    -0.206 F 
ATOM     85  C   UNL A   1      45.130  26.666  26.744  1.00  0.00     0.022 A 
BRANCH  82  86
ATOM     86  S   UNL A   1      46.753  25.531  28.687  1.00  0.00     0.124 S 
ATOM     87  O   UNL A   1      48.158  25.824  28.431  1.00  0.00    -0.237 OA
ATOM     88  O   UNL A   1      46.331  25.662  30.078  1.00  0.00    -0.237 OA
ATOM     89  O   UNL A   1      46.206  24.364  28.003  1.00  0.00    -0.744 OA
ENDBRANCH  82  86
ENDBRANCH  55  79
BRANCH  67  90
ATOM     90  C   UNL A   1      42.516  35.961  28.955  1.00  0.00     0.023 A 
ATOM     91  C   UNL A   1      43.156  36.976  29.682  1.00  0.00     0.031 A 
ATOM     92  C   UNL A   1      41.940  36.379  27.727  1.00  0.00     0.131 A 
ATOM     93  C   UNL A   1      43.148  38.315  29.247  1.00  0.00     0.055 A 
ATOM     94  C   UNL A   1      41.996  37.696  27.259  1.00  0.00     0.041 A 
ATOM     95  F   UNL A   1      41.309  35.524  26.910  1.00  0.00    -0.206 F 
ATOM     96  C   UNL A   1      42.590  38.682  28.028  1.00  0.00     0.022 A 
BRANCH  93  97
ATOM     97  S   UNL A   1      43.841  39.575  30.350  1.00  0.00     0.124 S 
ATOM     98  O   UNL A   1      42.825  40.622  30.289  1.00  0.00    -0.237 OA
ATOM     99  O   UNL A   1      43.936  38.862  31.620  1.00  0.00    -0.237 OA
ATOM    100  O   UNL A   1      45.120  39.913  29.730  1.00  0.00    -0.744 OA
ENDBRANCH  93  97
ENDBRANCH  67  90
ENDBRANCH  41  42
ENDBRANCH  33  36
ENDBRANCH  31  32
ENDBRANCH  30  31
ENDBRANCH   1  30
TORSDOF 18
ENDMDL
MODEL 2
REMARK VINA RESULT:     -13.3      1.203      2.024
REMARK SMILES Cc1ccccc1NC(=O)CSc1nc(C(=O)NCCCCNC(=O)c2ccc(-c3c4nc(c(-c5cc(S(=O)(=O)[O-])ccc5F)c5ccc([nH]5)c(-c5cc(S(=O)(=O)[O-])ccc5F)c5nc(c(-c6cc(S(=O)(=O)[O-])ccc6F)c6ccc3[nH]6)C=C5)C=C4)cc2)c2ccccc2n1
REMARK SMILES IDX 20 1 19 2 18 3 16 4 17 5 15 7 13 8 14 9 95 10 94 11 89 12
REMARK SMILES IDX 93 13 90 14 92 15 91 16 12 17 11 18 9 19 8 20 10 22 7 23
REMARK SMILES IDX 1 24 2 25 3 26 4 27 6 28 5 29 21 30 22 31 23 32 24 33 25 35
REMARK SMILES IDX 26 36 27 37 88 38 28 39 87 40 29 41 30 42 31 43 81 44 32 45
REMARK SMILES IDX 86 46 80 47 82 48 33 49 85 50 79 51 78 52 34 54 66 55 46 56
REMARK SMILES IDX 65 57 47 58 50 59 64 60 83 61 48 62 49 63 63 65 84 66 51 67
REMARK SMILES IDX 35 68 36 69 44 70 37 71 43 72 45 73 42 74 38 75 39 76 40 77
REMARK SMILES IDX 41 78 67 79 68 80 76 81 69 82 75 83 77 84 74 85 70 86 71 87
REMARK SMILES IDX 72 88 73 89 52 90 53 91 61 92 54 93 60 94 62 95 59 96 55 97
REMARK SMILES IDX 56 98 57 99 58 100
REMARK H PARENT 18 6 8 21 23 34 82 53 50 64
REMARK Flexibility Score: inf
ROOT
ATOM      1  C   UNL A   1      36.317  21.292  25.552  1.00  0.00     0.023 C 
ENDROOT
BRANCH   1   2
ATOM      2  C   UNL A   1      35.398  22.471  25.858  1.00  0.00     0.116 C 
BRANCH   2   3
ATOM      3  N   UNL A   1      34.660  22.409  27.113  1.00  0.00    -0.351 N 
ATOM      4  C   UNL A   1      33.295  22.424  27.366  1.00  0.00     0.270 C 
ATOM      5  O   UNL A   1      32.933  22.260  28.533  1.00  0.00    -0.267 OA
ATOM      6  H   UNL A   1      35.224  22.345  27.917  1.00  0.00     0.163 HD
BRANCH   4   7
ATOM      7  C   UNL A   1      32.266  22.755  26.315  1.00  0.00     0.140 A 
ATOM      8  C   UNL A   1      30.829  24.377  25.610  1.00  0.00     0.189 A 
ATOM      9  N   UNL A   1      31.602  23.909  26.584  1.00  0.00    -0.217 NA
ATOM     10  N   UNL A   1      30.760  23.875  24.372  1.00  0.00    -0.222 NA
ATOM     11  C   UNL A   1      31.403  22.730  24.137  1.00  0.00     0.076 A 
ATOM     12  C   UNL A   1      32.106  22.037  25.125  1.00  0.00     0.032 A 
ATOM     13  C   UNL A   1      31.406  22.235  22.839  1.00  0.00     0.029 A 
ATOM     14  C   UNL A   1      32.614  20.751  24.832  1.00  0.00     0.013 A 
ATOM     15  C   UNL A   1      32.049  21.043  22.514  1.00  0.00     0.002 A 
ATOM     16  C   UNL A   1      32.625  20.287  23.522  1.00  0.00     0.001 A 
BRANCH   8  17
ATOM     17  S   UNL A   1      29.952  25.885  25.881  1.00  0.00    -0.076 SA
BRANCH  17  18
ATOM     18  C   UNL A   1      31.297  26.926  26.513  1.00  0.00     0.178 C 
BRANCH  18  19
ATOM     19  C   UNL A   1      31.672  28.096  25.632  1.00  0.00     0.234 C 
ATOM     20  N   UNL A   1      32.118  28.019  24.348  1.00  0.00    -0.325 N 
ATOM     21  H   UNL A   1      32.354  28.906  23.993  1.00  0.00     0.169 HD
ATOM     22  O   UNL A   1      31.632  29.240  26.107  1.00  0.00    -0.274 OA
BRANCH  20  23
ATOM     23  C   UNL A   1      32.330  27.003  23.398  1.00  0.00     0.044 A 
ATOM     24  C   UNL A   1      34.216  25.981  24.864  1.00  0.00     0.046 C 
ATOM     25  C   UNL A   1      33.377  26.072  23.612  1.00  0.00    -0.027 A 
ATOM     26  C   UNL A   1      33.711  25.156  22.592  1.00  0.00     0.005 A 
ATOM     27  C   UNL A   1      32.999  25.113  21.401  1.00  0.00     0.000 A 
ATOM     28  C   UNL A   1      31.573  26.876  22.231  1.00  0.00     0.026 A 
ATOM     29  C   UNL A   1      31.912  25.956  21.232  1.00  0.00     0.002 A 
ENDBRANCH  20  23
ENDBRANCH  18  19
ENDBRANCH  17  18
ENDBRANCH   8  17
ENDBRANCH   4   7
ENDBRANCH   2   3
ENDBRANCH   1   2
BRANCH   1  30
ATOM     30  C   UNL A   1      37.800  21.593  25.406  1.00  0.00     0.023 C 
BRANCH  30  31
ATOM     31  C   UNL A   1      38.365  22.692  26.299  1.00  0.00     0.116 C 
BRANCH  31  32
ATOM     32  N   UNL A   1      39.812  22.660  26.488  1.00  0.00    -0.352 N 
ATOM     33  C   UNL A   1      40.699  23.710  26.721  1.00  0.00     0.251 C 
ATOM     34  H   UNL A   1      40.221  21.766  26.444  1.00  0.00     0.163 HD
ATOM     35  O   UNL A   1      41.892  23.508  26.811  1.00  0.00    -0.269 OA
BRANCH  33  36
ATOM     36  C   UNL A   1      40.157  25.077  26.953  1.00  0.00     0.039 A 
ATOM     37  C   UNL A   1      40.648  26.136  26.178  1.00  0.00     0.014 A 
ATOM     38  C   UNL A   1      39.341  25.339  28.045  1.00  0.00     0.014 A 
ATOM     39  C   UNL A   1      40.536  27.442  26.653  1.00  0.00     0.010 A 
ATOM     40  C   UNL A   1      39.366  26.601  28.595  1.00  0.00     0.010 A 
ATOM     41  C   UNL A   1      40.010  27.646  27.926  1.00  0.00    -0.014 A 
BRANCH  41  42
ATOM     42  C   UNL A   1      40.197  28.864  28.709  1.00  0.00     0.031 A 
ATOM     43  C   UNL A   1      39.164  29.922  28.716  1.00  0.00     0.074 A 
ATOM     44  C   UNL A   1      41.223  28.916  29.587  1.00  0.00     0.049 A 
ATOM     45  N   UNL A   1      39.316  31.096  29.224  1.00  0.00    -0.248 NA
ATOM     46  C   UNL A   1      37.861  29.743  28.087  1.00  0.00     0.031 C 
ATOM     47  C   UNL A   1      41.371  29.802  30.738  1.00  0.00     0.029 A 
ATOM     48  N   UNL A   1      42.475  28.313  29.449  1.00  0.00    -0.354 N 
ATOM     49  C   UNL A   1      38.082  31.706  29.267  1.00  0.00     0.074 A 
ATOM     50  C   UNL A   1      37.228  30.851  28.480  1.00  0.00     0.031 C 
ATOM     51  C   UNL A   1      42.673  29.899  31.046  1.00  0.00     0.029 A 
ATOM     52  C   UNL A   1      43.408  29.214  29.999  1.00  0.00     0.049 A 
ATOM     53  H   UNL A   1      42.668  27.435  29.048  1.00  0.00     0.167 HD
ATOM     54  C   UNL A   1      37.913  32.791  30.076  1.00  0.00     0.034 A 
ATOM     55  C   UNL A   1      44.364  29.794  29.218  1.00  0.00     0.034 A 
ATOM     56  C   UNL A   1      39.199  33.250  30.613  1.00  0.00     0.049 A 
ATOM     57  C   UNL A   1      44.296  31.299  29.182  1.00  0.00     0.074 A 
ATOM     58  C   UNL A   1      39.819  33.129  31.846  1.00  0.00     0.029 A 
ATOM     59  N   UNL A   1      40.174  33.709  29.731  1.00  0.00    -0.354 N 
ATOM     60  N   UNL A   1      43.247  31.998  29.524  1.00  0.00    -0.248 NA
ATOM     61  C   UNL A   1      45.414  32.133  28.763  1.00  0.00     0.031 C 
ATOM     62  C   UNL A   1      41.192  33.462  31.681  1.00  0.00     0.029 A 
ATOM     63  C   UNL A   1      41.398  33.820  30.359  1.00  0.00     0.049 A 
ATOM     64  H   UNL A   1      40.011  33.926  28.785  1.00  0.00     0.167 HD
ATOM     65  C   UNL A   1      43.516  33.337  29.371  1.00  0.00     0.074 A 
ATOM     66  C   UNL A   1      44.897  33.364  28.918  1.00  0.00     0.031 C 
ATOM     67  C   UNL A   1      42.570  34.294  29.625  1.00  0.00     0.034 A 
BRANCH  54  68
ATOM     68  C   UNL A   1      36.574  33.282  30.605  1.00  0.00     0.023 A 
ATOM     69  C   UNL A   1      35.716  33.997  29.739  1.00  0.00     0.031 A 
ATOM     70  C   UNL A   1      36.105  33.160  31.928  1.00  0.00     0.131 A 
ATOM     71  C   UNL A   1      34.538  34.618  30.205  1.00  0.00     0.055 A 
ATOM     72  C   UNL A   1      34.960  33.815  32.404  1.00  0.00     0.041 A 
ATOM     73  F   UNL A   1      36.686  32.355  32.821  1.00  0.00    -0.206 F 
ATOM     74  C   UNL A   1      34.174  34.561  31.544  1.00  0.00     0.022 A 
BRANCH  71  75
ATOM     75  S   UNL A   1      33.479  35.511  29.033  1.00  0.00     0.124 S 
ATOM     76  O   UNL A   1      32.755  34.425  28.381  1.00  0.00    -0.237 OA
ATOM     77  O   UNL A   1      32.700  36.372  29.914  1.00  0.00    -0.237 OA
ATOM     78  O   UNL A   1      34.437  36.212  28.178  1.00  0.00    -0.744 OA
ENDBRANCH  71  75
ENDBRANCH  54  68
BRANCH  55  79
ATOM     79  C   UNL A   1      44.838  28.910  28.116  1.00  0.00     0.023 A 
ATOM     80  C   UNL A   1      45.666  27.835  28.492  1.00  0.00     0.031 A 
ATOM     81  C   UNL A   1      44.176  28.829  26.884  1.00  0.00     0.131 A 
ATOM     82  C   UNL A   1      45.655  26.646  27.752  1.00  0.00     0.055 A 
ATOM     83  C   UNL A   1      44.236  27.666  26.103  1.00  0.00     0.041 A 
ATOM     84  F   UNL A   1      43.350  29.809  26.486  1.00  0.00    -0.206 F 
ATOM     85  C   UNL A   1      44.932  26.548  26.564  1.00  0.00     0.022 A 
BRANCH  82  86
ATOM     86  S   UNL A   1      46.335  25.140  28.499  1.00  0.00     0.124 S 
ATOM     87  O   UNL A   1      45.139  24.357  28.784  1.00  0.00    -0.237 OA
ATOM     88  O   UNL A   1      47.191  24.611  27.441  1.00  0.00    -0.237 OA
ATOM     89  O   UNL A   1      47.061  25.646  29.660  1.00  0.00    -0.744 OA
ENDBRANCH  82  86
ENDBRANCH  55  79
BRANCH  67  90
ATOM     90  C   UNL A   1      42.663  35.773  29.277  1.00  0.00     0.023 A 
ATOM     91  C   UNL A   1      43.437  36.698  29.992  1.00  0.00     0.031 A 
ATOM     92  C   UNL A   1      42.004  36.302  28.136  1.00  0.00     0.131 A 
ATOM     93  C   UNL A   1      43.481  38.060  29.636  1.00  0.00     0.055 A 
ATOM     94  C   UNL A   1      42.107  37.640  27.739  1.00  0.00     0.041 A 
ATOM     95  F   UNL A   1      41.241  35.541  27.339  1.00  0.00    -0.206 F 
ATOM     96  C   UNL A   1      42.838  38.536  28.500  1.00  0.00     0.022 A 
BRANCH  93  97
ATOM     97  S   UNL A   1      44.360  39.202  30.734  1.00  0.00     0.124 S 
ATOM     98  O   UNL A   1      45.623  39.389  30.025  1.00  0.00    -0.237 OA
ATOM     99  O   UNL A   1      43.473  40.360  30.758  1.00  0.00    -0.237 OA
ATOM    100  O   UNL A   1      44.458  38.466  31.993  1.00  0.00    -0.744 OA
ENDBRANCH  93  97
ENDBRANCH  67  90
ENDBRANCH  41  42
ENDBRANCH  33  36
ENDBRANCH  31  32
ENDBRANCH  30  31
ENDBRANCH   1  30
TORSDOF 18
ENDMDL
MODEL 3
REMARK VINA RESULT:     -13.1      4.092     10.673
REMARK SMILES Cc1ccccc1NC(=O)CSc1nc(C(=O)NCCCCNC(=O)c2ccc(-c3c4nc(c(-c5cc(S(=O)(=O)[O-])ccc5F)c5ccc([nH]5)c(-c5cc(S(=O)(=O)[O-])ccc5F)c5nc(c(-c6cc(S(=O)(=O)[O-])ccc6F)c6ccc3[nH]6)C=C5)C=C4)cc2)c2ccccc2n1
REMARK SMILES IDX 20 1 19 2 18 3 16 4 17 5 15 7 13 8 14 9 95 10 94 11 89 12
REMARK SMILES IDX 93 13 90 14 92 15 91 16 12 17 11 18 9 19 8 20 10 22 7 23
REMARK SMILES IDX 1 24 2 25 3 26 4 27 6 28 5 29 21 30 22 31 23 32 24 33 25 35
REMARK SMILES IDX 26 36 27 37 88 38 28 39 87 40 29 41 30 42 31 43 81 44 32 45
REMARK SMILES IDX 86 46 80 47 82 48 33 49 85 50 79 51 78 52 34 54 66 55 46 56
REMARK SMILES IDX 65 57 47 58 50 59 64 60 83 61 48 62 49 63 63 65 84 66 51 67
REMARK SMILES IDX 35 68 36 69 44 70 37 71 43 72 45 73 42 74 38 75 39 76 40 77
REMARK SMILES IDX 41 78 67 79 68 80 76 81 69 82 75 83 77 84 74 85 70 86 71 87
REMARK SMILES IDX 72 88 73 89 52 90 53 91 61 92 54 93 60 94 62 95 59 96 55 97
REMARK SMILES IDX 56 98 57 99 58 100
REMARK H PARENT 18 6 8 21 23 34 82 53 50 64
REMARK Flexibility Score: inf
ROOT
ATOM      1  C   UNL A   1      31.755  29.555  26.602  1.00  0.00     0.023 C 
ENDROOT
BRANCH   1   2
ATOM      2  C   UNL A   1      32.032  28.214  27.277  1.00  0.00     0.116 C 
BRANCH   2   3
ATOM      3  N   UNL A   1      31.032  27.172  27.084  1.00  0.00    -0.351 N 
ATOM      4  C   UNL A   1      31.136  25.906  26.523  1.00  0.00     0.270 C 
ATOM      5  O   UNL A   1      30.140  25.181  26.573  1.00  0.00    -0.267 OA
ATOM      6  H   UNL A   1      30.130  27.405  27.403  1.00  0.00     0.163 HD
BRANCH   4   7
ATOM      7  C   UNL A   1      32.350  25.440  25.761  1.00  0.00     0.140 A 
ATOM      8  C   UNL A   1      34.121  24.008  25.841  1.00  0.00     0.189 A 
ATOM      9  N   UNL A   1      33.146  24.625  26.501  1.00  0.00    -0.217 NA
ATOM     10  N   UNL A   1      34.290  24.033  24.515  1.00  0.00    -0.222 NA
ATOM     11  C   UNL A   1      33.511  24.856  23.812  1.00  0.00     0.076 A 
ATOM     12  C   UNL A   1      32.565  25.697  24.403  1.00  0.00     0.032 A 
ATOM     13  C   UNL A   1      33.620  24.838  22.427  1.00  0.00     0.029 A 
ATOM     14  C   UNL A   1      31.903  26.655  23.602  1.00  0.00     0.013 A 
ATOM     15  C   UNL A   1      32.847  25.671  21.622  1.00  0.00     0.002 A 
ATOM     16  C   UNL A   1      32.012  26.603  22.218  1.00  0.00     0.001 A 
BRANCH   8  17
ATOM     17  S   UNL A   1      35.183  22.917  26.735  1.00  0.00    -0.076 SA
BRANCH  17  18
ATOM     18  C   UNL A   1      34.616  21.320  26.087  1.00  0.00     0.178 C 
BRANCH  18  19
ATOM     19  C   UNL A   1      35.499  20.708  25.024  1.00  0.00     0.234 C 
ATOM     20  N   UNL A   1      35.368  19.460  24.499  1.00  0.00    -0.325 N 
ATOM     21  H   UNL A   1      36.090  19.257  23.862  1.00  0.00     0.169 HD
ATOM     22  O   UNL A   1      36.471  21.355  24.607  1.00  0.00    -0.274 OA
BRANCH  20  23
ATOM     23  C   UNL A   1      34.471  18.382  24.630  1.00  0.00     0.044 A 
ATOM     24  C   UNL A   1      32.530  19.846  23.715  1.00  0.00     0.046 C 
ATOM     25  C   UNL A   1      33.104  18.588  24.321  1.00  0.00    -0.027 A 
ATOM     26  C   UNL A   1      32.168  17.572  24.607  1.00  0.00     0.005 A 
ATOM     27  C   UNL A   1      32.567  16.353  25.138  1.00  0.00     0.000 A 
ATOM     28  C   UNL A   1      34.856  17.116  25.076  1.00  0.00     0.026 A 
ATOM     29  C   UNL A   1      33.916  16.116  25.348  1.00  0.00     0.002 A 
ENDBRANCH  20  23
ENDBRANCH  18  19
ENDBRANCH  17  18
ENDBRANCH   8  17
ENDBRANCH   4   7
ENDBRANCH   2   3
ENDBRANCH   1   2
BRANCH   1  30
ATOM     30  C   UNL A   1      32.774  30.661  26.820  1.00  0.00     0.023 C 
BRANCH  30  31
ATOM     31  C   UNL A   1      34.112  30.248  27.425  1.00  0.00     0.116 C 
BRANCH  31  32
ATOM     32  N   UNL A   1      34.916  31.339  27.965  1.00  0.00    -0.352 N 
ATOM     33  C   UNL A   1      36.186  31.305  28.540  1.00  0.00     0.251 C 
ATOM     34  H   UNL A   1      34.501  32.230  27.916  1.00  0.00     0.163 HD
ATOM     35  O   UNL A   1      36.695  32.312  28.984  1.00  0.00    -0.269 OA
BRANCH  33  36
ATOM     36  C   UNL A   1      36.954  30.030  28.521  1.00  0.00     0.039 A 
ATOM     37  C   UNL A   1      37.006  29.259  29.690  1.00  0.00     0.014 A 
ATOM     38  C   UNL A   1      37.769  29.711  27.443  1.00  0.00     0.014 A 
ATOM     39  C   UNL A   1      38.050  28.350  29.864  1.00  0.00     0.010 A 
ATOM     40  C   UNL A   1      38.884  28.937  27.672  1.00  0.00     0.010 A 
ATOM     41  C   UNL A   1      39.056  28.296  28.903  1.00  0.00    -0.014 A 
BRANCH  41  42
ATOM     42  C   UNL A   1      40.379  27.721  29.125  1.00  0.00     0.031 A 
ATOM     43  C   UNL A   1      40.676  26.331  28.719  1.00  0.00     0.074 A 
ATOM     44  C   UNL A   1      41.382  28.541  29.513  1.00  0.00     0.049 A 
ATOM     45  N   UNL A   1      41.744  25.684  29.034  1.00  0.00    -0.248 NA
ATOM     46  C   UNL A   1      39.738  25.529  27.943  1.00  0.00     0.031 C 
ATOM     47  C   UNL A   1      42.819  28.311  29.398  1.00  0.00     0.029 A 
ATOM     48  N   UNL A   1      41.274  29.668  30.330  1.00  0.00    -0.354 N 
ATOM     49  C   UNL A   1      41.783  24.531  28.280  1.00  0.00     0.074 A 
ATOM     50  C   UNL A   1      40.476  24.450  27.676  1.00  0.00     0.031 C 
ATOM     51  C   UNL A   1      43.454  29.074  30.300  1.00  0.00     0.029 A 
ATOM     52  C   UNL A   1      42.433  29.686  31.131  1.00  0.00     0.049 A 
ATOM     53  H   UNL A   1      40.537  30.320  30.344  1.00  0.00     0.167 HD
ATOM     54  C   UNL A   1      42.966  23.863  28.162  1.00  0.00     0.034 A 
ATOM     55  C   UNL A   1      42.350  29.544  32.485  1.00  0.00     0.034 A 
ATOM     56  C   UNL A   1      43.972  24.414  29.077  1.00  0.00     0.049 A 
ATOM     57  C   UNL A   1      43.095  28.349  33.023  1.00  0.00     0.074 A 
ATOM     58  C   UNL A   1      45.068  25.245  28.906  1.00  0.00     0.029 A 
ATOM     59  N   UNL A   1      43.748  24.343  30.449  1.00  0.00    -0.354 N 
ATOM     60  N   UNL A   1      43.470  27.328  32.301  1.00  0.00    -0.248 NA
ATOM     61  C   UNL A   1      43.479  28.219  34.422  1.00  0.00     0.031 C 
ATOM     62  C   UNL A   1      45.462  25.720  30.187  1.00  0.00     0.029 A 
ATOM     63  C   UNL A   1      44.631  25.152  31.138  1.00  0.00     0.049 A 
ATOM     64  H   UNL A   1      43.053  23.789  30.872  1.00  0.00     0.167 HD
ATOM     65  C   UNL A   1      44.119  26.415  33.096  1.00  0.00     0.074 A 
ATOM     66  C   UNL A   1      44.120  27.038  34.410  1.00  0.00     0.031 C 
ATOM     67  C   UNL A   1      44.585  25.227  32.597  1.00  0.00     0.034 A 
BRANCH  54  68
ATOM     68  C   UNL A   1      43.309  22.893  27.042  1.00  0.00     0.023 A 
ATOM     69  C   UNL A   1      42.759  21.592  27.069  1.00  0.00     0.031 A 
ATOM     70  C   UNL A   1      44.201  23.132  25.977  1.00  0.00     0.131 A 
ATOM     71  C   UNL A   1      43.160  20.595  26.155  1.00  0.00     0.055 A 
ATOM     72  C   UNL A   1      44.638  22.131  25.097  1.00  0.00     0.041 A 
ATOM     73  F   UNL A   1      44.656  24.353  25.686  1.00  0.00    -0.206 F 
ATOM     74  C   UNL A   1      44.126  20.849  25.190  1.00  0.00     0.022 A 
BRANCH  71  75
ATOM     75  S   UNL A   1      42.402  18.949  26.244  1.00  0.00     0.124 S 
ATOM     76  O   UNL A   1      41.052  19.204  25.752  1.00  0.00    -0.237 OA
ATOM     77  O   UNL A   1      43.270  18.162  25.377  1.00  0.00    -0.237 OA
ATOM     78  O   UNL A   1      42.486  18.614  27.665  1.00  0.00    -0.744 OA
ENDBRANCH  71  75
ENDBRANCH  54  68
BRANCH  55  79
ATOM     79  C   UNL A   1      41.113  30.141  33.063  1.00  0.00     0.023 A 
ATOM     80  C   UNL A   1      41.091  31.545  33.171  1.00  0.00     0.031 A 
ATOM     81  C   UNL A   1      39.887  29.462  33.072  1.00  0.00     0.131 A 
ATOM     82  C   UNL A   1      39.877  32.238  33.078  1.00  0.00     0.055 A 
ATOM     83  C   UNL A   1      38.671  30.160  33.066  1.00  0.00     0.041 A 
ATOM     84  F   UNL A   1      39.844  28.127  32.942  1.00  0.00    -0.206 F 
ATOM     85  C   UNL A   1      38.663  31.554  33.011  1.00  0.00     0.022 A 
BRANCH  82  86
ATOM     86  S   UNL A   1      39.906  34.019  32.739  1.00  0.00     0.124 S 
ATOM     87  O   UNL A   1      38.502  34.391  32.864  1.00  0.00    -0.237 OA
ATOM     88  O   UNL A   1      40.785  34.535  33.784  1.00  0.00    -0.237 OA
ATOM     89  O   UNL A   1      40.470  34.090  31.394  1.00  0.00    -0.744 OA
ENDBRANCH  82  86
ENDBRANCH  55  79
BRANCH  67  90
ATOM     90  C   UNL A   1      45.104  24.047  33.405  1.00  0.00     0.023 A 
ATOM     91  C   UNL A   1      46.380  23.996  33.985  1.00  0.00     0.031 A 
ATOM     92  C   UNL A   1      44.278  22.927  33.681  1.00  0.00     0.131 A 
ATOM     93  C   UNL A   1      46.817  22.874  34.715  1.00  0.00     0.055 A 
ATOM     94  C   UNL A   1      44.686  21.844  34.469  1.00  0.00     0.041 A 
ATOM     95  F   UNL A   1      43.025  22.834  33.214  1.00  0.00    -0.206 F 
ATOM     96  C   UNL A   1      45.971  21.804  34.981  1.00  0.00     0.022 A 
BRANCH  93  97
ATOM     97  S   UNL A   1      48.545  22.831  35.261  1.00  0.00     0.124 S 
ATOM     98  O   UNL A   1      49.264  22.977  33.999  1.00  0.00    -0.237 OA
ATOM     99  O   UNL A   1      48.616  23.976  36.163  1.00  0.00    -0.237 OA
ATOM    100  O   UNL A   1      48.673  21.525  35.903  1.00  0.00    -0.744 OA
ENDBRANCH  93  97
ENDBRANCH  67  90
ENDBRANCH  41  42
ENDBRANCH  33  36
ENDBRANCH  31  32
ENDBRANCH  30  31
ENDBRANCH   1  30
TORSDOF 18
ENDMDL
