MODEL 1
REMARK VINA RESULT:     -12.2      0.000      0.000
REMARK SMILES [NH3+][C@@]1(C(=O)NCCCCNC(=O)c2ccc(-c3c4nc(c(-c5cc(S(=O)(=O)[O-])ccc5F)c5ccc([nH]5)c(-c5cc(S(=O)(=O)[O-])ccc5F)c5nc(c(-c6cc(S(=O)(=O)[O-])ccc6F)c6ccc3[nH]6)C=C5)C=C4)cc2)CCC[C@@H](Oc2ccccc2[N+](=O)[O-])C1
REMARK SMILES IDX 7 1 6 2 5 3 3 4 4 5 2 7 76 8 90 9 77 10 79 11 78 12 1 13
REMARK SMILES IDX 80 17 81 18 82 19 86 20 83 21 85 22 84 23 87 24 88 25 89 26
REMARK SMILES IDX 8 27 9 28 10 29 11 30 12 32 13 33 14 34 75 35 15 36 74 37
REMARK SMILES IDX 16 38 17 39 18 40 68 41 19 42 73 43 67 44 69 45 20 46 72 47
REMARK SMILES IDX 66 48 65 49 21 51 53 52 33 53 52 54 34 55 37 56 51 57 70 58
REMARK SMILES IDX 35 59 36 60 50 62 71 63 38 64 22 65 23 66 31 67 24 68 30 69
REMARK SMILES IDX 32 70 29 71 25 72 26 73 27 74 28 75 54 76 55 77 63 78 56 79
REMARK SMILES IDX 62 80 64 81 61 82 57 83 58 84 59 85 60 86 39 87 40 88 48 89
REMARK SMILES IDX 41 90 47 91 49 92 46 93 42 94 43 95 44 96 45 97
REMARK H PARENT 5 6 1 14 1 15 1 16 10 31 69 50 37 61
REMARK Flexibility Score: inf
ROOT
ATOM      1  C   UNL A   1      32.802  30.124  26.487  1.00  0.00     0.023 C 
ENDROOT
BRANCH   1   2
ATOM      2  C   UNL A   1      32.015  29.763  25.220  1.00  0.00     0.116 C 
BRANCH   2   3
ATOM      3  N   UNL A   1      32.876  29.449  24.096  1.00  0.00    -0.351 N 
ATOM      4  C   UNL A   1      32.785  28.507  23.111  1.00  0.00     0.281 C 
ATOM      5  O   UNL A   1      33.687  28.520  22.264  1.00  0.00    -0.268 OA
ATOM      6  H   UNL A   1      33.675  30.021  24.030  1.00  0.00     0.163 HD
BRANCH   4   7
ATOM      7  C   UNL A   1      31.563  27.525  22.961  1.00  0.00     0.177 C 
ATOM      8  C   UNL A   1      30.260  28.333  23.165  1.00  0.00     0.079 C 
ATOM      9  C   UNL A   1      31.669  26.456  24.072  1.00  0.00     0.124 C 
ATOM     10  C   UNL A   1      29.006  27.464  23.180  1.00  0.00     0.011 C 
ATOM     11  C   UNL A   1      30.396  25.647  24.398  1.00  0.00     0.180 C 
ATOM     12  C   UNL A   1      29.059  26.394  24.265  1.00  0.00     0.046 C 
BRANCH   7  13
ATOM     13  N   UNL A   1      31.518  26.967  21.600  1.00  0.00    -0.345 N 
ATOM     14  H   UNL A   1      30.689  27.314  21.117  1.00  0.00     0.345 HD
ATOM     15  H   UNL A   1      31.479  25.949  21.651  1.00  0.00     0.345 HD
ATOM     16  H   UNL A   1      32.353  27.250  21.088  1.00  0.00     0.345 HD
ENDBRANCH   7  13
BRANCH  11  17
ATOM     17  O   UNL A   1      30.339  24.282  23.924  1.00  0.00    -0.483 OA
BRANCH  17  18
ATOM     18  C   UNL A   1      31.445  23.508  24.074  1.00  0.00     0.197 A 
ATOM     19  C   UNL A   1      32.293  23.321  22.981  1.00  0.00     0.054 A 
ATOM     20  C   UNL A   1      31.715  22.817  25.260  1.00  0.00     0.310 A 
ATOM     21  C   UNL A   1      33.466  22.571  23.120  1.00  0.00     0.004 A 
ATOM     22  C   UNL A   1      32.900  22.083  25.417  1.00  0.00     0.090 A 
ATOM     23  C   UNL A   1      33.783  21.978  24.343  1.00  0.00     0.007 A 
BRANCH  20  24
ATOM     24  N   UNL A   1      30.793  22.871  26.382  1.00  0.00     0.066 N 
ATOM     25  O   UNL A   1      29.846  22.070  26.361  1.00  0.00    -0.258 OA
ATOM     26  O   UNL A   1      30.997  23.711  27.265  1.00  0.00    -0.258 OA
ENDBRANCH  20  24
ENDBRANCH  17  18
ENDBRANCH  11  17
ENDBRANCH   4   7
ENDBRANCH   2   3
ENDBRANCH   1   2
BRANCH   1  27
ATOM     27  C   UNL A   1      32.300  31.368  27.221  1.00  0.00     0.023 C 
BRANCH  27  28
ATOM     28  C   UNL A   1      33.362  32.426  27.502  1.00  0.00     0.116 C 
BRANCH  28  29
ATOM     29  N   UNL A   1      32.824  33.762  27.718  1.00  0.00    -0.352 N 
ATOM     30  C   UNL A   1      33.259  34.709  28.621  1.00  0.00     0.251 C 
ATOM     31  H   UNL A   1      32.059  34.019  27.154  1.00  0.00     0.163 HD
ATOM     32  O   UNL A   1      32.656  35.771  28.744  1.00  0.00    -0.269 OA
BRANCH  30  33
ATOM     33  C   UNL A   1      34.424  34.395  29.477  1.00  0.00     0.039 A 
ATOM     34  C   UNL A   1      34.209  33.830  30.736  1.00  0.00     0.014 A 
ATOM     35  C   UNL A   1      35.724  34.565  28.993  1.00  0.00     0.014 A 
ATOM     36  C   UNL A   1      35.295  33.342  31.467  1.00  0.00     0.010 A 
ATOM     37  C   UNL A   1      36.795  34.012  29.689  1.00  0.00     0.010 A 
ATOM     38  C   UNL A   1      36.591  33.379  30.926  1.00  0.00    -0.014 A 
BRANCH  38  39
ATOM     39  C   UNL A   1      37.743  32.742  31.619  1.00  0.00     0.031 A 
ATOM     40  C   UNL A   1      38.459  31.582  30.982  1.00  0.00     0.074 A 
ATOM     41  C   UNL A   1      38.086  33.147  32.859  1.00  0.00     0.049 A 
ATOM     42  N   UNL A   1      39.409  30.825  31.469  1.00  0.00    -0.248 NA
ATOM     43  C   UNL A   1      38.020  31.203  29.631  1.00  0.00     0.031 C 
ATOM     44  C   UNL A   1      37.437  34.226  33.608  1.00  0.00     0.029 A 
ATOM     45  N   UNL A   1      39.057  32.692  33.717  1.00  0.00    -0.354 N 
ATOM     46  C   UNL A   1      39.669  29.870  30.493  1.00  0.00     0.074 A 
ATOM     47  C   UNL A   1      38.733  30.109  29.414  1.00  0.00     0.031 C 
ATOM     48  C   UNL A   1      38.040  34.363  34.799  1.00  0.00     0.029 A 
ATOM     49  C   UNL A   1      39.089  33.355  34.923  1.00  0.00     0.049 A 
ATOM     50  H   UNL A   1      39.674  31.958  33.490  1.00  0.00     0.167 HD
ATOM     51  C   UNL A   1      40.617  28.899  30.485  1.00  0.00     0.034 A 
ATOM     52  C   UNL A   1      39.864  33.165  36.009  1.00  0.00     0.034 A 
ATOM     53  C   UNL A   1      41.555  28.683  31.559  1.00  0.00     0.049 A 
ATOM     54  C   UNL A   1      40.905  32.074  35.982  1.00  0.00     0.074 A 
ATOM     55  C   UNL A   1      42.593  27.771  31.627  1.00  0.00     0.029 A 
ATOM     56  N   UNL A   1      41.567  29.387  32.757  1.00  0.00    -0.354 N 
ATOM     57  N   UNL A   1      41.174  31.212  35.029  1.00  0.00    -0.248 NA
ATOM     58  C   UNL A   1      41.752  31.937  37.174  1.00  0.00     0.031 C 
ATOM     59  C   UNL A   1      43.194  27.881  32.887  1.00  0.00     0.029 A 
ATOM     60  C   UNL A   1      42.577  28.910  33.580  1.00  0.00     0.049 A 
ATOM     61  H   UNL A   1      40.949  30.117  32.988  1.00  0.00     0.167 HD
ATOM     62  C   UNL A   1      42.241  30.451  35.496  1.00  0.00     0.074 A 
ATOM     63  C   UNL A   1      42.573  30.963  36.810  1.00  0.00     0.031 C 
ATOM     64  C   UNL A   1      42.892  29.424  34.892  1.00  0.00     0.034 A 
BRANCH  51  65
ATOM     65  C   UNL A   1      40.661  27.987  29.281  1.00  0.00     0.023 A 
ATOM     66  C   UNL A   1      41.592  28.181  28.245  1.00  0.00     0.031 A 
ATOM     67  C   UNL A   1      39.740  26.935  29.148  1.00  0.00     0.131 A 
ATOM     68  C   UNL A   1      41.526  27.393  27.087  1.00  0.00     0.055 A 
ATOM     69  C   UNL A   1      39.734  26.098  28.030  1.00  0.00     0.041 A 
ATOM     70  F   UNL A   1      38.814  26.710  30.096  1.00  0.00    -0.206 F 
ATOM     71  C   UNL A   1      40.619  26.336  26.983  1.00  0.00     0.022 A 
BRANCH  68  72
ATOM     72  S   UNL A   1      42.540  27.868  25.661  1.00  0.00     0.124 S 
ATOM     73  O   UNL A   1      42.471  26.663  24.837  1.00  0.00    -0.237 OA
ATOM     74  O   UNL A   1      41.834  29.036  25.146  1.00  0.00    -0.237 OA
ATOM     75  O   UNL A   1      43.851  28.139  26.248  1.00  0.00    -0.744 OA
ENDBRANCH  68  72
ENDBRANCH  51  65
BRANCH  52  76
ATOM     76  C   UNL A   1      39.690  34.015  37.221  1.00  0.00     0.023 A 
ATOM     77  C   UNL A   1      39.032  33.522  38.360  1.00  0.00     0.031 A 
ATOM     78  C   UNL A   1      40.141  35.347  37.245  1.00  0.00     0.131 A 
ATOM     79  C   UNL A   1      38.801  34.367  39.456  1.00  0.00     0.055 A 
ATOM     80  C   UNL A   1      39.952  36.169  38.358  1.00  0.00     0.041 A 
ATOM     81  F   UNL A   1      40.782  35.866  36.186  1.00  0.00    -0.206 F 
ATOM     82  C   UNL A   1      39.267  35.684  39.467  1.00  0.00     0.022 A 
BRANCH  79  83
ATOM     83  S   UNL A   1      37.810  33.742  40.842  1.00  0.00     0.124 S 
ATOM     84  O   UNL A   1      38.774  32.896  41.538  1.00  0.00    -0.237 OA
ATOM     85  O   UNL A   1      37.429  34.976  41.521  1.00  0.00    -0.237 OA
ATOM     86  O   UNL A   1      36.716  33.032  40.184  1.00  0.00    -0.744 OA
ENDBRANCH  79  83
ENDBRANCH  52  76
BRANCH  64  87
ATOM     87  C   UNL A   1      44.060  28.823  35.633  1.00  0.00     0.023 A 
ATOM     88  C   UNL A   1      43.904  27.722  36.493  1.00  0.00     0.031 A 
ATOM     89  C   UNL A   1      45.347  29.369  35.479  1.00  0.00     0.131 A 
ATOM     90  C   UNL A   1      45.010  27.232  37.205  1.00  0.00     0.055 A 
ATOM     91  C   UNL A   1      46.452  28.843  36.148  1.00  0.00     0.041 A 
ATOM     92  F   UNL A   1      45.551  30.422  34.672  1.00  0.00    -0.206 F 
ATOM     93  C   UNL A   1      46.285  27.775  37.026  1.00  0.00     0.022 A 
BRANCH  90  94
ATOM     94  S   UNL A   1      44.746  25.923  38.432  1.00  0.00     0.124 S 
ATOM     95  O   UNL A   1      43.901  24.985  37.698  1.00  0.00    -0.237 OA
ATOM     96  O   UNL A   1      46.107  25.471  38.706  1.00  0.00    -0.237 OA
ATOM     97  O   UNL A   1      44.090  26.614  39.539  1.00  0.00    -0.744 OA
ENDBRANCH  90  94
ENDBRANCH  64  87
ENDBRANCH  38  39
ENDBRANCH  30  33
ENDBRANCH  28  29
ENDBRANCH  27  28
ENDBRANCH   1  27
TORSDOF 18
ENDMDL
MODEL 2
REMARK VINA RESULT:     -12.1      2.224      2.827
REMARK SMILES [NH3+][C@@]1(C(=O)NCCCCNC(=O)c2ccc(-c3c4nc(c(-c5cc(S(=O)(=O)[O-])ccc5F)c5ccc([nH]5)c(-c5cc(S(=O)(=O)[O-])ccc5F)c5nc(c(-c6cc(S(=O)(=O)[O-])ccc6F)c6ccc3[nH]6)C=C5)C=C4)cc2)CCC[C@@H](Oc2ccccc2[N+](=O)[O-])C1
REMARK SMILES IDX 7 1 6 2 5 3 3 4 4 5 2 7 76 8 90 9 77 10 79 11 78 12 1 13
REMARK SMILES IDX 80 17 81 18 82 19 86 20 83 21 85 22 84 23 87 24 88 25 89 26
REMARK SMILES IDX 8 27 9 28 10 29 11 30 12 32 13 33 14 34 75 35 15 36 74 37
REMARK SMILES IDX 16 38 17 39 18 40 68 41 19 42 73 43 67 44 69 45 20 46 72 47
REMARK SMILES IDX 66 48 65 49 21 51 53 52 33 53 52 54 34 55 37 56 51 57 70 58
REMARK SMILES IDX 35 59 36 60 50 62 71 63 38 64 22 65 23 66 31 67 24 68 30 69
REMARK SMILES IDX 32 70 29 71 25 72 26 73 27 74 28 75 54 76 55 77 63 78 56 79
REMARK SMILES IDX 62 80 64 81 61 82 57 83 58 84 59 85 60 86 39 87 40 88 48 89
REMARK SMILES IDX 41 90 47 91 49 92 46 93 42 94 43 95 44 96 45 97
REMARK H PARENT 5 6 1 14 1 15 1 16 10 31 69 50 37 61
REMARK Flexibility Score: inf
ROOT
ATOM      1  C   UNL A   1      31.933  30.058  26.880  1.00  0.00     0.023 C 
ENDROOT
BRANCH   1   2
ATOM      2  C   UNL A   1      32.841  29.704  25.695  1.00  0.00     0.116 C 
BRANCH   2   3
ATOM      3  N   UNL A   1      32.121  29.642  24.436  1.00  0.00    -0.351 N 
ATOM      4  C   UNL A   1      31.806  28.597  23.615  1.00  0.00     0.281 C 
ATOM      5  O   UNL A   1      31.141  28.880  22.610  1.00  0.00    -0.268 OA
ATOM      6  H   UNL A   1      31.798  30.515  24.115  1.00  0.00     0.163 HD
BRANCH   4   7
ATOM      7  C   UNL A   1      32.148  27.097  23.951  1.00  0.00     0.177 C 
ATOM      8  C   UNL A   1      31.323  26.675  25.189  1.00  0.00     0.079 C 
ATOM      9  C   UNL A   1      33.652  27.015  24.297  1.00  0.00     0.124 C 
ATOM     10  C   UNL A   1      31.670  25.278  25.699  1.00  0.00     0.011 C 
ATOM     11  C   UNL A   1      34.134  25.761  25.056  1.00  0.00     0.180 C 
ATOM     12  C   UNL A   1      33.145  25.147  26.060  1.00  0.00     0.046 C 
BRANCH   7  13
ATOM     13  N   UNL A   1      31.744  26.219  22.840  1.00  0.00    -0.345 N 
ATOM     14  H   UNL A   1      31.645  26.771  21.988  1.00  0.00     0.345 HD
ATOM     15  H   UNL A   1      30.852  25.777  23.063  1.00  0.00     0.345 HD
ATOM     16  H   UNL A   1      32.454  25.501  22.699  1.00  0.00     0.345 HD
ENDBRANCH   7  13
BRANCH  11  17
ATOM     17  O   UNL A   1      34.871  24.772  24.300  1.00  0.00    -0.483 OA
BRANCH  17  18
ATOM     18  C   UNL A   1      34.728  23.467  24.649  1.00  0.00     0.197 A 
ATOM     19  C   UNL A   1      35.530  22.946  25.664  1.00  0.00     0.054 A 
ATOM     20  C   UNL A   1      33.868  22.603  23.961  1.00  0.00     0.310 A 
ATOM     21  C   UNL A   1      35.369  21.619  26.078  1.00  0.00     0.004 A 
ATOM     22  C   UNL A   1      33.682  21.279  24.384  1.00  0.00     0.090 A 
ATOM     23  C   UNL A   1      34.426  20.796  25.459  1.00  0.00     0.007 A 
BRANCH  20  24
ATOM     24  N   UNL A   1      33.111  23.064  22.810  1.00  0.00     0.066 N 
ATOM     25  O   UNL A   1      31.884  23.167  22.957  1.00  0.00    -0.258 OA
ATOM     26  O   UNL A   1      33.726  23.304  21.765  1.00  0.00    -0.258 OA
ENDBRANCH  20  24
ENDBRANCH  17  18
ENDBRANCH  11  17
ENDBRANCH   4   7
ENDBRANCH   2   3
ENDBRANCH   1   2
BRANCH   1  27
ATOM     27  C   UNL A   1      31.365  31.477  26.852  1.00  0.00     0.023 C 
BRANCH  27  28
ATOM     28  C   UNL A   1      32.378  32.573  26.536  1.00  0.00     0.116 C 
BRANCH  28  29
ATOM     29  N   UNL A   1      32.170  33.804  27.285  1.00  0.00    -0.352 N 
ATOM     30  C   UNL A   1      32.963  34.326  28.286  1.00  0.00     0.251 C 
ATOM     31  H   UNL A   1      31.369  34.326  27.050  1.00  0.00     0.163 HD
ATOM     32  O   UNL A   1      32.620  35.342  28.883  1.00  0.00    -0.269 OA
BRANCH  30  33
ATOM     33  C   UNL A   1      34.199  33.605  28.665  1.00  0.00     0.039 A 
ATOM     34  C   UNL A   1      35.424  34.271  28.587  1.00  0.00     0.014 A 
ATOM     35  C   UNL A   1      34.130  32.313  29.191  1.00  0.00     0.014 A 
ATOM     36  C   UNL A   1      36.566  33.677  29.131  1.00  0.00     0.010 A 
ATOM     37  C   UNL A   1      35.252  31.756  29.798  1.00  0.00     0.010 A 
ATOM     38  C   UNL A   1      36.479  32.439  29.790  1.00  0.00    -0.014 A 
BRANCH  38  39
ATOM     39  C   UNL A   1      37.648  31.851  30.499  1.00  0.00     0.031 A 
ATOM     40  C   UNL A   1      38.486  30.798  29.826  1.00  0.00     0.074 A 
ATOM     41  C   UNL A   1      37.900  32.198  31.777  1.00  0.00     0.049 A 
ATOM     42  N   UNL A   1      39.473  30.089  30.311  1.00  0.00    -0.248 NA
ATOM     43  C   UNL A   1      38.142  30.477  28.434  1.00  0.00     0.031 C 
ATOM     44  C   UNL A   1      37.129  33.168  32.560  1.00  0.00     0.029 A 
ATOM     45  N   UNL A   1      38.866  31.765  32.652  1.00  0.00    -0.354 N 
ATOM     46  C   UNL A   1      39.856  29.225  29.291  1.00  0.00     0.074 A 
ATOM     47  C   UNL A   1      38.952  29.461  28.184  1.00  0.00     0.031 C 
ATOM     48  C   UNL A   1      37.665  33.272  33.786  1.00  0.00     0.029 A 
ATOM     49  C   UNL A   1      38.787  32.346  33.898  1.00  0.00     0.049 A 
ATOM     50  H   UNL A   1      39.551  31.100  32.411  1.00  0.00     0.167 HD
ATOM     51  C   UNL A   1      40.881  28.337  29.269  1.00  0.00     0.034 A 
ATOM     52  C   UNL A   1      39.526  32.146  35.008  1.00  0.00     0.034 A 
ATOM     53  C   UNL A   1      41.784  28.125  30.373  1.00  0.00     0.049 A 
ATOM     54  C   UNL A   1      40.655  31.146  34.964  1.00  0.00     0.074 A 
ATOM     55  C   UNL A   1      42.891  27.297  30.436  1.00  0.00     0.029 A 
ATOM     56  N   UNL A   1      41.684  28.745  31.613  1.00  0.00    -0.354 N 
ATOM     57  N   UNL A   1      41.037  30.376  33.973  1.00  0.00    -0.248 NA
ATOM     58  C   UNL A   1      41.456  30.998  36.186  1.00  0.00     0.031 C 
ATOM     59  C   UNL A   1      43.423  27.369  31.728  1.00  0.00     0.029 A 
ATOM     60  C   UNL A   1      42.691  28.296  32.453  1.00  0.00     0.049 A 
ATOM     61  H   UNL A   1      40.997  29.406  31.858  1.00  0.00     0.167 HD
ATOM     62  C   UNL A   1      42.142  29.673  34.444  1.00  0.00     0.074 A 
ATOM     63  C   UNL A   1      42.371  30.121  35.803  1.00  0.00     0.031 C 
ATOM     64  C   UNL A   1      42.903  28.745  33.809  1.00  0.00     0.034 A 
BRANCH  51  65
ATOM     65  C   UNL A   1      41.055  27.514  28.014  1.00  0.00     0.023 A 
ATOM     66  C   UNL A   1      40.677  26.161  27.962  1.00  0.00     0.031 A 
ATOM     67  C   UNL A   1      41.640  28.078  26.867  1.00  0.00     0.131 A 
ATOM     68  C   UNL A   1      40.966  25.396  26.823  1.00  0.00     0.055 A 
ATOM     69  C   UNL A   1      41.847  27.333  25.704  1.00  0.00     0.041 A 
ATOM     70  F   UNL A   1      42.039  29.360  26.861  1.00  0.00    -0.206 F 
ATOM     71  C   UNL A   1      41.526  25.978  25.683  1.00  0.00     0.022 A 
BRANCH  68  72
ATOM     72  S   UNL A   1      40.738  23.599  26.909  1.00  0.00     0.124 S 
ATOM     73  O   UNL A   1      41.086  23.326  28.302  1.00  0.00    -0.237 OA
ATOM     74  O   UNL A   1      39.332  23.441  26.559  1.00  0.00    -0.237 OA
ATOM     75  O   UNL A   1      41.689  23.085  25.926  1.00  0.00    -0.744 OA
ENDBRANCH  68  72
ENDBRANCH  51  65
BRANCH  52  76
ATOM     76  C   UNL A   1      39.227  32.896  36.262  1.00  0.00     0.023 A 
ATOM     77  C   UNL A   1      39.750  34.181  36.477  1.00  0.00     0.031 A 
ATOM     78  C   UNL A   1      38.449  32.321  37.282  1.00  0.00     0.131 A 
ATOM     79  C   UNL A   1      39.529  34.831  37.701  1.00  0.00     0.055 A 
ATOM     80  C   UNL A   1      38.191  32.992  38.479  1.00  0.00     0.041 A 
ATOM     81  F   UNL A   1      37.920  31.097  37.124  1.00  0.00    -0.206 F 
ATOM     82  C   UNL A   1      38.743  34.250  38.699  1.00  0.00     0.022 A 
BRANCH  79  83
ATOM     83  S   UNL A   1      40.352  36.420  38.002  1.00  0.00     0.124 S 
ATOM     84  O   UNL A   1      39.302  37.174  38.678  1.00  0.00    -0.237 OA
ATOM     85  O   UNL A   1      41.488  36.020  38.826  1.00  0.00    -0.237 OA
ATOM     86  O   UNL A   1      40.691  36.886  36.661  1.00  0.00    -0.744 OA
ENDBRANCH  79  83
ENDBRANCH  52  76
BRANCH  64  87
ATOM     87  C   UNL A   1      44.082  28.191  34.569  1.00  0.00     0.023 A 
ATOM     88  C   UNL A   1      43.988  27.011  35.326  1.00  0.00     0.031 A 
ATOM     89  C   UNL A   1      45.318  28.862  34.538  1.00  0.00     0.131 A 
ATOM     90  C   UNL A   1      45.096  26.564  36.062  1.00  0.00     0.055 A 
ATOM     91  C   UNL A   1      46.431  28.384  35.227  1.00  0.00     0.041 A 
ATOM     92  F   UNL A   1      45.462  29.995  33.832  1.00  0.00    -0.206 F 
ATOM     93  C   UNL A   1      46.321  27.234  36.005  1.00  0.00     0.022 A 
BRANCH  90  94
ATOM     94  S   UNL A   1      44.895  25.135  37.161  1.00  0.00     0.124 S 
ATOM     95  O   UNL A   1      46.246  24.962  37.686  1.00  0.00    -0.237 OA
ATOM     96  O   UNL A   1      43.898  25.611  38.115  1.00  0.00    -0.237 OA
ATOM     97  O   UNL A   1      44.437  24.075  36.267  1.00  0.00    -0.744 OA
ENDBRANCH  90  94
ENDBRANCH  64  87
ENDBRANCH  38  39
ENDBRANCH  30  33
ENDBRANCH  28  29
ENDBRANCH  27  28
ENDBRANCH   1  27
TORSDOF 18
ENDMDL
MODEL 3
REMARK VINA RESULT:     -12.0      5.788     11.657
REMARK SMILES [NH3+][C@@]1(C(=O)NCCCCNC(=O)c2ccc(-c3c4nc(c(-c5cc(S(=O)(=O)[O-])ccc5F)c5ccc([nH]5)c(-c5cc(S(=O)(=O)[O-])ccc5F)c5nc(c(-c6cc(S(=O)(=O)[O-])ccc6F)c6ccc3[nH]6)C=C5)C=C4)cc2)CCC[C@@H](Oc2ccccc2[N+](=O)[O-])C1
REMARK SMILES IDX 7 1 6 2 5 3 3 4 4 5 2 7 76 8 90 9 77 10 79 11 78 12 1 13
REMARK SMILES IDX 80 17 81 18 82 19 86 20 83 21 85 22 84 23 87 24 88 25 89 26
REMARK SMILES IDX 8 27 9 28 10 29 11 30 12 32 13 33 14 34 75 35 15 36 74 37
REMARK SMILES IDX 16 38 17 39 18 40 68 41 19 42 73 43 67 44 69 45 20 46 72 47
REMARK SMILES IDX 66 48 65 49 21 51 53 52 33 53 52 54 34 55 37 56 51 57 70 58
REMARK SMILES IDX 35 59 36 60 50 62 71 63 38 64 22 65 23 66 31 67 24 68 30 69
REMARK SMILES IDX 32 70 29 71 25 72 26 73 27 74 28 75 54 76 55 77 63 78 56 79
REMARK SMILES IDX 62 80 64 81 61 82 57 83 58 84 59 85 60 86 39 87 40 88 48 89
REMARK SMILES IDX 41 90 47 91 49 92 46 93 42 94 43 95 44 96 45 97
REMARK H PARENT 5 6 1 14 1 15 1 16 10 31 69 50 37 61
REMARK Flexibility Score: inf
ROOT
ATOM      1  C   UNL A   1      37.143  20.124  24.869  1.00  0.00     0.023 C 
ENDROOT
BRANCH   1   2
ATOM      2  C   UNL A   1      35.632  20.351  25.012  1.00  0.00     0.116 C 
BRANCH   2   3
ATOM      3  N   UNL A   1      35.286  21.075  26.221  1.00  0.00    -0.351 N 
ATOM      4  C   UNL A   1      34.545  22.203  26.429  1.00  0.00     0.281 C 
ATOM      5  O   UNL A   1      34.410  22.551  27.609  1.00  0.00    -0.268 OA
ATOM      6  H   UNL A   1      35.653  20.679  27.044  1.00  0.00     0.163 HD
BRANCH   4   7
ATOM      7  C   UNL A   1      33.795  22.972  25.278  1.00  0.00     0.177 C 
ATOM      8  C   UNL A   1      34.319  22.450  23.920  1.00  0.00     0.079 C 
ATOM      9  C   UNL A   1      34.137  24.474  25.404  1.00  0.00     0.124 C 
ATOM     10  C   UNL A   1      33.765  23.218  22.723  1.00  0.00     0.011 C 
ATOM     11  C   UNL A   1      33.874  25.364  24.171  1.00  0.00     0.180 C 
ATOM     12  C   UNL A   1      34.081  24.706  22.797  1.00  0.00     0.046 C 
BRANCH   7  13
ATOM     13  N   UNL A   1      32.351  22.684  25.326  1.00  0.00    -0.345 N 
ATOM     14  H   UNL A   1      32.063  22.552  26.296  1.00  0.00     0.345 HD
ATOM     15  H   UNL A   1      32.156  21.835  24.796  1.00  0.00     0.345 HD
ATOM     16  H   UNL A   1      31.835  23.465  24.922  1.00  0.00     0.345 HD
ENDBRANCH   7  13
BRANCH  11  17
ATOM     17  O   UNL A   1      32.724  26.239  24.220  1.00  0.00    -0.483 OA
BRANCH  17  18
ATOM     18  C   UNL A   1      32.622  27.101  25.265  1.00  0.00     0.197 A 
ATOM     19  C   UNL A   1      33.591  28.093  25.421  1.00  0.00     0.054 A 
ATOM     20  C   UNL A   1      31.630  26.970  26.244  1.00  0.00     0.310 A 
ATOM     21  C   UNL A   1      33.483  29.025  26.459  1.00  0.00     0.004 A 
ATOM     22  C   UNL A   1      31.501  27.913  27.274  1.00  0.00     0.090 A 
ATOM     23  C   UNL A   1      32.425  28.953  27.365  1.00  0.00     0.007 A 
BRANCH  20  24
ATOM     24  N   UNL A   1      30.680  25.872  26.201  1.00  0.00     0.066 N 
ATOM     25  O   UNL A   1      29.681  26.030  25.483  1.00  0.00    -0.258 OA
ATOM     26  O   UNL A   1      30.913  24.870  26.887  1.00  0.00    -0.258 OA
ENDBRANCH  20  24
ENDBRANCH  17  18
ENDBRANCH  11  17
ENDBRANCH   4   7
ENDBRANCH   2   3
ENDBRANCH   1   2
BRANCH   1  27
ATOM     27  C   UNL A   1      38.001  21.374  25.066  1.00  0.00     0.023 C 
BRANCH  27  28
ATOM     28  C   UNL A   1      39.096  21.247  26.120  1.00  0.00     0.116 C 
BRANCH  28  29
ATOM     29  N   UNL A   1      39.882  20.026  26.011  1.00  0.00    -0.352 N 
ATOM     30  C   UNL A   1      41.252  19.894  26.110  1.00  0.00     0.251 C 
ATOM     31  H   UNL A   1      39.377  19.197  25.848  1.00  0.00     0.163 HD
ATOM     32  O   UNL A   1      41.785  18.805  25.921  1.00  0.00    -0.269 OA
BRANCH  30  33
ATOM     33  C   UNL A   1      42.066  21.099  26.386  1.00  0.00     0.039 A 
ATOM     34  C   UNL A   1      42.411  21.942  25.327  1.00  0.00     0.014 A 
ATOM     35  C   UNL A   1      42.395  21.444  27.699  1.00  0.00     0.014 A 
ATOM     36  C   UNL A   1      42.999  23.181  25.597  1.00  0.00     0.010 A 
ATOM     37  C   UNL A   1      42.912  22.708  27.970  1.00  0.00     0.010 A 
ATOM     38  C   UNL A   1      43.203  23.598  26.923  1.00  0.00    -0.014 A 
BRANCH  38  39
ATOM     39  C   UNL A   1      43.696  24.965  27.242  1.00  0.00     0.031 A 
ATOM     40  C   UNL A   1      42.748  26.001  27.782  1.00  0.00     0.074 A 
ATOM     41  C   UNL A   1      44.972  25.300  26.960  1.00  0.00     0.049 A 
ATOM     42  N   UNL A   1      42.955  27.271  28.019  1.00  0.00    -0.248 NA
ATOM     43  C   UNL A   1      41.376  25.552  28.058  1.00  0.00     0.031 C 
ATOM     44  C   UNL A   1      45.976  24.402  26.385  1.00  0.00     0.029 A 
ATOM     45  N   UNL A   1      45.641  26.490  27.106  1.00  0.00    -0.354 N 
ATOM     46  C   UNL A   1      41.736  27.778  28.454  1.00  0.00     0.074 A 
ATOM     47  C   UNL A   1      40.783  26.690  28.388  1.00  0.00     0.031 C 
ATOM     48  C   UNL A   1      47.136  25.066  26.248  1.00  0.00     0.029 A 
ATOM     49  C   UNL A   1      46.950  26.447  26.681  1.00  0.00     0.049 A 
ATOM     50  H   UNL A   1      45.223  27.300  27.480  1.00  0.00     0.167 HD
ATOM     51  C   UNL A   1      41.443  29.029  28.892  1.00  0.00     0.034 A 
ATOM     52  C   UNL A   1      47.890  27.412  26.634  1.00  0.00     0.034 A 
ATOM     53  C   UNL A   1      42.406  30.099  28.969  1.00  0.00     0.049 A 
ATOM     54  C   UNL A   1      47.539  28.798  27.116  1.00  0.00     0.074 A 
ATOM     55  C   UNL A   1      42.232  31.383  29.454  1.00  0.00     0.029 A 
ATOM     56  N   UNL A   1      43.727  30.012  28.547  1.00  0.00    -0.354 N 
ATOM     57  N   UNL A   1      46.395  29.247  27.574  1.00  0.00    -0.248 NA
ATOM     58  C   UNL A   1      48.612  29.801  27.083  1.00  0.00     0.031 C 
ATOM     59  C   UNL A   1      43.426  32.090  29.270  1.00  0.00     0.029 A 
ATOM     60  C   UNL A   1      44.369  31.227  28.734  1.00  0.00     0.049 A 
ATOM     61  H   UNL A   1      44.146  29.206  28.168  1.00  0.00     0.167 HD
ATOM     62  C   UNL A   1      46.618  30.579  27.912  1.00  0.00     0.074 A 
ATOM     63  C   UNL A   1      48.010  30.854  27.615  1.00  0.00     0.031 C 
ATOM     64  C   UNL A   1      45.754  31.491  28.426  1.00  0.00     0.034 A 
BRANCH  51  65
ATOM     65  C   UNL A   1      40.013  29.301  29.297  1.00  0.00     0.023 A 
ATOM     66  C   UNL A   1      39.631  29.369  30.649  1.00  0.00     0.031 A 
ATOM     67  C   UNL A   1      39.012  29.458  28.323  1.00  0.00     0.131 A 
ATOM     68  C   UNL A   1      38.277  29.501  30.989  1.00  0.00     0.055 A 
ATOM     69  C   UNL A   1      37.676  29.675  28.667  1.00  0.00     0.041 A 
ATOM     70  F   UNL A   1      39.312  29.385  27.016  1.00  0.00    -0.206 F 
ATOM     71  C   UNL A   1      37.299  29.680  30.007  1.00  0.00     0.022 A 
BRANCH  68  72
ATOM     72  S   UNL A   1      37.798  29.283  32.724  1.00  0.00     0.124 S 
ATOM     73  O   UNL A   1      37.691  27.829  32.819  1.00  0.00    -0.237 OA
ATOM     74  O   UNL A   1      38.914  29.890  33.438  1.00  0.00    -0.237 OA
ATOM     75  O   UNL A   1      36.529  30.001  32.821  1.00  0.00    -0.744 OA
ENDBRANCH  68  72
ENDBRANCH  51  65
BRANCH  52  76
ATOM     76  C   UNL A   1      49.252  27.118  26.103  1.00  0.00     0.023 A 
ATOM     77  C   UNL A   1      49.609  27.473  24.792  1.00  0.00     0.031 A 
ATOM     78  C   UNL A   1      50.203  26.437  26.885  1.00  0.00     0.131 A 
ATOM     79  C   UNL A   1      50.865  27.107  24.285  1.00  0.00     0.055 A 
ATOM     80  C   UNL A   1      51.470  26.119  26.391  1.00  0.00     0.041 A 
ATOM     81  F   UNL A   1      49.915  26.081  28.146  1.00  0.00    -0.206 F 
ATOM     82  C   UNL A   1      51.802  26.443  25.080  1.00  0.00     0.022 A 
BRANCH  79  83
ATOM     83  S   UNL A   1      51.229  27.444  22.540  1.00  0.00     0.124 S 
ATOM     84  O   UNL A   1      51.160  28.900  22.498  1.00  0.00    -0.237 OA
ATOM     85  O   UNL A   1      52.558  26.858  22.390  1.00  0.00    -0.237 OA
ATOM     86  O   UNL A   1      50.160  26.747  21.829  1.00  0.00    -0.744 OA
ENDBRANCH  79  83
ENDBRANCH  52  76
BRANCH  64  87
ATOM     87  C   UNL A   1      46.309  32.857  28.743  1.00  0.00     0.023 A 
ATOM     88  C   UNL A   1      46.240  33.917  27.822  1.00  0.00     0.031 A 
ATOM     89  C   UNL A   1      46.922  33.097  29.985  1.00  0.00     0.131 A 
ATOM     90  C   UNL A   1      46.820  35.155  28.138  1.00  0.00     0.055 A 
ATOM     91  C   UNL A   1      47.448  34.346  30.316  1.00  0.00     0.041 A 
ATOM     92  F   UNL A   1      47.017  32.120  30.901  1.00  0.00    -0.206 F 
ATOM     93  C   UNL A   1      47.409  35.380  29.385  1.00  0.00     0.022 A 
BRANCH  90  94
ATOM     94  S   UNL A   1      46.864  36.448  26.867  1.00  0.00     0.124 S 
ATOM     95  O   UNL A   1      48.268  36.847  26.888  1.00  0.00    -0.237 OA
ATOM     96  O   UNL A   1      46.425  35.730  25.674  1.00  0.00    -0.237 OA
ATOM     97  O   UNL A   1      45.926  37.452  27.364  1.00  0.00    -0.744 OA
ENDBRANCH  90  94
ENDBRANCH  64  87
ENDBRANCH  38  39
ENDBRANCH  30  33
ENDBRANCH  28  29
ENDBRANCH  27  28
ENDBRANCH   1  27
TORSDOF 18
ENDMDL
