MODEL 1
REMARK VINA RESULT:     -10.4      0.000      0.000
REMARK SMILES [NH3+]CC(=O)N1C[C@H](O)C[C@H]1C(=O)NCCCCNC(=O)c1ccc(-c2c3nc(c(-c4cc(S(=O)(=O)[O-])ccc4F)c4ccc([nH]4)c(-c4cc(S(=O)(=O)[O-])ccc4F)c4nc(c(-c5cc(S(=O)(=O)[O-])ccc5F)c5ccc2[nH]5)C=C4)C=C3)cc1
REMARK SMILES IDX 15 1 14 2 13 3 11 4 12 5 10 7 5 8 6 9 7 10 9 11 3 12 4 13
REMARK SMILES IDX 2 14 1 15 8 19 16 21 17 22 18 23 19 24 20 26 21 27 22 28
REMARK SMILES IDX 83 29 23 30 82 31 24 32 25 33 26 34 76 35 27 36 81 37 75 38
REMARK SMILES IDX 77 39 28 40 80 41 74 42 73 43 29 45 61 46 41 47 60 48 42 49
REMARK SMILES IDX 45 50 59 51 78 52 43 53 44 54 58 56 79 57 46 58 30 59 31 60
REMARK SMILES IDX 39 61 32 62 38 63 40 64 37 65 33 66 34 67 35 68 36 69 62 70
REMARK SMILES IDX 63 71 71 72 64 73 70 74 72 75 69 76 65 77 66 78 67 79 68 80
REMARK SMILES IDX 47 81 48 82 56 83 49 84 55 85 57 86 54 87 50 88 51 89 52 90
REMARK SMILES IDX 53 91
REMARK H PARENT 13 6 1 16 1 17 1 18 8 20 18 25 77 44 45 55
REMARK Flexibility Score: inf
ROOT
ATOM      1  C   UNL A   1      34.958  23.544  23.915  1.00  0.00     0.023 C 
ENDROOT
BRANCH   1   2
ATOM      2  C   UNL A   1      34.900  24.616  24.995  1.00  0.00     0.116 C 
BRANCH   2   3
ATOM      3  N   UNL A   1      33.607  24.695  25.635  1.00  0.00    -0.354 N 
ATOM      4  C   UNL A   1      32.847  25.776  25.962  1.00  0.00     0.242 C 
ATOM      5  O   UNL A   1      31.671  25.558  26.277  1.00  0.00    -0.273 OA
ATOM      6  H   UNL A   1      33.212  23.825  25.872  1.00  0.00     0.163 HD
BRANCH   4   7
ATOM      7  C   UNL A   1      33.324  27.225  25.737  1.00  0.00     0.177 C 
ATOM      8  N   UNL A   1      32.674  28.047  24.709  1.00  0.00    -0.323 N 
ATOM      9  C   UNL A   1      32.295  29.355  25.224  1.00  0.00     0.152 C 
ATOM     10  C   UNL A   1      33.004  29.469  26.573  1.00  0.00     0.136 C 
ATOM     11  C   UNL A   1      33.192  28.032  27.037  1.00  0.00     0.069 C 
BRANCH   8  12
ATOM     12  C   UNL A   1      32.758  27.662  23.384  1.00  0.00     0.278 C 
ATOM     13  O   UNL A   1      33.852  27.513  22.836  1.00  0.00    -0.268 OA
BRANCH  12  14
ATOM     14  C   UNL A   1      31.466  27.492  22.572  1.00  0.00     0.360 C 
BRANCH  14  15
ATOM     15  N   UNL A   1      31.600  26.558  21.448  1.00  0.00    -0.350 N 
ATOM     16  H   UNL A   1      32.246  25.811  21.703  1.00  0.00     0.344 HD
ATOM     17  H   UNL A   1      31.961  27.056  20.634  1.00  0.00     0.344 HD
ATOM     18  H   UNL A   1      30.688  26.159  21.228  1.00  0.00     0.344 HD
ENDBRANCH  14  15
ENDBRANCH  12  14
ENDBRANCH   8  12
BRANCH  10  19
ATOM     19  O   UNL A   1      34.271  30.106  26.417  1.00  0.00    -0.391 OA
ATOM     20  H   UNL A   1      34.943  29.614  26.913  1.00  0.00     0.211 HD
ENDBRANCH  10  19
ENDBRANCH   4   7
ENDBRANCH   2   3
ENDBRANCH   1   2
BRANCH   1  21
ATOM     21  C   UNL A   1      35.304  22.141  24.419  1.00  0.00     0.023 C 
BRANCH  21  22
ATOM     22  C   UNL A   1      36.214  22.080  25.643  1.00  0.00     0.116 C 
BRANCH  22  23
ATOM     23  N   UNL A   1      37.201  21.013  25.574  1.00  0.00    -0.352 N 
ATOM     24  C   UNL A   1      38.547  21.061  25.855  1.00  0.00     0.251 C 
ATOM     25  H   UNL A   1      36.858  20.136  25.287  1.00  0.00     0.163 HD
ATOM     26  O   UNL A   1      39.249  20.078  25.630  1.00  0.00    -0.269 OA
BRANCH  24  27
ATOM     27  C   UNL A   1      39.141  22.306  26.384  1.00  0.00     0.039 A 
ATOM     28  C   UNL A   1      40.213  22.217  27.275  1.00  0.00     0.014 A 
ATOM     29  C   UNL A   1      38.668  23.557  25.976  1.00  0.00     0.014 A 
ATOM     30  C   UNL A   1      40.863  23.381  27.694  1.00  0.00     0.010 A 
ATOM     31  C   UNL A   1      39.359  24.710  26.341  1.00  0.00     0.010 A 
ATOM     32  C   UNL A   1      40.469  24.633  27.198  1.00  0.00    -0.014 A 
BRANCH  32  33
ATOM     33  C   UNL A   1      41.208  25.874  27.552  1.00  0.00     0.031 A 
ATOM     34  C   UNL A   1      40.531  26.954  28.353  1.00  0.00     0.074 A 
ATOM     35  C   UNL A   1      42.463  26.058  27.095  1.00  0.00     0.049 A 
ATOM     36  N   UNL A   1      40.974  28.138  28.687  1.00  0.00    -0.248 NA
ATOM     37  C   UNL A   1      39.163  26.672  28.810  1.00  0.00     0.031 C 
ATOM     38  C   UNL A   1      43.211  25.101  26.273  1.00  0.00     0.029 A 
ATOM     39  N   UNL A   1      43.328  27.112  27.242  1.00  0.00    -0.354 N 
ATOM     40  C   UNL A   1      39.935  28.749  29.381  1.00  0.00     0.074 A 
ATOM     41  C   UNL A   1      38.821  27.825  29.363  1.00  0.00     0.031 C 
ATOM     42  C   UNL A   1      44.427  25.606  26.009  1.00  0.00     0.029 A 
ATOM     43  C   UNL A   1      44.533  26.936  26.600  1.00  0.00     0.049 A 
ATOM     44  H   UNL A   1      43.107  27.921  27.758  1.00  0.00     0.167 HD
ATOM     45  C   UNL A   1      39.920  29.960  29.994  1.00  0.00     0.034 A 
ATOM     46  C   UNL A   1      45.596  27.756  26.489  1.00  0.00     0.034 A 
ATOM     47  C   UNL A   1      41.044  30.865  30.012  1.00  0.00     0.049 A 
ATOM     48  C   UNL A   1      45.549  29.105  27.162  1.00  0.00     0.074 A 
ATOM     49  C   UNL A   1      41.156  32.089  30.648  1.00  0.00     0.029 A 
ATOM     50  N   UNL A   1      42.251  30.648  29.357  1.00  0.00    -0.354 N 
ATOM     51  N   UNL A   1      44.577  29.648  27.857  1.00  0.00    -0.248 NA
ATOM     52  C   UNL A   1      46.748  29.945  27.045  1.00  0.00     0.031 C 
ATOM     53  C   UNL A   1      42.401  32.641  30.325  1.00  0.00     0.029 A 
ATOM     54  C   UNL A   1      43.099  31.728  29.550  1.00  0.00     0.049 A 
ATOM     55  H   UNL A   1      42.471  29.845  28.832  1.00  0.00     0.167 HD
ATOM     56  C   UNL A   1      45.060  30.881  28.287  1.00  0.00     0.074 A 
ATOM     57  C   UNL A   1      46.414  30.994  27.783  1.00  0.00     0.031 C 
ATOM     58  C   UNL A   1      44.444  31.832  29.035  1.00  0.00     0.034 A 
BRANCH  45  59
ATOM     59  C   UNL A   1      38.636  30.376  30.674  1.00  0.00     0.023 A 
ATOM     60  C   UNL A   1      37.625  31.066  29.981  1.00  0.00     0.031 A 
ATOM     61  C   UNL A   1      38.430  30.105  32.038  1.00  0.00     0.131 A 
ATOM     62  C   UNL A   1      36.496  31.534  30.671  1.00  0.00     0.055 A 
ATOM     63  C   UNL A   1      37.265  30.500  32.699  1.00  0.00     0.041 A 
ATOM     64  F   UNL A   1      39.367  29.467  32.758  1.00  0.00    -0.206 F 
ATOM     65  C   UNL A   1      36.297  31.233  32.020  1.00  0.00     0.022 A 
BRANCH  62  66
ATOM     66  S   UNL A   1      35.370  32.669  29.816  1.00  0.00     0.124 S 
ATOM     67  O   UNL A   1      34.953  31.862  28.671  1.00  0.00    -0.237 OA
ATOM     68  O   UNL A   1      34.349  32.921  30.825  1.00  0.00    -0.237 OA
ATOM     69  O   UNL A   1      36.218  33.812  29.487  1.00  0.00    -0.744 OA
ENDBRANCH  62  66
ENDBRANCH  45  59
BRANCH  46  70
ATOM     70  C   UNL A   1      46.795  27.339  25.707  1.00  0.00     0.023 A 
ATOM     71  C   UNL A   1      47.010  27.816  24.404  1.00  0.00     0.031 A 
ATOM     72  C   UNL A   1      47.722  26.423  26.235  1.00  0.00     0.131 A 
ATOM     73  C   UNL A   1      48.097  27.340  23.655  1.00  0.00     0.055 A 
ATOM     74  C   UNL A   1      48.832  25.992  25.505  1.00  0.00     0.041 A 
ATOM     75  F   UNL A   1      47.568  25.941  27.478  1.00  0.00    -0.206 F 
ATOM     76  C   UNL A   1      49.017  26.442  24.201  1.00  0.00     0.022 A 
BRANCH  73  77
ATOM     77  S   UNL A   1      48.246  27.852  21.921  1.00  0.00     0.124 S 
ATOM     78  O   UNL A   1      48.297  26.566  21.236  1.00  0.00    -0.237 OA
ATOM     79  O   UNL A   1      47.029  28.634  21.731  1.00  0.00    -0.237 OA
ATOM     80  O   UNL A   1      49.488  28.622  21.899  1.00  0.00    -0.744 OA
ENDBRANCH  73  77
ENDBRANCH  46  70
BRANCH  58  81
ATOM     81  C   UNL A   1      45.254  33.053  29.394  1.00  0.00     0.023 A 
ATOM     82  C   UNL A   1      45.280  34.195  28.573  1.00  0.00     0.031 A 
ATOM     83  C   UNL A   1      46.021  33.069  30.573  1.00  0.00     0.131 A 
ATOM     84  C   UNL A   1      46.098  35.281  28.914  1.00  0.00     0.055 A 
ATOM     85  C   UNL A   1      46.786  34.177  30.938  1.00  0.00     0.041 A 
ATOM     86  F   UNL A   1      46.034  32.005  31.392  1.00  0.00    -0.206 F 
ATOM     87  C   UNL A   1      46.839  35.286  30.100  1.00  0.00     0.022 A 
BRANCH  84  88
ATOM     88  S   UNL A   1      46.252  36.658  27.744  1.00  0.00     0.124 S 
ATOM     89  O   UNL A   1      45.871  36.030  26.483  1.00  0.00    -0.237 OA
ATOM     90  O   UNL A   1      45.308  37.632  28.281  1.00  0.00    -0.237 OA
ATOM     91  O   UNL A   1      47.660  37.041  27.846  1.00  0.00    -0.744 OA
ENDBRANCH  84  88
ENDBRANCH  58  81
ENDBRANCH  32  33
ENDBRANCH  24  27
ENDBRANCH  22  23
ENDBRANCH  21  22
ENDBRANCH   1  21
TORSDOF 18
ENDMDL
MODEL 2
REMARK VINA RESULT:     -10.4      5.767     10.811
REMARK SMILES [NH3+]CC(=O)N1C[C@H](O)C[C@H]1C(=O)NCCCCNC(=O)c1ccc(-c2c3nc(c(-c4cc(S(=O)(=O)[O-])ccc4F)c4ccc([nH]4)c(-c4cc(S(=O)(=O)[O-])ccc4F)c4nc(c(-c5cc(S(=O)(=O)[O-])ccc5F)c5ccc2[nH]5)C=C4)C=C3)cc1
REMARK SMILES IDX 15 1 14 2 13 3 11 4 12 5 10 7 5 8 6 9 7 10 9 11 3 12 4 13
REMARK SMILES IDX 2 14 1 15 8 19 16 21 17 22 18 23 19 24 20 26 21 27 22 28
REMARK SMILES IDX 83 29 23 30 82 31 24 32 25 33 26 34 76 35 27 36 81 37 75 38
REMARK SMILES IDX 77 39 28 40 80 41 74 42 73 43 29 45 61 46 41 47 60 48 42 49
REMARK SMILES IDX 45 50 59 51 78 52 43 53 44 54 58 56 79 57 46 58 30 59 31 60
REMARK SMILES IDX 39 61 32 62 38 63 40 64 37 65 33 66 34 67 35 68 36 69 62 70
REMARK SMILES IDX 63 71 71 72 64 73 70 74 72 75 69 76 65 77 66 78 67 79 68 80
REMARK SMILES IDX 47 81 48 82 56 83 49 84 55 85 57 86 54 87 50 88 51 89 52 90
REMARK SMILES IDX 53 91
REMARK H PARENT 13 6 1 16 1 17 1 18 8 20 18 25 77 44 45 55
REMARK Flexibility Score: inf
ROOT
ATOM      1  C   UNL A   1      31.855  29.698  27.218  1.00  0.00     0.023 C 
ENDROOT
BRANCH   1   2
ATOM      2  C   UNL A   1      32.234  28.588  26.245  1.00  0.00     0.116 C 
BRANCH   2   3
ATOM      3  N   UNL A   1      33.023  29.066  25.134  1.00  0.00    -0.354 N 
ATOM      4  C   UNL A   1      33.170  28.567  23.876  1.00  0.00     0.242 C 
ATOM      5  O   UNL A   1      33.708  29.304  23.041  1.00  0.00    -0.273 OA
ATOM      6  H   UNL A   1      33.536  29.886  25.315  1.00  0.00     0.163 HD
BRANCH   4   7
ATOM      7  C   UNL A   1      32.506  27.251  23.421  1.00  0.00     0.177 C 
ATOM      8  N   UNL A   1      31.338  27.302  22.532  1.00  0.00    -0.323 N 
ATOM      9  C   UNL A   1      31.486  26.405  21.395  1.00  0.00     0.152 C 
ATOM     10  C   UNL A   1      32.689  25.527  21.738  1.00  0.00     0.136 C 
ATOM     11  C   UNL A   1      33.528  26.370  22.688  1.00  0.00     0.069 C 
BRANCH   8  12
ATOM     12  C   UNL A   1      30.176  27.903  22.980  1.00  0.00     0.278 C 
ATOM     13  O   UNL A   1      29.400  27.303  23.726  1.00  0.00    -0.268 OA
BRANCH  12  14
ATOM     14  C   UNL A   1      29.818  29.307  22.474  1.00  0.00     0.360 C 
BRANCH  14  15
ATOM     15  N   UNL A   1      30.868  29.919  21.652  1.00  0.00    -0.350 N 
ATOM     16  H   UNL A   1      30.691  30.919  21.564  1.00  0.00     0.344 HD
ATOM     17  H   UNL A   1      30.867  29.491  20.726  1.00  0.00     0.344 HD
ATOM     18  H   UNL A   1      31.775  29.772  22.095  1.00  0.00     0.344 HD
ENDBRANCH  14  15
ENDBRANCH  12  14
ENDBRANCH   8  12
BRANCH  10  19
ATOM     19  O   UNL A   1      32.263  24.331  22.386  1.00  0.00    -0.391 OA
ATOM     20  H   UNL A   1      31.303  24.233  22.287  1.00  0.00     0.211 HD
ENDBRANCH  10  19
ENDBRANCH   4   7
ENDBRANCH   2   3
ENDBRANCH   1   2
BRANCH   1  21
ATOM     21  C   UNL A   1      32.000  31.117  26.664  1.00  0.00     0.023 C 
BRANCH  21  22
ATOM     22  C   UNL A   1      33.123  31.955  27.270  1.00  0.00     0.116 C 
BRANCH  22  23
ATOM     23  N   UNL A   1      32.724  33.321  27.569  1.00  0.00    -0.352 N 
ATOM     24  C   UNL A   1      33.236  34.186  28.510  1.00  0.00     0.251 C 
ATOM     25  H   UNL A   1      31.987  33.678  27.022  1.00  0.00     0.163 HD
ATOM     26  O   UNL A   1      32.693  35.272  28.695  1.00  0.00    -0.269 OA
BRANCH  24  27
ATOM     27  C   UNL A   1      34.406  33.781  29.317  1.00  0.00     0.039 A 
ATOM     28  C   UNL A   1      34.206  32.967  30.434  1.00  0.00     0.014 A 
ATOM     29  C   UNL A   1      35.698  34.172  28.953  1.00  0.00     0.014 A 
ATOM     30  C   UNL A   1      35.309  32.479  31.140  1.00  0.00     0.010 A 
ATOM     31  C   UNL A   1      36.796  33.629  29.616  1.00  0.00     0.010 A 
ATOM     32  C   UNL A   1      36.614  32.771  30.712  1.00  0.00    -0.014 A 
BRANCH  32  33
ATOM     33  C   UNL A   1      37.800  32.182  31.388  1.00  0.00     0.031 A 
ATOM     34  C   UNL A   1      38.553  31.051  30.742  1.00  0.00     0.074 A 
ATOM     35  C   UNL A   1      38.155  32.617  32.613  1.00  0.00     0.049 A 
ATOM     36  N   UNL A   1      39.554  30.348  31.207  1.00  0.00    -0.248 NA
ATOM     37  C   UNL A   1      38.097  30.637  29.407  1.00  0.00     0.031 C 
ATOM     38  C   UNL A   1      37.477  33.680  33.362  1.00  0.00     0.029 A 
ATOM     39  N   UNL A   1      39.164  32.217  33.453  1.00  0.00    -0.354 N 
ATOM     40  C   UNL A   1      39.839  29.401  30.230  1.00  0.00     0.074 A 
ATOM     41  C   UNL A   1      38.863  29.582  29.176  1.00  0.00     0.031 C 
ATOM     42  C   UNL A   1      38.102  33.858  34.537  1.00  0.00     0.029 A 
ATOM     43  C   UNL A   1      39.195  32.898  34.648  1.00  0.00     0.049 A 
ATOM     44  H   UNL A   1      39.806  31.507  33.220  1.00  0.00     0.167 HD
ATOM     45  C   UNL A   1      40.835  28.480  30.205  1.00  0.00     0.034 A 
ATOM     46  C   UNL A   1      40.003  32.756  35.718  1.00  0.00     0.034 A 
ATOM     47  C   UNL A   1      41.807  28.320  31.260  1.00  0.00     0.049 A 
ATOM     48  C   UNL A   1      41.090  31.712  35.676  1.00  0.00     0.074 A 
ATOM     49  C   UNL A   1      42.889  27.458  31.314  1.00  0.00     0.029 A 
ATOM     50  N   UNL A   1      41.811  29.033  32.454  1.00  0.00    -0.354 N 
ATOM     51  N   UNL A   1      41.379  30.856  34.723  1.00  0.00    -0.248 NA
ATOM     52  C   UNL A   1      41.968  31.624  36.850  1.00  0.00     0.031 C 
ATOM     53  C   UNL A   1      43.506  27.603  32.562  1.00  0.00     0.029 A 
ATOM     54  C   UNL A   1      42.857  28.610  33.259  1.00  0.00     0.049 A 
ATOM     55  H   UNL A   1      41.164  29.737  32.693  1.00  0.00     0.167 HD
ATOM     56  C   UNL A   1      42.492  30.150  35.170  1.00  0.00     0.074 A 
ATOM     57  C   UNL A   1      42.829  30.690  36.472  1.00  0.00     0.031 C 
ATOM     58  C   UNL A   1      43.178  29.151  34.560  1.00  0.00     0.034 A 
BRANCH  45  59
ATOM     59  C   UNL A   1      40.901  27.563  29.006  1.00  0.00     0.023 A 
ATOM     60  C   UNL A   1      41.849  27.753  27.984  1.00  0.00     0.031 A 
ATOM     61  C   UNL A   1      39.987  26.504  28.866  1.00  0.00     0.131 A 
ATOM     62  C   UNL A   1      41.808  26.952  26.832  1.00  0.00     0.055 A 
ATOM     63  C   UNL A   1      40.007  25.656  27.756  1.00  0.00     0.041 A 
ATOM     64  F   UNL A   1      39.046  26.284  29.798  1.00  0.00    -0.206 F 
ATOM     65  C   UNL A   1      40.910  25.888  26.724  1.00  0.00     0.022 A 
BRANCH  62  66
ATOM     66  S   UNL A   1      42.844  27.418  25.419  1.00  0.00     0.124 S 
ATOM     67  O   UNL A   1      42.077  28.519  24.841  1.00  0.00    -0.237 OA
ATOM     68  O   UNL A   1      44.104  27.782  26.057  1.00  0.00    -0.237 OA
ATOM     69  O   UNL A   1      42.884  26.203  24.608  1.00  0.00    -0.744 OA
ENDBRANCH  62  66
ENDBRANCH  45  59
BRANCH  46  70
ATOM     70  C   UNL A   1      39.817  33.612  36.924  1.00  0.00     0.023 A 
ATOM     71  C   UNL A   1      39.294  33.081  38.114  1.00  0.00     0.031 A 
ATOM     72  C   UNL A   1      40.121  34.985  36.893  1.00  0.00     0.131 A 
ATOM     73  C   UNL A   1      39.046  33.925  39.207  1.00  0.00     0.055 A 
ATOM     74  C   UNL A   1      39.921  35.811  38.001  1.00  0.00     0.041 A 
ATOM     75  F   UNL A   1      40.631  35.542  35.782  1.00  0.00    -0.206 F 
ATOM     76  C   UNL A   1      39.368  35.284  39.163  1.00  0.00     0.022 A 
BRANCH  73  77
ATOM     77  S   UNL A   1      38.215  33.235  40.664  1.00  0.00     0.124 S 
ATOM     78  O   UNL A   1      38.851  33.975  41.747  1.00  0.00    -0.237 OA
ATOM     79  O   UNL A   1      36.818  33.560  40.398  1.00  0.00    -0.237 OA
ATOM     80  O   UNL A   1      38.544  31.812  40.602  1.00  0.00    -0.744 OA
ENDBRANCH  73  77
ENDBRANCH  46  70
BRANCH  58  81
ATOM     81  C   UNL A   1      44.393  28.615  35.276  1.00  0.00     0.023 A 
ATOM     82  C   UNL A   1      44.329  27.475  36.096  1.00  0.00     0.031 A 
ATOM     83  C   UNL A   1      45.633  29.265  35.143  1.00  0.00     0.131 A 
ATOM     84  C   UNL A   1      45.470  27.052  36.794  1.00  0.00     0.055 A 
ATOM     85  C   UNL A   1      46.779  28.804  35.792  1.00  0.00     0.041 A 
ATOM     86  F   UNL A   1      45.750  30.360  34.373  1.00  0.00    -0.206 F 
ATOM     87  C   UNL A   1      46.698  27.700  36.633  1.00  0.00     0.022 A 
BRANCH  84  88
ATOM     88  S   UNL A   1      45.310  25.693  37.984  1.00  0.00     0.124 S 
ATOM     89  O   UNL A   1      45.653  26.348  39.242  1.00  0.00    -0.237 OA
ATOM     90  O   UNL A   1      43.913  25.303  37.828  1.00  0.00    -0.237 OA
ATOM     91  O   UNL A   1      46.282  24.707  37.513  1.00  0.00    -0.744 OA
ENDBRANCH  84  88
ENDBRANCH  58  81
ENDBRANCH  32  33
ENDBRANCH  24  27
ENDBRANCH  22  23
ENDBRANCH  21  22
ENDBRANCH   1  21
TORSDOF 18
ENDMDL
MODEL 3
REMARK VINA RESULT:     -10.4      2.749      8.191
REMARK SMILES [NH3+]CC(=O)N1C[C@H](O)C[C@H]1C(=O)NCCCCNC(=O)c1ccc(-c2c3nc(c(-c4cc(S(=O)(=O)[O-])ccc4F)c4ccc([nH]4)c(-c4cc(S(=O)(=O)[O-])ccc4F)c4nc(c(-c5cc(S(=O)(=O)[O-])ccc5F)c5ccc2[nH]5)C=C4)C=C3)cc1
REMARK SMILES IDX 15 1 14 2 13 3 11 4 12 5 10 7 5 8 6 9 7 10 9 11 3 12 4 13
REMARK SMILES IDX 2 14 1 15 8 19 16 21 17 22 18 23 19 24 20 26 21 27 22 28
REMARK SMILES IDX 83 29 23 30 82 31 24 32 25 33 26 34 76 35 27 36 81 37 75 38
REMARK SMILES IDX 77 39 28 40 80 41 74 42 73 43 29 45 61 46 41 47 60 48 42 49
REMARK SMILES IDX 45 50 59 51 78 52 43 53 44 54 58 56 79 57 46 58 30 59 31 60
REMARK SMILES IDX 39 61 32 62 38 63 40 64 37 65 33 66 34 67 35 68 36 69 62 70
REMARK SMILES IDX 63 71 71 72 64 73 70 74 72 75 69 76 65 77 66 78 67 79 68 80
REMARK SMILES IDX 47 81 48 82 56 83 49 84 55 85 57 86 54 87 50 88 51 89 52 90
REMARK SMILES IDX 53 91
REMARK H PARENT 13 6 1 16 1 17 1 18 8 20 18 25 77 44 45 55
REMARK Flexibility Score: inf
ROOT
ATOM      1  C   UNL A   1      34.626  23.772  25.045  1.00  0.00     0.023 C 
ENDROOT
BRANCH   1   2
ATOM      2  C   UNL A   1      34.060  25.186  25.018  1.00  0.00     0.116 C 
BRANCH   2   3
ATOM      3  N   UNL A   1      32.679  25.242  25.438  1.00  0.00    -0.354 N 
ATOM      4  C   UNL A   1      31.941  26.283  25.911  1.00  0.00     0.242 C 
ATOM      5  O   UNL A   1      30.715  26.123  25.963  1.00  0.00    -0.273 OA
ATOM      6  H   UNL A   1      32.193  24.388  25.372  1.00  0.00     0.163 HD
BRANCH   4   7
ATOM      7  C   UNL A   1      32.541  27.683  26.155  1.00  0.00     0.177 C 
ATOM      8  N   UNL A   1      32.334  28.741  25.157  1.00  0.00    -0.323 N 
ATOM      9  C   UNL A   1      31.867  29.976  25.769  1.00  0.00     0.152 C 
ATOM     10  C   UNL A   1      32.065  29.773  27.271  1.00  0.00     0.136 C 
ATOM     11  C   UNL A   1      32.004  28.265  27.471  1.00  0.00     0.069 C 
BRANCH   8  12
ATOM     12  C   UNL A   1      32.856  28.580  23.887  1.00  0.00     0.278 C 
ATOM     13  O   UNL A   1      34.073  28.604  23.695  1.00  0.00    -0.268 OA
BRANCH  12  14
ATOM     14  C   UNL A   1      31.897  28.449  22.696  1.00  0.00     0.360 C 
BRANCH  14  15
ATOM     15  N   UNL A   1      31.641  29.719  22.008  1.00  0.00    -0.350 N 
ATOM     16  H   UNL A   1      31.494  30.455  22.698  1.00  0.00     0.344 HD
ATOM     17  H   UNL A   1      30.808  29.628  21.426  1.00  0.00     0.344 HD
ATOM     18  H   UNL A   1      32.442  29.955  21.422  1.00  0.00     0.344 HD
ENDBRANCH  14  15
ENDBRANCH  12  14
ENDBRANCH   8  12
BRANCH  10  19
ATOM     19  O   UNL A   1      33.337  30.273  27.678  1.00  0.00    -0.391 OA
ATOM     20  H   UNL A   1      33.431  30.175  28.638  1.00  0.00     0.211 HD
ENDBRANCH  10  19
ENDBRANCH   4   7
ENDBRANCH   2   3
ENDBRANCH   1   2
BRANCH   1  21
ATOM     21  C   UNL A   1      35.958  23.626  25.785  1.00  0.00     0.023 C 
BRANCH  21  22
ATOM     22  C   UNL A   1      37.175  23.337  24.910  1.00  0.00     0.116 C 
BRANCH  22  23
ATOM     23  N   UNL A   1      38.119  22.416  25.523  1.00  0.00    -0.352 N 
ATOM     24  C   UNL A   1      39.196  22.693  26.335  1.00  0.00     0.251 C 
ATOM     25  H   UNL A   1      37.967  21.462  25.332  1.00  0.00     0.163 HD
ATOM     26  O   UNL A   1      39.953  21.786  26.670  1.00  0.00    -0.269 OA
BRANCH  24  27
ATOM     27  C   UNL A   1      39.454  24.085  26.759  1.00  0.00     0.039 A 
ATOM     28  C   UNL A   1      39.074  24.480  28.043  1.00  0.00     0.014 A 
ATOM     29  C   UNL A   1      40.100  24.986  25.907  1.00  0.00     0.014 A 
ATOM     30  C   UNL A   1      39.414  25.756  28.503  1.00  0.00     0.010 A 
ATOM     31  C   UNL A   1      40.498  26.230  26.392  1.00  0.00     0.010 A 
ATOM     32  C   UNL A   1      40.166  26.625  27.697  1.00  0.00    -0.014 A 
BRANCH  32  33
ATOM     33  C   UNL A   1      40.624  27.947  28.202  1.00  0.00     0.031 A 
ATOM     34  C   UNL A   1      42.094  28.239  28.328  1.00  0.00     0.074 A 
ATOM     35  C   UNL A   1      39.717  28.855  28.614  1.00  0.00     0.049 A 
ATOM     36  N   UNL A   1      42.691  29.292  28.825  1.00  0.00    -0.248 NA
ATOM     37  C   UNL A   1      43.014  27.192  27.858  1.00  0.00     0.031 C 
ATOM     38  C   UNL A   1      38.263  28.672  28.582  1.00  0.00     0.029 A 
ATOM     39  N   UNL A   1      39.878  30.108  29.150  1.00  0.00    -0.354 N 
ATOM     40  C   UNL A   1      44.054  29.029  28.742  1.00  0.00     0.074 A 
ATOM     41  C   UNL A   1      44.190  27.693  28.204  1.00  0.00     0.031 C 
ATOM     42  C   UNL A   1      37.669  29.779  29.056  1.00  0.00     0.029 A 
ATOM     43  C   UNL A   1      38.694  30.733  29.469  1.00  0.00     0.049 A 
ATOM     44  H   UNL A   1      40.760  30.521  29.294  1.00  0.00     0.167 HD
ATOM     45  C   UNL A   1      45.096  29.838  29.065  1.00  0.00     0.034 A 
ATOM     46  C   UNL A   1      38.460  31.931  30.039  1.00  0.00     0.034 A 
ATOM     47  C   UNL A   1      44.942  31.173  29.591  1.00  0.00     0.049 A 
ATOM     48  C   UNL A   1      39.633  32.803  30.409  1.00  0.00     0.074 A 
ATOM     49  C   UNL A   1      45.926  32.097  29.900  1.00  0.00     0.029 A 
ATOM     50  N   UNL A   1      43.726  31.775  29.893  1.00  0.00    -0.354 N 
ATOM     51  N   UNL A   1      40.917  32.561  30.278  1.00  0.00    -0.248 NA
ATOM     52  C   UNL A   1      39.324  34.115  30.992  1.00  0.00     0.031 C 
ATOM     53  C   UNL A   1      45.311  33.228  30.449  1.00  0.00     0.029 A 
ATOM     54  C   UNL A   1      43.937  33.043  30.412  1.00  0.00     0.049 A 
ATOM     55  H   UNL A   1      42.843  31.360  29.759  1.00  0.00     0.167 HD
ATOM     56  C   UNL A   1      41.567  33.705  30.733  1.00  0.00     0.074 A 
ATOM     57  C   UNL A   1      40.534  34.640  31.129  1.00  0.00     0.031 C 
ATOM     58  C   UNL A   1      42.898  33.963  30.811  1.00  0.00     0.034 A 
BRANCH  45  59
ATOM     59  C   UNL A   1      46.488  29.281  28.877  1.00  0.00     0.023 A 
ATOM     60  C   UNL A   1      47.058  29.135  27.600  1.00  0.00     0.031 A 
ATOM     61  C   UNL A   1      47.245  28.864  29.986  1.00  0.00     0.131 A 
ATOM     62  C   UNL A   1      48.306  28.511  27.456  1.00  0.00     0.055 A 
ATOM     63  C   UNL A   1      48.524  28.322  29.842  1.00  0.00     0.041 A 
ATOM     64  F   UNL A   1      46.748  28.960  31.230  1.00  0.00    -0.206 F 
ATOM     65  C   UNL A   1      49.055  28.128  28.571  1.00  0.00     0.022 A 
BRANCH  62  66
ATOM     66  S   UNL A   1      48.866  28.074  25.788  1.00  0.00     0.124 S 
ATOM     67  O   UNL A   1      47.780  28.601  24.965  1.00  0.00    -0.237 OA
ATOM     68  O   UNL A   1      50.142  28.774  25.689  1.00  0.00    -0.237 OA
ATOM     69  O   UNL A   1      48.957  26.616  25.827  1.00  0.00    -0.744 OA
ENDBRANCH  62  66
ENDBRANCH  45  59
BRANCH  46  70
ATOM     70  C   UNL A   1      37.064  32.381  30.308  1.00  0.00     0.023 A 
ATOM     71  C   UNL A   1      36.270  32.923  29.286  1.00  0.00     0.031 A 
ATOM     72  C   UNL A   1      36.517  32.314  31.602  1.00  0.00     0.131 A 
ATOM     73  C   UNL A   1      34.991  33.420  29.582  1.00  0.00     0.055 A 
ATOM     74  C   UNL A   1      35.225  32.763  31.882  1.00  0.00     0.041 A 
ATOM     75  F   UNL A   1      37.232  31.799  32.615  1.00  0.00    -0.206 F 
ATOM     76  C   UNL A   1      34.458  33.332  30.870  1.00  0.00     0.022 A 
BRANCH  73  77
ATOM     77  S   UNL A   1      34.063  34.263  28.270  1.00  0.00     0.124 S 
ATOM     78  O   UNL A   1      33.073  33.255  27.912  1.00  0.00    -0.237 OA
ATOM     79  O   UNL A   1      33.558  35.441  28.967  1.00  0.00    -0.237 OA
ATOM     80  O   UNL A   1      35.079  34.531  27.254  1.00  0.00    -0.744 OA
ENDBRANCH  73  77
ENDBRANCH  46  70
BRANCH  58  81
ATOM     81  C   UNL A   1      43.304  35.332  31.298  1.00  0.00     0.023 A 
ATOM     82  C   UNL A   1      43.340  35.653  32.666  1.00  0.00     0.031 A 
ATOM     83  C   UNL A   1      43.649  36.335  30.374  1.00  0.00     0.131 A 
ATOM     84  C   UNL A   1      43.660  36.958  33.069  1.00  0.00     0.055 A 
ATOM     85  C   UNL A   1      44.025  37.614  30.783  1.00  0.00     0.041 A 
ATOM     86  F   UNL A   1      43.629  36.083  29.055  1.00  0.00    -0.206 F 
ATOM     87  C   UNL A   1      44.019  37.936  32.137  1.00  0.00     0.022 A 
BRANCH  84  88
ATOM     88  S   UNL A   1      43.518  37.388  34.825  1.00  0.00     0.124 S 
ATOM     89  O   UNL A   1      42.166  36.940  35.139  1.00  0.00    -0.237 OA
ATOM     90  O   UNL A   1      44.601  36.616  35.425  1.00  0.00    -0.237 OA
ATOM     91  O   UNL A   1      43.712  38.838  34.840  1.00  0.00    -0.744 OA
ENDBRANCH  84  88
ENDBRANCH  58  81
ENDBRANCH  32  33
ENDBRANCH  24  27
ENDBRANCH  22  23
ENDBRANCH  21  22
ENDBRANCH   1  21
TORSDOF 18
ENDMDL
