MODEL 1
REMARK VINA RESULT:     -12.4      0.000      0.000
REMARK SMILES Cc1ccnc(C(=O)c2[nH]c3ccc(C(C)(C)C)cc3c2CC(=O)NCCCCNC(=O)c2ccc(-c3c4nc(c(-c5cc(S(=O)(=O)[O-])ccc5F)c5ccc([nH]5)c(-c5cc(S(=O)(=O)[O-])ccc5F)c5nc(c(-c6cc(S(=O)(=O)[O-])ccc6F)c6ccc3[nH]6)C=C5)C=C4)cc2)c1
REMARK SMILES IDX 27 1 26 2 25 3 23 4 24 5 22 7 21 8 9 9 10 10 11 11 20 13
REMARK SMILES IDX 12 14 19 15 13 16 14 17 7 18 8 19 6 20 1 21 2 22 3 23 96 24
REMARK SMILES IDX 4 25 5 26 15 27 16 28 17 29 18 30 28 31 29 32 30 33 31 34
REMARK SMILES IDX 32 36 33 37 34 38 95 39 35 40 94 41 36 42 37 43 38 44 88 45
REMARK SMILES IDX 39 46 93 47 87 48 89 49 40 50 92 51 86 52 85 53 41 55 73 56
REMARK SMILES IDX 53 57 72 58 54 59 57 60 71 61 90 62 55 63 56 64 70 66 91 67
REMARK SMILES IDX 58 68 42 69 43 70 51 71 44 72 50 73 52 74 49 75 45 76 46 77
REMARK SMILES IDX 47 78 48 79 74 80 75 81 83 82 76 83 82 84 84 85 81 86 77 87
REMARK SMILES IDX 78 88 79 89 80 90 59 91 60 92 68 93 61 94 67 95 69 96 66 97
REMARK SMILES IDX 62 98 63 99 64 100 65 101
REMARK H PARENT 25 6 10 12 30 35 89 54 57 65
REMARK Flexibility Score: inf
ROOT
ATOM      1  C   UNL A   1      34.804  31.129  27.671  1.00  0.00     0.023 C 
ENDROOT
BRANCH   1   2
ATOM      2  C   UNL A   1      34.446  29.693  27.293  1.00  0.00     0.116 C 
BRANCH   2   3
ATOM      3  N   UNL A   1      33.167  29.270  27.826  1.00  0.00    -0.356 N 
ATOM      4  C   UNL A   1      32.381  28.216  27.457  1.00  0.00     0.224 C 
ATOM      5  O   UNL A   1      31.401  27.949  28.159  1.00  0.00    -0.275 OA
ATOM      6  H   UNL A   1      32.815  29.823  28.560  1.00  0.00     0.163 HD
BRANCH   4   7
ATOM      7  C   UNL A   1      32.771  27.308  26.299  1.00  0.00     0.138 C 
BRANCH   7   8
ATOM      8  C   UNL A   1      31.638  26.571  25.645  1.00  0.00    -0.002 A 
ATOM      9  C   UNL A   1      31.365  25.207  25.710  1.00  0.00     0.093 A 
ATOM     10  N   UNL A   1      30.166  24.999  25.066  1.00  0.00    -0.352 N 
ATOM     11  C   UNL A   1      29.728  26.154  24.469  1.00  0.00     0.046 A 
ATOM     12  H   UNL A   1      29.688  24.139  25.038  1.00  0.00     0.167 HD
ATOM     13  C   UNL A   1      30.637  27.153  24.797  1.00  0.00     0.004 A 
ATOM     14  C   UNL A   1      28.590  26.398  23.699  1.00  0.00     0.027 A 
ATOM     15  C   UNL A   1      30.393  28.460  24.318  1.00  0.00     0.015 A 
ATOM     16  C   UNL A   1      28.370  27.708  23.250  1.00  0.00     0.006 A 
ATOM     17  C   UNL A   1      29.252  28.759  23.544  1.00  0.00    -0.042 A 
BRANCH   9  18
ATOM     18  C   UNL A   1      32.089  24.157  26.407  1.00  0.00     0.227 C 
ATOM     19  O   UNL A   1      31.735  23.775  27.516  1.00  0.00    -0.285 OA
BRANCH  18  20
ATOM     20  C   UNL A   1      33.279  23.525  25.720  1.00  0.00     0.113 A 
ATOM     21  C   UNL A   1      37.057  23.778  25.467  1.00  0.00     0.044 C 
ATOM     22  C   UNL A   1      35.639  23.336  25.268  1.00  0.00    -0.047 A 
ATOM     23  C   UNL A   1      35.341  22.312  24.369  1.00  0.00     0.023 A 
ATOM     24  C   UNL A   1      34.589  23.938  25.970  1.00  0.00     0.036 A 
ATOM     25  C   UNL A   1      34.017  21.947  24.194  1.00  0.00     0.112 A 
ATOM     26  N   UNL A   1      32.989  22.537  24.835  1.00  0.00    -0.253 NA
ENDBRANCH  18  20
ENDBRANCH   9  18
BRANCH  17  27
ATOM     27  C   UNL A   1      28.998  30.210  23.095  1.00  0.00    -0.013 C 
ATOM     28  C   UNL A   1      27.479  30.490  23.119  1.00  0.00     0.016 C 
ATOM     29  C   UNL A   1      29.710  31.194  24.051  1.00  0.00     0.016 C 
ATOM     30  C   UNL A   1      29.504  30.520  21.668  1.00  0.00     0.016 C 
ENDBRANCH  17  27
ENDBRANCH   7   8
ENDBRANCH   4   7
ENDBRANCH   2   3
ENDBRANCH   1   2
BRANCH   1  31
ATOM     31  C   UNL A   1      33.613  32.046  27.959  1.00  0.00     0.023 C 
BRANCH  31  32
ATOM     32  C   UNL A   1      33.856  33.533  27.731  1.00  0.00     0.116 C 
BRANCH  32  33
ATOM     33  N   UNL A   1      33.190  34.384  28.705  1.00  0.00    -0.352 N 
ATOM     34  C   UNL A   1      33.499  34.579  30.031  1.00  0.00     0.251 C 
ATOM     35  H   UNL A   1      32.414  34.888  28.370  1.00  0.00     0.163 HD
ATOM     36  O   UNL A   1      32.760  35.265  30.732  1.00  0.00    -0.269 OA
BRANCH  34  37
ATOM     37  C   UNL A   1      34.692  33.925  30.617  1.00  0.00     0.039 A 
ATOM     38  C   UNL A   1      34.508  32.832  31.467  1.00  0.00     0.014 A 
ATOM     39  C   UNL A   1      35.981  34.373  30.319  1.00  0.00     0.014 A 
ATOM     40  C   UNL A   1      35.617  32.139  31.959  1.00  0.00     0.010 A 
ATOM     41  C   UNL A   1      37.085  33.647  30.760  1.00  0.00     0.010 A 
ATOM     42  C   UNL A   1      36.914  32.521  31.579  1.00  0.00    -0.014 A 
BRANCH  42  43
ATOM     43  C   UNL A   1      38.105  31.753  32.022  1.00  0.00     0.031 A 
ATOM     44  C   UNL A   1      38.799  32.112  33.306  1.00  0.00     0.074 A 
ATOM     45  C   UNL A   1      38.607  30.788  31.230  1.00  0.00     0.049 A 
ATOM     46  N   UNL A   1      39.898  31.623  33.819  1.00  0.00    -0.248 NA
ATOM     47  C   UNL A   1      38.187  33.189  34.097  1.00  0.00     0.031 C 
ATOM     48  C   UNL A   1      38.049  30.376  29.940  1.00  0.00     0.029 A 
ATOM     49  N   UNL A   1      39.708  29.986  31.386  1.00  0.00    -0.354 N 
ATOM     50  C   UNL A   1      40.122  32.343  34.988  1.00  0.00     0.074 A 
ATOM     51  C   UNL A   1      39.073  33.339  35.070  1.00  0.00     0.031 C 
ATOM     52  C   UNL A   1      38.800  29.385  29.433  1.00  0.00     0.029 A 
ATOM     53  C   UNL A   1      39.910  29.117  30.342  1.00  0.00     0.049 A 
ATOM     54  H   UNL A   1      40.298  30.029  32.173  1.00  0.00     0.167 HD
ATOM     55  C   UNL A   1      41.098  32.176  35.916  1.00  0.00     0.034 A 
ATOM     56  C   UNL A   1      40.885  28.211  30.135  1.00  0.00     0.034 A 
ATOM     57  C   UNL A   1      42.132  31.173  35.824  1.00  0.00     0.049 A 
ATOM     58  C   UNL A   1      41.973  28.056  31.161  1.00  0.00     0.074 A 
ATOM     59  C   UNL A   1      43.127  30.869  36.737  1.00  0.00     0.029 A 
ATOM     60  N   UNL A   1      42.311  30.315  34.746  1.00  0.00    -0.354 N 
ATOM     61  N   UNL A   1      42.148  28.713  32.285  1.00  0.00    -0.248 NA
ATOM     62  C   UNL A   1      42.992  27.035  30.892  1.00  0.00     0.031 C 
ATOM     63  C   UNL A   1      43.937  29.866  36.188  1.00  0.00     0.029 A 
ATOM     64  C   UNL A   1      43.415  29.503  34.957  1.00  0.00     0.049 A 
ATOM     65  H   UNL A   1      41.737  30.288  33.946  1.00  0.00     0.167 HD
ATOM     66  C   UNL A   1      43.286  28.166  32.868  1.00  0.00     0.074 A 
ATOM     67  C   UNL A   1      43.754  27.126  31.973  1.00  0.00     0.031 C 
ATOM     68  C   UNL A   1      43.884  28.488  34.043  1.00  0.00     0.034 A 
BRANCH  55  69
ATOM     69  C   UNL A   1      41.096  33.130  37.086  1.00  0.00     0.023 A 
ATOM     70  C   UNL A   1      40.480  32.797  38.306  1.00  0.00     0.031 A 
ATOM     71  C   UNL A   1      41.649  34.416  36.961  1.00  0.00     0.131 A 
ATOM     72  C   UNL A   1      40.339  33.766  39.310  1.00  0.00     0.055 A 
ATOM     73  C   UNL A   1      41.583  35.350  37.998  1.00  0.00     0.041 A 
ATOM     74  F   UNL A   1      42.236  34.799  35.816  1.00  0.00    -0.206 F 
ATOM     75  C   UNL A   1      40.906  35.035  39.172  1.00  0.00     0.022 A 
BRANCH  72  76
ATOM     76  S   UNL A   1      39.249  33.404  40.713  1.00  0.00     0.124 S 
ATOM     77  O   UNL A   1      40.197  33.367  41.824  1.00  0.00    -0.237 OA
ATOM     78  O   UNL A   1      38.327  34.533  40.695  1.00  0.00    -0.237 OA
ATOM     79  O   UNL A   1      38.661  32.111  40.365  1.00  0.00    -0.744 OA
ENDBRANCH  72  76
ENDBRANCH  55  69
BRANCH  56  80
ATOM     80  C   UNL A   1      40.878  27.377  28.904  1.00  0.00     0.023 A 
ATOM     81  C   UNL A   1      41.813  27.603  27.883  1.00  0.00     0.031 A 
ATOM     82  C   UNL A   1      39.936  26.349  28.732  1.00  0.00     0.131 A 
ATOM     83  C   UNL A   1      41.769  26.827  26.716  1.00  0.00     0.055 A 
ATOM     84  C   UNL A   1      39.917  25.558  27.583  1.00  0.00     0.041 A 
ATOM     85  F   UNL A   1      39.032  26.091  29.691  1.00  0.00    -0.206 F 
ATOM     86  C   UNL A   1      40.832  25.800  26.562  1.00  0.00     0.022 A 
BRANCH  83  87
ATOM     87  S   UNL A   1      42.940  27.195  25.382  1.00  0.00     0.124 S 
ATOM     88  O   UNL A   1      42.242  28.248  24.654  1.00  0.00    -0.237 OA
ATOM     89  O   UNL A   1      44.128  27.607  26.124  1.00  0.00    -0.237 OA
ATOM     90  O   UNL A   1      43.063  25.922  24.674  1.00  0.00    -0.744 OA
ENDBRANCH  83  87
ENDBRANCH  56  80
BRANCH  68  91
ATOM     91  C   UNL A   1      45.087  27.669  34.434  1.00  0.00     0.023 A 
ATOM     92  C   UNL A   1      44.964  26.508  35.217  1.00  0.00     0.031 A 
ATOM     93  C   UNL A   1      46.373  28.074  34.039  1.00  0.00     0.131 A 
ATOM     94  C   UNL A   1      46.117  25.817  35.622  1.00  0.00     0.055 A 
ATOM     95  C   UNL A   1      47.512  27.358  34.407  1.00  0.00     0.041 A 
ATOM     96  F   UNL A   1      46.543  29.179  33.295  1.00  0.00    -0.206 F 
ATOM     97  C   UNL A   1      47.388  26.229  35.212  1.00  0.00     0.022 A 
BRANCH  94  98
ATOM     98  S   UNL A   1      45.940  24.413  36.757  1.00  0.00     0.124 S 
ATOM     99  O   UNL A   1      47.075  24.603  37.655  1.00  0.00    -0.237 OA
ATOM    100  O   UNL A   1      44.622  24.643  37.338  1.00  0.00    -0.237 OA
ATOM    101  O   UNL A   1      46.034  23.248  35.879  1.00  0.00    -0.744 OA
ENDBRANCH  94  98
ENDBRANCH  68  91
ENDBRANCH  42  43
ENDBRANCH  34  37
ENDBRANCH  32  33
ENDBRANCH  31  32
ENDBRANCH   1  31
TORSDOF 18
ENDMDL
MODEL 2
REMARK VINA RESULT:     -12.3      6.043     10.097
REMARK SMILES Cc1ccnc(C(=O)c2[nH]c3ccc(C(C)(C)C)cc3c2CC(=O)NCCCCNC(=O)c2ccc(-c3c4nc(c(-c5cc(S(=O)(=O)[O-])ccc5F)c5ccc([nH]5)c(-c5cc(S(=O)(=O)[O-])ccc5F)c5nc(c(-c6cc(S(=O)(=O)[O-])ccc6F)c6ccc3[nH]6)C=C5)C=C4)cc2)c1
REMARK SMILES IDX 27 1 26 2 25 3 23 4 24 5 22 7 21 8 9 9 10 10 11 11 20 13
REMARK SMILES IDX 12 14 19 15 13 16 14 17 7 18 8 19 6 20 1 21 2 22 3 23 96 24
REMARK SMILES IDX 4 25 5 26 15 27 16 28 17 29 18 30 28 31 29 32 30 33 31 34
REMARK SMILES IDX 32 36 33 37 34 38 95 39 35 40 94 41 36 42 37 43 38 44 88 45
REMARK SMILES IDX 39 46 93 47 87 48 89 49 40 50 92 51 86 52 85 53 41 55 73 56
REMARK SMILES IDX 53 57 72 58 54 59 57 60 71 61 90 62 55 63 56 64 70 66 91 67
REMARK SMILES IDX 58 68 42 69 43 70 51 71 44 72 50 73 52 74 49 75 45 76 46 77
REMARK SMILES IDX 47 78 48 79 74 80 75 81 83 82 76 83 82 84 84 85 81 86 77 87
REMARK SMILES IDX 78 88 79 89 80 90 59 91 60 92 68 93 61 94 67 95 69 96 66 97
REMARK SMILES IDX 62 98 63 99 64 100 65 101
REMARK H PARENT 25 6 10 12 30 35 89 54 57 65
REMARK Flexibility Score: inf
ROOT
ATOM      1  C   UNL A   1      37.397  21.299  24.634  1.00  0.00     0.023 C 
ENDROOT
BRANCH   1   2
ATOM      2  C   UNL A   1      37.532  22.443  25.636  1.00  0.00     0.116 C 
BRANCH   2   3
ATOM      3  N   UNL A   1      36.292  22.739  26.325  1.00  0.00    -0.356 N 
ATOM      4  C   UNL A   1      35.195  23.420  25.880  1.00  0.00     0.224 C 
ATOM      5  O   UNL A   1      34.182  23.415  26.587  1.00  0.00    -0.275 OA
ATOM      6  H   UNL A   1      36.233  22.400  27.247  1.00  0.00     0.163 HD
BRANCH   4   7
ATOM      7  C   UNL A   1      35.166  24.049  24.494  1.00  0.00     0.138 C 
BRANCH   7   8
ATOM      8  C   UNL A   1      34.008  23.648  23.626  1.00  0.00    -0.002 A 
ATOM      9  C   UNL A   1      33.246  24.467  22.796  1.00  0.00     0.093 A 
ATOM     10  N   UNL A   1      32.380  23.652  22.102  1.00  0.00    -0.352 N 
ATOM     11  C   UNL A   1      32.459  22.360  22.555  1.00  0.00     0.046 A 
ATOM     12  H   UNL A   1      31.784  23.957  21.380  1.00  0.00     0.167 HD
ATOM     13  C   UNL A   1      33.456  22.326  23.522  1.00  0.00     0.004 A 
ATOM     14  C   UNL A   1      31.754  21.221  22.162  1.00  0.00     0.027 A 
ATOM     15  C   UNL A   1      33.753  21.087  24.131  1.00  0.00     0.015 A 
ATOM     16  C   UNL A   1      32.082  20.003  22.777  1.00  0.00     0.006 A 
ATOM     17  C   UNL A   1      33.076  19.904  23.763  1.00  0.00    -0.042 A 
BRANCH   9  18
ATOM     18  C   UNL A   1      33.361  25.895  22.559  1.00  0.00     0.227 C 
ATOM     19  O   UNL A   1      34.061  26.331  21.653  1.00  0.00    -0.285 OA
BRANCH  18  20
ATOM     20  C   UNL A   1      32.575  26.838  23.443  1.00  0.00     0.113 A 
ATOM     21  C   UNL A   1      31.633  27.437  27.070  1.00  0.00     0.044 C 
ATOM     22  C   UNL A   1      31.750  27.579  25.583  1.00  0.00    -0.047 A 
ATOM     23  C   UNL A   1      31.072  28.601  24.920  1.00  0.00     0.023 A 
ATOM     24  C   UNL A   1      32.531  26.695  24.831  1.00  0.00     0.036 A 
ATOM     25  C   UNL A   1      31.184  28.687  23.542  1.00  0.00     0.112 A 
ATOM     26  N   UNL A   1      31.904  27.825  22.797  1.00  0.00    -0.253 NA
ENDBRANCH  18  20
ENDBRANCH   9  18
BRANCH  17  27
ATOM     27  C   UNL A   1      33.476  18.567  24.413  1.00  0.00    -0.013 C 
ATOM     28  C   UNL A   1      33.087  17.408  23.468  1.00  0.00     0.016 C 
ATOM     29  C   UNL A   1      35.000  18.531  24.660  1.00  0.00     0.016 C 
ATOM     30  C   UNL A   1      32.790  18.304  25.773  1.00  0.00     0.016 C 
ENDBRANCH  17  27
ENDBRANCH   7   8
ENDBRANCH   4   7
ENDBRANCH   2   3
ENDBRANCH   1   2
BRANCH   1  31
ATOM     31  C   UNL A   1      38.161  20.022  24.992  1.00  0.00     0.023 C 
BRANCH  31  32
ATOM     32  C   UNL A   1      39.241  20.177  26.055  1.00  0.00     0.116 C 
BRANCH  32  33
ATOM     33  N   UNL A   1      40.272  19.153  25.985  1.00  0.00    -0.352 N 
ATOM     34  C   UNL A   1      41.634  19.292  26.121  1.00  0.00     0.251 C 
ATOM     35  H   UNL A   1      39.953  18.237  25.818  1.00  0.00     0.163 HD
ATOM     36  O   UNL A   1      42.365  18.324  25.932  1.00  0.00    -0.269 OA
BRANCH  34  37
ATOM     37  C   UNL A   1      42.213  20.615  26.447  1.00  0.00     0.039 A 
ATOM     38  C   UNL A   1      42.530  21.486  25.400  1.00  0.00     0.014 A 
ATOM     39  C   UNL A   1      42.428  21.005  27.772  1.00  0.00     0.014 A 
ATOM     40  C   UNL A   1      42.990  22.774  25.683  1.00  0.00     0.010 A 
ATOM     41  C   UNL A   1      42.829  22.308  28.054  1.00  0.00     0.010 A 
ATOM     42  C   UNL A   1      43.108  23.207  27.013  1.00  0.00    -0.014 A 
BRANCH  42  43
ATOM     43  C   UNL A   1      43.518  24.596  27.339  1.00  0.00     0.031 A 
ATOM     44  C   UNL A   1      42.531  25.549  27.953  1.00  0.00     0.074 A 
ATOM     45  C   UNL A   1      44.752  25.021  27.010  1.00  0.00     0.049 A 
ATOM     46  N   UNL A   1      42.667  26.821  28.229  1.00  0.00    -0.248 NA
ATOM     47  C   UNL A   1      41.204  25.001  28.264  1.00  0.00     0.031 C 
ATOM     48  C   UNL A   1      45.786  24.203  26.372  1.00  0.00     0.029 A 
ATOM     49  N   UNL A   1      45.342  26.249  27.155  1.00  0.00    -0.354 N 
ATOM     50  C   UNL A   1      41.438  27.232  28.733  1.00  0.00     0.074 A 
ATOM     51  C   UNL A   1      40.556  26.083  28.665  1.00  0.00     0.031 C 
ATOM     52  C   UNL A   1      46.890  24.949  26.198  1.00  0.00     0.029 A 
ATOM     53  C   UNL A   1      46.630  26.302  26.679  1.00  0.00     0.049 A 
ATOM     54  H   UNL A   1      44.886  27.022  27.562  1.00  0.00     0.167 HD
ATOM     55  C   UNL A   1      41.083  28.446  29.225  1.00  0.00     0.034 A 
ATOM     56  C   UNL A   1      47.501  27.328  26.627  1.00  0.00     0.034 A 
ATOM     57  C   UNL A   1      41.976  29.577  29.293  1.00  0.00     0.049 A 
ATOM     58  C   UNL A   1      47.083  28.673  27.153  1.00  0.00     0.074 A 
ATOM     59  C   UNL A   1      41.746  30.832  29.834  1.00  0.00     0.029 A 
ATOM     60  N   UNL A   1      43.273  29.597  28.792  1.00  0.00    -0.354 N 
ATOM     61  N   UNL A   1      45.932  29.037  27.668  1.00  0.00    -0.248 NA
ATOM     62  C   UNL A   1      48.086  29.744  27.093  1.00  0.00     0.031 C 
ATOM     63  C   UNL A   1      42.881  31.621  29.612  1.00  0.00     0.029 A 
ATOM     64  C   UNL A   1      43.843  30.846  28.985  1.00  0.00     0.049 A 
ATOM     65  H   UNL A   1      43.720  28.833  28.361  1.00  0.00     0.167 HD
ATOM     66  C   UNL A   1      46.080  30.376  28.016  1.00  0.00     0.074 A 
ATOM     67  C   UNL A   1      47.433  30.752  27.653  1.00  0.00     0.031 C 
ATOM     68  C   UNL A   1      45.183  31.214  28.593  1.00  0.00     0.034 A 
BRANCH  55  69
ATOM     69  C   UNL A   1      39.656  28.601  29.691  1.00  0.00     0.023 A 
ATOM     70  C   UNL A   1      38.636  29.013  28.815  1.00  0.00     0.031 A 
ATOM     71  C   UNL A   1      39.320  28.406  31.042  1.00  0.00     0.131 A 
ATOM     72  C   UNL A   1      37.361  29.318  29.314  1.00  0.00     0.055 A 
ATOM     73  C   UNL A   1      38.025  28.627  31.518  1.00  0.00     0.041 A 
ATOM     74  F   UNL A   1      40.252  28.028  31.931  1.00  0.00    -0.206 F 
ATOM     75  C   UNL A   1      37.043  29.107  30.657  1.00  0.00     0.022 A 
BRANCH  72  76
ATOM     76  S   UNL A   1      36.187  30.165  28.222  1.00  0.00     0.124 S 
ATOM     77  O   UNL A   1      34.994  29.332  28.365  1.00  0.00    -0.237 OA
ATOM     78  O   UNL A   1      36.113  31.496  28.812  1.00  0.00    -0.237 OA
ATOM     79  O   UNL A   1      36.829  30.098  26.910  1.00  0.00    -0.744 OA
ENDBRANCH  72  76
ENDBRANCH  55  69
BRANCH  56  80
ATOM     80  C   UNL A   1      48.859  27.125  26.056  1.00  0.00     0.023 A 
ATOM     81  C   UNL A   1      49.108  27.378  24.699  1.00  0.00     0.031 A 
ATOM     82  C   UNL A   1      49.920  26.670  26.857  1.00  0.00     0.131 A 
ATOM     83  C   UNL A   1      50.388  27.148  24.172  1.00  0.00     0.055 A 
ATOM     84  C   UNL A   1      51.199  26.474  26.336  1.00  0.00     0.041 A 
ATOM     85  F   UNL A   1      49.727  26.428  28.163  1.00  0.00    -0.206 F 
ATOM     86  C   UNL A   1      51.437  26.706  24.983  1.00  0.00     0.022 A 
BRANCH  83  87
ATOM     87  S   UNL A   1      50.658  27.411  22.399  1.00  0.00     0.124 S 
ATOM     88  O   UNL A   1      51.966  26.796  22.203  1.00  0.00    -0.237 OA
ATOM     89  O   UNL A   1      49.523  26.707  21.810  1.00  0.00    -0.237 OA
ATOM     90  O   UNL A   1      50.624  28.865  22.261  1.00  0.00    -0.744 OA
ENDBRANCH  83  87
ENDBRANCH  56  80
BRANCH  68  91
ATOM     91  C   UNL A   1      45.664  32.609  28.900  1.00  0.00     0.023 A 
ATOM     92  C   UNL A   1      45.512  33.660  27.977  1.00  0.00     0.031 A 
ATOM     93  C   UNL A   1      46.306  32.880  30.120  1.00  0.00     0.131 A 
ATOM     94  C   UNL A   1      46.042  34.925  28.272  1.00  0.00     0.055 A 
ATOM     95  C   UNL A   1      46.789  34.152  30.426  1.00  0.00     0.041 A 
ATOM     96  F   UNL A   1      46.478  31.910  31.031  1.00  0.00    -0.206 F 
ATOM     97  C   UNL A   1      46.669  35.181  29.495  1.00  0.00     0.022 A 
BRANCH  94  98
ATOM     98  S   UNL A   1      45.968  36.220  27.004  1.00  0.00     0.124 S 
ATOM     99  O   UNL A   1      45.175  35.578  25.960  1.00  0.00    -0.237 OA
ATOM    100  O   UNL A   1      45.319  37.317  27.714  1.00  0.00    -0.237 OA
ATOM    101  O   UNL A   1      47.371  36.448  26.663  1.00  0.00    -0.744 OA
ENDBRANCH  94  98
ENDBRANCH  68  91
ENDBRANCH  42  43
ENDBRANCH  34  37
ENDBRANCH  32  33
ENDBRANCH  31  32
ENDBRANCH   1  31
TORSDOF 18
ENDMDL
MODEL 3
REMARK VINA RESULT:     -12.3      5.460     11.030
REMARK SMILES Cc1ccnc(C(=O)c2[nH]c3ccc(C(C)(C)C)cc3c2CC(=O)NCCCCNC(=O)c2ccc(-c3c4nc(c(-c5cc(S(=O)(=O)[O-])ccc5F)c5ccc([nH]5)c(-c5cc(S(=O)(=O)[O-])ccc5F)c5nc(c(-c6cc(S(=O)(=O)[O-])ccc6F)c6ccc3[nH]6)C=C5)C=C4)cc2)c1
REMARK SMILES IDX 27 1 26 2 25 3 23 4 24 5 22 7 21 8 9 9 10 10 11 11 20 13
REMARK SMILES IDX 12 14 19 15 13 16 14 17 7 18 8 19 6 20 1 21 2 22 3 23 96 24
REMARK SMILES IDX 4 25 5 26 15 27 16 28 17 29 18 30 28 31 29 32 30 33 31 34
REMARK SMILES IDX 32 36 33 37 34 38 95 39 35 40 94 41 36 42 37 43 38 44 88 45
REMARK SMILES IDX 39 46 93 47 87 48 89 49 40 50 92 51 86 52 85 53 41 55 73 56
REMARK SMILES IDX 53 57 72 58 54 59 57 60 71 61 90 62 55 63 56 64 70 66 91 67
REMARK SMILES IDX 58 68 42 69 43 70 51 71 44 72 50 73 52 74 49 75 45 76 46 77
REMARK SMILES IDX 47 78 48 79 74 80 75 81 83 82 76 83 82 84 84 85 81 86 77 87
REMARK SMILES IDX 78 88 79 89 80 90 59 91 60 92 68 93 61 94 67 95 69 96 66 97
REMARK SMILES IDX 62 98 63 99 64 100 65 101
REMARK H PARENT 25 6 10 12 30 35 89 54 57 65
REMARK Flexibility Score: inf
ROOT
ATOM      1  C   UNL A   1      37.677  20.771  24.720  1.00  0.00     0.023 C 
ENDROOT
BRANCH   1   2
ATOM      2  C   UNL A   1      37.854  22.006  25.602  1.00  0.00     0.116 C 
BRANCH   2   3
ATOM      3  N   UNL A   1      36.651  22.356  26.330  1.00  0.00    -0.356 N 
ATOM      4  C   UNL A   1      35.549  23.040  25.903  1.00  0.00     0.224 C 
ATOM      5  O   UNL A   1      34.568  23.086  26.652  1.00  0.00    -0.275 OA
ATOM      6  H   UNL A   1      36.625  22.058  27.268  1.00  0.00     0.163 HD
BRANCH   4   7
ATOM      7  C   UNL A   1      35.471  23.611  24.494  1.00  0.00     0.138 C 
BRANCH   7   8
ATOM      8  C   UNL A   1      34.221  23.281  23.730  1.00  0.00    -0.002 A 
ATOM      9  C   UNL A   1      33.392  24.161  23.039  1.00  0.00     0.093 A 
ATOM     10  N   UNL A   1      32.442  23.405  22.392  1.00  0.00    -0.352 N 
ATOM     11  C   UNL A   1      32.543  22.085  22.752  1.00  0.00     0.046 A 
ATOM     12  H   UNL A   1      31.780  23.762  21.757  1.00  0.00     0.167 HD
ATOM     13  C   UNL A   1      33.636  21.976  23.603  1.00  0.00     0.004 A 
ATOM     14  C   UNL A   1      31.779  20.982  22.366  1.00  0.00     0.027 A 
ATOM     15  C   UNL A   1      33.970  20.696  24.099  1.00  0.00     0.015 A 
ATOM     16  C   UNL A   1      32.145  19.724  22.866  1.00  0.00     0.006 A 
ATOM     17  C   UNL A   1      33.235  19.549  23.732  1.00  0.00    -0.042 A 
BRANCH   9  18
ATOM     18  C   UNL A   1      33.510  25.601  22.881  1.00  0.00     0.227 C 
ATOM     19  O   UNL A   1      34.028  26.087  21.883  1.00  0.00    -0.285 OA
BRANCH  18  20
ATOM     20  C   UNL A   1      32.953  26.493  23.969  1.00  0.00     0.113 A 
ATOM     21  C   UNL A   1      34.026  28.606  26.932  1.00  0.00     0.044 C 
ATOM     22  C   UNL A   1      33.189  27.924  25.894  1.00  0.00    -0.047 A 
ATOM     23  C   UNL A   1      31.800  28.051  25.916  1.00  0.00     0.023 A 
ATOM     24  C   UNL A   1      33.775  27.147  24.888  1.00  0.00     0.036 A 
ATOM     25  C   UNL A   1      31.058  27.387  24.954  1.00  0.00     0.112 A 
ATOM     26  N   UNL A   1      31.601  26.606  23.999  1.00  0.00    -0.253 NA
ENDBRANCH  18  20
ENDBRANCH   9  18
BRANCH  17  27
ATOM     27  C   UNL A   1      33.675  18.168  24.251  1.00  0.00    -0.013 C 
ATOM     28  C   UNL A   1      33.446  17.114  23.144  1.00  0.00     0.016 C 
ATOM     29  C   UNL A   1      35.173  18.193  24.626  1.00  0.00     0.016 C 
ATOM     30  C   UNL A   1      32.903  17.697  25.504  1.00  0.00     0.016 C 
ENDBRANCH  17  27
ENDBRANCH   7   8
ENDBRANCH   4   7
ENDBRANCH   2   3
ENDBRANCH   1   2
BRANCH   1  31
ATOM     31  C   UNL A   1      38.589  19.589  25.057  1.00  0.00     0.023 C 
BRANCH  31  32
ATOM     32  C   UNL A   1      39.526  19.797  26.241  1.00  0.00     0.116 C 
BRANCH  32  33
ATOM     33  N   UNL A   1      40.792  19.094  26.106  1.00  0.00    -0.352 N 
ATOM     34  C   UNL A   1      42.069  19.605  26.142  1.00  0.00     0.251 C 
ATOM     35  H   UNL A   1      40.727  18.122  25.971  1.00  0.00     0.163 HD
ATOM     36  O   UNL A   1      43.024  18.869  25.910  1.00  0.00    -0.269 OA
BRANCH  34  37
ATOM     37  C   UNL A   1      42.282  21.045  26.413  1.00  0.00     0.039 A 
ATOM     38  C   UNL A   1      42.489  21.457  27.732  1.00  0.00     0.014 A 
ATOM     39  C   UNL A   1      42.295  21.982  25.375  1.00  0.00     0.014 A 
ATOM     40  C   UNL A   1      42.784  22.795  28.004  1.00  0.00     0.010 A 
ATOM     41  C   UNL A   1      42.648  23.303  25.640  1.00  0.00     0.010 A 
ATOM     42  C   UNL A   1      42.902  23.721  26.955  1.00  0.00    -0.014 A 
BRANCH  42  43
ATOM     43  C   UNL A   1      43.294  25.130  27.210  1.00  0.00     0.031 A 
ATOM     44  C   UNL A   1      44.724  25.558  27.038  1.00  0.00     0.074 A 
ATOM     45  C   UNL A   1      42.378  26.002  27.671  1.00  0.00     0.049 A 
ATOM     46  N   UNL A   1      45.280  26.715  27.293  1.00  0.00    -0.248 NA
ATOM     47  C   UNL A   1      45.655  24.535  26.544  1.00  0.00     0.031 C 
ATOM     48  C   UNL A   1      40.968  25.696  27.920  1.00  0.00     0.029 A 
ATOM     49  N   UNL A   1      42.499  27.320  28.027  1.00  0.00    -0.354 N 
ATOM     50  C   UNL A   1      46.631  26.556  27.006  1.00  0.00     0.074 A 
ATOM     51  C   UNL A   1      46.813  25.172  26.615  1.00  0.00     0.031 C 
ATOM     52  C   UNL A   1      40.351  26.802  28.369  1.00  0.00     0.029 A 
ATOM     53  C   UNL A   1      41.327  27.882  28.473  1.00  0.00     0.049 A 
ATOM     54  H   UNL A   1      43.347  27.819  27.967  1.00  0.00     0.167 HD
ATOM     55  C   UNL A   1      47.624  27.481  27.045  1.00  0.00     0.034 A 
ATOM     56  C   UNL A   1      41.070  29.124  28.924  1.00  0.00     0.034 A 
ATOM     57  C   UNL A   1      47.425  28.857  27.429  1.00  0.00     0.049 A 
ATOM     58  C   UNL A   1      42.186  30.129  28.985  1.00  0.00     0.074 A 
ATOM     59  C   UNL A   1      48.341  29.896  27.438  1.00  0.00     0.029 A 
ATOM     60  N   UNL A   1      46.224  29.389  27.885  1.00  0.00    -0.354 N 
ATOM     61  N   UNL A   1      43.452  29.979  28.669  1.00  0.00    -0.248 NA
ATOM     62  C   UNL A   1      41.837  31.474  29.461  1.00  0.00     0.031 C 
ATOM     63  C   UNL A   1      47.709  31.037  27.948  1.00  0.00     0.029 A 
ATOM     64  C   UNL A   1      46.383  30.728  28.205  1.00  0.00     0.049 A 
ATOM     65  H   UNL A   1      45.382  28.885  27.970  1.00  0.00     0.167 HD
ATOM     66  C   UNL A   1      44.045  31.218  28.885  1.00  0.00     0.074 A 
ATOM     67  C   UNL A   1      42.999  32.103  29.357  1.00  0.00     0.031 C 
ATOM     68  C   UNL A   1      45.336  31.592  28.700  1.00  0.00     0.034 A 
BRANCH  55  69
ATOM     69  C   UNL A   1      49.012  27.005  26.692  1.00  0.00     0.023 A 
ATOM     70  C   UNL A   1      49.998  26.817  27.677  1.00  0.00     0.031 A 
ATOM     71  C   UNL A   1      49.380  26.806  25.350  1.00  0.00     0.131 A 
ATOM     72  C   UNL A   1      51.323  26.546  27.302  1.00  0.00     0.055 A 
ATOM     73  C   UNL A   1      50.681  26.450  24.988  1.00  0.00     0.041 A 
ATOM     74  F   UNL A   1      48.488  26.985  24.363  1.00  0.00    -0.206 F 
ATOM     75  C   UNL A   1      51.667  26.340  25.964  1.00  0.00     0.022 A 
BRANCH  72  76
ATOM     76  S   UNL A   1      52.617  26.651  28.569  1.00  0.00     0.124 S 
ATOM     77  O   UNL A   1      52.786  28.097  28.701  1.00  0.00    -0.237 OA
ATOM     78  O   UNL A   1      52.001  25.973  29.704  1.00  0.00    -0.237 OA
ATOM     79  O   UNL A   1      53.748  25.952  27.962  1.00  0.00    -0.744 OA
ENDBRANCH  72  76
ENDBRANCH  55  69
BRANCH  56  80
ATOM     80  C   UNL A   1      39.695  29.490  29.355  1.00  0.00     0.023 A 
ATOM     81  C   UNL A   1      39.370  29.572  30.718  1.00  0.00     0.031 A 
ATOM     82  C   UNL A   1      38.688  29.757  28.412  1.00  0.00     0.131 A 
ATOM     83  C   UNL A   1      38.059  29.887  31.103  1.00  0.00     0.055 A 
ATOM     84  C   UNL A   1      37.393  30.101  28.800  1.00  0.00     0.041 A 
ATOM     85  F   UNL A   1      38.959  29.702  27.098  1.00  0.00    -0.206 F 
ATOM     86  C   UNL A   1      37.070  30.160  30.153  1.00  0.00     0.022 A 
BRANCH  83  87
ATOM     87  S   UNL A   1      37.654  29.909  32.870  1.00  0.00     0.124 S 
ATOM     88  O   UNL A   1      36.488  30.783  32.897  1.00  0.00    -0.237 OA
ATOM     89  O   UNL A   1      37.403  28.497  33.143  1.00  0.00    -0.237 OA
ATOM     90  O   UNL A   1      38.860  30.454  33.490  1.00  0.00    -0.744 OA
ENDBRANCH  83  87
ENDBRANCH  56  80
BRANCH  68  91
ATOM     91  C   UNL A   1      45.666  33.036  28.974  1.00  0.00     0.023 A 
ATOM     92  C   UNL A   1      45.586  34.014  27.967  1.00  0.00     0.031 A 
ATOM     93  C   UNL A   1      46.091  33.430  30.254  1.00  0.00     0.131 A 
ATOM     94  C   UNL A   1      45.976  35.333  28.247  1.00  0.00     0.055 A 
ATOM     95  C   UNL A   1      46.432  34.752  30.538  1.00  0.00     0.041 A 
ATOM     96  F   UNL A   1      46.187  32.533  31.248  1.00  0.00    -0.206 F 
ATOM     97  C   UNL A   1      46.386  35.710  29.528  1.00  0.00     0.022 A 
BRANCH  94  98
ATOM     98  S   UNL A   1      46.009  36.540  26.892  1.00  0.00     0.124 S 
ATOM     99  O   UNL A   1      46.371  35.705  25.751  1.00  0.00    -0.237 OA
ATOM    100  O   UNL A   1      44.644  37.055  26.898  1.00  0.00    -0.237 OA
ATOM    101  O   UNL A   1      47.033  37.496  27.309  1.00  0.00    -0.744 OA
ENDBRANCH  94  98
ENDBRANCH  68  91
ENDBRANCH  42  43
ENDBRANCH  34  37
ENDBRANCH  32  33
ENDBRANCH  31  32
ENDBRANCH   1  31
TORSDOF 18
ENDMDL
