MODEL 1
REMARK VINA RESULT:      -9.2      0.000      0.000
REMARK SMILES COC(=O)C1=C(C)N(c2ccc(Br)cc2)C(=O)/C1=C\c1ccc(C(=O)NCCCCNC(=O)c2ccc(-c3c4nc(c(-c5cc(S(=O)(=O)[O-])ccc5F)c5ccc([nH]5)c(-c5cc(S(=O)(=O)[O-])ccc5F)c5nc(c(-c6cc(S(=O)(=O)[O-])ccc6F)c6ccc3[nH]6)C=C5)C=C4)cc2)cc1
REMARK SMILES IDX 28 1 27 2 26 3 24 4 25 5 23 7 20 8 21 9 98 10 22 11 97 12
REMARK SMILES IDX 19 13 5 14 6 15 18 16 7 17 8 18 16 19 17 20 3 21 4 22 2 23
REMARK SMILES IDX 1 24 9 25 10 26 15 27 11 28 14 29 12 30 13 31 29 32 30 33
REMARK SMILES IDX 31 34 32 35 33 37 34 38 35 39 96 40 36 41 95 42 37 43 38 44
REMARK SMILES IDX 39 45 89 46 40 47 94 48 88 49 90 50 41 51 93 52 87 53 86 54
REMARK SMILES IDX 42 56 74 57 54 58 73 59 55 60 58 61 72 62 91 63 56 64 57 65
REMARK SMILES IDX 71 67 92 68 59 69 43 70 44 71 52 72 45 73 51 74 53 75 50 76
REMARK SMILES IDX 46 77 47 78 48 79 49 80 75 81 76 82 84 83 77 84 83 85 85 86
REMARK SMILES IDX 82 87 78 88 79 89 80 90 81 91 60 92 61 93 69 94 62 95 68 96
REMARK SMILES IDX 70 97 67 98 63 99 64 100 65 101 66 102
REMARK H PARENT 26 6 31 36 90 55 58 66
REMARK Flexibility Score: inf
ROOT
ATOM      1  C   UNL A   1      34.074  33.502  30.215  1.00  0.00     0.023 C 
ENDROOT
BRANCH   1   2
ATOM      2  C   UNL A   1      34.686  34.037  31.512  1.00  0.00     0.116 C 
BRANCH   2   3
ATOM      3  N   UNL A   1      35.316  32.962  32.254  1.00  0.00    -0.352 N 
ATOM      4  C   UNL A   1      36.626  32.567  32.356  1.00  0.00     0.251 C 
ATOM      5  O   UNL A   1      36.888  31.613  33.089  1.00  0.00    -0.269 OA
ATOM      6  H   UNL A   1      34.690  32.415  32.780  1.00  0.00     0.163 HD
BRANCH   4   7
ATOM      7  C   UNL A   1      37.744  33.272  31.666  1.00  0.00     0.039 A 
ATOM      8  C   UNL A   1      39.858  34.443  30.228  1.00  0.00    -0.025 A 
ATOM      9  C   UNL A   1      38.843  33.769  29.546  1.00  0.00     0.009 A 
ATOM     10  C   UNL A   1      39.784  34.580  31.614  1.00  0.00     0.009 A 
ATOM     11  C   UNL A   1      37.795  33.184  30.265  1.00  0.00     0.014 A 
ATOM     12  C   UNL A   1      38.717  34.027  32.322  1.00  0.00     0.014 A 
BRANCH   8  13
ATOM     13  C   UNL A   1      40.998  35.041  29.540  1.00  0.00     0.023 C 
ATOM     14  C   UNL A   1      43.355  35.009  28.721  1.00  0.00     0.092 C 
ATOM     15  C   UNL A   1      44.281  34.040  28.543  1.00  0.00     0.039 C 
ATOM     16  C   UNL A   1      42.157  34.415  29.280  1.00  0.00     0.057 C 
ATOM     17  C   UNL A   1      45.624  34.243  27.917  1.00  0.00     0.066 C 
ATOM     18  N   UNL A   1      43.767  32.802  28.945  1.00  0.00    -0.280 N 
ATOM     19  C   UNL A   1      42.454  32.954  29.464  1.00  0.00     0.263 C 
ATOM     20  O   UNL A   1      41.714  32.121  29.950  1.00  0.00    -0.268 OA
BRANCH  14  21
ATOM     21  C   UNL A   1      43.497  36.444  28.428  1.00  0.00     0.340 C 
ATOM     22  O   UNL A   1      43.722  37.291  29.279  1.00  0.00    -0.246 OA
BRANCH  21  23
ATOM     23  O   UNL A   1      43.269  36.684  27.114  1.00  0.00    -0.465 OA
ATOM     24  C   UNL A   1      42.229  37.632  26.877  1.00  0.00     0.282 C 
ENDBRANCH  21  23
ENDBRANCH  14  21
BRANCH  18  25
ATOM     25  C   UNL A   1      44.345  31.510  28.803  1.00  0.00     0.049 A 
ATOM     26  C   UNL A   1      44.401  30.918  27.531  1.00  0.00     0.028 A 
ATOM     27  C   UNL A   1      44.916  30.823  29.882  1.00  0.00     0.028 A 
ATOM     28  C   UNL A   1      45.081  29.715  27.325  1.00  0.00     0.018 A 
ATOM     29  C   UNL A   1      45.588  29.611  29.682  1.00  0.00     0.018 A 
ATOM     30  C   UNL A   1      45.686  29.074  28.400  1.00  0.00     0.018 A 
ATOM     31  Br  UNL A   1      46.653  27.476  28.117  1.00  0.00    -0.051 Br
ENDBRANCH  18  25
ENDBRANCH   8  13
ENDBRANCH   4   7
ENDBRANCH   2   3
ENDBRANCH   1   2
BRANCH   1  32
ATOM     32  C   UNL A   1      34.601  34.187  28.953  1.00  0.00     0.023 C 
BRANCH  32  33
ATOM     33  C   UNL A   1      35.166  33.236  27.904  1.00  0.00     0.116 C 
BRANCH  33  34
ATOM     34  N   UNL A   1      34.305  32.090  27.653  1.00  0.00    -0.352 N 
ATOM     35  C   UNL A   1      34.603  30.757  27.793  1.00  0.00     0.251 C 
ATOM     36  H   UNL A   1      33.394  32.297  27.343  1.00  0.00     0.163 HD
ATOM     37  O   UNL A   1      33.810  29.904  27.405  1.00  0.00    -0.269 OA
BRANCH  35  38
ATOM     38  C   UNL A   1      35.904  30.370  28.376  1.00  0.00     0.039 A 
ATOM     39  C   UNL A   1      35.933  29.807  29.652  1.00  0.00     0.014 A 
ATOM     40  C   UNL A   1      37.081  30.511  27.636  1.00  0.00     0.014 A 
ATOM     41  C   UNL A   1      37.139  29.323  30.161  1.00  0.00     0.010 A 
ATOM     42  C   UNL A   1      38.264  29.956  28.111  1.00  0.00     0.010 A 
ATOM     43  C   UNL A   1      38.306  29.355  29.378  1.00  0.00    -0.014 A 
BRANCH  43  44
ATOM     44  C   UNL A   1      39.577  28.766  29.872  1.00  0.00     0.031 A 
ATOM     45  C   UNL A   1      40.243  29.331  31.098  1.00  0.00     0.074 A 
ATOM     46  C   UNL A   1      40.157  27.759  29.187  1.00  0.00     0.049 A 
ATOM     47  N   UNL A   1      41.381  28.997  31.648  1.00  0.00    -0.248 NA
ATOM     48  C   UNL A   1      39.549  30.436  31.777  1.00  0.00     0.031 C 
ATOM     49  C   UNL A   1      39.626  27.157  27.962  1.00  0.00     0.029 A 
ATOM     50  N   UNL A   1      41.322  27.069  29.414  1.00  0.00    -0.354 N 
ATOM     51  C   UNL A   1      41.546  29.856  32.730  1.00  0.00     0.074 A 
ATOM     52  C   UNL A   1      40.421  30.766  32.717  1.00  0.00     0.031 C 
ATOM     53  C   UNL A   1      40.445  26.169  27.565  1.00  0.00     0.029 A 
ATOM     54  C   UNL A   1      41.588  26.102  28.470  1.00  0.00     0.049 A 
ATOM     55  H   UNL A   1      41.913  27.249  30.181  1.00  0.00     0.167 HD
ATOM     56  C   UNL A   1      42.531  29.867  33.661  1.00  0.00     0.034 A 
ATOM     57  C   UNL A   1      42.640  25.269  28.340  1.00  0.00     0.034 A 
ATOM     58  C   UNL A   1      43.641  28.946  33.662  1.00  0.00     0.049 A 
ATOM     59  C   UNL A   1      43.743  25.327  29.368  1.00  0.00     0.074 A 
ATOM     60  C   UNL A   1      44.665  28.833  34.587  1.00  0.00     0.029 A 
ATOM     61  N   UNL A   1      43.882  27.987  32.685  1.00  0.00    -0.354 N 
ATOM     62  N   UNL A   1      43.853  26.108  30.419  1.00  0.00    -0.248 NA
ATOM     63  C   UNL A   1      44.858  24.385  29.200  1.00  0.00     0.031 C 
ATOM     64  C   UNL A   1      45.565  27.868  34.128  1.00  0.00     0.029 A 
ATOM     65  C   UNL A   1      45.058  27.307  32.966  1.00  0.00     0.049 A 
ATOM     66  H   UNL A   1      43.303  27.814  31.908  1.00  0.00     0.167 HD
ATOM     67  C   UNL A   1      45.032  25.724  31.055  1.00  0.00     0.074 A 
ATOM     68  C   UNL A   1      45.584  24.634  30.279  1.00  0.00     0.031 C 
ATOM     69  C   UNL A   1      45.603  26.224  32.181  1.00  0.00     0.034 A 
BRANCH  56  70
ATOM     70  C   UNL A   1      42.467  30.927  34.735  1.00  0.00     0.023 A 
ATOM     71  C   UNL A   1      42.979  32.221  34.533  1.00  0.00     0.031 A 
ATOM     72  C   UNL A   1      41.892  30.637  35.986  1.00  0.00     0.131 A 
ATOM     73  C   UNL A   1      42.968  33.152  35.583  1.00  0.00     0.055 A 
ATOM     74  C   UNL A   1      41.808  31.594  36.999  1.00  0.00     0.041 A 
ATOM     75  F   UNL A   1      41.409  29.413  36.248  1.00  0.00    -0.206 F 
ATOM     76  C   UNL A   1      42.361  32.856  36.805  1.00  0.00     0.022 A 
BRANCH  73  77
ATOM     77  S   UNL A   1      43.886  34.702  35.375  1.00  0.00     0.124 S 
ATOM     78  O   UNL A   1      45.073  34.454  36.190  1.00  0.00    -0.237 OA
ATOM     79  O   UNL A   1      44.099  34.752  33.934  1.00  0.00    -0.237 OA
ATOM     80  O   UNL A   1      42.974  35.714  35.908  1.00  0.00    -0.744 OA
ENDBRANCH  73  77
ENDBRANCH  56  70
BRANCH  57  81
ATOM     81  C   UNL A   1      42.722  24.323  27.188  1.00  0.00     0.023 A 
ATOM     82  C   UNL A   1      42.099  23.066  27.235  1.00  0.00     0.031 A 
ATOM     83  C   UNL A   1      43.479  24.638  26.044  1.00  0.00     0.131 A 
ATOM     84  C   UNL A   1      42.291  22.149  26.189  1.00  0.00     0.055 A 
ATOM     85  C   UNL A   1      43.612  23.747  24.976  1.00  0.00     0.041 A 
ATOM     86  F   UNL A   1      44.097  25.825  25.944  1.00  0.00    -0.206 F 
ATOM     87  C   UNL A   1      43.029  22.487  25.054  1.00  0.00     0.022 A 
BRANCH  84  88
ATOM     88  S   UNL A   1      41.652  20.462  26.385  1.00  0.00     0.124 S 
ATOM     89  O   UNL A   1      42.420  19.737  25.380  1.00  0.00    -0.237 OA
ATOM     90  O   UNL A   1      41.981  20.172  27.777  1.00  0.00    -0.237 OA
ATOM     91  O   UNL A   1      40.226  20.602  26.100  1.00  0.00    -0.744 OA
ENDBRANCH  84  88
ENDBRANCH  57  81
BRANCH  69  92
ATOM     92  C   UNL A   1      46.868  25.558  32.668  1.00  0.00     0.023 A 
ATOM     93  C   UNL A   1      46.848  24.545  33.642  1.00  0.00     0.031 A 
ATOM     94  C   UNL A   1      48.115  25.952  32.151  1.00  0.00     0.131 A 
ATOM     95  C   UNL A   1      48.054  24.002  34.111  1.00  0.00     0.055 A 
ATOM     96  C   UNL A   1      49.307  25.358  32.569  1.00  0.00     0.041 A 
ATOM     97  F   UNL A   1      48.197  26.918  31.223  1.00  0.00    -0.206 F 
ATOM     98  C   UNL A   1      49.282  24.387  33.566  1.00  0.00     0.022 A 
BRANCH  95  99
ATOM     99  S   UNL A   1      48.006  22.860  35.519  1.00  0.00     0.124 S 
ATOM    100  O   UNL A   1      47.652  23.750  36.619  1.00  0.00    -0.237 OA
ATOM    101  O   UNL A   1      46.978  21.907  35.114  1.00  0.00    -0.237 OA
ATOM    102  O   UNL A   1      49.365  22.321  35.570  1.00  0.00    -0.744 OA
ENDBRANCH  95  99
ENDBRANCH  69  92
ENDBRANCH  43  44
ENDBRANCH  35  38
ENDBRANCH  33  34
ENDBRANCH  32  33
ENDBRANCH   1  32
TORSDOF 18
ENDMDL
MODEL 2
REMARK VINA RESULT:      -9.1      2.710      4.592
REMARK SMILES COC(=O)C1=C(C)N(c2ccc(Br)cc2)C(=O)/C1=C\c1ccc(C(=O)NCCCCNC(=O)c2ccc(-c3c4nc(c(-c5cc(S(=O)(=O)[O-])ccc5F)c5ccc([nH]5)c(-c5cc(S(=O)(=O)[O-])ccc5F)c5nc(c(-c6cc(S(=O)(=O)[O-])ccc6F)c6ccc3[nH]6)C=C5)C=C4)cc2)cc1
REMARK SMILES IDX 28 1 27 2 26 3 24 4 25 5 23 7 20 8 21 9 98 10 22 11 97 12
REMARK SMILES IDX 19 13 5 14 6 15 18 16 7 17 8 18 16 19 17 20 3 21 4 22 2 23
REMARK SMILES IDX 1 24 9 25 10 26 15 27 11 28 14 29 12 30 13 31 29 32 30 33
REMARK SMILES IDX 31 34 32 35 33 37 34 38 35 39 96 40 36 41 95 42 37 43 38 44
REMARK SMILES IDX 39 45 89 46 40 47 94 48 88 49 90 50 41 51 93 52 87 53 86 54
REMARK SMILES IDX 42 56 74 57 54 58 73 59 55 60 58 61 72 62 91 63 56 64 57 65
REMARK SMILES IDX 71 67 92 68 59 69 43 70 44 71 52 72 45 73 51 74 53 75 50 76
REMARK SMILES IDX 46 77 47 78 48 79 49 80 75 81 76 82 84 83 77 84 83 85 85 86
REMARK SMILES IDX 82 87 78 88 79 89 80 90 81 91 60 92 61 93 69 94 62 95 68 96
REMARK SMILES IDX 70 97 67 98 63 99 64 100 65 101 66 102
REMARK H PARENT 26 6 31 36 90 55 58 66
REMARK Flexibility Score: inf
ROOT
ATOM      1  C   UNL A   1      33.827  34.394  29.283  1.00  0.00     0.023 C 
ENDROOT
BRANCH   1   2
ATOM      2  C   UNL A   1      33.654  35.906  29.453  1.00  0.00     0.116 C 
BRANCH   2   3
ATOM      3  N   UNL A   1      32.488  36.191  30.267  1.00  0.00    -0.352 N 
ATOM      4  C   UNL A   1      32.217  35.955  31.591  1.00  0.00     0.251 C 
ATOM      5  O   UNL A   1      31.130  36.329  32.036  1.00  0.00    -0.269 OA
ATOM      6  H   UNL A   1      31.757  36.636  29.781  1.00  0.00     0.163 HD
BRANCH   4   7
ATOM      7  C   UNL A   1      33.193  35.318  32.520  1.00  0.00     0.039 A 
ATOM      8  C   UNL A   1      35.169  34.270  34.226  1.00  0.00    -0.025 A 
ATOM      9  C   UNL A   1      34.995  35.652  34.130  1.00  0.00     0.009 A 
ATOM     10  C   UNL A   1      34.320  33.418  33.518  1.00  0.00     0.009 A 
ATOM     11  C   UNL A   1      34.014  36.170  33.277  1.00  0.00     0.014 A 
ATOM     12  C   UNL A   1      33.319  33.940  32.698  1.00  0.00     0.014 A 
BRANCH   8  13
ATOM     13  C   UNL A   1      36.198  33.669  35.066  1.00  0.00     0.023 C 
ATOM     14  C   UNL A   1      38.508  32.812  35.467  1.00  0.00     0.092 C 
ATOM     15  C   UNL A   1      39.690  32.946  34.826  1.00  0.00     0.039 C 
ATOM     16  C   UNL A   1      37.487  33.519  34.720  1.00  0.00     0.057 C 
ATOM     17  C   UNL A   1      40.999  32.422  35.324  1.00  0.00     0.066 C 
ATOM     18  N   UNL A   1      39.530  33.727  33.676  1.00  0.00    -0.280 N 
ATOM     19  C   UNL A   1      38.167  34.090  33.508  1.00  0.00     0.263 C 
ATOM     20  O   UNL A   1      37.639  34.716  32.610  1.00  0.00    -0.268 OA
BRANCH  14  21
ATOM     21  C   UNL A   1      38.245  32.066  36.709  1.00  0.00     0.340 C 
ATOM     22  O   UNL A   1      38.265  30.848  36.786  1.00  0.00    -0.246 OA
BRANCH  21  23
ATOM     23  O   UNL A   1      37.909  32.917  37.709  1.00  0.00    -0.465 OA
ATOM     24  C   UNL A   1      39.033  33.537  38.334  1.00  0.00     0.282 C 
ENDBRANCH  21  23
ENDBRANCH  14  21
BRANCH  18  25
ATOM     25  C   UNL A   1      40.527  34.228  32.794  1.00  0.00     0.049 A 
ATOM     26  C   UNL A   1      41.560  35.029  33.307  1.00  0.00     0.028 A 
ATOM     27  C   UNL A   1      40.551  33.906  31.431  1.00  0.00     0.028 A 
ATOM     28  C   UNL A   1      42.632  35.426  32.504  1.00  0.00     0.018 A 
ATOM     29  C   UNL A   1      41.617  34.313  30.618  1.00  0.00     0.018 A 
ATOM     30  C   UNL A   1      42.663  35.053  31.165  1.00  0.00     0.018 A 
ATOM     31  Br  UNL A   1      44.137  35.541  30.088  1.00  0.00    -0.051 Br
ENDBRANCH  18  25
ENDBRANCH   8  13
ENDBRANCH   4   7
ENDBRANCH   2   3
ENDBRANCH   1   2
BRANCH   1  32
ATOM     32  C   UNL A   1      35.273  33.916  29.432  1.00  0.00     0.023 C 
BRANCH  32  33
ATOM     33  C   UNL A   1      35.422  32.538  30.065  1.00  0.00     0.116 C 
BRANCH  33  34
ATOM     34  N   UNL A   1      34.789  31.484  29.287  1.00  0.00    -0.352 N 
ATOM     35  C   UNL A   1      35.356  30.335  28.792  1.00  0.00     0.251 C 
ATOM     36  H   UNL A   1      33.832  31.610  29.091  1.00  0.00     0.163 HD
ATOM     37  O   UNL A   1      34.720  29.611  28.032  1.00  0.00    -0.269 OA
BRANCH  35  38
ATOM     38  C   UNL A   1      36.751  30.012  29.152  1.00  0.00     0.039 A 
ATOM     39  C   UNL A   1      36.992  29.164  30.234  1.00  0.00     0.014 A 
ATOM     40  C   UNL A   1      37.813  30.500  28.384  1.00  0.00     0.014 A 
ATOM     41  C   UNL A   1      38.297  28.752  30.506  1.00  0.00     0.010 A 
ATOM     42  C   UNL A   1      39.100  30.024  28.607  1.00  0.00     0.010 A 
ATOM     43  C   UNL A   1      39.356  29.144  29.670  1.00  0.00    -0.014 A 
BRANCH  43  44
ATOM     44  C   UNL A   1      40.737  28.644  29.895  1.00  0.00     0.031 A 
ATOM     45  C   UNL A   1      41.614  29.295  30.930  1.00  0.00     0.074 A 
ATOM     46  C   UNL A   1      41.216  27.641  29.131  1.00  0.00     0.049 A 
ATOM     47  N   UNL A   1      42.862  29.045  31.231  1.00  0.00    -0.248 NA
ATOM     48  C   UNL A   1      41.016  30.390  31.709  1.00  0.00     0.031 C 
ATOM     49  C   UNL A   1      40.473  26.960  28.069  1.00  0.00     0.029 A 
ATOM     50  N   UNL A   1      42.443  27.023  29.123  1.00  0.00    -0.354 N 
ATOM     51  C   UNL A   1      43.202  29.957  32.225  1.00  0.00     0.074 A 
ATOM     52  C   UNL A   1      42.048  30.806  32.428  1.00  0.00     0.031 C 
ATOM     53  C   UNL A   1      41.246  26.000  27.535  1.00  0.00     0.029 A 
ATOM     54  C   UNL A   1      42.558  26.032  28.173  1.00  0.00     0.049 A 
ATOM     55  H   UNL A   1      43.172  27.266  29.738  1.00  0.00     0.167 HD
ATOM     56  C   UNL A   1      44.361  30.060  32.920  1.00  0.00     0.034 A 
ATOM     57  C   UNL A   1      43.606  25.251  27.844  1.00  0.00     0.034 A 
ATOM     58  C   UNL A   1      45.499  29.198  32.709  1.00  0.00     0.049 A 
ATOM     59  C   UNL A   1      44.899  25.410  28.608  1.00  0.00     0.074 A 
ATOM     60  C   UNL A   1      46.702  29.179  33.394  1.00  0.00     0.029 A 
ATOM     61  N   UNL A   1      45.583  28.213  31.733  1.00  0.00    -0.354 N 
ATOM     62  N   UNL A   1      45.183  26.240  29.585  1.00  0.00    -0.248 NA
ATOM     63  C   UNL A   1      46.006  24.522  28.231  1.00  0.00     0.031 C 
ATOM     64  C   UNL A   1      47.540  28.244  32.781  1.00  0.00     0.029 A 
ATOM     65  C   UNL A   1      46.831  27.608  31.775  1.00  0.00     0.049 A 
ATOM     66  H   UNL A   1      44.863  27.977  31.106  1.00  0.00     0.167 HD
ATOM     67  C   UNL A   1      46.492  25.945  29.963  1.00  0.00     0.074 A 
ATOM     68  C   UNL A   1      46.930  24.853  29.120  1.00  0.00     0.031 C 
ATOM     69  C   UNL A   1      47.259  26.523  30.923  1.00  0.00     0.034 A 
BRANCH  56  70
ATOM     70  C   UNL A   1      44.465  31.159  33.951  1.00  0.00     0.023 A 
ATOM     71  C   UNL A   1      44.311  30.904  35.326  1.00  0.00     0.031 A 
ATOM     72  C   UNL A   1      44.712  32.486  33.553  1.00  0.00     0.131 A 
ATOM     73  C   UNL A   1      44.338  31.966  36.243  1.00  0.00     0.055 A 
ATOM     74  C   UNL A   1      44.822  33.525  34.478  1.00  0.00     0.041 A 
ATOM     75  F   UNL A   1      44.843  32.796  32.254  1.00  0.00    -0.206 F 
ATOM     76  C   UNL A   1      44.621  33.270  35.831  1.00  0.00     0.022 A 
BRANCH  73  77
ATOM     77  S   UNL A   1      43.858  31.639  37.960  1.00  0.00     0.124 S 
ATOM     78  O   UNL A   1      45.057  30.988  38.483  1.00  0.00    -0.237 OA
ATOM     79  O   UNL A   1      43.582  32.976  38.472  1.00  0.00    -0.237 OA
ATOM     80  O   UNL A   1      42.692  30.766  37.830  1.00  0.00    -0.744 OA
ENDBRANCH  73  77
ENDBRANCH  56  70
BRANCH  57  81
ATOM     81  C   UNL A   1      43.497  24.261  26.731  1.00  0.00     0.023 A 
ATOM     82  C   UNL A   1      42.766  23.073  26.885  1.00  0.00     0.031 A 
ATOM     83  C   UNL A   1      44.175  24.462  25.514  1.00  0.00     0.131 A 
ATOM     84  C   UNL A   1      42.778  22.106  25.866  1.00  0.00     0.055 A 
ATOM     85  C   UNL A   1      44.129  23.527  24.478  1.00  0.00     0.041 A 
ATOM     86  F   UNL A   1      44.890  25.580  25.311  1.00  0.00    -0.206 F 
ATOM     87  C   UNL A   1      43.440  22.332  24.659  1.00  0.00     0.022 A 
BRANCH  84  88
ATOM     88  S   UNL A   1      42.005  20.496  26.189  1.00  0.00     0.124 S 
ATOM     89  O   UNL A   1      42.425  20.237  27.561  1.00  0.00    -0.237 OA
ATOM     90  O   UNL A   1      40.589  20.795  25.997  1.00  0.00    -0.237 OA
ATOM     91  O   UNL A   1      42.599  19.625  25.178  1.00  0.00    -0.744 OA
ENDBRANCH  84  88
ENDBRANCH  57  81
BRANCH  69  92
ATOM     92  C   UNL A   1      48.637  25.945  31.145  1.00  0.00     0.023 A 
ATOM     93  C   UNL A   1      48.878  24.939  32.097  1.00  0.00     0.031 A 
ATOM     94  C   UNL A   1      49.728  26.418  30.394  1.00  0.00     0.131 A 
ATOM     95  C   UNL A   1      50.186  24.481  32.314  1.00  0.00     0.055 A 
ATOM     96  C   UNL A   1      51.016  25.906  30.564  1.00  0.00     0.041 A 
ATOM     97  F   UNL A   1      49.561  27.381  29.475  1.00  0.00    -0.206 F 
ATOM     98  C   UNL A   1      51.253  24.943  31.540  1.00  0.00     0.022 A 
BRANCH  95  99
ATOM     99  S   UNL A   1      50.494  23.347  33.697  1.00  0.00     0.124 S 
ATOM    100  O   UNL A   1      50.904  22.130  33.004  1.00  0.00    -0.237 OA
ATOM    101  O   UNL A   1      51.539  24.040  34.442  1.00  0.00    -0.237 OA
ATOM    102  O   UNL A   1      49.199  23.270  34.372  1.00  0.00    -0.744 OA
ENDBRANCH  95  99
ENDBRANCH  69  92
ENDBRANCH  43  44
ENDBRANCH  35  38
ENDBRANCH  33  34
ENDBRANCH  32  33
ENDBRANCH   1  32
TORSDOF 18
ENDMDL
MODEL 3
REMARK VINA RESULT:      -9.1      4.115      8.001
REMARK SMILES COC(=O)C1=C(C)N(c2ccc(Br)cc2)C(=O)/C1=C\c1ccc(C(=O)NCCCCNC(=O)c2ccc(-c3c4nc(c(-c5cc(S(=O)(=O)[O-])ccc5F)c5ccc([nH]5)c(-c5cc(S(=O)(=O)[O-])ccc5F)c5nc(c(-c6cc(S(=O)(=O)[O-])ccc6F)c6ccc3[nH]6)C=C5)C=C4)cc2)cc1
REMARK SMILES IDX 28 1 27 2 26 3 24 4 25 5 23 7 20 8 21 9 98 10 22 11 97 12
REMARK SMILES IDX 19 13 5 14 6 15 18 16 7 17 8 18 16 19 17 20 3 21 4 22 2 23
REMARK SMILES IDX 1 24 9 25 10 26 15 27 11 28 14 29 12 30 13 31 29 32 30 33
REMARK SMILES IDX 31 34 32 35 33 37 34 38 35 39 96 40 36 41 95 42 37 43 38 44
REMARK SMILES IDX 39 45 89 46 40 47 94 48 88 49 90 50 41 51 93 52 87 53 86 54
REMARK SMILES IDX 42 56 74 57 54 58 73 59 55 60 58 61 72 62 91 63 56 64 57 65
REMARK SMILES IDX 71 67 92 68 59 69 43 70 44 71 52 72 45 73 51 74 53 75 50 76
REMARK SMILES IDX 46 77 47 78 48 79 49 80 75 81 76 82 84 83 77 84 83 85 85 86
REMARK SMILES IDX 82 87 78 88 79 89 80 90 81 91 60 92 61 93 69 94 62 95 68 96
REMARK SMILES IDX 70 97 67 98 63 99 64 100 65 101 66 102
REMARK H PARENT 26 6 31 36 90 55 58 66
REMARK Flexibility Score: inf
ROOT
ATOM      1  C   UNL A   1      36.124  29.730  28.541  1.00  0.00     0.023 C 
ENDROOT
BRANCH   1   2
ATOM      2  C   UNL A   1      37.279  29.366  27.604  1.00  0.00     0.116 C 
BRANCH   2   3
ATOM      3  N   UNL A   1      38.534  29.867  28.132  1.00  0.00    -0.352 N 
ATOM      4  C   UNL A   1      39.734  29.250  28.377  1.00  0.00     0.251 C 
ATOM      5  O   UNL A   1      40.659  29.935  28.818  1.00  0.00    -0.269 OA
ATOM      6  H   UNL A   1      38.522  30.826  28.355  1.00  0.00     0.163 HD
BRANCH   4   7
ATOM      7  C   UNL A   1      39.982  27.809  28.086  1.00  0.00     0.039 A 
ATOM      8  C   UNL A   1      40.418  25.134  27.336  1.00  0.00    -0.025 A 
ATOM      9  C   UNL A   1      40.886  26.169  26.524  1.00  0.00     0.009 A 
ATOM     10  C   UNL A   1      39.789  25.437  28.544  1.00  0.00     0.009 A 
ATOM     11  C   UNL A   1      40.663  27.499  26.898  1.00  0.00     0.014 A 
ATOM     12  C   UNL A   1      39.603  26.764  28.930  1.00  0.00     0.014 A 
BRANCH   8  13
ATOM     13  C   UNL A   1      40.583  23.728  26.983  1.00  0.00     0.023 C 
ATOM     14  C   UNL A   1      39.700  21.507  26.263  1.00  0.00     0.092 C 
ATOM     15  C   UNL A   1      38.542  21.085  25.708  1.00  0.00     0.039 C 
ATOM     16  C   UNL A   1      39.613  22.934  26.501  1.00  0.00     0.057 C 
ATOM     17  C   UNL A   1      38.272  19.689  25.247  1.00  0.00     0.066 C 
ATOM     18  N   UNL A   1      37.666  22.163  25.542  1.00  0.00    -0.280 N 
ATOM     19  C   UNL A   1      38.242  23.355  26.056  1.00  0.00     0.263 C 
ATOM     20  O   UNL A   1      37.767  24.471  26.133  1.00  0.00    -0.268 OA
BRANCH  14  21
ATOM     21  C   UNL A   1      40.876  20.691  26.606  1.00  0.00     0.340 C 
ATOM     22  O   UNL A   1      40.924  19.943  27.570  1.00  0.00    -0.246 OA
BRANCH  21  23
ATOM     23  O   UNL A   1      41.897  20.949  25.753  1.00  0.00    -0.465 OA
ATOM     24  C   UNL A   1      42.981  20.027  25.861  1.00  0.00     0.282 C 
ENDBRANCH  21  23
ENDBRANCH  14  21
BRANCH  18  25
ATOM     25  C   UNL A   1      36.409  22.194  24.877  1.00  0.00     0.049 A 
ATOM     26  C   UNL A   1      35.285  21.636  25.505  1.00  0.00     0.028 A 
ATOM     27  C   UNL A   1      36.235  22.815  23.633  1.00  0.00     0.028 A 
ATOM     28  C   UNL A   1      34.009  21.767  24.951  1.00  0.00     0.018 A 
ATOM     29  C   UNL A   1      34.960  22.938  23.067  1.00  0.00     0.018 A 
ATOM     30  C   UNL A   1      33.850  22.432  23.740  1.00  0.00     0.018 A 
ATOM     31  Br  UNL A   1      32.121  22.660  23.014  1.00  0.00    -0.051 Br
ENDBRANCH  18  25
ENDBRANCH   8  13
ENDBRANCH   4   7
ENDBRANCH   2   3
ENDBRANCH   1   2
BRANCH   1  32
ATOM     32  C   UNL A   1      36.553  30.540  29.766  1.00  0.00     0.023 C 
BRANCH  32  33
ATOM     33  C   UNL A   1      36.749  29.718  31.033  1.00  0.00     0.116 C 
BRANCH  33  34
ATOM     34  N   UNL A   1      36.719  30.524  32.244  1.00  0.00    -0.352 N 
ATOM     35  C   UNL A   1      37.703  30.672  33.191  1.00  0.00     0.251 C 
ATOM     36  H   UNL A   1      35.888  31.027  32.405  1.00  0.00     0.163 HD
ATOM     37  O   UNL A   1      37.472  31.280  34.231  1.00  0.00    -0.269 OA
BRANCH  35  38
ATOM     38  C   UNL A   1      39.023  30.054  32.955  1.00  0.00     0.039 A 
ATOM     39  C   UNL A   1      40.129  30.878  32.743  1.00  0.00     0.014 A 
ATOM     40  C   UNL A   1      39.173  28.665  33.003  1.00  0.00     0.014 A 
ATOM     41  C   UNL A   1      41.400  30.310  32.644  1.00  0.00     0.010 A 
ATOM     42  C   UNL A   1      40.448  28.109  32.986  1.00  0.00     0.010 A 
ATOM     43  C   UNL A   1      41.575  28.925  32.807  1.00  0.00    -0.014 A 
BRANCH  43  44
ATOM     44  C   UNL A   1      42.930  28.316  32.791  1.00  0.00     0.031 A 
ATOM     45  C   UNL A   1      43.707  28.177  34.072  1.00  0.00     0.074 A 
ATOM     46  C   UNL A   1      43.480  27.941  31.618  1.00  0.00     0.049 A 
ATOM     47  N   UNL A   1      44.923  27.730  34.257  1.00  0.00    -0.248 NA
ATOM     48  C   UNL A   1      43.039  28.623  35.304  1.00  0.00     0.031 C 
ATOM     49  C   UNL A   1      42.838  28.065  30.308  1.00  0.00     0.029 A 
ATOM     50  N   UNL A   1      44.703  27.385  31.334  1.00  0.00    -0.354 N 
ATOM     51  C   UNL A   1      45.169  27.852  35.621  1.00  0.00     0.074 A 
ATOM     52  C   UNL A   1      43.999  28.474  36.203  1.00  0.00     0.031 C 
ATOM     53  C   UNL A   1      43.659  27.573  29.366  1.00  0.00     0.029 A 
ATOM     54  C   UNL A   1      44.906  27.148  29.993  1.00  0.00     0.049 A 
ATOM     55  H   UNL A   1      45.372  27.175  32.025  1.00  0.00     0.167 HD
ATOM     56  C   UNL A   1      46.260  27.459  36.323  1.00  0.00     0.034 A 
ATOM     57  C   UNL A   1      45.982  26.662  29.341  1.00  0.00     0.034 A 
ATOM     58  C   UNL A   1      47.413  26.833  35.726  1.00  0.00     0.049 A 
ATOM     59  C   UNL A   1      47.199  26.267  30.143  1.00  0.00     0.074 A 
ATOM     60  C   UNL A   1      48.548  26.346  36.351  1.00  0.00     0.029 A 
ATOM     61  N   UNL A   1      47.588  26.619  34.364  1.00  0.00    -0.354 N 
ATOM     62  N   UNL A   1      47.391  26.336  31.440  1.00  0.00    -0.248 NA
ATOM     63  C   UNL A   1      48.337  25.719  29.394  1.00  0.00     0.031 C 
ATOM     64  C   UNL A   1      49.441  25.916  35.365  1.00  0.00     0.029 A 
ATOM     65  C   UNL A   1      48.828  26.043  34.129  1.00  0.00     0.049 A 
ATOM     66  H   UNL A   1      46.929  26.842  33.668  1.00  0.00     0.167 HD
ATOM     67  C   UNL A   1      48.660  25.805  31.664  1.00  0.00     0.074 A 
ATOM     68  C   UNL A   1      49.175  25.408  30.371  1.00  0.00     0.031 C 
ATOM     69  C   UNL A   1      49.335  25.657  32.832  1.00  0.00     0.034 A 
BRANCH  56  70
ATOM     70  C   UNL A   1      46.266  27.723  37.811  1.00  0.00     0.023 A 
ATOM     71  C   UNL A   1      46.799  28.907  38.352  1.00  0.00     0.031 A 
ATOM     72  C   UNL A   1      45.738  26.772  38.703  1.00  0.00     0.131 A 
ATOM     73  C   UNL A   1      46.854  29.078  39.744  1.00  0.00     0.055 A 
ATOM     74  C   UNL A   1      45.720  26.986  40.083  1.00  0.00     0.041 A 
ATOM     75  F   UNL A   1      45.238  25.613  38.249  1.00  0.00    -0.206 F 
ATOM     76  C   UNL A   1      46.293  28.139  40.611  1.00  0.00     0.022 A 
BRANCH  73  77
ATOM     77  S   UNL A   1      47.798  30.478  40.406  1.00  0.00     0.124 S 
ATOM     78  O   UNL A   1      49.148  30.172  39.939  1.00  0.00    -0.237 OA
ATOM     79  O   UNL A   1      47.148  31.622  39.779  1.00  0.00    -0.237 OA
ATOM     80  O   UNL A   1      47.607  30.366  41.851  1.00  0.00    -0.744 OA
ENDBRANCH  73  77
ENDBRANCH  56  70
BRANCH  57  81
ATOM     81  C   UNL A   1      45.977  26.536  27.853  1.00  0.00     0.023 A 
ATOM     82  C   UNL A   1      45.640  25.325  27.227  1.00  0.00     0.031 A 
ATOM     83  C   UNL A   1      46.369  27.611  27.035  1.00  0.00     0.131 A 
ATOM     84  C   UNL A   1      45.759  25.200  25.834  1.00  0.00     0.055 A 
ATOM     85  C   UNL A   1      46.422  27.501  25.643  1.00  0.00     0.041 A 
ATOM     86  F   UNL A   1      46.703  28.793  27.577  1.00  0.00    -0.206 F 
ATOM     87  C   UNL A   1      46.131  26.284  25.037  1.00  0.00     0.022 A 
BRANCH  84  88
ATOM     88  S   UNL A   1      45.526  23.563  25.087  1.00  0.00     0.124 S 
ATOM     89  O   UNL A   1      46.312  23.682  23.864  1.00  0.00    -0.237 OA
ATOM     90  O   UNL A   1      46.068  22.680  26.115  1.00  0.00    -0.237 OA
ATOM     91  O   UNL A   1      44.081  23.479  24.894  1.00  0.00    -0.744 OA
ENDBRANCH  84  88
ENDBRANCH  57  81
BRANCH  69  92
ATOM     92  C   UNL A   1      50.687  24.987  32.768  1.00  0.00     0.023 A 
ATOM     93  C   UNL A   1      50.831  23.591  32.830  1.00  0.00     0.031 A 
ATOM     94  C   UNL A   1      51.853  25.766  32.649  1.00  0.00     0.131 A 
ATOM     95  C   UNL A   1      52.112  23.019  32.833  1.00  0.00     0.055 A 
ATOM     96  C   UNL A   1      53.121  25.187  32.580  1.00  0.00     0.041 A 
ATOM     97  F   UNL A   1      51.779  27.105  32.592  1.00  0.00    -0.206 F 
ATOM     98  C   UNL A   1      53.257  23.806  32.688  1.00  0.00     0.022 A 
BRANCH  95  99
ATOM     99  S   UNL A   1      52.271  21.237  33.136  1.00  0.00     0.124 S 
ATOM    100  O   UNL A   1      53.240  20.843  32.120  1.00  0.00    -0.237 OA
ATOM    101  O   UNL A   1      52.741  21.196  34.516  1.00  0.00    -0.237 OA
ATOM    102  O   UNL A   1      50.914  20.732  32.928  1.00  0.00    -0.744 OA
ENDBRANCH  95  99
ENDBRANCH  69  92
ENDBRANCH  43  44
ENDBRANCH  35  38
ENDBRANCH  33  34
ENDBRANCH  32  33
ENDBRANCH   1  32
TORSDOF 18
ENDMDL
