MODEL 1
REMARK VINA RESULT:     -11.6      0.000      0.000
REMARK SMILES O=Cc1ccc(-c2cnccc2C(=O)NCCCCNC(=O)c2ccc(-c3c4nc(c(-c5cc(S(=O)(=O)[O-])ccc5F)c5ccc([nH]5)c(-c5cc(S(=O)(=O)[O-])ccc5F)c5nc(c(-c6cc(S(=O)(=O)[O-])ccc6F)c6ccc3[nH]6)C=C5)C=C4)cc2)s1
REMARK SMILES IDX 18 1 17 2 16 3 15 4 13 5 14 6 12 8 7 9 8 10 9 11 11 12 10 13
REMARK SMILES IDX 6 14 3 15 4 16 86 17 5 18 2 19 1 20 19 21 20 22 21 23 22 25
REMARK SMILES IDX 23 26 24 27 85 28 25 29 84 30 26 31 27 32 28 33 78 34 29 35
REMARK SMILES IDX 83 36 77 37 79 38 30 39 82 40 76 41 75 42 31 44 63 45 43 46
REMARK SMILES IDX 62 47 44 48 47 49 61 50 80 51 45 52 46 53 60 55 81 56 48 57
REMARK SMILES IDX 32 58 33 59 41 60 34 61 40 62 42 63 39 64 35 65 36 66 37 67
REMARK SMILES IDX 38 68 64 69 65 70 73 71 66 72 72 73 74 74 71 75 67 76 68 77
REMARK SMILES IDX 69 78 70 79 49 80 50 81 58 82 51 83 57 84 59 85 56 86 52 87
REMARK SMILES IDX 53 88 54 89 55 90
REMARK H PARENT 15 7 20 24 79 43 47 54
REMARK Flexibility Score: inf
ROOT
ATOM      1  C   UNL A   1      32.372  29.816  25.572  1.00  0.00     0.023 C 
ENDROOT
BRANCH   1   2
ATOM      2  C   UNL A   1      33.075  28.461  25.516  1.00  0.00     0.023 C 
BRANCH   2   3
ATOM      3  C   UNL A   1      32.796  27.481  26.643  1.00  0.00     0.116 C 
BRANCH   3   4
ATOM      4  N   UNL A   1      31.454  26.990  26.790  1.00  0.00    -0.352 N 
ATOM      5  C   UNL A   1      30.812  25.999  26.082  1.00  0.00     0.252 C 
ATOM      6  O   UNL A   1      29.697  25.653  26.483  1.00  0.00    -0.269 OA
ATOM      7  H   UNL A   1      30.919  27.422  27.495  1.00  0.00     0.163 HD
BRANCH   5   8
ATOM      8  C   UNL A   1      31.305  25.391  24.804  1.00  0.00     0.051 A 
ATOM      9  C   UNL A   1      31.234  25.894  23.492  1.00  0.00     0.023 A 
ATOM     10  C   UNL A   1      31.851  25.124  22.494  1.00  0.00     0.121 A 
ATOM     11  N   UNL A   1      32.502  23.952  22.683  1.00  0.00    -0.264 NA
ATOM     12  C   UNL A   1      31.996  24.178  25.015  1.00  0.00     0.034 A 
ATOM     13  C   UNL A   1      32.565  23.507  23.948  1.00  0.00     0.112 A 
BRANCH   9  14
ATOM     14  C   UNL A   1      30.611  27.147  23.063  1.00  0.00     0.037 A 
ATOM     15  C   UNL A   1      28.962  28.972  22.767  1.00  0.00     0.067 A 
ATOM     16  C   UNL A   1      30.198  29.295  22.247  1.00  0.00     0.024 A 
ATOM     17  S   UNL A   1      28.915  27.364  23.327  1.00  0.00    -0.132 S 
ATOM     18  C   UNL A   1      31.153  28.242  22.419  1.00  0.00     0.021 A 
BRANCH  15  19
ATOM     19  C   UNL A   1      27.771  29.789  22.847  1.00  0.00     0.270 C 
ATOM     20  O   UNL A   1      26.764  29.483  23.478  1.00  0.00    -0.297 OA
ENDBRANCH  15  19
ENDBRANCH   9  14
ENDBRANCH   5   8
ENDBRANCH   3   4
ENDBRANCH   2   3
ENDBRANCH   1   2
BRANCH   1  21
ATOM     21  C   UNL A   1      32.062  30.399  26.950  1.00  0.00     0.116 C 
BRANCH  21  22
ATOM     22  N   UNL A   1      32.244  31.841  27.045  1.00  0.00    -0.352 N 
ATOM     23  C   UNL A   1      33.309  32.588  27.497  1.00  0.00     0.251 C 
ATOM     24  H   UNL A   1      31.476  32.372  26.734  1.00  0.00     0.163 HD
ATOM     25  O   UNL A   1      33.180  33.806  27.599  1.00  0.00    -0.269 OA
BRANCH  23  26
ATOM     26  C   UNL A   1      34.572  31.939  27.915  1.00  0.00     0.039 A 
ATOM     27  C   UNL A   1      35.723  32.722  28.040  1.00  0.00     0.014 A 
ATOM     28  C   UNL A   1      34.623  30.578  28.218  1.00  0.00     0.014 A 
ATOM     29  C   UNL A   1      36.881  32.171  28.593  1.00  0.00     0.010 A 
ATOM     30  C   UNL A   1      35.740  30.056  28.863  1.00  0.00     0.010 A 
ATOM     31  C   UNL A   1      36.876  30.852  29.075  1.00  0.00    -0.014 A 
BRANCH  31  32
ATOM     32  C   UNL A   1      38.032  30.297  29.829  1.00  0.00     0.031 A 
ATOM     33  C   UNL A   1      38.294  30.741  31.242  1.00  0.00     0.074 A 
ATOM     34  C   UNL A   1      38.891  29.465  29.205  1.00  0.00     0.049 A 
ATOM     35  N   UNL A   1      39.299  30.452  32.029  1.00  0.00    -0.248 NA
ATOM     36  C   UNL A   1      37.316  31.665  31.833  1.00  0.00     0.031 C 
ATOM     37  C   UNL A   1      38.772  29.015  27.815  1.00  0.00     0.029 A 
ATOM     38  N   UNL A   1      40.037  28.853  29.649  1.00  0.00    -0.354 N 
ATOM     39  C   UNL A   1      39.083  31.174  33.199  1.00  0.00     0.074 A 
ATOM     40  C   UNL A   1      37.891  31.966  32.987  1.00  0.00     0.031 C 
ATOM     41  C   UNL A   1      39.781  28.175  27.534  1.00  0.00     0.029 A 
ATOM     42  C   UNL A   1      40.646  28.062  28.701  1.00  0.00     0.049 A 
ATOM     43  H   UNL A   1      40.389  28.970  30.560  1.00  0.00     0.167 HD
ATOM     44  C   UNL A   1      39.798  31.156  34.352  1.00  0.00     0.034 A 
ATOM     45  C   UNL A   1      41.779  27.334  28.765  1.00  0.00     0.034 A 
ATOM     46  C   UNL A   1      40.975  30.344  34.545  1.00  0.00     0.049 A 
ATOM     47  C   UNL A   1      42.553  27.323  30.059  1.00  0.00     0.074 A 
ATOM     48  C   UNL A   1      41.752  30.203  35.681  1.00  0.00     0.029 A 
ATOM     49  N   UNL A   1      41.550  29.533  33.572  1.00  0.00    -0.354 N 
ATOM     50  N   UNL A   1      42.306  27.970  31.175  1.00  0.00    -0.248 NA
ATOM     51  C   UNL A   1      43.749  26.473  30.105  1.00  0.00     0.031 C 
ATOM     52  C   UNL A   1      42.828  29.361  35.377  1.00  0.00     0.029 A 
ATOM     53  C   UNL A   1      42.683  28.911  34.074  1.00  0.00     0.049 A 
ATOM     54  H   UNL A   1      41.203  29.419  32.657  1.00  0.00     0.167 HD
ATOM     55  C   UNL A   1      43.302  27.580  32.066  1.00  0.00     0.074 A 
ATOM     56  C   UNL A   1      44.134  26.626  31.363  1.00  0.00     0.031 C 
ATOM     57  C   UNL A   1      43.509  27.973  33.350  1.00  0.00     0.034 A 
BRANCH  44  58
ATOM     58  C   UNL A   1      39.332  32.057  35.473  1.00  0.00     0.023 A 
ATOM     59  C   UNL A   1      39.772  33.389  35.581  1.00  0.00     0.031 A 
ATOM     60  C   UNL A   1      38.469  31.570  36.471  1.00  0.00     0.131 A 
ATOM     61  C   UNL A   1      39.426  34.154  36.704  1.00  0.00     0.055 A 
ATOM     62  C   UNL A   1      38.055  32.367  37.541  1.00  0.00     0.041 A 
ATOM     63  F   UNL A   1      38.029  30.302  36.437  1.00  0.00    -0.206 F 
ATOM     64  C   UNL A   1      38.547  33.662  37.672  1.00  0.00     0.022 A 
BRANCH  61  65
ATOM     65  S   UNL A   1      40.265  35.742  36.962  1.00  0.00     0.124 S 
ATOM     66  O   UNL A   1      39.875  36.061  38.334  1.00  0.00    -0.237 OA
ATOM     67  O   UNL A   1      41.666  35.396  36.759  1.00  0.00    -0.237 OA
ATOM     68  O   UNL A   1      39.681  36.608  35.939  1.00  0.00    -0.744 OA
ENDBRANCH  61  65
ENDBRANCH  44  58
BRANCH  45  69
ATOM     69  C   UNL A   1      42.251  26.554  27.584  1.00  0.00     0.023 A 
ATOM     70  C   UNL A   1      41.910  25.200  27.428  1.00  0.00     0.031 A 
ATOM     71  C   UNL A   1      43.079  27.139  26.609  1.00  0.00     0.131 A 
ATOM     72  C   UNL A   1      42.434  24.464  26.352  1.00  0.00     0.055 A 
ATOM     73  C   UNL A   1      43.553  26.417  25.512  1.00  0.00     0.041 A 
ATOM     74  F   UNL A   1      43.428  28.432  26.703  1.00  0.00    -0.206 F 
ATOM     75  C   UNL A   1      43.243  25.066  25.387  1.00  0.00     0.022 A 
BRANCH  72  76
ATOM     76  S   UNL A   1      42.111  22.680  26.281  1.00  0.00     0.124 S 
ATOM     77  O   UNL A   1      42.731  22.315  25.013  1.00  0.00    -0.237 OA
ATOM     78  O   UNL A   1      42.784  22.204  27.485  1.00  0.00    -0.237 OA
ATOM     79  O   UNL A   1      40.653  22.596  26.311  1.00  0.00    -0.744 OA
ENDBRANCH  72  76
ENDBRANCH  45  69
BRANCH  57  80
ATOM     80  C   UNL A   1      44.665  27.329  34.078  1.00  0.00     0.023 A 
ATOM     81  C   UNL A   1      44.496  26.166  34.849  1.00  0.00     0.031 A 
ATOM     82  C   UNL A   1      45.946  27.905  34.021  1.00  0.00     0.131 A 
ATOM     83  C   UNL A   1      45.573  25.656  35.588  1.00  0.00     0.055 A 
ATOM     84  C   UNL A   1      47.030  27.355  34.704  1.00  0.00     0.041 A 
ATOM     85  F   UNL A   1      46.163  29.018  33.302  1.00  0.00    -0.206 F 
ATOM     86  C   UNL A   1      46.844  26.234  35.507  1.00  0.00     0.022 A 
BRANCH  83  87
ATOM     87  S   UNL A   1      45.264  24.299  36.750  1.00  0.00     0.124 S 
ATOM     88  O   UNL A   1      44.300  24.898  37.667  1.00  0.00    -0.237 OA
ATOM     89  O   UNL A   1      44.744  23.253  35.875  1.00  0.00    -0.237 OA
ATOM     90  O   UNL A   1      46.581  24.030  37.323  1.00  0.00    -0.744 OA
ENDBRANCH  83  87
ENDBRANCH  57  80
ENDBRANCH  31  32
ENDBRANCH  23  26
ENDBRANCH  21  22
ENDBRANCH   1  21
TORSDOF 16
ENDMDL
MODEL 2
REMARK VINA RESULT:     -11.6      5.079     10.120
REMARK SMILES O=Cc1ccc(-c2cnccc2C(=O)NCCCCNC(=O)c2ccc(-c3c4nc(c(-c5cc(S(=O)(=O)[O-])ccc5F)c5ccc([nH]5)c(-c5cc(S(=O)(=O)[O-])ccc5F)c5nc(c(-c6cc(S(=O)(=O)[O-])ccc6F)c6ccc3[nH]6)C=C5)C=C4)cc2)s1
REMARK SMILES IDX 18 1 17 2 16 3 15 4 13 5 14 6 12 8 7 9 8 10 9 11 11 12 10 13
REMARK SMILES IDX 6 14 3 15 4 16 86 17 5 18 2 19 1 20 19 21 20 22 21 23 22 25
REMARK SMILES IDX 23 26 24 27 85 28 25 29 84 30 26 31 27 32 28 33 78 34 29 35
REMARK SMILES IDX 83 36 77 37 79 38 30 39 82 40 76 41 75 42 31 44 63 45 43 46
REMARK SMILES IDX 62 47 44 48 47 49 61 50 80 51 45 52 46 53 60 55 81 56 48 57
REMARK SMILES IDX 32 58 33 59 41 60 34 61 40 62 42 63 39 64 35 65 36 66 37 67
REMARK SMILES IDX 38 68 64 69 65 70 73 71 66 72 72 73 74 74 71 75 67 76 68 77
REMARK SMILES IDX 69 78 70 79 49 80 50 81 58 82 51 83 57 84 59 85 56 86 52 87
REMARK SMILES IDX 53 88 54 89 55 90
REMARK H PARENT 15 7 20 24 79 43 47 54
REMARK Flexibility Score: inf
ROOT
ATOM      1  C   UNL A   1      35.952  21.192  25.443  1.00  0.00     0.023 C 
ENDROOT
BRANCH   1   2
ATOM      2  C   UNL A   1      35.211  22.134  26.390  1.00  0.00     0.023 C 
BRANCH   2   3
ATOM      3  C   UNL A   1      34.146  21.528  27.288  1.00  0.00     0.116 C 
BRANCH   3   4
ATOM      4  N   UNL A   1      33.009  22.339  27.625  1.00  0.00    -0.352 N 
ATOM      5  C   UNL A   1      32.075  22.910  26.790  1.00  0.00     0.252 C 
ATOM      6  O   UNL A   1      31.103  23.453  27.322  1.00  0.00    -0.269 OA
ATOM      7  H   UNL A   1      32.881  22.512  28.586  1.00  0.00     0.163 HD
BRANCH   5   8
ATOM      8  C   UNL A   1      32.201  23.025  25.301  1.00  0.00     0.051 A 
ATOM      9  C   UNL A   1      32.548  24.142  24.520  1.00  0.00     0.023 A 
ATOM     10  C   UNL A   1      32.654  23.929  23.137  1.00  0.00     0.121 A 
ATOM     11  N   UNL A   1      32.453  22.753  22.497  1.00  0.00    -0.264 NA
ATOM     12  C   UNL A   1      32.006  21.790  24.646  1.00  0.00     0.034 A 
ATOM     13  C   UNL A   1      32.139  21.703  23.272  1.00  0.00     0.112 A 
BRANCH   9  14
ATOM     14  C   UNL A   1      32.837  25.495  24.999  1.00  0.00     0.037 A 
ATOM     15  C   UNL A   1      32.589  27.898  25.550  1.00  0.00     0.067 A 
ATOM     16  C   UNL A   1      33.756  27.364  26.055  1.00  0.00     0.024 A 
ATOM     17  S   UNL A   1      31.747  26.773  24.586  1.00  0.00    -0.132 S 
ATOM     18  C   UNL A   1      33.901  25.975  25.739  1.00  0.00     0.021 A 
BRANCH  15  19
ATOM     19  C   UNL A   1      32.058  29.233  25.714  1.00  0.00     0.270 C 
ATOM     20  O   UNL A   1      31.154  29.706  25.033  1.00  0.00    -0.297 OA
ENDBRANCH  15  19
ENDBRANCH   9  14
ENDBRANCH   5   8
ENDBRANCH   3   4
ENDBRANCH   2   3
ENDBRANCH   1   2
BRANCH   1  21
ATOM     21  C   UNL A   1      37.362  21.587  25.007  1.00  0.00     0.116 C 
BRANCH  21  22
ATOM     22  N   UNL A   1      38.406  20.679  25.461  1.00  0.00    -0.352 N 
ATOM     23  C   UNL A   1      39.553  20.913  26.186  1.00  0.00     0.251 C 
ATOM     24  H   UNL A   1      38.269  19.738  25.207  1.00  0.00     0.163 HD
ATOM     25  O   UNL A   1      40.355  19.995  26.343  1.00  0.00    -0.269 OA
BRANCH  23  26
ATOM     26  C   UNL A   1      39.856  22.261  26.717  1.00  0.00     0.039 A 
ATOM     27  C   UNL A   1      40.851  22.395  27.690  1.00  0.00     0.014 A 
ATOM     28  C   UNL A   1      39.196  23.395  26.242  1.00  0.00     0.014 A 
ATOM     29  C   UNL A   1      41.272  23.667  28.083  1.00  0.00     0.010 A 
ATOM     30  C   UNL A   1      39.682  24.660  26.555  1.00  0.00     0.010 A 
ATOM     31  C   UNL A   1      40.739  24.810  27.465  1.00  0.00    -0.014 A 
BRANCH  31  32
ATOM     32  C   UNL A   1      41.293  26.165  27.732  1.00  0.00     0.031 A 
ATOM     33  C   UNL A   1      42.680  26.518  27.269  1.00  0.00     0.074 A 
ATOM     34  C   UNL A   1      40.576  27.039  28.468  1.00  0.00     0.049 A 
ATOM     35  N   UNL A   1      43.376  27.604  27.489  1.00  0.00    -0.248 NA
ATOM     36  C   UNL A   1      43.393  25.495  26.491  1.00  0.00     0.031 C 
ATOM     37  C   UNL A   1      39.244  26.783  29.024  1.00  0.00     0.029 A 
ATOM     38  N   UNL A   1      40.865  28.315  28.885  1.00  0.00    -0.354 N 
ATOM     39  C   UNL A   1      44.615  27.387  26.892  1.00  0.00     0.074 A 
ATOM     40  C   UNL A   1      44.594  26.038  26.367  1.00  0.00     0.031 C 
ATOM     41  C   UNL A   1      38.819  27.877  29.676  1.00  0.00     0.029 A 
ATOM     42  C   UNL A   1      39.861  28.895  29.630  1.00  0.00     0.049 A 
ATOM     43  H   UNL A   1      41.709  28.772  28.671  1.00  0.00     0.167 HD
ATOM     44  C   UNL A   1      45.660  28.242  26.772  1.00  0.00     0.034 A 
ATOM     45  C   UNL A   1      39.795  30.107  30.216  1.00  0.00     0.034 A 
ATOM     46  C   UNL A   1      45.650  29.589  27.291  1.00  0.00     0.049 A 
ATOM     47  C   UNL A   1      40.966  31.043  30.062  1.00  0.00     0.074 A 
ATOM     48  C   UNL A   1      46.627  30.563  27.187  1.00  0.00     0.029 A 
ATOM     49  N   UNL A   1      44.607  30.153  28.018  1.00  0.00    -0.354 N 
ATOM     50  N   UNL A   1      42.110  30.842  29.449  1.00  0.00    -0.248 NA
ATOM     51  C   UNL A   1      40.831  32.374  30.667  1.00  0.00     0.031 C 
ATOM     52  C   UNL A   1      46.203  31.689  27.902  1.00  0.00     0.029 A 
ATOM     53  C   UNL A   1      44.928  31.449  28.389  1.00  0.00     0.049 A 
ATOM     54  H   UNL A   1      43.763  29.696  28.239  1.00  0.00     0.167 HD
ATOM     55  C   UNL A   1      42.819  32.034  29.570  1.00  0.00     0.074 A 
ATOM     56  C   UNL A   1      41.962  32.952  30.292  1.00  0.00     0.031 C 
ATOM     57  C   UNL A   1      44.064  32.345  29.123  1.00  0.00     0.034 A 
BRANCH  44  58
ATOM     58  C   UNL A   1      46.899  27.730  26.072  1.00  0.00     0.023 A 
ATOM     59  C   UNL A   1      47.157  28.020  24.720  1.00  0.00     0.031 A 
ATOM     60  C   UNL A   1      47.815  26.906  26.751  1.00  0.00     0.131 A 
ATOM     61  C   UNL A   1      48.244  27.421  24.067  1.00  0.00     0.055 A 
ATOM     62  C   UNL A   1      48.946  26.385  26.118  1.00  0.00     0.041 A 
ATOM     63  F   UNL A   1      47.617  26.575  28.036  1.00  0.00    -0.206 F 
ATOM     64  C   UNL A   1      49.157  26.626  24.764  1.00  0.00     0.022 A 
BRANCH  61  65
ATOM     65  S   UNL A   1      48.357  27.566  22.262  1.00  0.00     0.124 S 
ATOM     66  O   UNL A   1      49.514  28.447  22.111  1.00  0.00    -0.237 OA
ATOM     67  O   UNL A   1      48.548  26.183  21.845  1.00  0.00    -0.237 OA
ATOM     68  O   UNL A   1      47.077  28.162  21.886  1.00  0.00    -0.744 OA
ENDBRANCH  61  65
ENDBRANCH  44  58
BRANCH  45  69
ATOM     69  C   UNL A   1      38.587  30.511  30.993  1.00  0.00     0.023 A 
ATOM     70  C   UNL A   1      37.535  31.212  30.382  1.00  0.00     0.031 A 
ATOM     71  C   UNL A   1      38.481  30.235  32.369  1.00  0.00     0.131 A 
ATOM     72  C   UNL A   1      36.446  31.656  31.151  1.00  0.00     0.055 A 
ATOM     73  C   UNL A   1      37.372  30.631  33.118  1.00  0.00     0.041 A 
ATOM     74  F   UNL A   1      39.453  29.560  33.002  1.00  0.00    -0.206 F 
ATOM     75  C   UNL A   1      36.352  31.359  32.513  1.00  0.00     0.022 A 
BRANCH  72  76
ATOM     76  S   UNL A   1      35.194  32.705  30.362  1.00  0.00     0.124 S 
ATOM     77  O   UNL A   1      34.293  32.981  31.474  1.00  0.00    -0.237 OA
ATOM     78  O   UNL A   1      35.996  33.828  29.890  1.00  0.00    -0.237 OA
ATOM     79  O   UNL A   1      34.647  31.849  29.311  1.00  0.00    -0.744 OA
ENDBRANCH  72  76
ENDBRANCH  45  69
BRANCH  57  80
ATOM     80  C   UNL A   1      44.543  33.754  29.376  1.00  0.00     0.023 A 
ATOM     81  C   UNL A   1      44.242  34.806  28.493  1.00  0.00     0.031 A 
ATOM     82  C   UNL A   1      45.337  34.040  30.500  1.00  0.00     0.131 A 
ATOM     83  C   UNL A   1      44.788  36.078  28.712  1.00  0.00     0.055 A 
ATOM     84  C   UNL A   1      45.821  35.323  30.750  1.00  0.00     0.041 A 
ATOM     85  F   UNL A   1      45.657  33.073  31.375  1.00  0.00    -0.206 F 
ATOM     86  C   UNL A   1      45.563  36.348  29.844  1.00  0.00     0.022 A 
BRANCH  83  87
ATOM     87  S   UNL A   1      44.572  37.347  27.435  1.00  0.00     0.124 S 
ATOM     88  O   UNL A   1      44.515  38.570  28.229  1.00  0.00    -0.237 OA
ATOM     89  O   UNL A   1      45.768  37.174  26.618  1.00  0.00    -0.237 OA
ATOM     90  O   UNL A   1      43.318  36.971  26.786  1.00  0.00    -0.744 OA
ENDBRANCH  83  87
ENDBRANCH  57  80
ENDBRANCH  31  32
ENDBRANCH  23  26
ENDBRANCH  21  22
ENDBRANCH   1  21
TORSDOF 16
ENDMDL
MODEL 3
REMARK VINA RESULT:     -11.5      1.557      2.805
REMARK SMILES O=Cc1ccc(-c2cnccc2C(=O)NCCCCNC(=O)c2ccc(-c3c4nc(c(-c5cc(S(=O)(=O)[O-])ccc5F)c5ccc([nH]5)c(-c5cc(S(=O)(=O)[O-])ccc5F)c5nc(c(-c6cc(S(=O)(=O)[O-])ccc6F)c6ccc3[nH]6)C=C5)C=C4)cc2)s1
REMARK SMILES IDX 18 1 17 2 16 3 15 4 13 5 14 6 12 8 7 9 8 10 9 11 11 12 10 13
REMARK SMILES IDX 6 14 3 15 4 16 86 17 5 18 2 19 1 20 19 21 20 22 21 23 22 25
REMARK SMILES IDX 23 26 24 27 85 28 25 29 84 30 26 31 27 32 28 33 78 34 29 35
REMARK SMILES IDX 83 36 77 37 79 38 30 39 82 40 76 41 75 42 31 44 63 45 43 46
REMARK SMILES IDX 62 47 44 48 47 49 61 50 80 51 45 52 46 53 60 55 81 56 48 57
REMARK SMILES IDX 32 58 33 59 41 60 34 61 40 62 42 63 39 64 35 65 36 66 37 67
REMARK SMILES IDX 38 68 64 69 65 70 73 71 66 72 72 73 74 74 71 75 67 76 68 77
REMARK SMILES IDX 69 78 70 79 49 80 50 81 58 82 51 83 57 84 59 85 56 86 52 87
REMARK SMILES IDX 53 88 54 89 55 90
REMARK H PARENT 15 7 20 24 79 43 47 54
REMARK Flexibility Score: inf
ROOT
ATOM      1  C   UNL A   1      32.312  29.481  24.951  1.00  0.00     0.023 C 
ENDROOT
BRANCH   1   2
ATOM      2  C   UNL A   1      33.570  28.886  24.321  1.00  0.00     0.023 C 
BRANCH   2   3
ATOM      3  C   UNL A   1      33.725  29.014  22.815  1.00  0.00     0.116 C 
BRANCH   3   4
ATOM      4  N   UNL A   1      33.860  27.807  22.047  1.00  0.00    -0.352 N 
ATOM      5  C   UNL A   1      33.005  26.731  21.969  1.00  0.00     0.252 C 
ATOM      6  O   UNL A   1      33.268  25.863  21.131  1.00  0.00    -0.269 OA
ATOM      7  H   UNL A   1      34.678  27.739  21.504  1.00  0.00     0.163 HD
BRANCH   5   8
ATOM      8  C   UNL A   1      31.852  26.473  22.891  1.00  0.00     0.051 A 
ATOM      9  C   UNL A   1      31.795  25.668  24.043  1.00  0.00     0.023 A 
ATOM     10  C   UNL A   1      30.584  25.674  24.751  1.00  0.00     0.121 A 
ATOM     11  N   UNL A   1      29.477  26.382  24.425  1.00  0.00    -0.264 NA
ATOM     12  C   UNL A   1      30.709  27.228  22.551  1.00  0.00     0.034 A 
ATOM     13  C   UNL A   1      29.568  27.152  23.329  1.00  0.00     0.112 A 
BRANCH   9  14
ATOM     14  C   UNL A   1      32.874  24.847  24.597  1.00  0.00     0.037 A 
ATOM     15  C   UNL A   1      34.387  22.933  25.030  1.00  0.00     0.067 A 
ATOM     16  C   UNL A   1      34.804  24.084  25.666  1.00  0.00     0.024 A 
ATOM     17  S   UNL A   1      32.885  23.150  24.257  1.00  0.00    -0.132 S 
ATOM     18  C   UNL A   1      33.933  25.192  25.415  1.00  0.00     0.021 A 
BRANCH  15  19
ATOM     19  C   UNL A   1      35.030  21.639  24.985  1.00  0.00     0.270 C 
ATOM     20  O   UNL A   1      34.448  20.585  24.753  1.00  0.00    -0.297 OA
ENDBRANCH  15  19
ENDBRANCH   9  14
ENDBRANCH   5   8
ENDBRANCH   3   4
ENDBRANCH   2   3
ENDBRANCH   1   2
BRANCH   1  21
ATOM     21  C   UNL A   1      32.368  29.854  26.431  1.00  0.00     0.116 C 
BRANCH  21  22
ATOM     22  N   UNL A   1      32.389  31.287  26.688  1.00  0.00    -0.352 N 
ATOM     23  C   UNL A   1      33.331  32.080  27.303  1.00  0.00     0.251 C 
ATOM     24  H   UNL A   1      31.595  31.772  26.367  1.00  0.00     0.163 HD
ATOM     25  O   UNL A   1      33.067  33.261  27.517  1.00  0.00    -0.269 OA
BRANCH  23  26
ATOM     26  C   UNL A   1      34.621  31.514  27.761  1.00  0.00     0.039 A 
ATOM     27  C   UNL A   1      35.687  32.383  28.011  1.00  0.00     0.014 A 
ATOM     28  C   UNL A   1      34.777  30.145  27.978  1.00  0.00     0.014 A 
ATOM     29  C   UNL A   1      36.855  31.897  28.603  1.00  0.00     0.010 A 
ATOM     30  C   UNL A   1      35.896  29.678  28.659  1.00  0.00     0.010 A 
ATOM     31  C   UNL A   1      36.940  30.551  28.997  1.00  0.00    -0.014 A 
BRANCH  31  32
ATOM     32  C   UNL A   1      38.095  30.047  29.787  1.00  0.00     0.031 A 
ATOM     33  C   UNL A   1      38.320  30.538  31.191  1.00  0.00     0.074 A 
ATOM     34  C   UNL A   1      38.984  29.217  29.204  1.00  0.00     0.049 A 
ATOM     35  N   UNL A   1      39.317  30.297  32.004  1.00  0.00    -0.248 NA
ATOM     36  C   UNL A   1      37.310  31.456  31.737  1.00  0.00     0.031 C 
ATOM     37  C   UNL A   1      38.902  28.723  27.826  1.00  0.00     0.029 A 
ATOM     38  N   UNL A   1      40.136  28.647  29.687  1.00  0.00    -0.354 N 
ATOM     39  C   UNL A   1      39.062  31.047  33.148  1.00  0.00     0.074 A 
ATOM     40  C   UNL A   1      37.856  31.804  32.891  1.00  0.00     0.031 C 
ATOM     41  C   UNL A   1      39.935  27.900  27.588  1.00  0.00     0.029 A 
ATOM     42  C   UNL A   1      40.781  27.842  28.774  1.00  0.00     0.049 A 
ATOM     43  H   UNL A   1      40.469  28.798  30.600  1.00  0.00     0.167 HD
ATOM     44  C   UNL A   1      39.757  31.080  34.313  1.00  0.00     0.034 A 
ATOM     45  C   UNL A   1      41.929  27.144  28.880  1.00  0.00     0.034 A 
ATOM     46  C   UNL A   1      40.949  30.302  34.551  1.00  0.00     0.049 A 
ATOM     47  C   UNL A   1      42.679  27.189  30.186  1.00  0.00     0.074 A 
ATOM     48  C   UNL A   1      41.707  30.213  35.705  1.00  0.00     0.029 A 
ATOM     49  N   UNL A   1      41.560  29.477  33.613  1.00  0.00    -0.354 N 
ATOM     50  N   UNL A   1      42.396  27.862  31.278  1.00  0.00    -0.248 NA
ATOM     51  C   UNL A   1      43.893  26.370  30.280  1.00  0.00     0.031 C 
ATOM     52  C   UNL A   1      42.808  29.389  35.446  1.00  0.00     0.029 A 
ATOM     53  C   UNL A   1      42.697  28.898  34.154  1.00  0.00     0.049 A 
ATOM     54  H   UNL A   1      41.233  29.328  32.697  1.00  0.00     0.167 HD
ATOM     55  C   UNL A   1      43.384  27.524  32.199  1.00  0.00     0.074 A 
ATOM     56  C   UNL A   1      44.252  26.569  31.539  1.00  0.00     0.031 C 
ATOM     57  C   UNL A   1      43.559  27.959  33.474  1.00  0.00     0.034 A 
BRANCH  44  58
ATOM     58  C   UNL A   1      39.248  32.003  35.398  1.00  0.00     0.023 A 
ATOM     59  C   UNL A   1      39.634  33.354  35.458  1.00  0.00     0.031 A 
ATOM     60  C   UNL A   1      38.402  31.518  36.411  1.00  0.00     0.131 A 
ATOM     61  C   UNL A   1      39.251  34.146  36.551  1.00  0.00     0.055 A 
ATOM     62  C   UNL A   1      37.950  32.337  37.449  1.00  0.00     0.041 A 
ATOM     63  F   UNL A   1      38.014  30.233  36.423  1.00  0.00    -0.206 F 
ATOM     64  C   UNL A   1      38.389  33.655  37.534  1.00  0.00     0.022 A 
BRANCH  61  65
ATOM     65  S   UNL A   1      40.024  35.776  36.752  1.00  0.00     0.124 S 
ATOM     66  O   UNL A   1      39.308  36.298  37.914  1.00  0.00    -0.237 OA
ATOM     67  O   UNL A   1      41.426  35.437  36.963  1.00  0.00    -0.237 OA
ATOM     68  O   UNL A   1      39.727  36.453  35.492  1.00  0.00    -0.744 OA
ENDBRANCH  61  65
ENDBRANCH  44  58
BRANCH  45  69
ATOM     69  C   UNL A   1      42.441  26.341  27.731  1.00  0.00     0.023 A 
ATOM     70  C   UNL A   1      42.000  25.025  27.514  1.00  0.00     0.031 A 
ATOM     71  C   UNL A   1      43.405  26.863  26.850  1.00  0.00     0.131 A 
ATOM     72  C   UNL A   1      42.557  24.259  26.477  1.00  0.00     0.055 A 
ATOM     73  C   UNL A   1      43.917  26.117  25.787  1.00  0.00     0.041 A 
ATOM     74  F   UNL A   1      43.856  28.118  27.004  1.00  0.00    -0.206 F 
ATOM     75  C   UNL A   1      43.503  24.800  25.604  1.00  0.00     0.022 A 
BRANCH  72  76
ATOM     76  S   UNL A   1      42.089  22.512  26.337  1.00  0.00     0.124 S 
ATOM     77  O   UNL A   1      42.732  21.936  27.512  1.00  0.00    -0.237 OA
ATOM     78  O   UNL A   1      40.632  22.587  26.374  1.00  0.00    -0.237 OA
ATOM     79  O   UNL A   1      42.657  22.109  25.053  1.00  0.00    -0.744 OA
ENDBRANCH  72  76
ENDBRANCH  45  69
BRANCH  57  80
ATOM     80  C   UNL A   1      44.715  27.364  34.241  1.00  0.00     0.023 A 
ATOM     81  C   UNL A   1      44.607  26.126  34.899  1.00  0.00     0.031 A 
ATOM     82  C   UNL A   1      45.933  28.061  34.338  1.00  0.00     0.131 A 
ATOM     83  C   UNL A   1      45.671  25.657  35.682  1.00  0.00     0.055 A 
ATOM     84  C   UNL A   1      47.012  27.556  35.061  1.00  0.00     0.041 A 
ATOM     85  F   UNL A   1      46.091  29.248  33.730  1.00  0.00    -0.206 F 
ATOM     86  C   UNL A   1      46.880  26.356  35.754  1.00  0.00     0.022 A 
BRANCH  83  87
ATOM     87  S   UNL A   1      45.413  24.179  36.701  1.00  0.00     0.124 S 
ATOM     88  O   UNL A   1      44.473  24.664  37.705  1.00  0.00    -0.237 OA
ATOM     89  O   UNL A   1      44.878  23.225  35.736  1.00  0.00    -0.237 OA
ATOM     90  O   UNL A   1      46.751  23.870  37.202  1.00  0.00    -0.744 OA
ENDBRANCH  83  87
ENDBRANCH  57  80
ENDBRANCH  31  32
ENDBRANCH  23  26
ENDBRANCH  21  22
ENDBRANCH   1  21
TORSDOF 16
ENDMDL
