MODEL 1
REMARK VINA RESULT:     -13.3      0.000      0.000
REMARK SMILES O=C(NCCCCNC(=O)[C@@H](Cc1ccccc1)/N=C1\C(=O)c2ccccc2C(=O)[C@H]1Cl)c1ccc(-c2c3nc(c(-c4cc(S(=O)(=O)[O-])ccc4F)c4ccc([nH]4)c(-c4cc(S(=O)(=O)[O-])ccc4F)c4nc(c(-c5cc(S(=O)(=O)[O-])ccc5F)c5ccc2[nH]5)C=C4)C=C3)cc1
REMARK SMILES IDX 5 1 4 2 3 3 1 4 2 5 33 7 34 8 95 9 35 10 94 11 36 12 37 13
REMARK SMILES IDX 38 14 88 15 39 16 93 17 87 18 89 19 40 20 92 21 86 22 85 23
REMARK SMILES IDX 41 25 73 26 53 27 72 28 54 29 57 30 71 31 90 32 55 33 56 34
REMARK SMILES IDX 70 36 91 37 58 38 42 39 43 40 51 41 44 42 50 43 52 44 49 45
REMARK SMILES IDX 45 46 46 47 47 48 48 49 74 50 75 51 83 52 76 53 82 54 84 55
REMARK SMILES IDX 81 56 77 57 78 58 79 59 80 60 59 61 60 62 68 63 61 64 67 65
REMARK SMILES IDX 69 66 66 67 62 68 63 69 64 70 65 71 6 72 7 73 8 74 9 75
REMARK SMILES IDX 10 77 11 78 12 79 13 80 14 81 18 82 15 83 17 84 16 85 19 86
REMARK SMILES IDX 20 87 21 88 31 89 22 90 23 91 29 92 32 93 24 94 28 95 30 96
REMARK SMILES IDX 25 97 27 98 26 99
REMARK H PARENT 3 6 89 24 57 35 8 76
REMARK Flexibility Score: inf
ROOT
ATOM      1  C   UNL A   1      31.650  29.487  26.457  1.00  0.00     0.023 C 
ENDROOT
BRANCH   1   2
ATOM      2  C   UNL A   1      32.652  30.619  26.220  1.00  0.00     0.116 C 
BRANCH   2   3
ATOM      3  N   UNL A   1      32.444  31.866  26.951  1.00  0.00    -0.352 N 
ATOM      4  O   UNL A   1      33.116  33.645  28.210  1.00  0.00    -0.269 OA
ATOM      5  C   UNL A   1      33.388  32.572  27.682  1.00  0.00     0.251 C 
ATOM      6  H   UNL A   1      31.537  32.247  26.921  1.00  0.00     0.163 HD
BRANCH   5   7
ATOM      7  C   UNL A   1      34.737  31.979  27.853  1.00  0.00     0.039 A 
ATOM      8  C   UNL A   1      34.864  30.611  28.091  1.00  0.00     0.014 A 
ATOM      9  C   UNL A   1      35.847  32.821  27.968  1.00  0.00     0.014 A 
ATOM     10  C   UNL A   1      36.013  30.140  28.713  1.00  0.00     0.010 A 
ATOM     11  C   UNL A   1      37.044  32.314  28.485  1.00  0.00     0.010 A 
ATOM     12  C   UNL A   1      37.107  30.992  28.952  1.00  0.00    -0.014 A 
BRANCH  12  13
ATOM     13  C   UNL A   1      38.260  30.492  29.758  1.00  0.00     0.031 A 
ATOM     14  C   UNL A   1      39.280  29.556  29.150  1.00  0.00     0.074 A 
ATOM     15  C   UNL A   1      38.437  30.952  31.013  1.00  0.00     0.049 A 
ATOM     16  N   UNL A   1      40.327  28.997  29.705  1.00  0.00    -0.248 NA
ATOM     17  C   UNL A   1      39.098  29.193  27.735  1.00  0.00     0.031 C 
ATOM     18  C   UNL A   1      37.538  31.886  31.698  1.00  0.00     0.029 A 
ATOM     19  N   UNL A   1      39.436  30.729  31.924  1.00  0.00    -0.354 N 
ATOM     20  C   UNL A   1      40.903  28.190  28.725  1.00  0.00     0.074 A 
ATOM     21  C   UNL A   1      40.075  28.318  27.546  1.00  0.00     0.031 C 
ATOM     22  C   UNL A   1      38.057  32.200  32.892  1.00  0.00     0.029 A 
ATOM     23  C   UNL A   1      39.271  31.421  33.102  1.00  0.00     0.049 A 
ATOM     24  H   UNL A   1      40.199  30.131  31.753  1.00  0.00     0.167 HD
ATOM     25  C   UNL A   1      42.018  27.418  28.804  1.00  0.00     0.034 A 
ATOM     26  C   UNL A   1      39.991  31.405  34.241  1.00  0.00     0.034 A 
ATOM     27  C   UNL A   1      42.850  27.330  29.981  1.00  0.00     0.049 A 
ATOM     28  C   UNL A   1      41.204  30.521  34.312  1.00  0.00     0.074 A 
ATOM     29  C   UNL A   1      44.006  26.591  30.170  1.00  0.00     0.029 A 
ATOM     30  N   UNL A   1      42.618  28.007  31.173  1.00  0.00    -0.354 N 
ATOM     31  N   UNL A   1      41.706  29.734  33.387  1.00  0.00    -0.248 NA
ATOM     32  C   UNL A   1      41.945  30.518  35.578  1.00  0.00     0.031 C 
ATOM     33  C   UNL A   1      44.438  26.776  31.489  1.00  0.00     0.029 A 
ATOM     34  C   UNL A   1      43.593  27.683  32.105  1.00  0.00     0.049 A 
ATOM     35  H   UNL A   1      41.870  28.627  31.333  1.00  0.00     0.167 HD
ATOM     36  C   UNL A   1      42.826  29.143  33.963  1.00  0.00     0.074 A 
ATOM     37  C   UNL A   1      42.943  29.694  35.300  1.00  0.00     0.031 C 
ATOM     38  C   UNL A   1      43.676  28.223  33.441  1.00  0.00     0.034 A 
BRANCH  25  39
ATOM     39  C   UNL A   1      42.372  26.566  27.605  1.00  0.00     0.023 A 
ATOM     40  C   UNL A   1      41.980  25.221  27.496  1.00  0.00     0.031 A 
ATOM     41  C   UNL A   1      43.124  27.117  26.549  1.00  0.00     0.131 A 
ATOM     42  C   UNL A   1      42.388  24.458  26.389  1.00  0.00     0.055 A 
ATOM     43  C   UNL A   1      43.465  26.373  25.416  1.00  0.00     0.041 A 
ATOM     44  F   UNL A   1      43.545  28.391  26.602  1.00  0.00    -0.206 F 
ATOM     45  C   UNL A   1      43.107  25.031  25.337  1.00  0.00     0.022 A 
BRANCH  42  46
ATOM     46  S   UNL A   1      42.071  22.671  26.397  1.00  0.00     0.124 S 
ATOM     47  O   UNL A   1      42.983  22.213  27.443  1.00  0.00    -0.237 OA
ATOM     48  O   UNL A   1      40.650  22.604  26.714  1.00  0.00    -0.237 OA
ATOM     49  O   UNL A   1      42.428  22.252  25.043  1.00  0.00    -0.744 OA
ENDBRANCH  42  46
ENDBRANCH  25  39
BRANCH  26  50
ATOM     50  C   UNL A   1      39.544  32.203  35.419  1.00  0.00     0.023 A 
ATOM     51  C   UNL A   1      38.753  31.636  36.428  1.00  0.00     0.031 A 
ATOM     52  C   UNL A   1      39.895  33.561  35.539  1.00  0.00     0.131 A 
ATOM     53  C   UNL A   1      38.314  32.430  37.499  1.00  0.00     0.055 A 
ATOM     54  C   UNL A   1      39.504  34.331  36.634  1.00  0.00     0.041 A 
ATOM     55  F   UNL A   1      40.651  34.154  34.602  1.00  0.00    -0.206 F 
ATOM     56  C   UNL A   1      38.698  33.768  37.618  1.00  0.00     0.022 A 
BRANCH  53  57
ATOM     57  S   UNL A   1      37.164  31.710  38.702  1.00  0.00     0.124 S 
ATOM     58  O   UNL A   1      35.967  32.516  38.492  1.00  0.00    -0.237 OA
ATOM     59  O   UNL A   1      37.090  30.323  38.256  1.00  0.00    -0.237 OA
ATOM     60  O   UNL A   1      37.838  31.915  39.983  1.00  0.00    -0.744 OA
ENDBRANCH  53  57
ENDBRANCH  26  50
BRANCH  38  61
ATOM     61  C   UNL A   1      44.813  27.784  34.328  1.00  0.00     0.023 A 
ATOM     62  C   UNL A   1      44.691  26.669  35.175  1.00  0.00     0.031 A 
ATOM     63  C   UNL A   1      46.012  28.516  34.362  1.00  0.00     0.131 A 
ATOM     64  C   UNL A   1      45.722  26.360  36.073  1.00  0.00     0.055 A 
ATOM     65  C   UNL A   1      47.059  28.167  35.214  1.00  0.00     0.041 A 
ATOM     66  F   UNL A   1      46.179  29.591  33.574  1.00  0.00    -0.206 F 
ATOM     67  C   UNL A   1      46.913  27.093  36.088  1.00  0.00     0.022 A 
BRANCH  64  68
ATOM     68  S   UNL A   1      45.444  25.050  37.296  1.00  0.00     0.124 S 
ATOM     69  O   UNL A   1      46.065  25.615  38.490  1.00  0.00    -0.237 OA
ATOM     70  O   UNL A   1      43.989  24.949  37.321  1.00  0.00    -0.237 OA
ATOM     71  O   UNL A   1      46.135  23.895  36.726  1.00  0.00    -0.744 OA
ENDBRANCH  64  68
ENDBRANCH  38  61
ENDBRANCH  12  13
ENDBRANCH   5   7
ENDBRANCH   2   3
ENDBRANCH   1   2
BRANCH   1  72
ATOM     72  C   UNL A   1      32.036  28.351  27.407  1.00  0.00     0.023 C 
BRANCH  72  73
ATOM     73  C   UNL A   1      31.998  26.968  26.773  1.00  0.00     0.116 C 
BRANCH  73  74
ATOM     74  N   UNL A   1      30.711  26.324  26.663  1.00  0.00    -0.354 N 
ATOM     75  C   UNL A   1      30.547  25.034  26.222  1.00  0.00     0.245 C 
ATOM     76  H   UNL A   1      29.909  26.836  26.917  1.00  0.00     0.163 HD
ATOM     77  O   UNL A   1      29.783  24.313  26.879  1.00  0.00    -0.273 OA
BRANCH  75  78
ATOM     78  C   UNL A   1      31.131  24.530  24.881  1.00  0.00     0.199 C 
BRANCH  78  79
ATOM     79  C   UNL A   1      30.587  25.060  23.541  1.00  0.00     0.073 C 
BRANCH  79  80
ATOM     80  C   UNL A   1      30.669  26.539  23.260  1.00  0.00    -0.045 A 
ATOM     81  C   UNL A   1      31.887  27.156  22.947  1.00  0.00     0.004 A 
ATOM     82  C   UNL A   1      29.507  27.319  23.278  1.00  0.00     0.004 A 
ATOM     83  C   UNL A   1      31.957  28.540  22.779  1.00  0.00     0.000 A 
ATOM     84  C   UNL A   1      29.575  28.702  23.119  1.00  0.00     0.000 A 
ATOM     85  C   UNL A   1      30.804  29.314  22.891  1.00  0.00     0.000 A 
ENDBRANCH  79  80
ENDBRANCH  78  79
BRANCH  78  86
ATOM     86  N   UNL A   1      32.503  23.999  24.820  1.00  0.00    -0.270 NA
ATOM     87  C   UNL A   1      33.039  22.922  24.381  1.00  0.00     0.109 C 
ATOM     88  C   UNL A   1      32.378  21.768  23.681  1.00  0.00     0.209 C 
ATOM     89  C   UNL A   1      34.514  22.715  24.610  1.00  0.00     0.205 C 
ATOM     90  O   UNL A   1      31.419  21.954  22.968  1.00  0.00    -0.287 OA
ATOM     91  C   UNL A   1      32.964  20.417  23.802  1.00  0.00     0.035 A 
ATOM     92  C   UNL A   1      34.849  21.340  25.138  1.00  0.00     0.187 C 
ATOM     93  Cl  UNL A   1      35.371  22.952  23.064  1.00  0.00    -0.107 Cl
ATOM     94  C   UNL A   1      32.346  19.348  23.142  1.00  0.00     0.013 A 
ATOM     95  C   UNL A   1      34.113  20.193  24.557  1.00  0.00     0.031 A 
ATOM     96  O   UNL A   1      35.724  21.142  25.976  1.00  0.00    -0.292 OA
ATOM     97  C   UNL A   1      32.838  18.052  23.287  1.00  0.00     0.001 A 
ATOM     98  C   UNL A   1      34.596  18.887  24.723  1.00  0.00     0.012 A 
ATOM     99  C   UNL A   1      33.950  17.818  24.095  1.00  0.00     0.001 A 
ENDBRANCH  78  86
ENDBRANCH  75  78
ENDBRANCH  73  74
ENDBRANCH  72  73
ENDBRANCH   1  72
TORSDOF 17
ENDMDL
MODEL 2
REMARK VINA RESULT:     -13.2      4.790      7.866
REMARK SMILES O=C(NCCCCNC(=O)[C@@H](Cc1ccccc1)/N=C1\C(=O)c2ccccc2C(=O)[C@H]1Cl)c1ccc(-c2c3nc(c(-c4cc(S(=O)(=O)[O-])ccc4F)c4ccc([nH]4)c(-c4cc(S(=O)(=O)[O-])ccc4F)c4nc(c(-c5cc(S(=O)(=O)[O-])ccc5F)c5ccc2[nH]5)C=C4)C=C3)cc1
REMARK SMILES IDX 5 1 4 2 3 3 1 4 2 5 33 7 34 8 95 9 35 10 94 11 36 12 37 13
REMARK SMILES IDX 38 14 88 15 39 16 93 17 87 18 89 19 40 20 92 21 86 22 85 23
REMARK SMILES IDX 41 25 73 26 53 27 72 28 54 29 57 30 71 31 90 32 55 33 56 34
REMARK SMILES IDX 70 36 91 37 58 38 42 39 43 40 51 41 44 42 50 43 52 44 49 45
REMARK SMILES IDX 45 46 46 47 47 48 48 49 74 50 75 51 83 52 76 53 82 54 84 55
REMARK SMILES IDX 81 56 77 57 78 58 79 59 80 60 59 61 60 62 68 63 61 64 67 65
REMARK SMILES IDX 69 66 66 67 62 68 63 69 64 70 65 71 6 72 7 73 8 74 9 75
REMARK SMILES IDX 10 77 11 78 12 79 13 80 14 81 18 82 15 83 17 84 16 85 19 86
REMARK SMILES IDX 20 87 21 88 31 89 22 90 23 91 29 92 32 93 24 94 28 95 30 96
REMARK SMILES IDX 25 97 27 98 26 99
REMARK H PARENT 3 6 89 24 57 35 8 76
REMARK Flexibility Score: inf
ROOT
ATOM      1  C   UNL A   1      36.057  21.088  25.714  1.00  0.00     0.023 C 
ENDROOT
BRANCH   1   2
ATOM      2  C   UNL A   1      37.408  21.519  25.137  1.00  0.00     0.116 C 
BRANCH   2   3
ATOM      3  N   UNL A   1      38.516  20.573  25.238  1.00  0.00    -0.352 N 
ATOM      4  O   UNL A   1      40.489  19.803  26.086  1.00  0.00    -0.269 OA
ATOM      5  C   UNL A   1      39.645  20.692  26.035  1.00  0.00     0.251 C 
ATOM      6  H   UNL A   1      38.455  19.764  24.682  1.00  0.00     0.163 HD
BRANCH   5   7
ATOM      7  C   UNL A   1      39.838  21.947  26.803  1.00  0.00     0.039 A 
ATOM      8  C   UNL A   1      39.176  23.107  26.405  1.00  0.00     0.014 A 
ATOM      9  C   UNL A   1      40.825  22.000  27.792  1.00  0.00     0.014 A 
ATOM     10  C   UNL A   1      39.695  24.340  26.782  1.00  0.00     0.010 A 
ATOM     11  C   UNL A   1      41.263  23.244  28.259  1.00  0.00     0.010 A 
ATOM     12  C   UNL A   1      40.768  24.427  27.687  1.00  0.00    -0.014 A 
BRANCH  12  13
ATOM     13  C   UNL A   1      41.397  25.755  27.948  1.00  0.00     0.031 A 
ATOM     14  C   UNL A   1      42.775  26.076  27.415  1.00  0.00     0.074 A 
ATOM     15  C   UNL A   1      40.690  26.706  28.593  1.00  0.00     0.049 A 
ATOM     16  N   UNL A   1      43.491  27.163  27.568  1.00  0.00    -0.248 NA
ATOM     17  C   UNL A   1      43.441  25.039  26.611  1.00  0.00     0.031 C 
ATOM     18  C   UNL A   1      39.337  26.526  29.126  1.00  0.00     0.029 A 
ATOM     19  N   UNL A   1      40.989  28.011  28.884  1.00  0.00    -0.354 N 
ATOM     20  C   UNL A   1      44.701  26.927  26.916  1.00  0.00     0.074 A 
ATOM     21  C   UNL A   1      44.628  25.584  26.383  1.00  0.00     0.031 C 
ATOM     22  C   UNL A   1      38.902  27.691  29.623  1.00  0.00     0.029 A 
ATOM     23  C   UNL A   1      39.974  28.675  29.535  1.00  0.00     0.049 A 
ATOM     24  H   UNL A   1      41.847  28.434  28.651  1.00  0.00     0.167 HD
ATOM     25  C   UNL A   1      45.769  27.754  26.775  1.00  0.00     0.034 A 
ATOM     26  C   UNL A   1      39.921  29.923  30.040  1.00  0.00     0.034 A 
ATOM     27  C   UNL A   1      45.809  29.104  27.287  1.00  0.00     0.049 A 
ATOM     28  C   UNL A   1      41.126  30.809  29.896  1.00  0.00     0.074 A 
ATOM     29  C   UNL A   1      46.831  30.035  27.193  1.00  0.00     0.029 A 
ATOM     30  N   UNL A   1      44.779  29.722  27.987  1.00  0.00    -0.354 N 
ATOM     31  N   UNL A   1      42.274  30.550  29.313  1.00  0.00    -0.248 NA
ATOM     32  C   UNL A   1      41.032  32.151  30.480  1.00  0.00     0.031 C 
ATOM     33  C   UNL A   1      46.442  31.189  27.885  1.00  0.00     0.029 A 
ATOM     34  C   UNL A   1      45.151  31.007  28.351  1.00  0.00     0.049 A 
ATOM     35  H   UNL A   1      43.911  29.306  28.195  1.00  0.00     0.167 HD
ATOM     36  C   UNL A   1      43.039  31.703  29.460  1.00  0.00     0.074 A 
ATOM     37  C   UNL A   1      42.207  32.666  30.154  1.00  0.00     0.031 C 
ATOM     38  C   UNL A   1      44.316  31.943  29.066  1.00  0.00     0.034 A 
BRANCH  25  39
ATOM     39  C   UNL A   1      47.001  27.206  26.088  1.00  0.00     0.023 A 
ATOM     40  C   UNL A   1      47.995  26.496  26.783  1.00  0.00     0.031 A 
ATOM     41  C   UNL A   1      47.181  27.405  24.706  1.00  0.00     0.131 A 
ATOM     42  C   UNL A   1      49.148  26.061  26.107  1.00  0.00     0.055 A 
ATOM     43  C   UNL A   1      48.296  26.907  24.026  1.00  0.00     0.041 A 
ATOM     44  F   UNL A   1      46.277  28.092  23.991  1.00  0.00    -0.206 F 
ATOM     45  C   UNL A   1      49.294  26.241  24.729  1.00  0.00     0.022 A 
BRANCH  42  46
ATOM     46  S   UNL A   1      50.515  25.363  27.076  1.00  0.00     0.124 S 
ATOM     47  O   UNL A   1      50.922  26.511  27.883  1.00  0.00    -0.237 OA
ATOM     48  O   UNL A   1      49.867  24.274  27.796  1.00  0.00    -0.237 OA
ATOM     49  O   UNL A   1      51.482  24.951  26.060  1.00  0.00    -0.744 OA
ENDBRANCH  42  46
ENDBRANCH  25  39
BRANCH  26  50
ATOM     50  C   UNL A   1      38.709  30.378  30.781  1.00  0.00     0.023 A 
ATOM     51  C   UNL A   1      37.664  31.049  30.129  1.00  0.00     0.031 A 
ATOM     52  C   UNL A   1      38.590  30.158  32.166  1.00  0.00     0.131 A 
ATOM     53  C   UNL A   1      36.559  31.502  30.867  1.00  0.00     0.055 A 
ATOM     54  C   UNL A   1      37.464  30.559  32.885  1.00  0.00     0.041 A 
ATOM     55  F   UNL A   1      39.561  29.520  32.839  1.00  0.00    -0.206 F 
ATOM     56  C   UNL A   1      36.444  31.247  32.236  1.00  0.00     0.022 A 
BRANCH  53  57
ATOM     57  S   UNL A   1      35.302  32.503  30.026  1.00  0.00     0.124 S 
ATOM     58  O   UNL A   1      36.069  33.681  29.638  1.00  0.00    -0.237 OA
ATOM     59  O   UNL A   1      34.890  31.619  28.941  1.00  0.00    -0.237 OA
ATOM     60  O   UNL A   1      34.295  32.726  31.062  1.00  0.00    -0.744 OA
ENDBRANCH  53  57
ENDBRANCH  26  50
BRANCH  38  61
ATOM     61  C   UNL A   1      44.863  33.314  29.369  1.00  0.00     0.023 A 
ATOM     62  C   UNL A   1      44.716  34.377  28.461  1.00  0.00     0.031 A 
ATOM     63  C   UNL A   1      45.577  33.548  30.556  1.00  0.00     0.131 A 
ATOM     64  C   UNL A   1      45.338  35.606  28.720  1.00  0.00     0.055 A 
ATOM     65  C   UNL A   1      46.143  34.792  30.837  1.00  0.00     0.041 A 
ATOM     66  F   UNL A   1      45.748  32.566  31.457  1.00  0.00    -0.206 F 
ATOM     67  C   UNL A   1      46.039  35.826  29.910  1.00  0.00     0.022 A 
BRANCH  64  68
ATOM     68  S   UNL A   1      45.309  36.882  27.432  1.00  0.00     0.124 S 
ATOM     69  O   UNL A   1      45.733  38.067  28.170  1.00  0.00    -0.237 OA
ATOM     70  O   UNL A   1      46.262  36.363  26.457  1.00  0.00    -0.237 OA
ATOM     71  O   UNL A   1      43.916  36.892  26.990  1.00  0.00    -0.744 OA
ENDBRANCH  64  68
ENDBRANCH  38  61
ENDBRANCH  12  13
ENDBRANCH   5   7
ENDBRANCH   2   3
ENDBRANCH   1   2
BRANCH   1  72
ATOM     72  C   UNL A   1      34.937  20.695  24.748  1.00  0.00     0.023 C 
BRANCH  72  73
ATOM     73  C   UNL A   1      33.584  21.307  25.081  1.00  0.00     0.116 C 
BRANCH  73  74
ATOM     74  N   UNL A   1      33.420  21.876  26.398  1.00  0.00    -0.354 N 
ATOM     75  C   UNL A   1      33.034  23.176  26.616  1.00  0.00     0.245 C 
ATOM     76  H   UNL A   1      33.593  21.302  27.179  1.00  0.00     0.163 HD
ATOM     77  O   UNL A   1      32.157  23.360  27.471  1.00  0.00    -0.273 OA
BRANCH  75  78
ATOM     78  C   UNL A   1      33.761  24.381  25.975  1.00  0.00     0.199 C 
BRANCH  78  79
ATOM     79  C   UNL A   1      34.441  24.244  24.600  1.00  0.00     0.073 C 
BRANCH  79  80
ATOM     80  C   UNL A   1      33.782  24.875  23.400  1.00  0.00    -0.045 A 
ATOM     81  C   UNL A   1      34.061  26.194  23.022  1.00  0.00     0.004 A 
ATOM     82  C   UNL A   1      32.892  24.127  22.619  1.00  0.00     0.004 A 
ATOM     83  C   UNL A   1      33.373  26.787  21.962  1.00  0.00     0.000 A 
ATOM     84  C   UNL A   1      32.199  24.719  21.566  1.00  0.00     0.000 A 
ATOM     85  C   UNL A   1      32.424  26.056  21.252  1.00  0.00     0.000 A 
ENDBRANCH  79  80
ENDBRANCH  78  79
BRANCH  78  86
ATOM     86  N   UNL A   1      33.384  25.757  26.341  1.00  0.00    -0.270 NA
ATOM     87  C   UNL A   1      32.410  26.536  26.053  1.00  0.00     0.109 C 
ATOM     88  C   UNL A   1      31.203  26.249  25.204  1.00  0.00     0.209 C 
ATOM     89  C   UNL A   1      32.452  27.951  26.571  1.00  0.00     0.205 C 
ATOM     90  O   UNL A   1      30.736  25.134  25.164  1.00  0.00    -0.287 OA
ATOM     91  C   UNL A   1      30.542  27.359  24.487  1.00  0.00     0.035 A 
ATOM     92  C   UNL A   1      32.122  28.981  25.517  1.00  0.00     0.187 C 
ATOM     93  Cl  UNL A   1      31.276  28.106  27.902  1.00  0.00    -0.107 Cl
ATOM     94  C   UNL A   1      29.415  27.084  23.703  1.00  0.00     0.013 A 
ATOM     95  C   UNL A   1      31.020  28.664  24.579  1.00  0.00     0.031 A 
ATOM     96  O   UNL A   1      32.690  30.068  25.446  1.00  0.00    -0.292 OA
ATOM     97  C   UNL A   1      28.807  28.099  22.966  1.00  0.00     0.001 A 
ATOM     98  C   UNL A   1      30.424  29.681  23.820  1.00  0.00     0.012 A 
ATOM     99  C   UNL A   1      29.324  29.393  23.007  1.00  0.00     0.001 A 
ENDBRANCH  78  86
ENDBRANCH  75  78
ENDBRANCH  73  74
ENDBRANCH  72  73
ENDBRANCH   1  72
TORSDOF 17
ENDMDL
MODEL 3
REMARK VINA RESULT:     -13.2      1.314      7.416
REMARK SMILES O=C(NCCCCNC(=O)[C@@H](Cc1ccccc1)/N=C1\C(=O)c2ccccc2C(=O)[C@H]1Cl)c1ccc(-c2c3nc(c(-c4cc(S(=O)(=O)[O-])ccc4F)c4ccc([nH]4)c(-c4cc(S(=O)(=O)[O-])ccc4F)c4nc(c(-c5cc(S(=O)(=O)[O-])ccc5F)c5ccc2[nH]5)C=C4)C=C3)cc1
REMARK SMILES IDX 5 1 4 2 3 3 1 4 2 5 33 7 34 8 95 9 35 10 94 11 36 12 37 13
REMARK SMILES IDX 38 14 88 15 39 16 93 17 87 18 89 19 40 20 92 21 86 22 85 23
REMARK SMILES IDX 41 25 73 26 53 27 72 28 54 29 57 30 71 31 90 32 55 33 56 34
REMARK SMILES IDX 70 36 91 37 58 38 42 39 43 40 51 41 44 42 50 43 52 44 49 45
REMARK SMILES IDX 45 46 46 47 47 48 48 49 74 50 75 51 83 52 76 53 82 54 84 55
REMARK SMILES IDX 81 56 77 57 78 58 79 59 80 60 59 61 60 62 68 63 61 64 67 65
REMARK SMILES IDX 69 66 66 67 62 68 63 69 64 70 65 71 6 72 7 73 8 74 9 75
REMARK SMILES IDX 10 77 11 78 12 79 13 80 14 81 18 82 15 83 17 84 16 85 19 86
REMARK SMILES IDX 20 87 21 88 31 89 22 90 23 91 29 92 32 93 24 94 28 95 30 96
REMARK SMILES IDX 25 97 27 98 26 99
REMARK H PARENT 3 6 89 24 57 35 8 76
REMARK Flexibility Score: inf
ROOT
ATOM      1  C   UNL A   1      32.035  29.403  26.670  1.00  0.00     0.023 C 
ENDROOT
BRANCH   1   2
ATOM      2  C   UNL A   1      32.558  30.732  26.121  1.00  0.00     0.116 C 
BRANCH   2   3
ATOM      3  N   UNL A   1      32.338  31.928  26.931  1.00  0.00    -0.352 N 
ATOM      4  O   UNL A   1      32.994  33.630  28.301  1.00  0.00    -0.269 OA
ATOM      5  C   UNL A   1      33.276  32.595  27.705  1.00  0.00     0.251 C 
ATOM      6  H   UNL A   1      31.428  32.300  26.926  1.00  0.00     0.163 HD
BRANCH   5   7
ATOM      7  C   UNL A   1      34.631  32.006  27.836  1.00  0.00     0.039 A 
ATOM      8  C   UNL A   1      34.769  30.637  28.063  1.00  0.00     0.014 A 
ATOM      9  C   UNL A   1      35.740  32.852  27.927  1.00  0.00     0.014 A 
ATOM     10  C   UNL A   1      35.936  30.168  28.652  1.00  0.00     0.010 A 
ATOM     11  C   UNL A   1      36.953  32.347  28.410  1.00  0.00     0.010 A 
ATOM     12  C   UNL A   1      37.033  31.022  28.867  1.00  0.00    -0.014 A 
BRANCH  12  13
ATOM     13  C   UNL A   1      38.208  30.522  29.639  1.00  0.00     0.031 A 
ATOM     14  C   UNL A   1      38.406  30.916  31.086  1.00  0.00     0.074 A 
ATOM     15  C   UNL A   1      39.051  29.641  29.063  1.00  0.00     0.049 A 
ATOM     16  N   UNL A   1      39.381  30.604  31.904  1.00  0.00    -0.248 NA
ATOM     17  C   UNL A   1      37.380  31.779  31.692  1.00  0.00     0.031 C 
ATOM     18  C   UNL A   1      38.945  29.159  27.683  1.00  0.00     0.029 A 
ATOM     19  N   UNL A   1      40.138  28.973  29.563  1.00  0.00    -0.354 N 
ATOM     20  C   UNL A   1      39.108  31.261  33.103  1.00  0.00     0.074 A 
ATOM     21  C   UNL A   1      37.884  32.005  32.897  1.00  0.00     0.031 C 
ATOM     22  C   UNL A   1      39.887  28.231  27.468  1.00  0.00     0.029 A 
ATOM     23  C   UNL A   1      40.725  28.120  28.656  1.00  0.00     0.049 A 
ATOM     24  H   UNL A   1      40.469  29.091  30.483  1.00  0.00     0.167 HD
ATOM     25  C   UNL A   1      39.811  31.242  34.265  1.00  0.00     0.034 A 
ATOM     26  C   UNL A   1      41.833  27.361  28.750  1.00  0.00     0.034 A 
ATOM     27  C   UNL A   1      41.014  30.466  34.461  1.00  0.00     0.049 A 
ATOM     28  C   UNL A   1      42.610  27.379  30.037  1.00  0.00     0.074 A 
ATOM     29  C   UNL A   1      41.800  30.362  35.596  1.00  0.00     0.029 A 
ATOM     30  N   UNL A   1      41.604  29.656  33.498  1.00  0.00    -0.354 N 
ATOM     31  N   UNL A   1      42.356  28.041  31.143  1.00  0.00    -0.248 NA
ATOM     32  C   UNL A   1      43.822  26.556  30.088  1.00  0.00     0.031 C 
ATOM     33  C   UNL A   1      42.894  29.538  35.301  1.00  0.00     0.029 A 
ATOM     34  C   UNL A   1      42.755  29.071  34.005  1.00  0.00     0.049 A 
ATOM     35  H   UNL A   1      41.256  29.517  32.587  1.00  0.00     0.167 HD
ATOM     36  C   UNL A   1      43.380  27.709  32.024  1.00  0.00     0.074 A 
ATOM     37  C   UNL A   1      44.231  26.761  31.330  1.00  0.00     0.031 C 
ATOM     38  C   UNL A   1      43.604  28.151  33.288  1.00  0.00     0.034 A 
BRANCH  25  39
ATOM     39  C   UNL A   1      39.331  32.126  35.395  1.00  0.00     0.023 A 
ATOM     40  C   UNL A   1      39.764  33.455  35.546  1.00  0.00     0.031 A 
ATOM     41  C   UNL A   1      38.421  31.622  36.344  1.00  0.00     0.131 A 
ATOM     42  C   UNL A   1      39.334  34.213  36.649  1.00  0.00     0.055 A 
ATOM     43  C   UNL A   1      37.940  32.404  37.397  1.00  0.00     0.041 A 
ATOM     44  F   UNL A   1      37.985  30.355  36.265  1.00  0.00    -0.206 F 
ATOM     45  C   UNL A   1      38.406  33.704  37.561  1.00  0.00     0.022 A 
BRANCH  42  46
ATOM     46  S   UNL A   1      40.095  35.833  36.944  1.00  0.00     0.124 S 
ATOM     47  O   UNL A   1      41.514  35.489  36.996  1.00  0.00    -0.237 OA
ATOM     48  O   UNL A   1      39.667  36.600  35.780  1.00  0.00    -0.237 OA
ATOM     49  O   UNL A   1      39.518  36.258  38.217  1.00  0.00    -0.744 OA
ENDBRANCH  42  46
ENDBRANCH  25  39
BRANCH  26  50
ATOM     50  C   UNL A   1      42.303  26.575  27.573  1.00  0.00     0.023 A 
ATOM     51  C   UNL A   1      41.970  25.222  27.418  1.00  0.00     0.031 A 
ATOM     52  C   UNL A   1      43.114  27.172  26.589  1.00  0.00     0.131 A 
ATOM     53  C   UNL A   1      42.467  24.502  26.320  1.00  0.00     0.055 A 
ATOM     54  C   UNL A   1      43.558  26.469  25.470  1.00  0.00     0.041 A 
ATOM     55  F   UNL A   1      43.463  28.465  26.688  1.00  0.00    -0.206 F 
ATOM     56  C   UNL A   1      43.244  25.120  25.337  1.00  0.00     0.022 A 
BRANCH  53  57
ATOM     57  S   UNL A   1      42.149  22.719  26.232  1.00  0.00     0.124 S 
ATOM     58  O   UNL A   1      40.692  22.673  26.278  1.00  0.00    -0.237 OA
ATOM     59  O   UNL A   1      42.763  22.366  24.957  1.00  0.00    -0.237 OA
ATOM     60  O   UNL A   1      42.828  22.193  27.415  1.00  0.00    -0.744 OA
ENDBRANCH  53  57
ENDBRANCH  26  50
BRANCH  38  61
ATOM     61  C   UNL A   1      44.813  27.585  33.990  1.00  0.00     0.023 A 
ATOM     62  C   UNL A   1      44.745  26.375  34.702  1.00  0.00     0.031 A 
ATOM     63  C   UNL A   1      46.030  28.286  33.985  1.00  0.00     0.131 A 
ATOM     64  C   UNL A   1      45.852  25.938  35.441  1.00  0.00     0.055 A 
ATOM     65  C   UNL A   1      47.148  27.815  34.673  1.00  0.00     0.041 A 
ATOM     66  F   UNL A   1      46.148  29.448  33.322  1.00  0.00    -0.206 F 
ATOM     67  C   UNL A   1      47.060  26.643  35.419  1.00  0.00     0.022 A 
BRANCH  64  68
ATOM     68  S   UNL A   1      45.662  24.491  36.517  1.00  0.00     0.124 S 
ATOM     69  O   UNL A   1      44.321  24.032  36.172  1.00  0.00    -0.237 OA
ATOM     70  O   UNL A   1      46.761  23.634  36.086  1.00  0.00    -0.237 OA
ATOM     71  O   UNL A   1      45.800  25.044  37.863  1.00  0.00    -0.744 OA
ENDBRANCH  64  68
ENDBRANCH  38  61
ENDBRANCH  12  13
ENDBRANCH   5   7
ENDBRANCH   2   3
ENDBRANCH   1   2
BRANCH   1  72
ATOM     72  C   UNL A   1      32.632  28.100  26.134  1.00  0.00     0.023 C 
BRANCH  72  73
ATOM     73  C   UNL A   1      32.165  26.852  26.868  1.00  0.00     0.116 C 
BRANCH  73  74
ATOM     74  N   UNL A   1      30.812  26.408  26.628  1.00  0.00    -0.354 N 
ATOM     75  C   UNL A   1      30.502  25.175  26.109  1.00  0.00     0.245 C 
ATOM     76  H   UNL A   1      30.074  27.021  26.848  1.00  0.00     0.163 HD
ATOM     77  O   UNL A   1      29.592  24.548  26.668  1.00  0.00    -0.273 OA
BRANCH  75  78
ATOM     78  C   UNL A   1      31.115  24.647  24.791  1.00  0.00     0.199 C 
BRANCH  78  79
ATOM     79  C   UNL A   1      30.624  25.176  23.431  1.00  0.00     0.073 C 
BRANCH  79  80
ATOM     80  C   UNL A   1      30.488  26.666  23.239  1.00  0.00    -0.045 A 
ATOM     81  C   UNL A   1      29.268  27.320  23.444  1.00  0.00     0.004 A 
ATOM     82  C   UNL A   1      31.606  27.428  22.879  1.00  0.00     0.004 A 
ATOM     83  C   UNL A   1      29.141  28.684  23.175  1.00  0.00     0.000 A 
ATOM     84  C   UNL A   1      31.481  28.788  22.602  1.00  0.00     0.000 A 
ATOM     85  C   UNL A   1      30.243  29.410  22.729  1.00  0.00     0.000 A 
ENDBRANCH  79  80
ENDBRANCH  78  79
BRANCH  78  86
ATOM     86  N   UNL A   1      32.477  24.086  24.777  1.00  0.00    -0.270 NA
ATOM     87  C   UNL A   1      33.004  22.997  24.357  1.00  0.00     0.109 C 
ATOM     88  C   UNL A   1      32.342  21.856  23.636  1.00  0.00     0.209 C 
ATOM     89  C   UNL A   1      34.466  22.760  24.635  1.00  0.00     0.205 C 
ATOM     90  O   UNL A   1      31.412  22.063  22.891  1.00  0.00    -0.287 OA
ATOM     91  C   UNL A   1      32.895  20.494  23.778  1.00  0.00     0.035 A 
ATOM     92  C   UNL A   1      34.753  21.378  25.175  1.00  0.00     0.187 C 
ATOM     93  Cl  UNL A   1      35.378  22.975  23.119  1.00  0.00    -0.107 Cl
ATOM     94  C   UNL A   1      32.276  19.437  23.098  1.00  0.00     0.013 A 
ATOM     95  C   UNL A   1      34.012  20.246  24.570  1.00  0.00     0.031 A 
ATOM     96  O   UNL A   1      35.595  21.163  26.042  1.00  0.00    -0.292 OA
ATOM     97  C   UNL A   1      32.735  18.131  23.261  1.00  0.00     0.001 A 
ATOM     98  C   UNL A   1      34.461  18.930  24.754  1.00  0.00     0.012 A 
ATOM     99  C   UNL A   1      33.814  17.875  24.106  1.00  0.00     0.001 A 
ENDBRANCH  78  86
ENDBRANCH  75  78
ENDBRANCH  73  74
ENDBRANCH  72  73
ENDBRANCH   1  72
TORSDOF 17
ENDMDL
