MODEL 1
REMARK VINA RESULT:     -12.8      0.000      0.000
REMARK SMILES C[C@H](C(=O)NCCCCNC(=O)c1ccc(-c2c3nc(c(-c4cc(S(=O)(=O)[O-])ccc4F)c4ccc([nH]4)c(-c4cc(S(=O)(=O)[O-])ccc4F)c4nc(c(-c5cc(S(=O)(=O)[O-])ccc5F)c5ccc2[nH]5)C=C4)C=C3)cc1)c1ccc2c(c1)[nH]c1ccc(Cl)cc12
REMARK SMILES IDX 8 1 7 2 6 3 5 4 3 5 4 6 2 8 1 9 76 10 77 11 81 12 78 13
REMARK SMILES IDX 80 14 79 15 82 16 89 17 83 18 88 20 84 21 86 22 85 23 87 24
REMARK SMILES IDX 9 25 10 26 11 27 12 29 13 30 14 31 75 32 15 33 74 34 16 35
REMARK SMILES IDX 17 36 18 37 68 38 19 39 73 40 67 41 69 42 20 43 72 44 66 45
REMARK SMILES IDX 65 46 21 48 53 49 33 50 52 51 34 52 37 53 51 54 70 55 35 56
REMARK SMILES IDX 36 57 50 59 71 60 38 61 22 62 23 63 31 64 24 65 30 66 32 67
REMARK SMILES IDX 29 68 25 69 26 70 27 71 28 72 54 73 55 74 63 75 56 76 62 77
REMARK SMILES IDX 64 78 61 79 57 80 58 81 59 82 60 83 39 84 40 85 48 86 41 87
REMARK SMILES IDX 47 88 49 89 46 90 42 91 43 92 44 93 45 94
REMARK H PARENT 5 7 82 19 10 28 69 47 37 58
REMARK Flexibility Score: inf
ROOT
ATOM      1  C   UNL A   1      36.543  21.688  24.138  1.00  0.00     0.023 C 
ENDROOT
BRANCH   1   2
ATOM      2  C   UNL A   1      36.117  23.084  23.674  1.00  0.00     0.023 C 
BRANCH   2   3
ATOM      3  C   UNL A   1      34.664  23.219  23.230  1.00  0.00     0.116 C 
BRANCH   3   4
ATOM      4  N   UNL A   1      33.787  22.217  23.806  1.00  0.00    -0.356 N 
ATOM      5  C   UNL A   1      32.754  22.354  24.685  1.00  0.00     0.227 C 
ATOM      6  O   UNL A   1      31.994  21.387  24.807  1.00  0.00    -0.274 OA
ATOM      7  H   UNL A   1      33.967  21.293  23.518  1.00  0.00     0.163 HD
BRANCH   5   8
ATOM      8  C   UNL A   1      32.566  23.591  25.563  1.00  0.00     0.105 C 
ATOM      9  C   UNL A   1      33.841  23.857  26.379  1.00  0.00     0.023 C 
BRANCH   8  10
ATOM     10  C   UNL A   1      31.983  24.855  24.932  1.00  0.00    -0.034 A 
ATOM     11  C   UNL A   1      32.732  25.998  24.630  1.00  0.00     0.005 A 
ATOM     12  C   UNL A   1      30.606  24.858  24.630  1.00  0.00     0.031 A 
ATOM     13  C   UNL A   1      32.121  27.182  24.180  1.00  0.00     0.011 A 
ATOM     14  C   UNL A   1      30.014  26.037  24.166  1.00  0.00     0.047 A 
ATOM     15  C   UNL A   1      30.729  27.214  23.970  1.00  0.00     0.007 A 
ATOM     16  N   UNL A   1      28.707  26.296  23.838  1.00  0.00    -0.355 N 
ATOM     17  C   UNL A   1      29.787  28.227  23.598  1.00  0.00     0.009 A 
ATOM     18  C   UNL A   1      28.530  27.625  23.540  1.00  0.00     0.047 A 
ATOM     19  H   UNL A   1      27.991  25.620  23.818  1.00  0.00     0.167 HD
ATOM     20  C   UNL A   1      29.885  29.609  23.329  1.00  0.00     0.031 A 
ATOM     21  C   UNL A   1      27.359  28.328  23.235  1.00  0.00     0.028 A 
ATOM     22  C   UNL A   1      28.720  30.325  23.035  1.00  0.00     0.041 A 
ATOM     23  C   UNL A   1      27.477  29.698  22.991  1.00  0.00     0.022 A 
ATOM     24  Cl  UNL A   1      28.821  32.020  22.736  1.00  0.00    -0.084 Cl
ENDBRANCH   8  10
ENDBRANCH   5   8
ENDBRANCH   3   4
ENDBRANCH   2   3
ENDBRANCH   1   2
BRANCH   1  25
ATOM     25  C   UNL A   1      37.015  21.572  25.585  1.00  0.00     0.116 C 
BRANCH  25  26
ATOM     26  N   UNL A   1      38.126  20.652  25.758  1.00  0.00    -0.352 N 
ATOM     27  C   UNL A   1      39.409  20.890  26.201  1.00  0.00     0.251 C 
ATOM     28  H   UNL A   1      37.933  19.715  25.524  1.00  0.00     0.163 HD
ATOM     29  O   UNL A   1      40.235  19.988  26.175  1.00  0.00    -0.269 OA
BRANCH  27  30
ATOM     30  C   UNL A   1      39.793  22.245  26.659  1.00  0.00     0.039 A 
ATOM     31  C   UNL A   1      40.796  22.368  27.625  1.00  0.00     0.014 A 
ATOM     32  C   UNL A   1      39.196  23.387  26.122  1.00  0.00     0.014 A 
ATOM     33  C   UNL A   1      41.260  23.636  27.984  1.00  0.00     0.010 A 
ATOM     34  C   UNL A   1      39.715  24.645  26.422  1.00  0.00     0.010 A 
ATOM     35  C   UNL A   1      40.759  24.784  27.350  1.00  0.00    -0.014 A 
BRANCH  35  36
ATOM     36  C   UNL A   1      41.323  26.132  27.633  1.00  0.00     0.031 A 
ATOM     37  C   UNL A   1      42.711  26.485  27.166  1.00  0.00     0.074 A 
ATOM     38  C   UNL A   1      40.616  27.012  28.370  1.00  0.00     0.049 A 
ATOM     39  N   UNL A   1      43.407  27.571  27.386  1.00  0.00    -0.248 NA
ATOM     40  C   UNL A   1      43.418  25.467  26.375  1.00  0.00     0.031 C 
ATOM     41  C   UNL A   1      39.280  26.771  28.923  1.00  0.00     0.029 A 
ATOM     42  N   UNL A   1      40.921  28.283  28.793  1.00  0.00    -0.354 N 
ATOM     43  C   UNL A   1      44.640  27.361  26.777  1.00  0.00     0.074 A 
ATOM     44  C   UNL A   1      44.614  26.019  26.234  1.00  0.00     0.031 C 
ATOM     45  C   UNL A   1      38.874  27.865  29.587  1.00  0.00     0.029 A 
ATOM     46  C   UNL A   1      39.933  28.867  29.553  1.00  0.00     0.049 A 
ATOM     47  H   UNL A   1      41.768  28.734  28.573  1.00  0.00     0.167 HD
ATOM     48  C   UNL A   1      45.688  28.215  26.662  1.00  0.00     0.034 A 
ATOM     49  C   UNL A   1      39.889  30.069  30.162  1.00  0.00     0.034 A 
ATOM     50  C   UNL A   1      45.693  29.556  27.195  1.00  0.00     0.049 A 
ATOM     51  C   UNL A   1      41.068  30.999  30.026  1.00  0.00     0.074 A 
ATOM     52  C   UNL A   1      46.676  30.524  27.082  1.00  0.00     0.029 A 
ATOM     53  N   UNL A   1      44.668  30.118  27.946  1.00  0.00    -0.354 N 
ATOM     54  N   UNL A   1      42.206  30.804  29.400  1.00  0.00    -0.248 NA
ATOM     55  C   UNL A   1      40.951  32.315  30.667  1.00  0.00     0.031 C 
ATOM     56  C   UNL A   1      46.275  31.645  27.819  1.00  0.00     0.029 A 
ATOM     57  C   UNL A   1      45.009  31.408  28.328  1.00  0.00     0.049 A 
ATOM     58  H   UNL A   1      43.824  29.667  28.175  1.00  0.00     0.167 HD
ATOM     59  C   UNL A   1      42.927  31.987  29.549  1.00  0.00     0.074 A 
ATOM     60  C   UNL A   1      42.089  32.891  30.308  1.00  0.00     0.031 C 
ATOM     61  C   UNL A   1      44.167  32.297  29.094  1.00  0.00     0.034 A 
BRANCH  48  62
ATOM     62  C   UNL A   1      46.921  27.709  25.950  1.00  0.00     0.023 A 
ATOM     63  C   UNL A   1      47.168  28.008  24.599  1.00  0.00     0.031 A 
ATOM     64  C   UNL A   1      47.850  26.896  26.623  1.00  0.00     0.131 A 
ATOM     65  C   UNL A   1      48.269  27.434  23.943  1.00  0.00     0.055 A 
ATOM     66  C   UNL A   1      48.989  26.398  25.988  1.00  0.00     0.041 A 
ATOM     67  F   UNL A   1      47.660  26.561  27.910  1.00  0.00    -0.206 F 
ATOM     68  C   UNL A   1      49.196  26.652  24.635  1.00  0.00     0.022 A 
BRANCH  65  69
ATOM     69  S   UNL A   1      48.389  27.606  22.142  1.00  0.00     0.124 S 
ATOM     70  O   UNL A   1      47.089  28.187  21.814  1.00  0.00    -0.237 OA
ATOM     71  O   UNL A   1      49.540  28.486  21.984  1.00  0.00    -0.237 OA
ATOM     72  O   UNL A   1      48.584  26.234  21.679  1.00  0.00    -0.744 OA
ENDBRANCH  65  69
ENDBRANCH  48  62
BRANCH  49  73
ATOM     73  C   UNL A   1      38.696  30.467  30.965  1.00  0.00     0.023 A 
ATOM     74  C   UNL A   1      37.621  31.152  30.376  1.00  0.00     0.031 A 
ATOM     75  C   UNL A   1      38.633  30.204  32.346  1.00  0.00     0.131 A 
ATOM     76  C   UNL A   1      36.552  31.595  31.171  1.00  0.00     0.055 A 
ATOM     77  C   UNL A   1      37.542  30.599  33.122  1.00  0.00     0.041 A 
ATOM     78  F   UNL A   1      39.631  29.547  32.959  1.00  0.00    -0.206 F 
ATOM     79  C   UNL A   1      36.500  31.312  32.538  1.00  0.00     0.022 A 
BRANCH  76  80
ATOM     80  S   UNL A   1      35.267  32.621  30.406  1.00  0.00     0.124 S 
ATOM     81  O   UNL A   1      36.000  33.850  30.119  1.00  0.00    -0.237 OA
ATOM     82  O   UNL A   1      34.885  31.817  29.251  1.00  0.00    -0.237 OA
ATOM     83  O   UNL A   1      34.252  32.728  31.452  1.00  0.00    -0.744 OA
ENDBRANCH  76  80
ENDBRANCH  49  73
BRANCH  61  84
ATOM     84  C   UNL A   1      44.668  33.695  29.368  1.00  0.00     0.023 A 
ATOM     85  C   UNL A   1      44.409  34.762  28.490  1.00  0.00     0.031 A 
ATOM     86  C   UNL A   1      45.429  33.958  30.522  1.00  0.00     0.131 A 
ATOM     87  C   UNL A   1      44.955  36.029  28.749  1.00  0.00     0.055 A 
ATOM     88  C   UNL A   1      45.917  35.234  30.806  1.00  0.00     0.041 A 
ATOM     89  F   UNL A   1      45.709  32.976  31.394  1.00  0.00    -0.206 F 
ATOM     90  C   UNL A   1      45.692  36.275  29.910  1.00  0.00     0.022 A 
BRANCH  87  91
ATOM     91  S   UNL A   1      44.769  37.330  27.500  1.00  0.00     0.124 S 
ATOM     92  O   UNL A   1      44.836  38.541  28.311  1.00  0.00    -0.237 OA
ATOM     93  O   UNL A   1      45.908  37.085  26.622  1.00  0.00    -0.237 OA
ATOM     94  O   UNL A   1      43.461  37.053  26.908  1.00  0.00    -0.744 OA
ENDBRANCH  87  91
ENDBRANCH  61  84
ENDBRANCH  35  36
ENDBRANCH  27  30
ENDBRANCH  25  26
ENDBRANCH   1  25
TORSDOF 15
ENDMDL
MODEL 2
REMARK VINA RESULT:     -12.8      5.739      9.014
REMARK SMILES C[C@H](C(=O)NCCCCNC(=O)c1ccc(-c2c3nc(c(-c4cc(S(=O)(=O)[O-])ccc4F)c4ccc([nH]4)c(-c4cc(S(=O)(=O)[O-])ccc4F)c4nc(c(-c5cc(S(=O)(=O)[O-])ccc5F)c5ccc2[nH]5)C=C4)C=C3)cc1)c1ccc2c(c1)[nH]c1ccc(Cl)cc12
REMARK SMILES IDX 8 1 7 2 6 3 5 4 3 5 4 6 2 8 1 9 76 10 77 11 81 12 78 13
REMARK SMILES IDX 80 14 79 15 82 16 89 17 83 18 88 20 84 21 86 22 85 23 87 24
REMARK SMILES IDX 9 25 10 26 11 27 12 29 13 30 14 31 75 32 15 33 74 34 16 35
REMARK SMILES IDX 17 36 18 37 68 38 19 39 73 40 67 41 69 42 20 43 72 44 66 45
REMARK SMILES IDX 65 46 21 48 53 49 33 50 52 51 34 52 37 53 51 54 70 55 35 56
REMARK SMILES IDX 36 57 50 59 71 60 38 61 22 62 23 63 31 64 24 65 30 66 32 67
REMARK SMILES IDX 29 68 25 69 26 70 27 71 28 72 54 73 55 74 63 75 56 76 62 77
REMARK SMILES IDX 64 78 61 79 57 80 58 81 59 82 60 83 39 84 40 85 48 86 41 87
REMARK SMILES IDX 47 88 49 89 46 90 42 91 43 92 44 93 45 94
REMARK H PARENT 5 7 82 19 10 28 69 47 37 58
REMARK Flexibility Score: inf
ROOT
ATOM      1  C   UNL A   1      31.850  31.167  26.923  1.00  0.00     0.023 C 
ENDROOT
BRANCH   1   2
ATOM      2  C   UNL A   1      31.872  30.452  25.570  1.00  0.00     0.023 C 
BRANCH   2   3
ATOM      3  C   UNL A   1      30.580  30.524  24.761  1.00  0.00     0.116 C 
BRANCH   3   4
ATOM      4  N   UNL A   1      30.656  29.834  23.487  1.00  0.00    -0.356 N 
ATOM      5  C   UNL A   1      30.309  28.558  23.158  1.00  0.00     0.227 C 
ATOM      6  O   UNL A   1      30.212  28.299  21.953  1.00  0.00    -0.274 OA
ATOM      7  H   UNL A   1      31.014  30.372  22.744  1.00  0.00     0.163 HD
BRANCH   5   8
ATOM      8  C   UNL A   1      30.130  27.449  24.195  1.00  0.00     0.105 C 
ATOM      9  C   UNL A   1      28.874  26.623  23.872  1.00  0.00     0.023 C 
BRANCH   8  10
ATOM     10  C   UNL A   1      31.337  26.586  24.560  1.00  0.00    -0.034 A 
ATOM     11  C   UNL A   1      31.958  26.594  25.814  1.00  0.00     0.005 A 
ATOM     12  C   UNL A   1      31.845  25.723  23.568  1.00  0.00     0.031 A 
ATOM     13  C   UNL A   1      33.148  25.885  26.053  1.00  0.00     0.011 A 
ATOM     14  C   UNL A   1      33.020  25.009  23.824  1.00  0.00     0.047 A 
ATOM     15  C   UNL A   1      33.709  25.098  25.029  1.00  0.00     0.007 A 
ATOM     16  N   UNL A   1      33.718  24.143  23.019  1.00  0.00    -0.355 N 
ATOM     17  C   UNL A   1      34.906  24.323  24.893  1.00  0.00     0.009 A 
ATOM     18  C   UNL A   1      34.890  23.753  23.619  1.00  0.00     0.047 A 
ATOM     19  H   UNL A   1      33.418  23.842  22.131  1.00  0.00     0.167 HD
ATOM     20  C   UNL A   1      36.017  24.075  25.728  1.00  0.00     0.031 A 
ATOM     21  C   UNL A   1      35.926  22.951  23.128  1.00  0.00     0.028 A 
ATOM     22  C   UNL A   1      37.065  23.285  25.243  1.00  0.00     0.041 A 
ATOM     23  C   UNL A   1      37.023  22.734  23.964  1.00  0.00     0.022 A 
ATOM     24  Cl  UNL A   1      38.441  22.999  26.240  1.00  0.00    -0.084 Cl
ENDBRANCH   8  10
ENDBRANCH   5   8
ENDBRANCH   3   4
ENDBRANCH   2   3
ENDBRANCH   1   2
BRANCH   1  25
ATOM     25  C   UNL A   1      33.030  32.089  27.219  1.00  0.00     0.116 C 
BRANCH  25  26
ATOM     26  N   UNL A   1      32.635  33.454  27.523  1.00  0.00    -0.352 N 
ATOM     27  C   UNL A   1      33.133  34.328  28.466  1.00  0.00     0.251 C 
ATOM     28  H   UNL A   1      31.900  33.810  26.972  1.00  0.00     0.163 HD
ATOM     29  O   UNL A   1      32.587  35.409  28.636  1.00  0.00    -0.269 OA
BRANCH  27  30
ATOM     30  C   UNL A   1      34.293  33.934  29.298  1.00  0.00     0.039 A 
ATOM     31  C   UNL A   1      34.073  33.122  30.414  1.00  0.00     0.014 A 
ATOM     32  C   UNL A   1      35.589  34.335  28.970  1.00  0.00     0.014 A 
ATOM     33  C   UNL A   1      35.162  32.638  31.144  1.00  0.00     0.010 A 
ATOM     34  C   UNL A   1      36.675  33.787  29.650  1.00  0.00     0.010 A 
ATOM     35  C   UNL A   1      36.475  32.925  30.739  1.00  0.00    -0.014 A 
BRANCH  35  36
ATOM     36  C   UNL A   1      37.647  32.323  31.432  1.00  0.00     0.031 A 
ATOM     37  C   UNL A   1      38.399  31.185  30.797  1.00  0.00     0.074 A 
ATOM     38  C   UNL A   1      37.990  32.754  32.663  1.00  0.00     0.049 A 
ATOM     39  N   UNL A   1      39.389  30.475  31.277  1.00  0.00    -0.248 NA
ATOM     40  C   UNL A   1      37.957  30.770  29.457  1.00  0.00     0.031 C 
ATOM     41  C   UNL A   1      37.309  33.817  33.407  1.00  0.00     0.029 A 
ATOM     42  N   UNL A   1      38.989  32.347  33.513  1.00  0.00    -0.354 N 
ATOM     43  C   UNL A   1      39.676  29.520  30.307  1.00  0.00     0.074 A 
ATOM     44  C   UNL A   1      38.713  29.704  29.242  1.00  0.00     0.031 C 
ATOM     45  C   UNL A   1      37.924  33.993  34.588  1.00  0.00     0.029 A 
ATOM     46  C   UNL A   1      39.011  33.028  34.710  1.00  0.00     0.049 A 
ATOM     47  H   UNL A   1      39.629  31.633  33.289  1.00  0.00     0.167 HD
ATOM     48  C   UNL A   1      40.664  28.590  30.297  1.00  0.00     0.034 A 
ATOM     49  C   UNL A   1      39.809  32.884  35.787  1.00  0.00     0.034 A 
ATOM     50  C   UNL A   1      41.627  28.429  31.360  1.00  0.00     0.049 A 
ATOM     51  C   UNL A   1      40.895  31.839  35.756  1.00  0.00     0.074 A 
ATOM     52  C   UNL A   1      42.703  27.561  31.423  1.00  0.00     0.029 A 
ATOM     53  N   UNL A   1      41.627  29.147  32.549  1.00  0.00    -0.354 N 
ATOM     54  N   UNL A   1      41.187  30.979  34.807  1.00  0.00    -0.248 NA
ATOM     55  C   UNL A   1      41.768  31.755  36.934  1.00  0.00     0.031 C 
ATOM     56  C   UNL A   1      43.313  27.707  32.675  1.00  0.00     0.029 A 
ATOM     57  C   UNL A   1      42.666  28.720  33.364  1.00  0.00     0.049 A 
ATOM     58  H   UNL A   1      40.983  29.854  32.781  1.00  0.00     0.167 HD
ATOM     59  C   UNL A   1      42.297  30.273  35.265  1.00  0.00     0.074 A 
ATOM     60  C   UNL A   1      42.630  30.819  36.564  1.00  0.00     0.031 C 
ATOM     61  C   UNL A   1      42.982  29.267  34.663  1.00  0.00     0.034 A 
BRANCH  48  62
ATOM     62  C   UNL A   1      40.733  27.664  29.105  1.00  0.00     0.023 A 
ATOM     63  C   UNL A   1      41.661  27.863  28.067  1.00  0.00     0.031 A 
ATOM     64  C   UNL A   1      39.843  26.581  28.991  1.00  0.00     0.131 A 
ATOM     65  C   UNL A   1      41.625  27.045  26.927  1.00  0.00     0.055 A 
ATOM     66  C   UNL A   1      39.869  25.718  27.893  1.00  0.00     0.041 A 
ATOM     67  F   UNL A   1      38.922  26.349  29.940  1.00  0.00    -0.206 F 
ATOM     68  C   UNL A   1      40.753  25.957  26.844  1.00  0.00     0.022 A 
BRANCH  65  69
ATOM     69  S   UNL A   1      42.634  27.513  25.495  1.00  0.00     0.124 S 
ATOM     70  O   UNL A   1      42.470  26.350  24.626  1.00  0.00    -0.237 OA
ATOM     71  O   UNL A   1      41.994  28.742  25.045  1.00  0.00    -0.237 OA
ATOM     72  O   UNL A   1      43.973  27.675  26.059  1.00  0.00    -0.744 OA
ENDBRANCH  65  69
ENDBRANCH  48  62
BRANCH  49  73
ATOM     73  C   UNL A   1      39.612  33.739  36.994  1.00  0.00     0.023 A 
ATOM     74  C   UNL A   1      38.982  33.236  38.143  1.00  0.00     0.031 A 
ATOM     75  C   UNL A   1      40.015  35.087  37.000  1.00  0.00     0.131 A 
ATOM     76  C   UNL A   1      38.728  34.086  39.232  1.00  0.00     0.055 A 
ATOM     77  C   UNL A   1      39.809  35.914  38.105  1.00  0.00     0.041 A 
ATOM     78  F   UNL A   1      40.628  35.617  35.929  1.00  0.00    -0.206 F 
ATOM     79  C   UNL A   1      39.149  35.418  39.225  1.00  0.00     0.022 A 
BRANCH  76  80
ATOM     80  S   UNL A   1      37.762  33.446  40.627  1.00  0.00     0.124 S 
ATOM     81  O   UNL A   1      38.639  32.400  41.141  1.00  0.00    -0.237 OA
ATOM     82  O   UNL A   1      37.617  34.631  41.465  1.00  0.00    -0.237 OA
ATOM     83  O   UNL A   1      36.530  32.975  39.998  1.00  0.00    -0.744 OA
ENDBRANCH  76  80
ENDBRANCH  49  73
BRANCH  61  84
ATOM     84  C   UNL A   1      44.190  28.729  35.390  1.00  0.00     0.023 A 
ATOM     85  C   UNL A   1      44.111  27.606  36.232  1.00  0.00     0.031 A 
ATOM     86  C   UNL A   1      45.439  29.362  35.248  1.00  0.00     0.131 A 
ATOM     87  C   UNL A   1      45.244  27.184  36.943  1.00  0.00     0.055 A 
ATOM     88  C   UNL A   1      46.577  28.900  35.910  1.00  0.00     0.041 A 
ATOM     89  F   UNL A   1      45.572  30.440  34.459  1.00  0.00    -0.206 F 
ATOM     90  C   UNL A   1      46.480  27.813  36.774  1.00  0.00     0.022 A 
BRANCH  87  91
ATOM     91  S   UNL A   1      45.061  25.859  38.168  1.00  0.00     0.124 S 
ATOM     92  O   UNL A   1      44.962  26.610  39.415  1.00  0.00    -0.237 OA
ATOM     93  O   UNL A   1      43.842  25.191  37.726  1.00  0.00    -0.237 OA
ATOM     94  O   UNL A   1      46.286  25.075  38.013  1.00  0.00    -0.744 OA
ENDBRANCH  87  91
ENDBRANCH  61  84
ENDBRANCH  35  36
ENDBRANCH  27  30
ENDBRANCH  25  26
ENDBRANCH   1  25
TORSDOF 15
ENDMDL
MODEL 3
REMARK VINA RESULT:     -12.7      5.058      7.177
REMARK SMILES C[C@H](C(=O)NCCCCNC(=O)c1ccc(-c2c3nc(c(-c4cc(S(=O)(=O)[O-])ccc4F)c4ccc([nH]4)c(-c4cc(S(=O)(=O)[O-])ccc4F)c4nc(c(-c5cc(S(=O)(=O)[O-])ccc5F)c5ccc2[nH]5)C=C4)C=C3)cc1)c1ccc2c(c1)[nH]c1ccc(Cl)cc12
REMARK SMILES IDX 8 1 7 2 6 3 5 4 3 5 4 6 2 8 1 9 76 10 77 11 81 12 78 13
REMARK SMILES IDX 80 14 79 15 82 16 89 17 83 18 88 20 84 21 86 22 85 23 87 24
REMARK SMILES IDX 9 25 10 26 11 27 12 29 13 30 14 31 75 32 15 33 74 34 16 35
REMARK SMILES IDX 17 36 18 37 68 38 19 39 73 40 67 41 69 42 20 43 72 44 66 45
REMARK SMILES IDX 65 46 21 48 53 49 33 50 52 51 34 52 37 53 51 54 70 55 35 56
REMARK SMILES IDX 36 57 50 59 71 60 38 61 22 62 23 63 31 64 24 65 30 66 32 67
REMARK SMILES IDX 29 68 25 69 26 70 27 71 28 72 54 73 55 74 63 75 56 76 62 77
REMARK SMILES IDX 64 78 61 79 57 80 58 81 59 82 60 83 39 84 40 85 48 86 41 87
REMARK SMILES IDX 47 88 49 89 46 90 42 91 43 92 44 93 45 94
REMARK H PARENT 5 7 82 19 10 28 69 47 37 58
REMARK Flexibility Score: inf
ROOT
ATOM      1  C   UNL A   1      32.620  28.071  25.806  1.00  0.00     0.023 C 
ENDROOT
BRANCH   1   2
ATOM      2  C   UNL A   1      33.618  26.914  25.900  1.00  0.00     0.023 C 
BRANCH   2   3
ATOM      3  C   UNL A   1      33.012  25.533  26.128  1.00  0.00     0.116 C 
BRANCH   3   4
ATOM      4  N   UNL A   1      33.869  24.446  25.694  1.00  0.00    -0.356 N 
ATOM      5  C   UNL A   1      33.843  23.711  24.546  1.00  0.00     0.227 C 
ATOM      6  O   UNL A   1      34.846  23.031  24.297  1.00  0.00    -0.274 OA
ATOM      7  H   UNL A   1      34.581  24.200  26.329  1.00  0.00     0.163 HD
BRANCH   5   8
ATOM      8  C   UNL A   1      32.619  23.632  23.635  1.00  0.00     0.105 C 
ATOM      9  C   UNL A   1      31.634  22.577  24.165  1.00  0.00     0.023 C 
BRANCH   8  10
ATOM     10  C   UNL A   1      31.935  24.932  23.213  1.00  0.00    -0.034 A 
ATOM     11  C   UNL A   1      32.577  25.972  22.532  1.00  0.00     0.005 A 
ATOM     12  C   UNL A   1      30.568  25.079  23.524  1.00  0.00     0.031 A 
ATOM     13  C   UNL A   1      31.938  27.201  22.291  1.00  0.00     0.011 A 
ATOM     14  C   UNL A   1      29.939  26.301  23.263  1.00  0.00     0.047 A 
ATOM     15  C   UNL A   1      30.600  27.382  22.690  1.00  0.00     0.007 A 
ATOM     16  N   UNL A   1      28.645  26.694  23.501  1.00  0.00    -0.355 N 
ATOM     17  C   UNL A   1      29.682  28.482  22.674  1.00  0.00     0.009 A 
ATOM     18  C   UNL A   1      28.475  28.024  23.202  1.00  0.00     0.047 A 
ATOM     19  H   UNL A   1      27.935  26.102  23.840  1.00  0.00     0.167 HD
ATOM     20  C   UNL A   1      29.775  29.834  22.281  1.00  0.00     0.031 A 
ATOM     21  C   UNL A   1      27.353  28.843  23.368  1.00  0.00     0.028 A 
ATOM     22  C   UNL A   1      28.664  30.667  22.453  1.00  0.00     0.041 A 
ATOM     23  C   UNL A   1      27.473  30.183  22.990  1.00  0.00     0.022 A 
ATOM     24  Cl  UNL A   1      28.773  32.328  22.006  1.00  0.00    -0.084 Cl
ENDBRANCH   8  10
ENDBRANCH   5   8
ENDBRANCH   3   4
ENDBRANCH   2   3
ENDBRANCH   1   2
BRANCH   1  25
ATOM     25  C   UNL A   1      33.154  29.378  25.225  1.00  0.00     0.116 C 
BRANCH  25  26
ATOM     26  N   UNL A   1      32.628  30.561  25.884  1.00  0.00    -0.352 N 
ATOM     27  C   UNL A   1      33.127  31.271  26.955  1.00  0.00     0.251 C 
ATOM     28  H   UNL A   1      31.787  30.910  25.509  1.00  0.00     0.163 HD
ATOM     29  O   UNL A   1      32.472  32.187  27.432  1.00  0.00    -0.269 OA
BRANCH  27  30
ATOM     30  C   UNL A   1      34.428  30.890  27.552  1.00  0.00     0.039 A 
ATOM     31  C   UNL A   1      35.425  31.863  27.665  1.00  0.00     0.014 A 
ATOM     32  C   UNL A   1      34.658  29.596  28.023  1.00  0.00     0.014 A 
ATOM     33  C   UNL A   1      36.615  31.562  28.333  1.00  0.00     0.010 A 
ATOM     34  C   UNL A   1      35.810  29.322  28.758  1.00  0.00     0.010 A 
ATOM     35  C   UNL A   1      36.798  30.304  28.929  1.00  0.00    -0.014 A 
BRANCH  35  36
ATOM     36  C   UNL A   1      38.006  30.003  29.745  1.00  0.00     0.031 A 
ATOM     37  C   UNL A   1      39.044  29.041  29.233  1.00  0.00     0.074 A 
ATOM     38  C   UNL A   1      38.135  30.542  30.975  1.00  0.00     0.049 A 
ATOM     39  N   UNL A   1      40.118  28.587  29.827  1.00  0.00    -0.248 NA
ATOM     40  C   UNL A   1      38.826  28.493  27.886  1.00  0.00     0.031 C 
ATOM     41  C   UNL A   1      37.172  31.450  31.605  1.00  0.00     0.029 A 
ATOM     42  N   UNL A   1      39.118  30.397  31.922  1.00  0.00    -0.354 N 
ATOM     43  C   UNL A   1      40.694  27.687  28.936  1.00  0.00     0.074 A 
ATOM     44  C   UNL A   1      39.814  27.616  27.789  1.00  0.00     0.031 C 
ATOM     45  C   UNL A   1      37.626  31.799  32.819  1.00  0.00     0.029 A 
ATOM     46  C   UNL A   1      38.883  31.106  33.079  1.00  0.00     0.049 A 
ATOM     47  H   UNL A   1      39.917  29.837  31.788  1.00  0.00     0.167 HD
ATOM     48  C   UNL A   1      41.859  27.002  29.054  1.00  0.00     0.034 A 
ATOM     49  C   UNL A   1      39.593  31.181  34.222  1.00  0.00     0.034 A 
ATOM     50  C   UNL A   1      42.734  27.096  30.197  1.00  0.00     0.049 A 
ATOM     51  C   UNL A   1      40.881  30.405  34.333  1.00  0.00     0.074 A 
ATOM     52  C   UNL A   1      43.965  26.494  30.393  1.00  0.00     0.029 A 
ATOM     53  N   UNL A   1      42.470  27.837  31.343  1.00  0.00    -0.354 N 
ATOM     54  N   UNL A   1      41.438  29.600  33.458  1.00  0.00    -0.248 NA
ATOM     55  C   UNL A   1      41.642  30.558  35.580  1.00  0.00     0.031 C 
ATOM     56  C   UNL A   1      44.413  26.815  31.679  1.00  0.00     0.029 A 
ATOM     57  C   UNL A   1      43.501  27.681  32.259  1.00  0.00     0.049 A 
ATOM     58  H   UNL A   1      41.668  28.390  31.485  1.00  0.00     0.167 HD
ATOM     59  C   UNL A   1      42.631  29.176  34.040  1.00  0.00     0.074 A 
ATOM     60  C   UNL A   1      42.717  29.826  35.331  1.00  0.00     0.031 C 
ATOM     61  C   UNL A   1      43.570  28.329  33.549  1.00  0.00     0.034 A 
BRANCH  48  62
ATOM     62  C   UNL A   1      42.236  26.075  27.922  1.00  0.00     0.023 A 
ATOM     63  C   UNL A   1      41.745  24.759  27.849  1.00  0.00     0.031 A 
ATOM     64  C   UNL A   1      43.120  26.502  26.915  1.00  0.00     0.131 A 
ATOM     65  C   UNL A   1      42.199  23.895  26.841  1.00  0.00     0.055 A 
ATOM     66  C   UNL A   1      43.502  25.662  25.866  1.00  0.00     0.041 A 
ATOM     67  F   UNL A   1      43.638  27.740  26.939  1.00  0.00    -0.206 F 
ATOM     68  C   UNL A   1      43.055  24.345  25.834  1.00  0.00     0.022 A 
BRANCH  65  69
ATOM     69  S   UNL A   1      41.771  22.136  26.953  1.00  0.00     0.124 S 
ATOM     70  O   UNL A   1      42.646  21.688  28.033  1.00  0.00    -0.237 OA
ATOM     71  O   UNL A   1      40.346  22.176  27.258  1.00  0.00    -0.237 OA
ATOM     72  O   UNL A   1      42.112  21.617  25.630  1.00  0.00    -0.744 OA
ENDBRANCH  65  69
ENDBRANCH  48  62
BRANCH  49  73
ATOM     73  C   UNL A   1      39.106  32.011  35.363  1.00  0.00     0.023 A 
ATOM     74  C   UNL A   1      38.492  31.420  36.479  1.00  0.00     0.031 A 
ATOM     75  C   UNL A   1      39.210  33.414  35.333  1.00  0.00     0.131 A 
ATOM     76  C   UNL A   1      37.961  32.229  37.497  1.00  0.00     0.055 A 
ATOM     77  C   UNL A   1      38.729  34.211  36.373  1.00  0.00     0.041 A 
ATOM     78  F   UNL A   1      39.794  34.030  34.293  1.00  0.00    -0.206 F 
ATOM     79  C   UNL A   1      38.087  33.620  37.457  1.00  0.00     0.022 A 
BRANCH  76  80
ATOM     80  S   UNL A   1      37.028  31.439  38.836  1.00  0.00     0.124 S 
ATOM     81  O   UNL A   1      36.906  30.071  38.346  1.00  0.00    -0.237 OA
ATOM     82  O   UNL A   1      37.912  31.636  39.979  1.00  0.00    -0.237 OA
ATOM     83  O   UNL A   1      35.782  32.202  38.876  1.00  0.00    -0.744 OA
ENDBRANCH  76  80
ENDBRANCH  49  73
BRANCH  61  84
ATOM     84  C   UNL A   1      44.798  28.099  34.397  1.00  0.00     0.023 A 
ATOM     85  C   UNL A   1      44.873  27.043  35.323  1.00  0.00     0.031 A 
ATOM     86  C   UNL A   1      45.904  28.962  34.287  1.00  0.00     0.131 A 
ATOM     87  C   UNL A   1      46.005  26.911  36.142  1.00  0.00     0.055 A 
ATOM     88  C   UNL A   1      47.052  28.788  35.060  1.00  0.00     0.041 A 
ATOM     89  F   UNL A   1      45.885  29.988  33.422  1.00  0.00    -0.206 F 
ATOM     90  C   UNL A   1      47.102  27.766  36.004  1.00  0.00     0.022 A 
BRANCH  87  91
ATOM     91  S   UNL A   1      45.988  25.663  37.457  1.00  0.00     0.124 S 
ATOM     92  O   UNL A   1      46.849  24.624  36.901  1.00  0.00    -0.237 OA
ATOM     93  O   UNL A   1      46.530  26.400  38.594  1.00  0.00    -0.237 OA
ATOM     94  O   UNL A   1      44.576  25.302  37.571  1.00  0.00    -0.744 OA
ENDBRANCH  87  91
ENDBRANCH  61  84
ENDBRANCH  35  36
ENDBRANCH  27  30
ENDBRANCH  25  26
ENDBRANCH   1  25
TORSDOF 15
ENDMDL
