MODEL 1
REMARK VINA RESULT:     -10.6      0.000      0.000
REMARK SMILES CC(C)[C@@H](CC(=O)OC(C)(C)C)C(=O)NCCCCNC(=O)c1ccc(-c2c3nc(c(-c4cc(S(=O)(=O)[O-])ccc4F)c4ccc([nH]4)c(-c4cc(S(=O)(=O)[O-])ccc4F)c4nc(c(-c5cc(S(=O)(=O)[O-])ccc5F)c5ccc2[nH]5)C=C4)C=C3)cc1
REMARK SMILES IDX 17 1 16 2 15 3 13 4 14 5 4 7 2 8 1 9 3 10 5 11 6 12 7 13
REMARK SMILES IDX 8 14 9 15 10 16 11 17 12 18 18 19 19 20 20 21 21 22 22 24
REMARK SMILES IDX 23 25 24 26 85 27 25 28 84 29 26 30 27 31 28 32 78 33 29 34
REMARK SMILES IDX 83 35 77 36 79 37 30 38 82 39 76 40 75 41 31 43 63 44 43 45
REMARK SMILES IDX 62 46 44 47 47 48 61 49 80 50 45 51 46 52 60 54 81 55 48 56
REMARK SMILES IDX 32 57 33 58 41 59 34 60 40 61 42 62 39 63 35 64 36 65 37 66
REMARK SMILES IDX 38 67 64 68 65 69 73 70 66 71 72 72 74 73 71 74 67 75 68 76
REMARK SMILES IDX 69 77 70 78 49 79 50 80 58 81 51 82 57 83 59 84 56 85 52 86
REMARK SMILES IDX 53 87 54 88 55 89
REMARK H PARENT 15 6 20 23 79 42 47 53
REMARK Flexibility Score: inf
ROOT
ATOM      1  C   UNL A   1      31.740  30.468  25.859  1.00  0.00     0.023 C 
ENDROOT
BRANCH   1   2
ATOM      2  C   UNL A   1      32.742  29.387  26.251  1.00  0.00     0.116 C 
BRANCH   2   3
ATOM      3  N   UNL A   1      33.303  28.658  25.140  1.00  0.00    -0.356 N 
ATOM      4  C   UNL A   1      32.760  27.682  24.367  1.00  0.00     0.223 C 
ATOM      5  O   UNL A   1      33.392  27.341  23.361  1.00  0.00    -0.275 OA
ATOM      6  H   UNL A   1      34.227  28.908  24.905  1.00  0.00     0.163 HD
BRANCH   4   7
ATOM      7  C   UNL A   1      31.426  26.994  24.687  1.00  0.00     0.092 C 
BRANCH   7   8
ATOM      8  C   UNL A   1      31.404  26.119  25.968  1.00  0.00    -0.004 C 
ATOM      9  C   UNL A   1      30.211  25.154  25.973  1.00  0.00     0.008 C 
ATOM     10  C   UNL A   1      32.693  25.291  26.093  1.00  0.00     0.008 C 
ENDBRANCH   7   8
BRANCH   7  11
ATOM     11  C   UNL A   1      30.214  27.897  24.396  1.00  0.00     0.136 C 
BRANCH  11  12
ATOM     12  C   UNL A   1      30.034  28.508  23.025  1.00  0.00     0.307 C 
ATOM     13  O   UNL A   1      30.244  27.886  21.993  1.00  0.00    -0.252 OA
BRANCH  12  14
ATOM     14  O   UNL A   1      29.541  29.770  23.092  1.00  0.00    -0.460 OA
BRANCH  14  15
ATOM     15  C   UNL A   1      28.146  30.067  22.784  1.00  0.00     0.104 C 
ATOM     16  C   UNL A   1      27.183  28.901  23.042  1.00  0.00     0.056 C 
ATOM     17  C   UNL A   1      27.697  31.314  23.547  1.00  0.00     0.056 C 
ATOM     18  C   UNL A   1      28.142  30.359  21.276  1.00  0.00     0.056 C 
ENDBRANCH  14  15
ENDBRANCH  12  14
ENDBRANCH  11  12
ENDBRANCH   7  11
ENDBRANCH   4   7
ENDBRANCH   2   3
ENDBRANCH   1   2
BRANCH   1  19
ATOM     19  C   UNL A   1      31.614  31.633  26.842  1.00  0.00     0.023 C 
BRANCH  19  20
ATOM     20  C   UNL A   1      32.366  32.913  26.480  1.00  0.00     0.116 C 
BRANCH  20  21
ATOM     21  N   UNL A   1      32.234  33.997  27.442  1.00  0.00    -0.352 N 
ATOM     22  C   UNL A   1      33.111  34.362  28.444  1.00  0.00     0.251 C 
ATOM     23  H   UNL A   1      31.415  34.538  27.368  1.00  0.00     0.163 HD
ATOM     24  O   UNL A   1      32.853  35.318  29.165  1.00  0.00    -0.269 OA
BRANCH  22  25
ATOM     25  C   UNL A   1      34.309  33.528  28.692  1.00  0.00     0.039 A 
ATOM     26  C   UNL A   1      35.567  34.121  28.557  1.00  0.00     0.014 A 
ATOM     27  C   UNL A   1      34.196  32.219  29.166  1.00  0.00     0.014 A 
ATOM     28  C   UNL A   1      36.699  33.451  29.023  1.00  0.00     0.010 A 
ATOM     29  C   UNL A   1      35.317  31.579  29.692  1.00  0.00     0.010 A 
ATOM     30  C   UNL A   1      36.571  32.207  29.661  1.00  0.00    -0.014 A 
BRANCH  30  31
ATOM     31  C   UNL A   1      37.719  31.594  30.379  1.00  0.00     0.031 A 
ATOM     32  C   UNL A   1      38.550  30.528  29.727  1.00  0.00     0.074 A 
ATOM     33  C   UNL A   1      37.950  31.944  31.662  1.00  0.00     0.049 A 
ATOM     34  N   UNL A   1      39.541  29.833  30.225  1.00  0.00    -0.248 NA
ATOM     35  C   UNL A   1      38.200  30.178  28.343  1.00  0.00     0.031 C 
ATOM     36  C   UNL A   1      37.168  32.922  32.425  1.00  0.00     0.029 A 
ATOM     37  N   UNL A   1      38.897  31.512  32.555  1.00  0.00    -0.354 N 
ATOM     38  C   UNL A   1      39.930  28.956  29.219  1.00  0.00     0.074 A 
ATOM     39  C   UNL A   1      39.030  29.174  28.104  1.00  0.00     0.031 C 
ATOM     40  C   UNL A   1      37.681  33.029  33.661  1.00  0.00     0.029 A 
ATOM     41  C   UNL A   1      38.802  32.104  33.794  1.00  0.00     0.049 A 
ATOM     42  H   UNL A   1      39.582  30.842  32.330  1.00  0.00     0.167 HD
ATOM     43  C   UNL A   1      40.954  28.066  29.219  1.00  0.00     0.034 A 
ATOM     44  C   UNL A   1      39.527  31.918  34.913  1.00  0.00     0.034 A 
ATOM     45  C   UNL A   1      41.846  27.864  30.335  1.00  0.00     0.049 A 
ATOM     46  C   UNL A   1      40.661  30.928  34.888  1.00  0.00     0.074 A 
ATOM     47  C   UNL A   1      42.947  27.028  30.423  1.00  0.00     0.029 A 
ATOM     48  N   UNL A   1      41.734  28.500  31.566  1.00  0.00    -0.354 N 
ATOM     49  N   UNL A   1      41.053  30.147  33.908  1.00  0.00    -0.248 NA
ATOM     50  C   UNL A   1      41.457  30.802  36.116  1.00  0.00     0.031 C 
ATOM     51  C   UNL A   1      43.469  27.122  31.719  1.00  0.00     0.029 A 
ATOM     52  C   UNL A   1      42.730  28.058  32.425  1.00  0.00     0.049 A 
ATOM     53  H   UNL A   1      41.047  29.167  31.796  1.00  0.00     0.167 HD
ATOM     54  C   UNL A   1      42.157  29.455  34.395  1.00  0.00     0.074 A 
ATOM     55  C   UNL A   1      42.375  29.920  35.750  1.00  0.00     0.031 C 
ATOM     56  C   UNL A   1      42.925  28.522  33.776  1.00  0.00     0.034 A 
BRANCH  43  57
ATOM     57  C   UNL A   1      41.140  27.234  27.974  1.00  0.00     0.023 A 
ATOM     58  C   UNL A   1      40.783  25.875  27.940  1.00  0.00     0.031 A 
ATOM     59  C   UNL A   1      41.720  27.792  26.822  1.00  0.00     0.131 A 
ATOM     60  C   UNL A   1      41.084  25.100  26.811  1.00  0.00     0.055 A 
ATOM     61  C   UNL A   1      41.945  27.034  25.672  1.00  0.00     0.041 A 
ATOM     62  F   UNL A   1      42.098  29.081  26.802  1.00  0.00    -0.206 F 
ATOM     63  C   UNL A   1      41.642  25.675  25.667  1.00  0.00     0.022 A 
BRANCH  60  64
ATOM     64  S   UNL A   1      40.866  23.302  26.913  1.00  0.00     0.124 S 
ATOM     65  O   UNL A   1      41.595  22.851  25.730  1.00  0.00    -0.237 OA
ATOM     66  O   UNL A   1      41.476  22.983  28.199  1.00  0.00    -0.237 OA
ATOM     67  O   UNL A   1      39.417  23.127  26.849  1.00  0.00    -0.744 OA
ENDBRANCH  60  64
ENDBRANCH  43  57
BRANCH  44  68
ATOM     68  C   UNL A   1      39.208  32.675  36.154  1.00  0.00     0.023 A 
ATOM     69  C   UNL A   1      38.360  32.133  37.132  1.00  0.00     0.031 A 
ATOM     70  C   UNL A   1      39.722  33.967  36.364  1.00  0.00     0.131 A 
ATOM     71  C   UNL A   1      38.014  32.897  38.257  1.00  0.00     0.055 A 
ATOM     72  C   UNL A   1      39.407  34.706  37.506  1.00  0.00     0.041 A 
ATOM     73  F   UNL A   1      40.546  34.524  35.464  1.00  0.00    -0.206 F 
ATOM     74  C   UNL A   1      38.539  34.176  38.455  1.00  0.00     0.022 A 
BRANCH  71  75
ATOM     75  S   UNL A   1      36.808  32.218  39.430  1.00  0.00     0.124 S 
ATOM     76  O   UNL A   1      37.042  30.785  39.303  1.00  0.00    -0.237 OA
ATOM     77  O   UNL A   1      37.231  32.830  40.686  1.00  0.00    -0.237 OA
ATOM     78  O   UNL A   1      35.526  32.690  38.911  1.00  0.00    -0.744 OA
ENDBRANCH  71  75
ENDBRANCH  44  68
BRANCH  56  79
ATOM     79  C   UNL A   1      44.093  27.981  34.558  1.00  0.00     0.023 A 
ATOM     80  C   UNL A   1      43.981  26.821  35.343  1.00  0.00     0.031 A 
ATOM     81  C   UNL A   1      45.329  28.650  34.532  1.00  0.00     0.131 A 
ATOM     82  C   UNL A   1      45.073  26.389  36.110  1.00  0.00     0.055 A 
ATOM     83  C   UNL A   1      46.427  28.189  35.260  1.00  0.00     0.041 A 
ATOM     84  F   UNL A   1      45.487  29.765  33.801  1.00  0.00    -0.206 F 
ATOM     85  C   UNL A   1      46.299  27.059  36.064  1.00  0.00     0.022 A 
BRANCH  82  86
ATOM     86  S   UNL A   1      44.851  24.981  37.230  1.00  0.00     0.124 S 
ATOM     87  O   UNL A   1      45.989  25.127  38.133  1.00  0.00    -0.237 OA
ATOM     88  O   UNL A   1      43.538  25.248  37.812  1.00  0.00    -0.237 OA
ATOM     89  O   UNL A   1      44.909  23.822  36.342  1.00  0.00    -0.744 OA
ENDBRANCH  82  86
ENDBRANCH  56  79
ENDBRANCH  30  31
ENDBRANCH  22  25
ENDBRANCH  20  21
ENDBRANCH  19  20
ENDBRANCH   1  19
TORSDOF 19
ENDMDL
MODEL 2
REMARK VINA RESULT:     -10.5      6.249     11.428
REMARK SMILES CC(C)[C@@H](CC(=O)OC(C)(C)C)C(=O)NCCCCNC(=O)c1ccc(-c2c3nc(c(-c4cc(S(=O)(=O)[O-])ccc4F)c4ccc([nH]4)c(-c4cc(S(=O)(=O)[O-])ccc4F)c4nc(c(-c5cc(S(=O)(=O)[O-])ccc5F)c5ccc2[nH]5)C=C4)C=C3)cc1
REMARK SMILES IDX 17 1 16 2 15 3 13 4 14 5 4 7 2 8 1 9 3 10 5 11 6 12 7 13
REMARK SMILES IDX 8 14 9 15 10 16 11 17 12 18 18 19 19 20 20 21 21 22 22 24
REMARK SMILES IDX 23 25 24 26 85 27 25 28 84 29 26 30 27 31 28 32 78 33 29 34
REMARK SMILES IDX 83 35 77 36 79 37 30 38 82 39 76 40 75 41 31 43 63 44 43 45
REMARK SMILES IDX 62 46 44 47 47 48 61 49 80 50 45 51 46 52 60 54 81 55 48 56
REMARK SMILES IDX 32 57 33 58 41 59 34 60 40 61 42 62 39 63 35 64 36 65 37 66
REMARK SMILES IDX 38 67 64 68 65 69 73 70 66 71 72 72 74 73 71 74 67 75 68 76
REMARK SMILES IDX 69 77 70 78 49 79 50 80 58 81 51 82 57 83 59 84 56 85 52 86
REMARK SMILES IDX 53 87 54 88 55 89
REMARK H PARENT 15 6 20 23 79 42 47 53
REMARK Flexibility Score: inf
ROOT
ATOM      1  C   UNL A   1      36.753  22.401  24.137  1.00  0.00     0.023 C 
ENDROOT
BRANCH   1   2
ATOM      2  C   UNL A   1      35.316  22.806  24.450  1.00  0.00     0.116 C 
BRANCH   2   3
ATOM      3  N   UNL A   1      34.950  22.693  25.841  1.00  0.00    -0.356 N 
ATOM      4  C   UNL A   1      34.011  21.917  26.441  1.00  0.00     0.223 C 
ATOM      5  O   UNL A   1      34.015  21.878  27.676  1.00  0.00    -0.275 OA
ATOM      6  H   UNL A   1      35.464  23.271  26.452  1.00  0.00     0.163 HD
BRANCH   4   7
ATOM      7  C   UNL A   1      32.961  21.109  25.666  1.00  0.00     0.092 C 
BRANCH   7   8
ATOM      8  C   UNL A   1      31.866  21.937  24.943  1.00  0.00    -0.004 C 
ATOM      9  C   UNL A   1      31.781  23.366  25.496  1.00  0.00     0.008 C 
ATOM     10  C   UNL A   1      32.144  22.021  23.434  1.00  0.00     0.008 C 
ENDBRANCH   7   8
BRANCH   7  11
ATOM     11  C   UNL A   1      33.572  19.903  24.930  1.00  0.00     0.136 C 
BRANCH  11  12
ATOM     12  C   UNL A   1      33.012  18.516  25.147  1.00  0.00     0.307 C 
ATOM     13  O   UNL A   1      31.834  18.244  24.957  1.00  0.00    -0.252 OA
BRANCH  12  14
ATOM     14  O   UNL A   1      33.976  17.625  25.487  1.00  0.00    -0.460 OA
BRANCH  14  15
ATOM     15  C   UNL A   1      34.082  16.323  24.838  1.00  0.00     0.104 C 
ATOM     16  C   UNL A   1      32.997  15.322  25.256  1.00  0.00     0.056 C 
ATOM     17  C   UNL A   1      34.097  16.497  23.319  1.00  0.00     0.056 C 
ATOM     18  C   UNL A   1      35.439  15.773  25.306  1.00  0.00     0.056 C 
ENDBRANCH  14  15
ENDBRANCH  12  14
ENDBRANCH  11  12
ENDBRANCH   7  11
ENDBRANCH   4   7
ENDBRANCH   2   3
ENDBRANCH   1   2
BRANCH   1  19
ATOM     19  C   UNL A   1      37.063  20.911  24.292  1.00  0.00     0.023 C 
BRANCH  19  20
ATOM     20  C   UNL A   1      37.628  20.471  25.643  1.00  0.00     0.116 C 
BRANCH  20  21
ATOM     21  N   UNL A   1      38.864  19.706  25.572  1.00  0.00    -0.352 N 
ATOM     22  C   UNL A   1      40.107  20.042  26.069  1.00  0.00     0.251 C 
ATOM     23  H   UNL A   1      38.805  18.838  25.111  1.00  0.00     0.163 HD
ATOM     24  O   UNL A   1      41.049  19.271  25.935  1.00  0.00    -0.269 OA
BRANCH  22  25
ATOM     25  C   UNL A   1      40.303  21.380  26.675  1.00  0.00     0.039 A 
ATOM     26  C   UNL A   1      41.185  21.495  27.751  1.00  0.00     0.014 A 
ATOM     27  C   UNL A   1      39.721  22.521  26.117  1.00  0.00     0.014 A 
ATOM     28  C   UNL A   1      41.588  22.761  28.180  1.00  0.00     0.010 A 
ATOM     29  C   UNL A   1      40.174  23.781  26.501  1.00  0.00     0.010 A 
ATOM     30  C   UNL A   1      41.142  23.910  27.509  1.00  0.00    -0.014 A 
BRANCH  30  31
ATOM     31  C   UNL A   1      41.744  25.239  27.786  1.00  0.00     0.031 A 
ATOM     32  C   UNL A   1      40.937  26.325  28.437  1.00  0.00     0.074 A 
ATOM     33  C   UNL A   1      43.000  25.490  27.362  1.00  0.00     0.049 A 
ATOM     34  N   UNL A   1      41.273  27.564  28.690  1.00  0.00    -0.248 NA
ATOM     35  C   UNL A   1      39.564  25.978  28.827  1.00  0.00     0.031 C 
ATOM     36  C   UNL A   1      43.860  24.535  26.657  1.00  0.00     0.029 A 
ATOM     37  N   UNL A   1      43.768  26.624  27.446  1.00  0.00    -0.354 N 
ATOM     38  C   UNL A   1      40.149  28.151  29.263  1.00  0.00     0.074 A 
ATOM     39  C   UNL A   1      39.109  27.142  29.267  1.00  0.00     0.031 C 
ATOM     40  C   UNL A   1      45.042  25.115  26.395  1.00  0.00     0.029 A 
ATOM     41  C   UNL A   1      45.014  26.492  26.876  1.00  0.00     0.049 A 
ATOM     42  H   UNL A   1      43.459  27.453  27.877  1.00  0.00     0.167 HD
ATOM     43  C   UNL A   1      40.006  29.407  29.755  1.00  0.00     0.034 A 
ATOM     44  C   UNL A   1      46.017  27.381  26.746  1.00  0.00     0.034 A 
ATOM     45  C   UNL A   1      41.053  30.399  29.749  1.00  0.00     0.049 A 
ATOM     46  C   UNL A   1      45.837  28.768  27.303  1.00  0.00     0.074 A 
ATOM     47  C   UNL A   1      41.032  31.682  30.269  1.00  0.00     0.029 A 
ATOM     48  N   UNL A   1      42.311  30.223  29.184  1.00  0.00    -0.354 N 
ATOM     49  N   UNL A   1      44.786  29.289  27.895  1.00  0.00    -0.248 NA
ATOM     50  C   UNL A   1      46.980  29.683  27.186  1.00  0.00     0.031 C 
ATOM     51  C   UNL A   1      42.256  32.297  29.975  1.00  0.00     0.029 A 
ATOM     52  C   UNL A   1      43.064  31.379  29.323  1.00  0.00     0.049 A 
ATOM     53  H   UNL A   1      42.623  29.397  28.749  1.00  0.00     0.167 HD
ATOM     54  C   UNL A   1      45.153  30.586  28.241  1.00  0.00     0.074 A 
ATOM     55  C   UNL A   1      46.523  30.762  27.804  1.00  0.00     0.031 C 
ATOM     56  C   UNL A   1      44.424  31.543  28.870  1.00  0.00     0.034 A 
BRANCH  43  57
ATOM     57  C   UNL A   1      38.656  29.771  30.320  1.00  0.00     0.023 A 
ATOM     58  C   UNL A   1      37.699  30.454  29.549  1.00  0.00     0.031 A 
ATOM     59  C   UNL A   1      38.336  29.473  31.656  1.00  0.00     0.131 A 
ATOM     60  C   UNL A   1      36.504  30.889  30.141  1.00  0.00     0.055 A 
ATOM     61  C   UNL A   1      37.111  29.840  32.218  1.00  0.00     0.041 A 
ATOM     62  F   UNL A   1      39.218  28.838  32.445  1.00  0.00    -0.206 F 
ATOM     63  C   UNL A   1      36.193  30.567  31.465  1.00  0.00     0.022 A 
BRANCH  60  64
ATOM     64  S   UNL A   1      35.428  32.004  29.199  1.00  0.00     0.124 S 
ATOM     65  O   UNL A   1      36.405  32.834  28.500  1.00  0.00    -0.237 OA
ATOM     66  O   UNL A   1      34.665  31.079  28.368  1.00  0.00    -0.237 OA
ATOM     67  O   UNL A   1      34.659  32.694  30.233  1.00  0.00    -0.744 OA
ENDBRANCH  60  64
ENDBRANCH  43  57
BRANCH  44  68
ATOM     68  C   UNL A   1      47.280  27.000  26.057  1.00  0.00     0.023 A 
ATOM     69  C   UNL A   1      48.305  26.332  26.746  1.00  0.00     0.031 A 
ATOM     70  C   UNL A   1      47.495  27.328  24.706  1.00  0.00     0.131 A 
ATOM     71  C   UNL A   1      49.516  26.051  26.095  1.00  0.00     0.055 A 
ATOM     72  C   UNL A   1      48.686  27.008  24.052  1.00  0.00     0.041 A 
ATOM     73  F   UNL A   1      46.541  27.955  24.001  1.00  0.00    -0.206 F 
ATOM     74  C   UNL A   1      49.710  26.376  24.751  1.00  0.00     0.022 A 
BRANCH  71  75
ATOM     75  S   UNL A   1      50.866  25.312  27.055  1.00  0.00     0.124 S 
ATOM     76  O   UNL A   1      50.163  24.290  27.822  1.00  0.00    -0.237 OA
ATOM     77  O   UNL A   1      51.754  24.827  26.003  1.00  0.00    -0.237 OA
ATOM     78  O   UNL A   1      51.382  26.434  27.835  1.00  0.00    -0.744 OA
ENDBRANCH  71  75
ENDBRANCH  44  68
BRANCH  56  79
ATOM     79  C   UNL A   1      45.120  32.849  29.150  1.00  0.00     0.023 A 
ATOM     80  C   UNL A   1      45.119  33.900  28.218  1.00  0.00     0.031 A 
ATOM     81  C   UNL A   1      45.812  33.032  30.359  1.00  0.00     0.131 A 
ATOM     82  C   UNL A   1      45.838  35.073  28.489  1.00  0.00     0.055 A 
ATOM     83  C   UNL A   1      46.486  34.221  30.644  1.00  0.00     0.041 A 
ATOM     84  F   UNL A   1      45.847  32.057  31.282  1.00  0.00    -0.206 F 
ATOM     85  C   UNL A   1      46.511  35.245  29.702  1.00  0.00     0.022 A 
BRANCH  82  86
ATOM     86  S   UNL A   1      45.945  36.348  27.203  1.00  0.00     0.124 S 
ATOM     87  O   UNL A   1      46.290  35.560  26.023  1.00  0.00    -0.237 OA
ATOM     88  O   UNL A   1      44.603  36.920  27.216  1.00  0.00    -0.237 OA
ATOM     89  O   UNL A   1      47.001  37.235  27.686  1.00  0.00    -0.744 OA
ENDBRANCH  82  86
ENDBRANCH  56  79
ENDBRANCH  30  31
ENDBRANCH  22  25
ENDBRANCH  20  21
ENDBRANCH  19  20
ENDBRANCH   1  19
TORSDOF 19
ENDMDL
MODEL 3
REMARK VINA RESULT:     -10.5      1.384      1.617
REMARK SMILES CC(C)[C@@H](CC(=O)OC(C)(C)C)C(=O)NCCCCNC(=O)c1ccc(-c2c3nc(c(-c4cc(S(=O)(=O)[O-])ccc4F)c4ccc([nH]4)c(-c4cc(S(=O)(=O)[O-])ccc4F)c4nc(c(-c5cc(S(=O)(=O)[O-])ccc5F)c5ccc2[nH]5)C=C4)C=C3)cc1
REMARK SMILES IDX 17 1 16 2 15 3 13 4 14 5 4 7 2 8 1 9 3 10 5 11 6 12 7 13
REMARK SMILES IDX 8 14 9 15 10 16 11 17 12 18 18 19 19 20 20 21 21 22 22 24
REMARK SMILES IDX 23 25 24 26 85 27 25 28 84 29 26 30 27 31 28 32 78 33 29 34
REMARK SMILES IDX 83 35 77 36 79 37 30 38 82 39 76 40 75 41 31 43 63 44 43 45
REMARK SMILES IDX 62 46 44 47 47 48 61 49 80 50 45 51 46 52 60 54 81 55 48 56
REMARK SMILES IDX 32 57 33 58 41 59 34 60 40 61 42 62 39 63 35 64 36 65 37 66
REMARK SMILES IDX 38 67 64 68 65 69 73 70 66 71 72 72 74 73 71 74 67 75 68 76
REMARK SMILES IDX 69 77 70 78 49 79 50 80 58 81 51 82 57 83 59 84 56 85 52 86
REMARK SMILES IDX 53 87 54 88 55 89
REMARK H PARENT 15 6 20 23 79 42 47 53
REMARK Flexibility Score: inf
ROOT
ATOM      1  C   UNL A   1      31.754  30.455  25.848  1.00  0.00     0.023 C 
ENDROOT
BRANCH   1   2
ATOM      2  C   UNL A   1      32.776  29.387  26.227  1.00  0.00     0.116 C 
BRANCH   2   3
ATOM      3  N   UNL A   1      33.364  28.696  25.106  1.00  0.00    -0.356 N 
ATOM      4  C   UNL A   1      32.859  27.712  24.318  1.00  0.00     0.223 C 
ATOM      5  O   UNL A   1      33.503  27.409  23.309  1.00  0.00    -0.275 OA
ATOM      6  H   UNL A   1      34.278  28.984  24.875  1.00  0.00     0.163 HD
BRANCH   4   7
ATOM      7  C   UNL A   1      31.552  26.968  24.627  1.00  0.00     0.092 C 
BRANCH   7   8
ATOM      8  C   UNL A   1      31.570  26.058  25.884  1.00  0.00    -0.004 C 
ATOM      9  C   UNL A   1      30.413  25.049  25.867  1.00  0.00     0.008 C 
ATOM     10  C   UNL A   1      32.889  25.275  25.978  1.00  0.00     0.008 C 
ENDBRANCH   7   8
BRANCH   7  11
ATOM     11  C   UNL A   1      30.307  27.837  24.370  1.00  0.00     0.136 C 
BRANCH  11  12
ATOM     12  C   UNL A   1      30.098  28.484  23.021  1.00  0.00     0.307 C 
ATOM     13  O   UNL A   1      30.314  27.900  21.969  1.00  0.00    -0.252 OA
BRANCH  12  14
ATOM     14  O   UNL A   1      29.574  29.731  23.131  1.00  0.00    -0.460 OA
BRANCH  14  15
ATOM     15  C   UNL A   1      28.167  30.000  22.853  1.00  0.00     0.104 C 
ATOM     16  C   UNL A   1      27.240  28.801  23.089  1.00  0.00     0.056 C 
ATOM     17  C   UNL A   1      27.698  31.210  23.661  1.00  0.00     0.056 C 
ATOM     18  C   UNL A   1      28.133  30.338  21.354  1.00  0.00     0.056 C 
ENDBRANCH  14  15
ENDBRANCH  12  14
ENDBRANCH  11  12
ENDBRANCH   7  11
ENDBRANCH   4   7
ENDBRANCH   2   3
ENDBRANCH   1   2
BRANCH   1  19
ATOM     19  C   UNL A   1      31.603  31.603  26.847  1.00  0.00     0.023 C 
BRANCH  19  20
ATOM     20  C   UNL A   1      32.337  32.900  26.508  1.00  0.00     0.116 C 
BRANCH  20  21
ATOM     21  N   UNL A   1      32.178  33.969  27.483  1.00  0.00    -0.352 N 
ATOM     22  C   UNL A   1      33.041  34.338  28.495  1.00  0.00     0.251 C 
ATOM     23  H   UNL A   1      31.350  34.496  27.410  1.00  0.00     0.163 HD
ATOM     24  O   UNL A   1      32.760  35.279  29.226  1.00  0.00    -0.269 OA
BRANCH  22  25
ATOM     25  C   UNL A   1      34.253  33.522  28.743  1.00  0.00     0.039 A 
ATOM     26  C   UNL A   1      35.501  34.129  28.585  1.00  0.00     0.014 A 
ATOM     27  C   UNL A   1      34.161  32.219  29.237  1.00  0.00     0.014 A 
ATOM     28  C   UNL A   1      36.646  33.480  29.048  1.00  0.00     0.010 A 
ATOM     29  C   UNL A   1      35.295  31.601  29.759  1.00  0.00     0.010 A 
ATOM     30  C   UNL A   1      36.542  32.244  29.705  1.00  0.00    -0.014 A 
BRANCH  30  31
ATOM     31  C   UNL A   1      37.704  31.657  30.419  1.00  0.00     0.031 A 
ATOM     32  C   UNL A   1      38.543  30.593  29.773  1.00  0.00     0.074 A 
ATOM     33  C   UNL A   1      37.944  32.027  31.695  1.00  0.00     0.049 A 
ATOM     34  N   UNL A   1      39.548  29.918  30.270  1.00  0.00    -0.248 NA
ATOM     35  C   UNL A   1      38.184  30.220  28.398  1.00  0.00     0.031 C 
ATOM     36  C   UNL A   1      37.157  33.004  32.453  1.00  0.00     0.029 A 
ATOM     37  N   UNL A   1      38.906  31.619  32.584  1.00  0.00    -0.354 N 
ATOM     38  C   UNL A   1      39.939  29.033  29.272  1.00  0.00     0.074 A 
ATOM     39  C   UNL A   1      39.025  29.224  28.164  1.00  0.00     0.031 C 
ATOM     40  C   UNL A   1      37.681  33.135  33.682  1.00  0.00     0.029 A 
ATOM     41  C   UNL A   1      38.815  32.227  33.816  1.00  0.00     0.049 A 
ATOM     42  H   UNL A   1      39.598  30.955  32.361  1.00  0.00     0.167 HD
ATOM     43  C   UNL A   1      40.975  28.157  29.273  1.00  0.00     0.034 A 
ATOM     44  C   UNL A   1      39.555  32.065  34.930  1.00  0.00     0.034 A 
ATOM     45  C   UNL A   1      41.881  27.982  30.382  1.00  0.00     0.049 A 
ATOM     46  C   UNL A   1      40.702  31.090  34.906  1.00  0.00     0.074 A 
ATOM     47  C   UNL A   1      42.994  27.162  30.469  1.00  0.00     0.029 A 
ATOM     48  N   UNL A   1      41.773  28.632  31.605  1.00  0.00    -0.354 N 
ATOM     49  N   UNL A   1      41.094  30.302  33.932  1.00  0.00    -0.248 NA
ATOM     50  C   UNL A   1      41.512  30.991  36.127  1.00  0.00     0.031 C 
ATOM     51  C   UNL A   1      43.528  27.280  31.759  1.00  0.00     0.029 A 
ATOM     52  C   UNL A   1      42.784  28.216  32.459  1.00  0.00     0.049 A 
ATOM     53  H   UNL A   1      41.080  29.293  31.834  1.00  0.00     0.167 HD
ATOM     54  C   UNL A   1      42.213  29.631  34.417  1.00  0.00     0.074 A 
ATOM     55  C   UNL A   1      42.438  30.117  35.764  1.00  0.00     0.031 C 
ATOM     56  C   UNL A   1      42.987  28.701  33.803  1.00  0.00     0.034 A 
BRANCH  43  57
ATOM     57  C   UNL A   1      41.159  27.311  28.037  1.00  0.00     0.023 A 
ATOM     58  C   UNL A   1      40.808  25.950  28.021  1.00  0.00     0.031 A 
ATOM     59  C   UNL A   1      41.732  27.857  26.877  1.00  0.00     0.131 A 
ATOM     60  C   UNL A   1      41.107  25.163  26.900  1.00  0.00     0.055 A 
ATOM     61  C   UNL A   1      41.956  27.086  25.734  1.00  0.00     0.041 A 
ATOM     62  F   UNL A   1      42.105  29.148  26.839  1.00  0.00    -0.206 F 
ATOM     63  C   UNL A   1      41.659  25.727  25.747  1.00  0.00     0.022 A 
BRANCH  60  64
ATOM     64  S   UNL A   1      40.898  23.366  27.025  1.00  0.00     0.124 S 
ATOM     65  O   UNL A   1      41.602  22.905  25.831  1.00  0.00    -0.237 OA
ATOM     66  O   UNL A   1      41.537  23.061  28.300  1.00  0.00    -0.237 OA
ATOM     67  O   UNL A   1      39.448  23.186  26.994  1.00  0.00    -0.744 OA
ENDBRANCH  60  64
ENDBRANCH  43  57
BRANCH  44  68
ATOM     68  C   UNL A   1      39.239  32.835  36.164  1.00  0.00     0.023 A 
ATOM     69  C   UNL A   1      39.746  34.129  36.357  1.00  0.00     0.031 A 
ATOM     70  C   UNL A   1      38.452  32.272  37.184  1.00  0.00     0.131 A 
ATOM     71  C   UNL A   1      39.496  34.804  37.562  1.00  0.00     0.055 A 
ATOM     72  C   UNL A   1      38.172  32.964  38.364  1.00  0.00     0.041 A 
ATOM     73  F   UNL A   1      37.934  31.042  37.042  1.00  0.00    -0.206 F 
ATOM     74  C   UNL A   1      38.706  34.234  38.563  1.00  0.00     0.022 A 
BRANCH  71  75
ATOM     75  S   UNL A   1      40.281  36.417  37.832  1.00  0.00     0.124 S 
ATOM     76  O   UNL A   1      40.420  36.914  36.468  1.00  0.00    -0.237 OA
ATOM     77  O   UNL A   1      39.294  37.097  38.665  1.00  0.00    -0.237 OA
ATOM     78  O   UNL A   1      41.534  36.077  38.504  1.00  0.00    -0.744 OA
ENDBRANCH  71  75
ENDBRANCH  44  68
BRANCH  56  79
ATOM     79  C   UNL A   1      44.170  28.185  34.580  1.00  0.00     0.023 A 
ATOM     80  C   UNL A   1      44.074  27.049  35.401  1.00  0.00     0.031 A 
ATOM     81  C   UNL A   1      45.403  28.856  34.511  1.00  0.00     0.131 A 
ATOM     82  C   UNL A   1      45.182  26.643  36.160  1.00  0.00     0.055 A 
ATOM     83  C   UNL A   1      46.515  28.419  35.233  1.00  0.00     0.041 A 
ATOM     84  F   UNL A   1      45.545  29.949  33.744  1.00  0.00    -0.206 F 
ATOM     85  C   UNL A   1      46.405  27.314  36.072  1.00  0.00     0.022 A 
BRANCH  82  86
ATOM     86  S   UNL A   1      44.983  25.269  37.327  1.00  0.00     0.124 S 
ATOM     87  O   UNL A   1      45.740  24.204  36.675  1.00  0.00    -0.237 OA
ATOM     88  O   UNL A   1      45.568  25.809  38.550  1.00  0.00    -0.237 OA
ATOM     89  O   UNL A   1      43.536  25.062  37.372  1.00  0.00    -0.744 OA
ENDBRANCH  82  86
ENDBRANCH  56  79
ENDBRANCH  30  31
ENDBRANCH  22  25
ENDBRANCH  20  21
ENDBRANCH  19  20
ENDBRANCH   1  19
TORSDOF 19
ENDMDL
