MODEL 1
REMARK VINA RESULT:     -11.5      0.000      0.000
REMARK SMILES C[C@H](NC(=O)NCCc1ccccc1F)C(=O)NCCCCNC(=O)c1ccc(-c2c3nc(c(-c4cc(S(=O)(=O)[O-])ccc4F)c4ccc([nH]4)c(-c4cc(S(=O)(=O)[O-])ccc4F)c4nc(c(-c5cc(S(=O)(=O)[O-])ccc5F)c5ccc2[nH]5)C=C4)C=C3)cc1
REMARK SMILES IDX 20 1 19 2 18 3 16 4 17 5 2 7 1 8 3 9 4 10 5 12 6 13 7 15
REMARK SMILES IDX 8 16 9 17 10 18 14 19 11 20 13 21 15 22 12 23 21 24 22 25
REMARK SMILES IDX 23 26 24 27 25 29 26 30 27 31 88 32 28 33 87 34 29 35 30 36
REMARK SMILES IDX 31 37 81 38 32 39 86 40 80 41 82 42 33 43 85 44 79 45 78 46
REMARK SMILES IDX 34 48 66 49 46 50 65 51 47 52 50 53 64 54 83 55 48 56 49 57
REMARK SMILES IDX 63 59 84 60 51 61 35 62 36 63 44 64 37 65 43 66 45 67 42 68
REMARK SMILES IDX 38 69 39 70 40 71 41 72 67 73 68 74 76 75 69 76 75 77 77 78
REMARK SMILES IDX 74 79 70 80 71 81 72 82 73 83 52 84 53 85 61 86 54 87 60 88
REMARK SMILES IDX 62 89 59 90 55 91 56 92 57 93 58 94
REMARK H PARENT 18 6 3 11 6 14 23 28 82 47 50 58
REMARK Flexibility Score: inf
ROOT
ATOM      1  C   UNL A   1      31.993  27.402  26.672  1.00  0.00     0.023 C 
ENDROOT
BRANCH   1   2
ATOM      2  C   UNL A   1      31.131  26.404  25.908  1.00  0.00     0.116 C 
BRANCH   2   3
ATOM      3  N   UNL A   1      31.831  25.180  25.576  1.00  0.00    -0.354 N 
ATOM      4  C   UNL A   1      32.526  24.847  24.450  1.00  0.00     0.242 C 
ATOM      5  O   UNL A   1      33.251  23.849  24.506  1.00  0.00    -0.273 OA
ATOM      6  H   UNL A   1      31.800  24.481  26.268  1.00  0.00     0.163 HD
BRANCH   4   7
ATOM      7  C   UNL A   1      32.476  25.708  23.172  1.00  0.00     0.170 C 
ATOM      8  C   UNL A   1      32.811  24.902  21.919  1.00  0.00     0.041 C 
BRANCH   7   9
ATOM      9  N   UNL A   1      33.299  26.912  23.271  1.00  0.00    -0.327 N 
ATOM     10  C   UNL A   1      33.123  28.148  22.778  1.00  0.00     0.315 C 
ATOM     11  H   UNL A   1      34.127  26.796  23.790  1.00  0.00     0.166 HD
ATOM     12  O   UNL A   1      34.099  28.898  22.724  1.00  0.00    -0.249 OA
ATOM     13  N   UNL A   1      31.942  28.594  22.327  1.00  0.00    -0.338 N 
ATOM     14  H   UNL A   1      32.000  29.397  21.758  1.00  0.00     0.165 HD
BRANCH  13  15
ATOM     15  C   UNL A   1      30.589  28.103  22.531  1.00  0.00     0.122 C 
BRANCH  15  16
ATOM     16  C   UNL A   1      29.759  28.985  23.469  1.00  0.00     0.060 C 
BRANCH  16  17
ATOM     17  C   UNL A   1      29.157  30.200  22.809  1.00  0.00    -0.010 A 
ATOM     18  C   UNL A   1      28.586  30.108  21.533  1.00  0.00     0.007 A 
ATOM     19  C   UNL A   1      29.175  31.448  23.442  1.00  0.00     0.126 A 
ATOM     20  C   UNL A   1      28.038  31.238  20.919  1.00  0.00     0.000 A 
ATOM     21  C   UNL A   1      28.625  32.576  22.838  1.00  0.00     0.039 A 
ATOM     22  F   UNL A   1      29.737  31.579  24.651  1.00  0.00    -0.207 F 
ATOM     23  C   UNL A   1      28.053  32.469  21.572  1.00  0.00     0.003 A 
ENDBRANCH  16  17
ENDBRANCH  15  16
ENDBRANCH  13  15
ENDBRANCH   7   9
ENDBRANCH   4   7
ENDBRANCH   2   3
ENDBRANCH   1   2
BRANCH   1  24
ATOM     24  C   UNL A   1      31.578  28.869  26.550  1.00  0.00     0.023 C 
BRANCH  24  25
ATOM     25  C   UNL A   1      32.644  29.819  26.015  1.00  0.00     0.116 C 
BRANCH  25  26
ATOM     26  N   UNL A   1      32.424  31.202  26.401  1.00  0.00    -0.352 N 
ATOM     27  C   UNL A   1      33.167  32.003  27.239  1.00  0.00     0.251 C 
ATOM     28  H   UNL A   1      31.627  31.628  26.007  1.00  0.00     0.163 HD
ATOM     29  O   UNL A   1      32.759  33.114  27.539  1.00  0.00    -0.269 OA
BRANCH  27  30
ATOM     30  C   UNL A   1      34.438  31.491  27.798  1.00  0.00     0.039 A 
ATOM     31  C   UNL A   1      35.487  32.388  28.013  1.00  0.00     0.014 A 
ATOM     32  C   UNL A   1      34.584  30.143  28.137  1.00  0.00     0.014 A 
ATOM     33  C   UNL A   1      36.654  31.947  28.639  1.00  0.00     0.010 A 
ATOM     34  C   UNL A   1      35.718  29.722  28.825  1.00  0.00     0.010 A 
ATOM     35  C   UNL A   1      36.762  30.621  29.090  1.00  0.00    -0.014 A 
BRANCH  35  36
ATOM     36  C   UNL A   1      37.958  30.160  29.844  1.00  0.00     0.031 A 
ATOM     37  C   UNL A   1      38.173  30.608  31.264  1.00  0.00     0.074 A 
ATOM     38  C   UNL A   1      38.873  29.379  29.234  1.00  0.00     0.049 A 
ATOM     39  N   UNL A   1      39.189  30.380  32.055  1.00  0.00    -0.248 NA
ATOM     40  C   UNL A   1      37.117  31.439  31.866  1.00  0.00     0.031 C 
ATOM     41  C   UNL A   1      38.789  28.901  27.851  1.00  0.00     0.029 A 
ATOM     42  N   UNL A   1      40.052  28.849  29.695  1.00  0.00    -0.354 N 
ATOM     43  C   UNL A   1      38.901  31.044  33.241  1.00  0.00     0.074 A 
ATOM     44  C   UNL A   1      37.640  31.726  33.049  1.00  0.00     0.031 C 
ATOM     45  C   UNL A   1      39.848  28.118  27.591  1.00  0.00     0.029 A 
ATOM     46  C   UNL A   1      40.714  28.078  28.766  1.00  0.00     0.049 A 
ATOM     47  H   UNL A   1      40.393  29.005  30.605  1.00  0.00     0.167 HD
ATOM     48  C   UNL A   1      39.614  31.063  34.394  1.00  0.00     0.034 A 
ATOM     49  C   UNL A   1      41.888  27.421  28.845  1.00  0.00     0.034 A 
ATOM     50  C   UNL A   1      40.854  30.357  34.585  1.00  0.00     0.049 A 
ATOM     51  C   UNL A   1      42.676  27.484  30.127  1.00  0.00     0.074 A 
ATOM     52  C   UNL A   1      41.627  30.276  35.730  1.00  0.00     0.029 A 
ATOM     53  N   UNL A   1      41.504  29.612  33.611  1.00  0.00    -0.354 N 
ATOM     54  N   UNL A   1      42.385  28.114  31.241  1.00  0.00    -0.248 NA
ATOM     55  C   UNL A   1      43.949  26.751  30.163  1.00  0.00     0.031 C 
ATOM     56  C   UNL A   1      42.772  29.531  35.433  1.00  0.00     0.029 A 
ATOM     57  C   UNL A   1      42.681  29.090  34.123  1.00  0.00     0.049 A 
ATOM     58  H   UNL A   1      41.177  29.474  32.693  1.00  0.00     0.167 HD
ATOM     59  C   UNL A   1      43.429  27.835  32.117  1.00  0.00     0.074 A 
ATOM     60  C   UNL A   1      44.354  26.977  31.406  1.00  0.00     0.031 C 
ATOM     61  C   UNL A   1      43.599  28.245  33.398  1.00  0.00     0.034 A 
BRANCH  48  62
ATOM     62  C   UNL A   1      39.074  31.879  35.538  1.00  0.00     0.023 A 
ATOM     63  C   UNL A   1      38.403  31.279  36.616  1.00  0.00     0.031 A 
ATOM     64  C   UNL A   1      39.268  33.272  35.570  1.00  0.00     0.131 A 
ATOM     65  C   UNL A   1      37.913  32.072  37.663  1.00  0.00     0.055 A 
ATOM     66  C   UNL A   1      38.833  34.048  36.645  1.00  0.00     0.041 A 
ATOM     67  F   UNL A   1      39.888  33.897  34.557  1.00  0.00    -0.206 F 
ATOM     68  C   UNL A   1      38.147  33.450  37.697  1.00  0.00     0.022 A 
BRANCH  65  69
ATOM     69  S   UNL A   1      36.906  31.290  38.950  1.00  0.00     0.124 S 
ATOM     70  O   UNL A   1      37.787  31.384  40.111  1.00  0.00    -0.237 OA
ATOM     71  O   UNL A   1      35.717  32.135  38.982  1.00  0.00    -0.237 OA
ATOM     72  O   UNL A   1      36.692  29.936  38.444  1.00  0.00    -0.744 OA
ENDBRANCH  65  69
ENDBRANCH  48  62
BRANCH  49  73
ATOM     73  C   UNL A   1      42.393  26.651  27.675  1.00  0.00     0.023 A 
ATOM     74  C   UNL A   1      42.092  25.289  27.523  1.00  0.00     0.031 A 
ATOM     75  C   UNL A   1      43.186  27.268  26.691  1.00  0.00     0.131 A 
ATOM     76  C   UNL A   1      42.600  24.580  26.423  1.00  0.00     0.055 A 
ATOM     77  C   UNL A   1      43.655  26.569  25.578  1.00  0.00     0.041 A 
ATOM     78  F   UNL A   1      43.494  28.571  26.786  1.00  0.00    -0.206 F 
ATOM     79  C   UNL A   1      43.368  25.214  25.443  1.00  0.00     0.022 A 
BRANCH  76  80
ATOM     80  S   UNL A   1      42.268  22.800  26.303  1.00  0.00     0.124 S 
ATOM     81  O   UNL A   1      43.193  22.259  27.292  1.00  0.00    -0.237 OA
ATOM     82  O   UNL A   1      40.850  22.732  26.644  1.00  0.00    -0.237 OA
ATOM     83  O   UNL A   1      42.585  22.488  24.912  1.00  0.00    -0.744 OA
ENDBRANCH  76  80
ENDBRANCH  49  73
BRANCH  61  84
ATOM     84  C   UNL A   1      44.816  27.750  34.133  1.00  0.00     0.023 A 
ATOM     85  C   UNL A   1      44.787  26.570  34.893  1.00  0.00     0.031 A 
ATOM     86  C   UNL A   1      46.035  28.443  34.022  1.00  0.00     0.131 A 
ATOM     87  C   UNL A   1      45.953  26.127  35.534  1.00  0.00     0.055 A 
ATOM     88  C   UNL A   1      47.202  27.973  34.623  1.00  0.00     0.041 A 
ATOM     89  F   UNL A   1      46.113  29.575  33.304  1.00  0.00    -0.206 F 
ATOM     90  C   UNL A   1      47.164  26.810  35.389  1.00  0.00     0.022 A 
BRANCH  87  91
ATOM     91  S   UNL A   1      45.864  24.653  36.587  1.00  0.00     0.124 S 
ATOM     92  O   UNL A   1      45.442  23.630  35.637  1.00  0.00    -0.237 OA
ATOM     93  O   UNL A   1      47.232  24.537  37.084  1.00  0.00    -0.237 OA
ATOM     94  O   UNL A   1      44.869  25.012  37.597  1.00  0.00    -0.744 OA
ENDBRANCH  87  91
ENDBRANCH  61  84
ENDBRANCH  35  36
ENDBRANCH  27  30
ENDBRANCH  25  26
ENDBRANCH  24  25
ENDBRANCH   1  24
TORSDOF 18
ENDMDL
MODEL 2
REMARK VINA RESULT:     -11.3      1.671      1.992
REMARK SMILES C[C@H](NC(=O)NCCc1ccccc1F)C(=O)NCCCCNC(=O)c1ccc(-c2c3nc(c(-c4cc(S(=O)(=O)[O-])ccc4F)c4ccc([nH]4)c(-c4cc(S(=O)(=O)[O-])ccc4F)c4nc(c(-c5cc(S(=O)(=O)[O-])ccc5F)c5ccc2[nH]5)C=C4)C=C3)cc1
REMARK SMILES IDX 20 1 19 2 18 3 16 4 17 5 2 7 1 8 3 9 4 10 5 12 6 13 7 15
REMARK SMILES IDX 8 16 9 17 10 18 14 19 11 20 13 21 15 22 12 23 21 24 22 25
REMARK SMILES IDX 23 26 24 27 25 29 26 30 27 31 88 32 28 33 87 34 29 35 30 36
REMARK SMILES IDX 31 37 81 38 32 39 86 40 80 41 82 42 33 43 85 44 79 45 78 46
REMARK SMILES IDX 34 48 66 49 46 50 65 51 47 52 50 53 64 54 83 55 48 56 49 57
REMARK SMILES IDX 63 59 84 60 51 61 35 62 36 63 44 64 37 65 43 66 45 67 42 68
REMARK SMILES IDX 38 69 39 70 40 71 41 72 67 73 68 74 76 75 69 76 75 77 77 78
REMARK SMILES IDX 74 79 70 80 71 81 72 82 73 83 52 84 53 85 61 86 54 87 60 88
REMARK SMILES IDX 62 89 59 90 55 91 56 92 57 93 58 94
REMARK H PARENT 18 6 3 11 6 14 23 28 82 47 50 58
REMARK Flexibility Score: inf
ROOT
ATOM      1  C   UNL A   1      31.803  27.691  26.963  1.00  0.00     0.023 C 
ENDROOT
BRANCH   1   2
ATOM      2  C   UNL A   1      31.455  26.319  26.397  1.00  0.00     0.116 C 
BRANCH   2   3
ATOM      3  N   UNL A   1      32.548  25.372  26.477  1.00  0.00    -0.354 N 
ATOM      4  C   UNL A   1      33.482  25.033  25.541  1.00  0.00     0.242 C 
ATOM      5  O   UNL A   1      34.467  24.397  25.930  1.00  0.00    -0.273 OA
ATOM      6  H   UNL A   1      32.630  24.901  27.337  1.00  0.00     0.163 HD
BRANCH   4   7
ATOM      7  C   UNL A   1      33.367  25.478  24.070  1.00  0.00     0.170 C 
ATOM      8  C   UNL A   1      34.017  24.480  23.113  1.00  0.00     0.041 C 
BRANCH   7   9
ATOM      9  N   UNL A   1      33.866  26.834  23.850  1.00  0.00    -0.327 N 
ATOM     10  C   UNL A   1      33.633  27.714  22.863  1.00  0.00     0.315 C 
ATOM     11  H   UNL A   1      34.479  27.159  24.547  1.00  0.00     0.166 HD
ATOM     12  O   UNL A   1      34.410  28.661  22.732  1.00  0.00    -0.249 OA
ATOM     13  N   UNL A   1      32.608  27.598  22.007  1.00  0.00    -0.338 N 
ATOM     14  H   UNL A   1      32.699  28.138  21.187  1.00  0.00     0.165 HD
BRANCH  13  15
ATOM     15  C   UNL A   1      31.384  26.816  22.075  1.00  0.00     0.122 C 
BRANCH  15  16
ATOM     16  C   UNL A   1      30.457  27.242  23.218  1.00  0.00     0.060 C 
BRANCH  16  17
ATOM     17  C   UNL A   1      29.517  28.369  22.870  1.00  0.00    -0.010 A 
ATOM     18  C   UNL A   1      29.998  29.531  22.252  1.00  0.00     0.007 A 
ATOM     19  C   UNL A   1      28.154  28.293  23.175  1.00  0.00     0.126 A 
ATOM     20  C   UNL A   1      29.127  30.579  21.939  1.00  0.00     0.000 A 
ATOM     21  C   UNL A   1      27.281  29.331  22.861  1.00  0.00     0.039 A 
ATOM     22  F   UNL A   1      27.664  27.208  23.790  1.00  0.00    -0.207 F 
ATOM     23  C   UNL A   1      27.769  30.477  22.239  1.00  0.00     0.003 A 
ENDBRANCH  16  17
ENDBRANCH  15  16
ENDBRANCH  13  15
ENDBRANCH   7   9
ENDBRANCH   4   7
ENDBRANCH   2   3
ENDBRANCH   1   2
BRANCH   1  24
ATOM     24  C   UNL A   1      31.656  28.865  25.995  1.00  0.00     0.023 C 
BRANCH  24  25
ATOM     25  C   UNL A   1      32.862  29.792  25.888  1.00  0.00     0.116 C 
BRANCH  25  26
ATOM     26  N   UNL A   1      32.593  31.139  26.362  1.00  0.00    -0.352 N 
ATOM     27  C   UNL A   1      33.293  31.900  27.272  1.00  0.00     0.251 C 
ATOM     28  H   UNL A   1      31.794  31.569  25.978  1.00  0.00     0.163 HD
ATOM     29  O   UNL A   1      32.846  32.976  27.636  1.00  0.00    -0.269 OA
BRANCH  27  30
ATOM     30  C   UNL A   1      34.564  31.384  27.827  1.00  0.00     0.039 A 
ATOM     31  C   UNL A   1      35.635  32.268  27.984  1.00  0.00     0.014 A 
ATOM     32  C   UNL A   1      34.690  30.048  28.218  1.00  0.00     0.014 A 
ATOM     33  C   UNL A   1      36.806  31.829  28.605  1.00  0.00     0.010 A 
ATOM     34  C   UNL A   1      35.829  29.633  28.901  1.00  0.00     0.010 A 
ATOM     35  C   UNL A   1      36.896  30.520  29.108  1.00  0.00    -0.014 A 
BRANCH  35  36
ATOM     36  C   UNL A   1      38.098  30.066  29.858  1.00  0.00     0.031 A 
ATOM     37  C   UNL A   1      38.370  30.596  31.239  1.00  0.00     0.074 A 
ATOM     38  C   UNL A   1      38.967  29.215  29.275  1.00  0.00     0.049 A 
ATOM     39  N   UNL A   1      39.401  30.383  32.015  1.00  0.00    -0.248 NA
ATOM     40  C   UNL A   1      37.362  31.502  31.815  1.00  0.00     0.031 C 
ATOM     41  C   UNL A   1      38.825  28.652  27.929  1.00  0.00     0.029 A 
ATOM     42  N   UNL A   1      40.140  28.672  29.737  1.00  0.00    -0.354 N 
ATOM     43  C   UNL A   1      39.172  31.132  33.163  1.00  0.00     0.074 A 
ATOM     44  C   UNL A   1      37.930  31.845  32.961  1.00  0.00     0.031 C 
ATOM     45  C   UNL A   1      39.848  27.816  27.692  1.00  0.00     0.029 A 
ATOM     46  C   UNL A   1      40.746  27.820  28.843  1.00  0.00     0.049 A 
ATOM     47  H   UNL A   1      40.513  28.875  30.625  1.00  0.00     0.167 HD
ATOM     48  C   UNL A   1      39.919  31.200  34.291  1.00  0.00     0.034 A 
ATOM     49  C   UNL A   1      41.899  27.127  28.932  1.00  0.00     0.034 A 
ATOM     50  C   UNL A   1      41.140  30.463  34.494  1.00  0.00     0.049 A 
ATOM     51  C   UNL A   1      42.727  27.244  30.185  1.00  0.00     0.074 A 
ATOM     52  C   UNL A   1      41.943  30.428  35.620  1.00  0.00     0.029 A 
ATOM     53  N   UNL A   1      41.734  29.633  33.553  1.00  0.00    -0.354 N 
ATOM     54  N   UNL A   1      42.492  27.955  31.263  1.00  0.00    -0.248 NA
ATOM     55  C   UNL A   1      43.975  26.470  30.233  1.00  0.00     0.031 C 
ATOM     56  C   UNL A   1      43.052  29.624  35.341  1.00  0.00     0.029 A 
ATOM     57  C   UNL A   1      42.907  29.103  34.065  1.00  0.00     0.049 A 
ATOM     58  H   UNL A   1      41.375  29.449  32.656  1.00  0.00     0.167 HD
ATOM     59  C   UNL A   1      43.551  27.696  32.126  1.00  0.00     0.074 A 
ATOM     60  C   UNL A   1      44.425  26.761  31.448  1.00  0.00     0.031 C 
ATOM     61  C   UNL A   1      43.774  28.181  33.373  1.00  0.00     0.034 A 
BRANCH  48  62
ATOM     62  C   UNL A   1      39.442  32.107  35.394  1.00  0.00     0.023 A 
ATOM     63  C   UNL A   1      39.862  33.445  35.478  1.00  0.00     0.031 A 
ATOM     64  C   UNL A   1      38.527  31.638  36.353  1.00  0.00     0.131 A 
ATOM     65  C   UNL A   1      39.397  34.258  36.521  1.00  0.00     0.055 A 
ATOM     66  C   UNL A   1      38.020  32.469  37.352  1.00  0.00     0.041 A 
ATOM     67  F   UNL A   1      38.108  30.362  36.328  1.00  0.00    -0.206 F 
ATOM     68  C   UNL A   1      38.459  33.786  37.444  1.00  0.00     0.022 A 
BRANCH  65  69
ATOM     69  S   UNL A   1      40.087  35.924  36.700  1.00  0.00     0.124 S 
ATOM     70  O   UNL A   1      41.517  35.643  36.784  1.00  0.00    -0.237 OA
ATOM     71  O   UNL A   1      39.638  36.587  35.481  1.00  0.00    -0.237 OA
ATOM     72  O   UNL A   1      39.479  36.417  37.934  1.00  0.00    -0.744 OA
ENDBRANCH  65  69
ENDBRANCH  48  62
BRANCH  49  73
ATOM     73  C   UNL A   1      42.343  26.266  27.801  1.00  0.00     0.023 A 
ATOM     74  C   UNL A   1      41.892  24.942  27.683  1.00  0.00     0.031 A 
ATOM     75  C   UNL A   1      43.225  26.756  26.821  1.00  0.00     0.131 A 
ATOM     76  C   UNL A   1      42.343  24.143  26.620  1.00  0.00     0.055 A 
ATOM     77  C   UNL A   1      43.639  25.970  25.745  1.00  0.00     0.041 A 
ATOM     78  F   UNL A   1      43.677  28.018  26.885  1.00  0.00    -0.206 F 
ATOM     79  C   UNL A   1      43.203  24.652  25.643  1.00  0.00     0.022 A 
BRANCH  76  80
ATOM     80  S   UNL A   1      41.813  22.410  26.547  1.00  0.00     0.124 S 
ATOM     81  O   UNL A   1      42.375  21.982  25.271  1.00  0.00    -0.237 OA
ATOM     82  O   UNL A   1      42.435  21.851  27.743  1.00  0.00    -0.237 OA
ATOM     83  O   UNL A   1      40.355  22.498  26.591  1.00  0.00    -0.744 OA
ENDBRANCH  76  80
ENDBRANCH  49  73
BRANCH  61  84
ATOM     84  C   UNL A   1      44.994  27.691  34.104  1.00  0.00     0.023 A 
ATOM     85  C   UNL A   1      44.960  26.534  34.899  1.00  0.00     0.031 A 
ATOM     86  C   UNL A   1      46.221  28.362  33.955  1.00  0.00     0.131 A 
ATOM     87  C   UNL A   1      46.129  26.094  35.536  1.00  0.00     0.055 A 
ATOM     88  C   UNL A   1      47.390  27.893  34.553  1.00  0.00     0.041 A 
ATOM     89  F   UNL A   1      46.304  29.471  33.203  1.00  0.00    -0.206 F 
ATOM     90  C   UNL A   1      47.347  26.754  35.354  1.00  0.00     0.022 A 
BRANCH  87  91
ATOM     91  S   UNL A   1      46.035  24.653  36.634  1.00  0.00     0.124 S 
ATOM     92  O   UNL A   1      46.712  25.142  37.831  1.00  0.00    -0.237 OA
ATOM     93  O   UNL A   1      44.596  24.442  36.757  1.00  0.00    -0.237 OA
ATOM     94  O   UNL A   1      46.750  23.613  35.896  1.00  0.00    -0.744 OA
ENDBRANCH  87  91
ENDBRANCH  61  84
ENDBRANCH  35  36
ENDBRANCH  27  30
ENDBRANCH  25  26
ENDBRANCH  24  25
ENDBRANCH   1  24
TORSDOF 18
ENDMDL
MODEL 3
REMARK VINA RESULT:     -11.2      2.156      8.401
REMARK SMILES C[C@H](NC(=O)NCCc1ccccc1F)C(=O)NCCCCNC(=O)c1ccc(-c2c3nc(c(-c4cc(S(=O)(=O)[O-])ccc4F)c4ccc([nH]4)c(-c4cc(S(=O)(=O)[O-])ccc4F)c4nc(c(-c5cc(S(=O)(=O)[O-])ccc5F)c5ccc2[nH]5)C=C4)C=C3)cc1
REMARK SMILES IDX 20 1 19 2 18 3 16 4 17 5 2 7 1 8 3 9 4 10 5 12 6 13 7 15
REMARK SMILES IDX 8 16 9 17 10 18 14 19 11 20 13 21 15 22 12 23 21 24 22 25
REMARK SMILES IDX 23 26 24 27 25 29 26 30 27 31 88 32 28 33 87 34 29 35 30 36
REMARK SMILES IDX 31 37 81 38 32 39 86 40 80 41 82 42 33 43 85 44 79 45 78 46
REMARK SMILES IDX 34 48 66 49 46 50 65 51 47 52 50 53 64 54 83 55 48 56 49 57
REMARK SMILES IDX 63 59 84 60 51 61 35 62 36 63 44 64 37 65 43 66 45 67 42 68
REMARK SMILES IDX 38 69 39 70 40 71 41 72 67 73 68 74 76 75 69 76 75 77 77 78
REMARK SMILES IDX 74 79 70 80 71 81 72 82 73 83 52 84 53 85 61 86 54 87 60 88
REMARK SMILES IDX 62 89 59 90 55 91 56 92 57 93 58 94
REMARK H PARENT 18 6 3 11 6 14 23 28 82 47 50 58
REMARK Flexibility Score: inf
ROOT
ATOM      1  C   UNL A   1      31.061  27.504  25.561  1.00  0.00     0.023 C 
ENDROOT
BRANCH   1   2
ATOM      2  C   UNL A   1      30.684  26.033  25.692  1.00  0.00     0.116 C 
BRANCH   2   3
ATOM      3  N   UNL A   1      31.483  25.322  26.670  1.00  0.00    -0.354 N 
ATOM      4  C   UNL A   1      31.634  23.980  26.867  1.00  0.00     0.242 C 
ATOM      5  O   UNL A   1      32.567  23.616  27.590  1.00  0.00    -0.273 OA
ATOM      6  H   UNL A   1      31.995  25.894  27.286  1.00  0.00     0.163 HD
BRANCH   4   7
ATOM      7  C   UNL A   1      30.731  22.943  26.170  1.00  0.00     0.170 C 
ATOM      8  C   UNL A   1      29.469  22.643  26.975  1.00  0.00     0.041 C 
BRANCH   7   9
ATOM      9  N   UNL A   1      31.447  21.718  25.819  1.00  0.00    -0.327 N 
ATOM     10  C   UNL A   1      32.063  21.345  24.686  1.00  0.00     0.315 C 
ATOM     11  H   UNL A   1      31.484  21.050  26.540  1.00  0.00     0.166 HD
ATOM     12  O   UNL A   1      32.314  20.150  24.526  1.00  0.00    -0.249 OA
ATOM     13  N   UNL A   1      32.399  22.210  23.718  1.00  0.00    -0.338 N 
ATOM     14  H   UNL A   1      32.593  21.791  22.848  1.00  0.00     0.165 HD
BRANCH  13  15
ATOM     15  C   UNL A   1      32.527  23.658  23.727  1.00  0.00     0.122 C 
BRANCH  15  16
ATOM     16  C   UNL A   1      33.854  24.152  23.142  1.00  0.00     0.060 C 
BRANCH  16  17
ATOM     17  C   UNL A   1      35.077  23.687  23.893  1.00  0.00    -0.010 A 
ATOM     18  C   UNL A   1      35.867  22.644  23.392  1.00  0.00     0.007 A 
ATOM     19  C   UNL A   1      35.437  24.267  25.115  1.00  0.00     0.126 A 
ATOM     20  C   UNL A   1      36.994  22.208  24.095  1.00  0.00     0.000 A 
ATOM     21  C   UNL A   1      36.561  23.841  25.816  1.00  0.00     0.039 A 
ATOM     22  F   UNL A   1      34.689  25.248  25.638  1.00  0.00    -0.207 F 
ATOM     23  C   UNL A   1      37.343  22.809  25.303  1.00  0.00     0.003 A 
ENDBRANCH  16  17
ENDBRANCH  15  16
ENDBRANCH  13  15
ENDBRANCH   7   9
ENDBRANCH   4   7
ENDBRANCH   2   3
ENDBRANCH   1   2
BRANCH   1  24
ATOM     24  C   UNL A   1      32.486  27.863  25.982  1.00  0.00     0.023 C 
BRANCH  24  25
ATOM     25  C   UNL A   1      33.074  29.115  25.338  1.00  0.00     0.116 C 
BRANCH  25  26
ATOM     26  N   UNL A   1      32.533  30.347  25.887  1.00  0.00    -0.352 N 
ATOM     27  C   UNL A   1      33.018  31.134  26.909  1.00  0.00     0.251 C 
ATOM     28  H   UNL A   1      31.701  30.666  25.467  1.00  0.00     0.163 HD
ATOM     29  O   UNL A   1      32.359  32.080  27.312  1.00  0.00    -0.269 OA
BRANCH  27  30
ATOM     30  C   UNL A   1      34.317  30.798  27.532  1.00  0.00     0.039 A 
ATOM     31  C   UNL A   1      35.259  31.814  27.708  1.00  0.00     0.014 A 
ATOM     32  C   UNL A   1      34.592  29.499  27.969  1.00  0.00     0.014 A 
ATOM     33  C   UNL A   1      36.446  31.543  28.391  1.00  0.00     0.010 A 
ATOM     34  C   UNL A   1      35.741  29.249  28.713  1.00  0.00     0.010 A 
ATOM     35  C   UNL A   1      36.678  30.269  28.938  1.00  0.00    -0.014 A 
BRANCH  35  36
ATOM     36  C   UNL A   1      37.891  29.990  29.751  1.00  0.00     0.031 A 
ATOM     37  C   UNL A   1      38.978  29.107  29.204  1.00  0.00     0.074 A 
ATOM     38  C   UNL A   1      37.989  30.493  30.999  1.00  0.00     0.049 A 
ATOM     39  N   UNL A   1      40.068  28.683  29.790  1.00  0.00    -0.248 NA
ATOM     40  C   UNL A   1      38.808  28.617  27.826  1.00  0.00     0.031 C 
ATOM     41  C   UNL A   1      36.987  31.342  31.650  1.00  0.00     0.029 A 
ATOM     42  N   UNL A   1      38.977  30.365  31.944  1.00  0.00    -0.354 N 
ATOM     43  C   UNL A   1      40.707  27.872  28.859  1.00  0.00     0.074 A 
ATOM     44  C   UNL A   1      39.859  27.822  27.689  1.00  0.00     0.031 C 
ATOM     45  C   UNL A   1      37.430  31.689  32.869  1.00  0.00     0.029 A 
ATOM     46  C   UNL A   1      38.719  31.049  33.110  1.00  0.00     0.049 A 
ATOM     47  H   UNL A   1      39.793  29.834  31.800  1.00  0.00     0.167 HD
ATOM     48  C   UNL A   1      41.905  27.247  28.964  1.00  0.00     0.034 A 
ATOM     49  C   UNL A   1      39.434  31.145  34.249  1.00  0.00     0.034 A 
ATOM     50  C   UNL A   1      42.756  27.327  30.123  1.00  0.00     0.049 A 
ATOM     51  C   UNL A   1      40.747  30.414  34.352  1.00  0.00     0.074 A 
ATOM     52  C   UNL A   1      44.009  26.768  30.307  1.00  0.00     0.029 A 
ATOM     53  N   UNL A   1      42.446  28.007  31.293  1.00  0.00    -0.354 N 
ATOM     54  N   UNL A   1      41.337  29.655  33.458  1.00  0.00    -0.248 NA
ATOM     55  C   UNL A   1      41.488  30.549  35.613  1.00  0.00     0.031 C 
ATOM     56  C   UNL A   1      44.430  27.059  31.607  1.00  0.00     0.029 A 
ATOM     57  C   UNL A   1      43.473  27.858  32.211  1.00  0.00     0.049 A 
ATOM     58  H   UNL A   1      41.620  28.518  31.447  1.00  0.00     0.167 HD
ATOM     59  C   UNL A   1      42.530  29.241  34.042  1.00  0.00     0.074 A 
ATOM     60  C   UNL A   1      42.578  29.836  35.362  1.00  0.00     0.031 C 
ATOM     61  C   UNL A   1      43.502  28.447  33.527  1.00  0.00     0.034 A 
BRANCH  48  62
ATOM     62  C   UNL A   1      42.365  26.414  27.797  1.00  0.00     0.023 A 
ATOM     63  C   UNL A   1      42.090  25.038  27.723  1.00  0.00     0.031 A 
ATOM     64  C   UNL A   1      43.055  27.011  26.728  1.00  0.00     0.131 A 
ATOM     65  C   UNL A   1      42.537  24.296  26.621  1.00  0.00     0.055 A 
ATOM     66  C   UNL A   1      43.443  26.279  25.604  1.00  0.00     0.041 A 
ATOM     67  F   UNL A   1      43.358  28.318  26.757  1.00  0.00    -0.206 F 
ATOM     68  C   UNL A   1      43.189  24.912  25.549  1.00  0.00     0.022 A 
BRANCH  65  69
ATOM     69  S   UNL A   1      42.316  22.497  26.636  1.00  0.00     0.124 S 
ATOM     70  O   UNL A   1      43.369  22.064  25.721  1.00  0.00    -0.237 OA
ATOM     71  O   UNL A   1      42.515  22.163  28.041  1.00  0.00    -0.237 OA
ATOM     72  O   UNL A   1      40.953  22.315  26.141  1.00  0.00    -0.744 OA
ENDBRANCH  65  69
ENDBRANCH  48  62
BRANCH  49  73
ATOM     73  C   UNL A   1      38.921  31.957  35.386  1.00  0.00     0.023 A 
ATOM     74  C   UNL A   1      38.310  31.345  36.492  1.00  0.00     0.031 A 
ATOM     75  C   UNL A   1      39.035  33.359  35.384  1.00  0.00     0.131 A 
ATOM     76  C   UNL A   1      37.814  32.136  37.541  1.00  0.00     0.055 A 
ATOM     77  C   UNL A   1      38.577  34.137  36.448  1.00  0.00     0.041 A 
ATOM     78  F   UNL A   1      39.620  33.990  34.354  1.00  0.00    -0.206 F 
ATOM     79  C   UNL A   1      37.956  33.525  37.533  1.00  0.00     0.022 A 
BRANCH  76  80
ATOM     80  S   UNL A   1      36.949  31.321  38.912  1.00  0.00     0.124 S 
ATOM     81  O   UNL A   1      37.899  31.493  40.006  1.00  0.00    -0.237 OA
ATOM     82  O   UNL A   1      35.718  32.099  39.001  1.00  0.00    -0.237 OA
ATOM     83  O   UNL A   1      36.781  29.948  38.440  1.00  0.00    -0.744 OA
ENDBRANCH  76  80
ENDBRANCH  49  73
BRANCH  61  84
ATOM     84  C   UNL A   1      44.719  28.196  34.376  1.00  0.00     0.023 A 
ATOM     85  C   UNL A   1      44.808  27.079  35.222  1.00  0.00     0.031 A 
ATOM     86  C   UNL A   1      45.827  29.059  34.290  1.00  0.00     0.131 A 
ATOM     87  C   UNL A   1      45.974  26.865  35.970  1.00  0.00     0.055 A 
ATOM     88  C   UNL A   1      47.001  28.815  35.000  1.00  0.00     0.041 A 
ATOM     89  F   UNL A   1      45.790  30.138  33.493  1.00  0.00    -0.206 F 
ATOM     90  C   UNL A   1      47.078  27.714  35.851  1.00  0.00     0.022 A 
BRANCH  87  91
ATOM     91  S   UNL A   1      46.026  25.469  37.127  1.00  0.00     0.124 S 
ATOM     92  O   UNL A   1      44.662  24.956  37.040  1.00  0.00    -0.237 OA
ATOM     93  O   UNL A   1      47.064  24.619  36.551  1.00  0.00    -0.237 OA
ATOM     94  O   UNL A   1      46.376  26.093  38.402  1.00  0.00    -0.744 OA
ENDBRANCH  87  91
ENDBRANCH  61  84
ENDBRANCH  35  36
ENDBRANCH  27  30
ENDBRANCH  25  26
ENDBRANCH  24  25
ENDBRANCH   1  24
TORSDOF 18
ENDMDL
