MODEL 1
REMARK VINA RESULT:     -12.4      0.000      0.000
REMARK SMILES COc1cc2c(c(OC)c1)[C@H](C)C[C@H](CC(=O)NCCCCNC(=O)c1ccc(-c3c4nc(c(-c5cc(S(=O)(=O)[O-])ccc5F)c5ccc([nH]5)c(-c5cc(S(=O)(=O)[O-])ccc5F)c5nc(c(-c6cc(S(=O)(=O)[O-])ccc6F)c6ccc3[nH]6)C=C5)C=C4)cc1)C2
REMARK SMILES IDX 21 1 20 2 19 3 18 4 16 5 17 6 15 8 14 9 3 10 4 11 10 12 5 13
REMARK SMILES IDX 7 14 6 15 89 16 11 17 12 18 13 19 2 20 1 21 8 22 9 23 22 24
REMARK SMILES IDX 23 25 24 26 25 28 26 29 27 30 88 31 28 32 87 33 29 34 30 35
REMARK SMILES IDX 31 36 81 37 32 38 86 39 80 40 82 41 33 42 85 43 79 44 78 45
REMARK SMILES IDX 34 47 66 48 46 49 65 50 47 51 50 52 64 53 83 54 48 55 49 56
REMARK SMILES IDX 63 58 84 59 51 60 35 61 36 62 44 63 37 64 43 65 45 66 42 67
REMARK SMILES IDX 38 68 39 69 40 70 41 71 67 72 68 73 76 74 69 75 75 76 77 77
REMARK SMILES IDX 74 78 70 79 71 80 72 81 73 82 52 83 53 84 61 85 54 86 60 87
REMARK SMILES IDX 62 88 59 89 55 90 56 91 57 92 58 93
REMARK H PARENT 18 7 23 27 82 46 50 57
REMARK Flexibility Score: inf
ROOT
ATOM      1  C   UNL A   1      31.728  28.827  25.162  1.00  0.00     0.023 C 
ENDROOT
BRANCH   1   2
ATOM      2  C   UNL A   1      31.745  29.184  23.688  1.00  0.00     0.023 C 
BRANCH   2   3
ATOM      3  C   UNL A   1      31.082  28.173  22.734  1.00  0.00     0.116 C 
BRANCH   3   4
ATOM      4  N   UNL A   1      32.087  27.443  21.973  1.00  0.00    -0.356 N 
ATOM      5  C   UNL A   1      32.433  26.124  21.930  1.00  0.00     0.220 C 
ATOM      6  O   UNL A   1      33.399  25.818  21.223  1.00  0.00    -0.275 OA
ATOM      7  H   UNL A   1      32.619  28.012  21.370  1.00  0.00     0.163 HD
BRANCH   5   8
ATOM      8  C   UNL A   1      31.678  25.036  22.694  1.00  0.00     0.104 C 
BRANCH   8   9
ATOM      9  C   UNL A   1      32.566  23.854  23.131  1.00  0.00     0.003 C 
ATOM     10  C   UNL A   1      33.208  19.029  24.020  1.00  0.00     0.122 A 
ATOM     11  C   UNL A   1      32.418  20.059  23.510  1.00  0.00     0.050 A 
ATOM     12  C   UNL A   1      34.394  19.332  24.682  1.00  0.00     0.093 A 
ATOM     13  C   UNL A   1      32.750  21.402  23.746  1.00  0.00    -0.037 A 
ATOM     14  C   UNL A   1      34.744  20.658  24.929  1.00  0.00     0.126 A 
ATOM     15  C   UNL A   1      33.878  21.704  24.554  1.00  0.00     0.000 A 
ATOM     16  C   UNL A   1      31.850  22.491  23.169  1.00  0.00     0.040 C 
ATOM     17  C   UNL A   1      34.134  23.129  24.993  1.00  0.00     0.020 C 
ATOM     18  C   UNL A   1      34.280  23.308  26.514  1.00  0.00     0.013 C 
ATOM     19  C   UNL A   1      33.021  24.072  24.560  1.00  0.00     0.012 C 
BRANCH  10  20
ATOM     20  O   UNL A   1      32.764  17.752  23.800  1.00  0.00    -0.497 OA
ATOM     21  C   UNL A   1      33.811  16.825  23.515  1.00  0.00     0.278 C 
ENDBRANCH  10  20
BRANCH  14  22
ATOM     22  O   UNL A   1      35.908  20.810  25.638  1.00  0.00    -0.496 OA
ATOM     23  C   UNL A   1      37.089  20.917  24.844  1.00  0.00     0.278 C 
ENDBRANCH  14  22
ENDBRANCH   8   9
ENDBRANCH   5   8
ENDBRANCH   3   4
ENDBRANCH   2   3
ENDBRANCH   1   2
BRANCH   1  24
ATOM     24  C   UNL A   1      32.802  29.530  25.975  1.00  0.00     0.116 C 
BRANCH  24  25
ATOM     25  N   UNL A   1      32.469  30.895  26.372  1.00  0.00    -0.352 N 
ATOM     26  C   UNL A   1      33.198  31.764  27.167  1.00  0.00     0.251 C 
ATOM     27  H   UNL A   1      31.615  31.244  26.030  1.00  0.00     0.163 HD
ATOM     28  O   UNL A   1      32.750  32.854  27.461  1.00  0.00    -0.269 OA
BRANCH  26  29
ATOM     29  C   UNL A   1      34.505  31.305  27.690  1.00  0.00     0.039 A 
ATOM     30  C   UNL A   1      35.520  32.237  27.913  1.00  0.00     0.014 A 
ATOM     31  C   UNL A   1      34.682  29.970  28.053  1.00  0.00     0.014 A 
ATOM     32  C   UNL A   1      36.681  31.838  28.580  1.00  0.00     0.010 A 
ATOM     33  C   UNL A   1      35.764  29.613  28.839  1.00  0.00     0.010 A 
ATOM     34  C   UNL A   1      36.794  30.532  29.084  1.00  0.00    -0.014 A 
BRANCH  34  35
ATOM     35  C   UNL A   1      38.007  30.067  29.804  1.00  0.00     0.031 A 
ATOM     36  C   UNL A   1      38.236  30.529  31.220  1.00  0.00     0.074 A 
ATOM     37  C   UNL A   1      38.926  29.312  29.172  1.00  0.00     0.049 A 
ATOM     38  N   UNL A   1      39.270  30.343  32.000  1.00  0.00    -0.248 NA
ATOM     39  C   UNL A   1      37.185  31.371  31.816  1.00  0.00     0.031 C 
ATOM     40  C   UNL A   1      38.851  28.868  27.778  1.00  0.00     0.029 A 
ATOM     41  N   UNL A   1      40.109  28.784  29.622  1.00  0.00    -0.354 N 
ATOM     42  C   UNL A   1      39.006  31.076  33.153  1.00  0.00     0.074 A 
ATOM     43  C   UNL A   1      37.768  31.786  32.927  1.00  0.00     0.031 C 
ATOM     44  C   UNL A   1      39.919  28.102  27.501  1.00  0.00     0.029 A 
ATOM     45  C   UNL A   1      40.771  28.028  28.683  1.00  0.00     0.049 A 
ATOM     46  H   UNL A   1      40.453  28.933  30.533  1.00  0.00     0.167 HD
ATOM     47  C   UNL A   1      39.706  31.118  34.314  1.00  0.00     0.034 A 
ATOM     48  C   UNL A   1      41.930  27.346  28.775  1.00  0.00     0.034 A 
ATOM     49  C   UNL A   1      40.909  30.357  34.534  1.00  0.00     0.049 A 
ATOM     50  C   UNL A   1      42.663  27.352  30.092  1.00  0.00     0.074 A 
ATOM     51  C   UNL A   1      41.677  30.262  35.679  1.00  0.00     0.029 A 
ATOM     52  N   UNL A   1      41.514  29.544  33.581  1.00  0.00    -0.354 N 
ATOM     53  N   UNL A   1      42.375  28.002  31.198  1.00  0.00    -0.248 NA
ATOM     54  C   UNL A   1      43.861  26.509  30.183  1.00  0.00     0.031 C 
ATOM     55  C   UNL A   1      42.771  29.432  35.405  1.00  0.00     0.029 A 
ATOM     56  C   UNL A   1      42.649  28.953  34.110  1.00  0.00     0.049 A 
ATOM     57  H   UNL A   1      41.183  29.411  32.664  1.00  0.00     0.167 HD
ATOM     58  C   UNL A   1      43.336  27.617  32.127  1.00  0.00     0.074 A 
ATOM     59  C   UNL A   1      44.201  26.667  31.454  1.00  0.00     0.031 C 
ATOM     60  C   UNL A   1      43.493  28.008  33.418  1.00  0.00     0.034 A 
BRANCH  47  61
ATOM     61  C   UNL A   1      39.177  32.020  35.407  1.00  0.00     0.023 A 
ATOM     62  C   UNL A   1      39.552  33.374  35.492  1.00  0.00     0.031 A 
ATOM     63  C   UNL A   1      38.351  31.506  36.421  1.00  0.00     0.131 A 
ATOM     64  C   UNL A   1      39.198  34.132  36.618  1.00  0.00     0.055 A 
ATOM     65  C   UNL A   1      37.918  32.296  37.489  1.00  0.00     0.041 A 
ATOM     66  F   UNL A   1      37.974  30.218  36.410  1.00  0.00    -0.206 F 
ATOM     67  C   UNL A   1      38.360  33.611  37.605  1.00  0.00     0.022 A 
BRANCH  64  68
ATOM     68  S   UNL A   1      40.004  35.739  36.865  1.00  0.00     0.124 S 
ATOM     69  O   UNL A   1      41.409  35.349  36.971  1.00  0.00    -0.237 OA
ATOM     70  O   UNL A   1      39.633  36.467  35.657  1.00  0.00    -0.237 OA
ATOM     71  O   UNL A   1      39.408  36.235  38.104  1.00  0.00    -0.744 OA
ENDBRANCH  64  68
ENDBRANCH  47  61
BRANCH  48  72
ATOM     72  C   UNL A   1      42.452  26.577  27.609  1.00  0.00     0.023 A 
ATOM     73  C   UNL A   1      42.097  25.231  27.414  1.00  0.00     0.031 A 
ATOM     74  C   UNL A   1      43.335  27.165  26.687  1.00  0.00     0.131 A 
ATOM     75  C   UNL A   1      42.659  24.505  26.353  1.00  0.00     0.055 A 
ATOM     76  C   UNL A   1      43.855  26.451  25.605  1.00  0.00     0.041 A 
ATOM     77  F   UNL A   1      43.695  28.452  26.818  1.00  0.00    -0.206 F 
ATOM     78  C   UNL A   1      43.528  25.109  25.441  1.00  0.00     0.022 A 
BRANCH  75  79
ATOM     79  S   UNL A   1      42.293  22.733  26.223  1.00  0.00     0.124 S 
ATOM     80  O   UNL A   1      40.844  22.715  26.391  1.00  0.00    -0.237 OA
ATOM     81  O   UNL A   1      42.788  22.419  24.887  1.00  0.00    -0.237 OA
ATOM     82  O   UNL A   1      43.057  22.146  27.322  1.00  0.00    -0.744 OA
ENDBRANCH  75  79
ENDBRANCH  48  72
BRANCH  60  83
ATOM     83  C   UNL A   1      44.608  27.354  34.196  1.00  0.00     0.023 A 
ATOM     84  C   UNL A   1      44.408  26.167  34.920  1.00  0.00     0.031 A 
ATOM     85  C   UNL A   1      45.884  27.945  34.230  1.00  0.00     0.131 A 
ATOM     86  C   UNL A   1      45.448  25.645  35.703  1.00  0.00     0.055 A 
ATOM     87  C   UNL A   1      46.933  27.386  34.958  1.00  0.00     0.041 A 
ATOM     88  F   UNL A   1      46.129  29.080  33.554  1.00  0.00    -0.206 F 
ATOM     89  C   UNL A   1      46.714  26.238  35.714  1.00  0.00     0.022 A 
BRANCH  86  90
ATOM     90  S   UNL A   1      45.091  24.245  36.799  1.00  0.00     0.124 S 
ATOM     91  O   UNL A   1      44.245  24.863  37.815  1.00  0.00    -0.237 OA
ATOM     92  O   UNL A   1      44.426  23.309  35.899  1.00  0.00    -0.237 OA
ATOM     93  O   UNL A   1      46.412  23.828  37.263  1.00  0.00    -0.744 OA
ENDBRANCH  86  90
ENDBRANCH  60  83
ENDBRANCH  34  35
ENDBRANCH  26  29
ENDBRANCH  24  25
ENDBRANCH   1  24
TORSDOF 17
ENDMDL
MODEL 2
REMARK VINA RESULT:     -12.2      1.831      2.376
REMARK SMILES COc1cc2c(c(OC)c1)[C@H](C)C[C@H](CC(=O)NCCCCNC(=O)c1ccc(-c3c4nc(c(-c5cc(S(=O)(=O)[O-])ccc5F)c5ccc([nH]5)c(-c5cc(S(=O)(=O)[O-])ccc5F)c5nc(c(-c6cc(S(=O)(=O)[O-])ccc6F)c6ccc3[nH]6)C=C5)C=C4)cc1)C2
REMARK SMILES IDX 21 1 20 2 19 3 18 4 16 5 17 6 15 8 14 9 3 10 4 11 10 12 5 13
REMARK SMILES IDX 7 14 6 15 89 16 11 17 12 18 13 19 2 20 1 21 8 22 9 23 22 24
REMARK SMILES IDX 23 25 24 26 25 28 26 29 27 30 88 31 28 32 87 33 29 34 30 35
REMARK SMILES IDX 31 36 81 37 32 38 86 39 80 40 82 41 33 42 85 43 79 44 78 45
REMARK SMILES IDX 34 47 66 48 46 49 65 50 47 51 50 52 64 53 83 54 48 55 49 56
REMARK SMILES IDX 63 58 84 59 51 60 35 61 36 62 44 63 37 64 43 65 45 66 42 67
REMARK SMILES IDX 38 68 39 69 40 70 41 71 67 72 68 73 76 74 69 75 75 76 77 77
REMARK SMILES IDX 74 78 70 79 71 80 72 81 73 82 52 83 53 84 61 85 54 86 60 87
REMARK SMILES IDX 62 88 59 89 55 90 56 91 57 92 58 93
REMARK H PARENT 18 7 23 27 82 46 50 57
REMARK Flexibility Score: inf
ROOT
ATOM      1  C   UNL A   1      33.105  28.751  25.629  1.00  0.00     0.023 C 
ENDROOT
BRANCH   1   2
ATOM      2  C   UNL A   1      33.648  28.425  24.251  1.00  0.00     0.023 C 
BRANCH   2   3
ATOM      3  C   UNL A   1      32.687  28.651  23.069  1.00  0.00     0.116 C 
BRANCH   3   4
ATOM      4  N   UNL A   1      33.004  27.757  21.963  1.00  0.00    -0.356 N 
ATOM      5  C   UNL A   1      32.824  26.418  21.780  1.00  0.00     0.220 C 
ATOM      6  O   UNL A   1      33.276  25.926  20.742  1.00  0.00    -0.275 OA
ATOM      7  H   UNL A   1      33.430  28.208  21.199  1.00  0.00     0.163 HD
BRANCH   5   8
ATOM      8  C   UNL A   1      32.086  25.529  22.782  1.00  0.00     0.104 C 
BRANCH   8   9
ATOM      9  C   UNL A   1      32.840  24.230  23.133  1.00  0.00     0.003 C 
ATOM     10  C   UNL A   1      32.896  19.605  24.890  1.00  0.00     0.122 A 
ATOM     11  C   UNL A   1      32.169  20.720  24.474  1.00  0.00     0.050 A 
ATOM     12  C   UNL A   1      34.285  19.672  24.959  1.00  0.00     0.093 A 
ATOM     13  C   UNL A   1      32.812  21.943  24.225  1.00  0.00    -0.037 A 
ATOM     14  C   UNL A   1      34.944  20.876  24.717  1.00  0.00     0.126 A 
ATOM     15  C   UNL A   1      34.211  22.048  24.447  1.00  0.00     0.000 A 
ATOM     16  C   UNL A   1      31.970  23.135  23.776  1.00  0.00     0.040 C 
ATOM     17  C   UNL A   1      34.887  23.399  24.387  1.00  0.00     0.020 C 
ATOM     18  C   UNL A   1      35.696  23.761  25.644  1.00  0.00     0.013 C 
ATOM     19  C   UNL A   1      33.891  24.531  24.183  1.00  0.00     0.012 C 
BRANCH  10  20
ATOM     20  O   UNL A   1      32.173  18.478  25.179  1.00  0.00    -0.497 OA
ATOM     21  C   UNL A   1      32.945  17.278  25.131  1.00  0.00     0.278 C 
ENDBRANCH  10  20
BRANCH  14  22
ATOM     22  O   UNL A   1      36.305  20.812  24.874  1.00  0.00    -0.496 OA
ATOM     23  C   UNL A   1      36.853  19.494  24.871  1.00  0.00     0.278 C 
ENDBRANCH  14  22
ENDBRANCH   8   9
ENDBRANCH   5   8
ENDBRANCH   3   4
ENDBRANCH   2   3
ENDBRANCH   1   2
BRANCH   1  24
ATOM     24  C   UNL A   1      34.123  29.405  26.549  1.00  0.00     0.116 C 
BRANCH  24  25
ATOM     25  N   UNL A   1      33.834  30.795  26.888  1.00  0.00    -0.352 N 
ATOM     26  C   UNL A   1      34.504  31.625  27.770  1.00  0.00     0.251 C 
ATOM     27  H   UNL A   1      33.060  31.194  26.430  1.00  0.00     0.163 HD
ATOM     28  O   UNL A   1      34.096  32.747  27.993  1.00  0.00    -0.269 OA
BRANCH  26  29
ATOM     29  C   UNL A   1      35.693  31.087  28.471  1.00  0.00     0.039 A 
ATOM     30  C   UNL A   1      35.573  29.922  29.230  1.00  0.00     0.014 A 
ATOM     31  C   UNL A   1      36.940  31.685  28.288  1.00  0.00     0.014 A 
ATOM     32  C   UNL A   1      36.725  29.312  29.734  1.00  0.00     0.010 A 
ATOM     33  C   UNL A   1      38.086  31.003  28.662  1.00  0.00     0.010 A 
ATOM     34  C   UNL A   1      37.993  29.826  29.419  1.00  0.00    -0.014 A 
BRANCH  34  35
ATOM     35  C   UNL A   1      39.243  29.207  29.928  1.00  0.00     0.031 A 
ATOM     36  C   UNL A   1      39.876  29.763  31.178  1.00  0.00     0.074 A 
ATOM     37  C   UNL A   1      39.843  28.218  29.237  1.00  0.00     0.049 A 
ATOM     38  N   UNL A   1      41.017  29.457  31.741  1.00  0.00    -0.248 NA
ATOM     39  C   UNL A   1      39.156  30.859  31.848  1.00  0.00     0.031 C 
ATOM     40  C   UNL A   1      39.366  27.650  27.974  1.00  0.00     0.029 A 
ATOM     41  N   UNL A   1      40.989  27.513  29.502  1.00  0.00    -0.354 N 
ATOM     42  C   UNL A   1      41.162  30.348  32.799  1.00  0.00     0.074 A 
ATOM     43  C   UNL A   1      40.047  31.265  32.735  1.00  0.00     0.031 C 
ATOM     44  C   UNL A   1      40.190  26.659  27.597  1.00  0.00     0.029 A 
ATOM     45  C   UNL A   1      41.271  26.542  28.570  1.00  0.00     0.049 A 
ATOM     46  H   UNL A   1      41.559  27.687  30.287  1.00  0.00     0.167 HD
ATOM     47  C   UNL A   1      42.112  30.374  33.767  1.00  0.00     0.034 A 
ATOM     48  C   UNL A   1      42.284  25.655  28.516  1.00  0.00     0.034 A 
ATOM     49  C   UNL A   1      43.184  29.414  33.840  1.00  0.00     0.049 A 
ATOM     50  C   UNL A   1      43.297  25.654  29.633  1.00  0.00     0.074 A 
ATOM     51  C   UNL A   1      44.172  29.290  34.798  1.00  0.00     0.029 A 
ATOM     52  N   UNL A   1      43.398  28.398  32.915  1.00  0.00    -0.354 N 
ATOM     53  N   UNL A   1      43.394  26.465  30.664  1.00  0.00    -0.248 NA
ATOM     54  C   UNL A   1      44.319  24.602  29.596  1.00  0.00     0.031 C 
ATOM     55  C   UNL A   1      45.011  28.232  34.427  1.00  0.00     0.029 A 
ATOM     56  C   UNL A   1      44.507  27.650  33.275  1.00  0.00     0.049 A 
ATOM     57  H   UNL A   1      42.842  28.235  32.118  1.00  0.00     0.167 HD
ATOM     58  C   UNL A   1      44.466  25.997  31.416  1.00  0.00     0.074 A 
ATOM     59  C   UNL A   1      44.971  24.825  30.728  1.00  0.00     0.031 C 
ATOM     60  C   UNL A   1      44.988  26.485  32.571  1.00  0.00     0.034 A 
BRANCH  47  61
ATOM     61  C   UNL A   1      42.020  31.476  34.797  1.00  0.00     0.023 A 
ATOM     62  C   UNL A   1      41.038  31.464  35.806  1.00  0.00     0.031 A 
ATOM     63  C   UNL A   1      42.872  32.592  34.729  1.00  0.00     0.131 A 
ATOM     64  C   UNL A   1      40.858  32.588  36.626  1.00  0.00     0.055 A 
ATOM     65  C   UNL A   1      42.753  33.665  35.616  1.00  0.00     0.041 A 
ATOM     66  F   UNL A   1      43.816  32.675  33.779  1.00  0.00    -0.206 F 
ATOM     67  C   UNL A   1      41.727  33.678  36.558  1.00  0.00     0.022 A 
BRANCH  64  68
ATOM     68  S   UNL A   1      39.361  32.680  37.647  1.00  0.00     0.124 S 
ATOM     69  O   UNL A   1      38.822  33.982  37.259  1.00  0.00    -0.237 OA
ATOM     70  O   UNL A   1      38.603  31.517  37.203  1.00  0.00    -0.237 OA
ATOM     71  O   UNL A   1      39.874  32.609  39.014  1.00  0.00    -0.744 OA
ENDBRANCH  64  68
ENDBRANCH  47  61
BRANCH  48  72
ATOM     72  C   UNL A   1      42.376  24.675  27.396  1.00  0.00     0.023 A 
ATOM     73  C   UNL A   1      41.614  23.494  27.406  1.00  0.00     0.031 A 
ATOM     74  C   UNL A   1      43.246  24.888  26.314  1.00  0.00     0.131 A 
ATOM     75  C   UNL A   1      41.772  22.550  26.380  1.00  0.00     0.055 A 
ATOM     76  C   UNL A   1      43.365  23.967  25.270  1.00  0.00     0.041 A 
ATOM     77  F   UNL A   1      43.987  26.006  26.249  1.00  0.00    -0.206 F 
ATOM     78  C   UNL A   1      42.635  22.784  25.306  1.00  0.00     0.022 A 
BRANCH  75  79
ATOM     79  S   UNL A   1      40.882  20.974  26.504  1.00  0.00     0.124 S 
ATOM     80  O   UNL A   1      39.614  21.296  25.859  1.00  0.00    -0.237 OA
ATOM     81  O   UNL A   1      41.763  20.071  25.771  1.00  0.00    -0.237 OA
ATOM     82  O   UNL A   1      40.809  20.737  27.944  1.00  0.00    -0.744 OA
ENDBRANCH  75  79
ENDBRANCH  48  72
BRANCH  60  83
ATOM     83  C   UNL A   1      46.125  25.708  33.186  1.00  0.00     0.023 A 
ATOM     84  C   UNL A   1      45.901  24.679  34.117  1.00  0.00     0.031 A 
ATOM     85  C   UNL A   1      47.455  26.020  32.849  1.00  0.00     0.131 A 
ATOM     86  C   UNL A   1      46.991  24.046  34.731  1.00  0.00     0.055 A 
ATOM     87  C   UNL A   1      48.534  25.342  33.415  1.00  0.00     0.041 A 
ATOM     88  F   UNL A   1      47.725  26.993  31.964  1.00  0.00    -0.206 F 
ATOM     89  C   UNL A   1      48.306  24.360  34.375  1.00  0.00     0.022 A 
BRANCH  86  90
ATOM     90  S   UNL A   1      46.670  22.887  36.089  1.00  0.00     0.124 S 
ATOM     91  O   UNL A   1      46.540  23.786  37.231  1.00  0.00    -0.237 OA
ATOM     92  O   UNL A   1      45.443  22.230  35.651  1.00  0.00    -0.237 OA
ATOM     93  O   UNL A   1      47.859  22.037  36.102  1.00  0.00    -0.744 OA
ENDBRANCH  86  90
ENDBRANCH  60  83
ENDBRANCH  34  35
ENDBRANCH  26  29
ENDBRANCH  24  25
ENDBRANCH   1  24
TORSDOF 17
ENDMDL
MODEL 3
REMARK VINA RESULT:     -12.1      5.043     10.335
REMARK SMILES COc1cc2c(c(OC)c1)[C@H](C)C[C@H](CC(=O)NCCCCNC(=O)c1ccc(-c3c4nc(c(-c5cc(S(=O)(=O)[O-])ccc5F)c5ccc([nH]5)c(-c5cc(S(=O)(=O)[O-])ccc5F)c5nc(c(-c6cc(S(=O)(=O)[O-])ccc6F)c6ccc3[nH]6)C=C5)C=C4)cc1)C2
REMARK SMILES IDX 21 1 20 2 19 3 18 4 16 5 17 6 15 8 14 9 3 10 4 11 10 12 5 13
REMARK SMILES IDX 7 14 6 15 89 16 11 17 12 18 13 19 2 20 1 21 8 22 9 23 22 24
REMARK SMILES IDX 23 25 24 26 25 28 26 29 27 30 88 31 28 32 87 33 29 34 30 35
REMARK SMILES IDX 31 36 81 37 32 38 86 39 80 40 82 41 33 42 85 43 79 44 78 45
REMARK SMILES IDX 34 47 66 48 46 49 65 50 47 51 50 52 64 53 83 54 48 55 49 56
REMARK SMILES IDX 63 58 84 59 51 60 35 61 36 62 44 63 37 64 43 65 45 66 42 67
REMARK SMILES IDX 38 68 39 69 40 70 41 71 67 72 68 73 76 74 69 75 75 76 77 77
REMARK SMILES IDX 74 78 70 79 71 80 72 81 73 82 52 83 53 84 61 85 54 86 60 87
REMARK SMILES IDX 62 88 59 89 55 90 56 91 57 92 58 93
REMARK H PARENT 18 7 23 27 82 46 50 57
REMARK Flexibility Score: inf
ROOT
ATOM      1  C   UNL A   1      35.671  22.389  25.238  1.00  0.00     0.023 C 
ENDROOT
BRANCH   1   2
ATOM      2  C   UNL A   1      34.383  22.789  25.933  1.00  0.00     0.023 C 
BRANCH   2   3
ATOM      3  C   UNL A   1      33.274  21.721  25.980  1.00  0.00     0.116 C 
BRANCH   3   4
ATOM      4  N   UNL A   1      32.174  22.151  26.832  1.00  0.00    -0.356 N 
ATOM      5  C   UNL A   1      31.088  22.944  26.607  1.00  0.00     0.220 C 
ATOM      6  O   UNL A   1      30.359  23.189  27.573  1.00  0.00    -0.275 OA
ATOM      7  H   UNL A   1      32.225  21.801  27.751  1.00  0.00     0.163 HD
BRANCH   5   8
ATOM      8  C   UNL A   1      30.739  23.513  25.231  1.00  0.00     0.104 C 
BRANCH   8   9
ATOM      9  C   UNL A   1      30.744  25.054  25.177  1.00  0.00     0.003 C 
ATOM     10  C   UNL A   1      29.301  29.309  23.104  1.00  0.00     0.122 A 
ATOM     11  C   UNL A   1      29.184  27.923  23.201  1.00  0.00     0.050 A 
ATOM     12  C   UNL A   1      30.287  29.971  23.831  1.00  0.00     0.093 A 
ATOM     13  C   UNL A   1      30.114  27.174  23.938  1.00  0.00    -0.037 A 
ATOM     14  C   UNL A   1      31.223  29.247  24.569  1.00  0.00     0.126 A 
ATOM     15  C   UNL A   1      31.209  27.839  24.550  1.00  0.00     0.000 A 
ATOM     16  C   UNL A   1      29.943  25.658  24.008  1.00  0.00     0.040 C 
ATOM     17  C   UNL A   1      32.332  27.037  25.170  1.00  0.00     0.020 C 
ATOM     18  C   UNL A   1      33.732  27.391  24.643  1.00  0.00     0.013 C 
ATOM     19  C   UNL A   1      32.160  25.541  24.945  1.00  0.00     0.012 C 
BRANCH  10  20
ATOM     20  O   UNL A   1      28.390  29.945  22.303  1.00  0.00    -0.497 OA
ATOM     21  C   UNL A   1      28.356  31.360  22.490  1.00  0.00     0.278 C 
ENDBRANCH  10  20
BRANCH  14  22
ATOM     22  O   UNL A   1      32.170  30.022  25.189  1.00  0.00    -0.496 OA
ATOM     23  C   UNL A   1      31.892  30.342  26.552  1.00  0.00     0.278 C 
ENDBRANCH  14  22
ENDBRANCH   8   9
ENDBRANCH   5   8
ENDBRANCH   3   4
ENDBRANCH   2   3
ENDBRANCH   1   2
BRANCH   1  24
ATOM     24  C   UNL A   1      36.894  23.141  25.737  1.00  0.00     0.116 C 
BRANCH  24  25
ATOM     25  N   UNL A   1      38.040  22.296  26.056  1.00  0.00    -0.352 N 
ATOM     26  C   UNL A   1      39.245  22.659  26.634  1.00  0.00     0.251 C 
ATOM     27  H   UNL A   1      37.945  21.343  25.830  1.00  0.00     0.163 HD
ATOM     28  O   UNL A   1      40.132  21.842  26.775  1.00  0.00    -0.269 OA
BRANCH  26  29
ATOM     29  C   UNL A   1      39.438  24.076  27.020  1.00  0.00     0.039 A 
ATOM     30  C   UNL A   1      39.226  24.461  28.346  1.00  0.00     0.014 A 
ATOM     31  C   UNL A   1      39.925  24.993  26.089  1.00  0.00     0.014 A 
ATOM     32  C   UNL A   1      39.587  25.748  28.750  1.00  0.00     0.010 A 
ATOM     33  C   UNL A   1      40.415  26.213  26.523  1.00  0.00     0.010 A 
ATOM     34  C   UNL A   1      40.223  26.620  27.851  1.00  0.00    -0.014 A 
BRANCH  34  35
ATOM     35  C   UNL A   1      40.629  27.994  28.240  1.00  0.00     0.031 A 
ATOM     36  C   UNL A   1      42.080  28.386  28.124  1.00  0.00     0.074 A 
ATOM     37  C   UNL A   1      39.728  28.847  28.764  1.00  0.00     0.049 A 
ATOM     38  N   UNL A   1      42.679  29.485  28.506  1.00  0.00    -0.248 NA
ATOM     39  C   UNL A   1      42.991  27.376  27.561  1.00  0.00     0.031 C 
ATOM     40  C   UNL A   1      38.312  28.554  28.997  1.00  0.00     0.029 A 
ATOM     41  N   UNL A   1      39.871  30.141  29.198  1.00  0.00    -0.354 N 
ATOM     42  C   UNL A   1      44.034  29.276  28.265  1.00  0.00     0.074 A 
ATOM     43  C   UNL A   1      44.174  27.914  27.803  1.00  0.00     0.031 C 
ATOM     44  C   UNL A   1      37.710  29.648  29.492  1.00  0.00     0.029 A 
ATOM     45  C   UNL A   1      38.702  30.708  29.645  1.00  0.00     0.049 A 
ATOM     46  H   UNL A   1      40.733  30.618  29.192  1.00  0.00     0.167 HD
ATOM     47  C   UNL A   1      45.063  30.152  28.374  1.00  0.00     0.034 A 
ATOM     48  C   UNL A   1      38.460  31.948  30.115  1.00  0.00     0.034 A 
ATOM     49  C   UNL A   1      44.888  31.521  28.785  1.00  0.00     0.049 A 
ATOM     50  C   UNL A   1      39.602  32.930  30.170  1.00  0.00     0.074 A 
ATOM     51  C   UNL A   1      45.834  32.525  28.878  1.00  0.00     0.029 A 
ATOM     52  N   UNL A   1      43.674  32.083  29.164  1.00  0.00    -0.354 N 
ATOM     53  N   UNL A   1      40.872  32.740  29.884  1.00  0.00    -0.248 NA
ATOM     54  C   UNL A   1      39.275  34.300  30.582  1.00  0.00     0.031 C 
ATOM     55  C   UNL A   1      45.201  33.679  29.358  1.00  0.00     0.029 A 
ATOM     56  C   UNL A   1      43.848  33.416  29.499  1.00  0.00     0.049 A 
ATOM     57  H   UNL A   1      42.815  31.602  29.191  1.00  0.00     0.167 HD
ATOM     58  C   UNL A   1      41.487  33.977  30.048  1.00  0.00     0.074 A 
ATOM     59  C   UNL A   1      40.445  34.906  30.441  1.00  0.00     0.031 C 
ATOM     60  C   UNL A   1      42.791  34.320  29.887  1.00  0.00     0.034 A 
BRANCH  47  61
ATOM     61  C   UNL A   1      46.447  29.636  28.048  1.00  0.00     0.023 A 
ATOM     62  C   UNL A   1      46.795  29.226  26.747  1.00  0.00     0.031 A 
ATOM     63  C   UNL A   1      47.408  29.480  29.061  1.00  0.00     0.131 A 
ATOM     64  C   UNL A   1      48.018  28.578  26.518  1.00  0.00     0.055 A 
ATOM     65  C   UNL A   1      48.665  28.926  28.805  1.00  0.00     0.041 A 
ATOM     66  F   UNL A   1      47.133  29.832  30.326  1.00  0.00    -0.206 F 
ATOM     67  C   UNL A   1      48.968  28.450  27.532  1.00  0.00     0.022 A 
BRANCH  64  68
ATOM     68  S   UNL A   1      48.266  27.741  24.928  1.00  0.00     0.124 S 
ATOM     69  O   UNL A   1      47.332  28.465  24.067  1.00  0.00    -0.237 OA
ATOM     70  O   UNL A   1      49.682  27.969  24.667  1.00  0.00    -0.237 OA
ATOM     71  O   UNL A   1      47.896  26.355  25.208  1.00  0.00    -0.744 OA
ENDBRANCH  64  68
ENDBRANCH  47  61
BRANCH  48  72
ATOM     72  C   UNL A   1      37.085  32.345  30.535  1.00  0.00     0.023 A 
ATOM     73  C   UNL A   1      36.189  32.923  29.619  1.00  0.00     0.031 A 
ATOM     74  C   UNL A   1      36.655  32.182  31.863  1.00  0.00     0.131 A 
ATOM     75  C   UNL A   1      34.928  33.359  30.053  1.00  0.00     0.055 A 
ATOM     76  C   UNL A   1      35.381  32.573  32.280  1.00  0.00     0.041 A 
ATOM     77  F   UNL A   1      37.467  31.622  32.775  1.00  0.00    -0.206 F 
ATOM     78  C   UNL A   1      34.514  33.178  31.376  1.00  0.00     0.022 A 
BRANCH  75  79
ATOM     79  S   UNL A   1      33.858  34.233  28.878  1.00  0.00     0.124 S 
ATOM     80  O   UNL A   1      33.490  33.162  27.958  1.00  0.00    -0.237 OA
ATOM     81  O   UNL A   1      32.795  34.727  29.746  1.00  0.00    -0.237 OA
ATOM     82  O   UNL A   1      34.734  35.262  28.321  1.00  0.00    -0.744 OA
ENDBRANCH  75  79
ENDBRANCH  48  72
BRANCH  60  83
ATOM     83  C   UNL A   1      43.141  35.775  30.078  1.00  0.00     0.023 A 
ATOM     84  C   UNL A   1      42.959  36.721  29.055  1.00  0.00     0.031 A 
ATOM     85  C   UNL A   1      43.687  36.213  31.298  1.00  0.00     0.131 A 
ATOM     86  C   UNL A   1      43.384  38.044  29.246  1.00  0.00     0.055 A 
ATOM     87  C   UNL A   1      44.047  37.544  31.505  1.00  0.00     0.041 A 
ATOM     88  F   UNL A   1      43.880  35.350  32.309  1.00  0.00    -0.206 F 
ATOM     89  C   UNL A   1      43.913  38.465  30.470  1.00  0.00     0.022 A 
BRANCH  86  90
ATOM     90  S   UNL A   1      43.344  39.180  27.834  1.00  0.00     0.124 S 
ATOM     91  O   UNL A   1      44.628  39.864  27.957  1.00  0.00    -0.237 OA
ATOM     92  O   UNL A   1      43.214  38.267  26.704  1.00  0.00    -0.237 OA
ATOM     93  O   UNL A   1      42.172  40.013  28.097  1.00  0.00    -0.744 OA
ENDBRANCH  86  90
ENDBRANCH  60  83
ENDBRANCH  34  35
ENDBRANCH  26  29
ENDBRANCH  24  25
ENDBRANCH   1  24
TORSDOF 17
ENDMDL
