MODEL 1
REMARK VINA RESULT:     -11.9      0.000      0.000
REMARK SMILES COc1ccc([C@@H](CC(=O)NCCCCNC(=O)c2ccc(-c3c4nc(c(-c5cc(S(=O)(=O)[O-])ccc5F)c5ccc([nH]5)c(-c5cc(S(=O)(=O)[O-])ccc5F)c5nc(c(-c6cc(S(=O)(=O)[O-])ccc6F)c6ccc3[nH]6)C=C5)C=C4)cc2)C2CCCCC2)cc1Cl
REMARK SMILES IDX 13 1 12 2 11 3 9 4 10 5 8 7 7 8 6 9 3 10 4 11 89 12 5 13
REMARK SMILES IDX 88 14 90 15 2 16 1 17 82 18 83 19 87 20 84 21 86 22 85 23
REMARK SMILES IDX 14 24 15 25 16 26 17 27 18 29 19 30 20 31 81 32 21 33 80 34
REMARK SMILES IDX 22 35 23 36 24 37 74 38 25 39 79 40 73 41 75 42 26 43 78 44
REMARK SMILES IDX 72 45 71 46 27 48 59 49 39 50 58 51 40 52 43 53 57 54 76 55
REMARK SMILES IDX 41 56 42 57 56 59 77 60 44 61 28 62 29 63 37 64 30 65 36 66
REMARK SMILES IDX 38 67 35 68 31 69 32 70 33 71 34 72 60 73 61 74 69 75 62 76
REMARK SMILES IDX 68 77 70 78 67 79 63 80 64 81 65 82 66 83 45 84 46 85 54 86
REMARK SMILES IDX 47 87 53 88 55 89 52 90 48 91 49 92 50 93 51 94
REMARK H PARENT 11 6 16 28 75 47 43 58
REMARK Flexibility Score: inf
ROOT
ATOM      1  C   UNL A   1      31.390  27.555  26.352  1.00  0.00     0.023 C 
ENDROOT
BRANCH   1   2
ATOM      2  C   UNL A   1      30.755  26.429  25.554  1.00  0.00     0.116 C 
BRANCH   2   3
ATOM      3  N   UNL A   1      30.392  25.324  26.419  1.00  0.00    -0.356 N 
ATOM      4  C   UNL A   1      31.061  24.168  26.680  1.00  0.00     0.220 C 
ATOM      5  O   UNL A   1      30.567  23.388  27.501  1.00  0.00    -0.275 OA
ATOM      6  H   UNL A   1      29.532  25.426  26.887  1.00  0.00     0.163 HD
BRANCH   4   7
ATOM      7  C   UNL A   1      32.409  23.862  26.050  1.00  0.00     0.108 C 
BRANCH   7   8
ATOM      8  C   UNL A   1      32.516  23.262  24.612  1.00  0.00     0.032 C 
BRANCH   8   9
ATOM      9  C   UNL A   1      33.067  21.826  24.598  1.00  0.00    -0.042 A 
ATOM     10  C   UNL A   1      34.240  19.213  24.511  1.00  0.00     0.137 A 
ATOM     11  C   UNL A   1      32.873  19.393  24.318  1.00  0.00     0.048 A 
ATOM     12  C   UNL A   1      35.015  20.349  24.784  1.00  0.00     0.083 A 
ATOM     13  C   UNL A   1      32.298  20.674  24.385  1.00  0.00     0.008 A 
ATOM     14  C   UNL A   1      34.439  21.626  24.834  1.00  0.00     0.028 A 
ATOM     15  Cl  UNL A   1      36.722  20.235  25.053  1.00  0.00    -0.080 Cl
BRANCH  10  16
ATOM     16  O   UNL A   1      34.906  18.026  24.450  1.00  0.00    -0.495 OA
ATOM     17  C   UNL A   1      34.227  16.814  24.153  1.00  0.00     0.278 C 
ENDBRANCH  10  16
ENDBRANCH   8   9
BRANCH   8  18
ATOM     18  C   UNL A   1      32.942  24.269  23.476  1.00  0.00    -0.003 C 
ATOM     19  C   UNL A   1      31.837  24.671  22.478  1.00  0.00     0.004 C 
ATOM     20  C   UNL A   1      33.700  25.484  24.079  1.00  0.00     0.004 C 
ATOM     21  C   UNL A   1      32.226  25.811  21.541  1.00  0.00     0.000 C 
ATOM     22  C   UNL A   1      33.989  26.611  23.095  1.00  0.00     0.000 C 
ATOM     23  C   UNL A   1      32.745  27.006  22.317  1.00  0.00     0.000 C 
ENDBRANCH   8  18
ENDBRANCH   7   8
ENDBRANCH   4   7
ENDBRANCH   2   3
ENDBRANCH   1   2
BRANCH   1  24
ATOM     24  C   UNL A   1      31.563  28.885  25.644  1.00  0.00     0.023 C 
BRANCH  24  25
ATOM     25  C   UNL A   1      32.821  29.640  26.037  1.00  0.00     0.116 C 
BRANCH  25  26
ATOM     26  N   UNL A   1      32.584  30.996  26.528  1.00  0.00    -0.352 N 
ATOM     27  C   UNL A   1      33.385  31.795  27.316  1.00  0.00     0.251 C 
ATOM     28  H   UNL A   1      31.728  31.397  26.256  1.00  0.00     0.163 HD
ATOM     29  O   UNL A   1      32.982  32.889  27.691  1.00  0.00    -0.269 OA
BRANCH  27  30
ATOM     30  C   UNL A   1      34.702  31.288  27.764  1.00  0.00     0.039 A 
ATOM     31  C   UNL A   1      35.737  32.196  27.992  1.00  0.00     0.014 A 
ATOM     32  C   UNL A   1      34.878  29.936  28.054  1.00  0.00     0.014 A 
ATOM     33  C   UNL A   1      36.903  31.764  28.628  1.00  0.00     0.010 A 
ATOM     34  C   UNL A   1      35.974  29.539  28.805  1.00  0.00     0.010 A 
ATOM     35  C   UNL A   1      37.001  30.447  29.104  1.00  0.00    -0.014 A 
BRANCH  35  36
ATOM     36  C   UNL A   1      38.160  29.979  29.910  1.00  0.00     0.031 A 
ATOM     37  C   UNL A   1      38.339  30.487  31.316  1.00  0.00     0.074 A 
ATOM     38  C   UNL A   1      39.101  29.195  29.347  1.00  0.00     0.049 A 
ATOM     39  N   UNL A   1      39.356  30.352  32.127  1.00  0.00    -0.248 NA
ATOM     40  C   UNL A   1      37.250  31.318  31.853  1.00  0.00     0.031 C 
ATOM     41  C   UNL A   1      39.079  28.689  27.972  1.00  0.00     0.029 A 
ATOM     42  N   UNL A   1      40.269  28.690  29.862  1.00  0.00    -0.354 N 
ATOM     43  C   UNL A   1      39.048  31.120  33.246  1.00  0.00     0.074 A 
ATOM     44  C   UNL A   1      37.793  31.781  32.965  1.00  0.00     0.031 C 
ATOM     45  C   UNL A   1      40.152  27.908  27.770  1.00  0.00     0.029 A 
ATOM     46  C   UNL A   1      40.969  27.899  28.979  1.00  0.00     0.049 A 
ATOM     47  H   UNL A   1      40.578  28.877  30.778  1.00  0.00     0.167 HD
ATOM     48  C   UNL A   1      39.731  31.236  34.412  1.00  0.00     0.034 A 
ATOM     49  C   UNL A   1      42.137  27.246  29.129  1.00  0.00     0.034 A 
ATOM     50  C   UNL A   1      40.952  30.522  34.691  1.00  0.00     0.049 A 
ATOM     51  C   UNL A   1      42.865  27.358  30.444  1.00  0.00     0.074 A 
ATOM     52  C   UNL A   1      41.691  30.491  35.860  1.00  0.00     0.029 A 
ATOM     53  N   UNL A   1      41.610  29.699  33.784  1.00  0.00    -0.354 N 
ATOM     54  N   UNL A   1      42.541  28.052  31.511  1.00  0.00    -0.248 NA
ATOM     55  C   UNL A   1      44.112  26.595  30.575  1.00  0.00     0.031 C 
ATOM     56  C   UNL A   1      42.819  29.690  35.646  1.00  0.00     0.029 A 
ATOM     57  C   UNL A   1      42.753  29.170  34.362  1.00  0.00     0.049 A 
ATOM     58  H   UNL A   1      41.308  29.517  32.865  1.00  0.00     0.167 HD
ATOM     59  C   UNL A   1      43.530  27.782  32.452  1.00  0.00     0.074 A 
ATOM     60  C   UNL A   1      44.454  26.855  31.828  1.00  0.00     0.031 C 
ATOM     61  C   UNL A   1      43.662  28.252  33.719  1.00  0.00     0.034 A 
BRANCH  48  62
ATOM     62  C   UNL A   1      39.166  32.180  35.450  1.00  0.00     0.023 A 
ATOM     63  C   UNL A   1      39.566  33.527  35.515  1.00  0.00     0.031 A 
ATOM     64  C   UNL A   1      38.281  31.713  36.437  1.00  0.00     0.131 A 
ATOM     65  C   UNL A   1      39.185  34.321  36.607  1.00  0.00     0.055 A 
ATOM     66  C   UNL A   1      37.821  32.540  37.465  1.00  0.00     0.041 A 
ATOM     67  F   UNL A   1      37.873  30.434  36.442  1.00  0.00    -0.206 F 
ATOM     68  C   UNL A   1      38.293  33.846  37.569  1.00  0.00     0.022 A 
BRANCH  65  69
ATOM     69  S   UNL A   1      40.032  35.907  36.852  1.00  0.00     0.124 S 
ATOM     70  O   UNL A   1      39.242  36.496  37.931  1.00  0.00    -0.237 OA
ATOM     71  O   UNL A   1      41.384  35.491  37.203  1.00  0.00    -0.237 OA
ATOM     72  O   UNL A   1      39.897  36.570  35.557  1.00  0.00    -0.744 OA
ENDBRANCH  65  69
ENDBRANCH  48  62
BRANCH  49  73
ATOM     73  C   UNL A   1      42.685  26.409  28.025  1.00  0.00     0.023 A 
ATOM     74  C   UNL A   1      42.235  25.092  27.838  1.00  0.00     0.031 A 
ATOM     75  C   UNL A   1      43.681  26.896  27.162  1.00  0.00     0.131 A 
ATOM     76  C   UNL A   1      42.810  24.291  26.840  1.00  0.00     0.055 A 
ATOM     77  C   UNL A   1      44.220  26.109  26.142  1.00  0.00     0.041 A 
ATOM     78  F   UNL A   1      44.138  28.152  27.292  1.00  0.00    -0.206 F 
ATOM     79  C   UNL A   1      43.793  24.793  25.984  1.00  0.00     0.022 A 
BRANCH  76  80
ATOM     80  S   UNL A   1      42.299  22.554  26.720  1.00  0.00     0.124 S 
ATOM     81  O   UNL A   1      43.305  21.891  27.541  1.00  0.00    -0.237 OA
ATOM     82  O   UNL A   1      40.948  22.599  27.270  1.00  0.00    -0.237 OA
ATOM     83  O   UNL A   1      42.377  22.275  25.287  1.00  0.00    -0.744 OA
ENDBRANCH  76  80
ENDBRANCH  49  73
BRANCH  61  84
ATOM     84  C   UNL A   1      44.824  27.724  34.520  1.00  0.00     0.023 A 
ATOM     85  C   UNL A   1      44.704  26.585  35.333  1.00  0.00     0.031 A 
ATOM     86  C   UNL A   1      46.065  28.384  34.476  1.00  0.00     0.131 A 
ATOM     87  C   UNL A   1      45.792  26.168  36.113  1.00  0.00     0.055 A 
ATOM     88  C   UNL A   1      47.160  27.933  35.212  1.00  0.00     0.041 A 
ATOM     89  F   UNL A   1      46.231  29.478  33.715  1.00  0.00    -0.206 F 
ATOM     90  C   UNL A   1      47.024  26.826  36.046  1.00  0.00     0.022 A 
BRANCH  87  91
ATOM     91  S   UNL A   1      45.553  24.801  37.279  1.00  0.00     0.124 S 
ATOM     92  O   UNL A   1      44.173  25.006  37.709  1.00  0.00    -0.237 OA
ATOM     93  O   UNL A   1      45.793  23.629  36.442  1.00  0.00    -0.237 OA
ATOM     94  O   UNL A   1      46.566  25.045  38.306  1.00  0.00    -0.744 OA
ENDBRANCH  87  91
ENDBRANCH  61  84
ENDBRANCH  35  36
ENDBRANCH  27  30
ENDBRANCH  25  26
ENDBRANCH  24  25
ENDBRANCH   1  24
TORSDOF 18
ENDMDL
MODEL 2
REMARK VINA RESULT:     -11.4      1.916      2.195
REMARK SMILES COc1ccc([C@@H](CC(=O)NCCCCNC(=O)c2ccc(-c3c4nc(c(-c5cc(S(=O)(=O)[O-])ccc5F)c5ccc([nH]5)c(-c5cc(S(=O)(=O)[O-])ccc5F)c5nc(c(-c6cc(S(=O)(=O)[O-])ccc6F)c6ccc3[nH]6)C=C5)C=C4)cc2)C2CCCCC2)cc1Cl
REMARK SMILES IDX 13 1 12 2 11 3 9 4 10 5 8 7 7 8 6 9 3 10 4 11 89 12 5 13
REMARK SMILES IDX 88 14 90 15 2 16 1 17 82 18 83 19 87 20 84 21 86 22 85 23
REMARK SMILES IDX 14 24 15 25 16 26 17 27 18 29 19 30 20 31 81 32 21 33 80 34
REMARK SMILES IDX 22 35 23 36 24 37 74 38 25 39 79 40 73 41 75 42 26 43 78 44
REMARK SMILES IDX 72 45 71 46 27 48 59 49 39 50 58 51 40 52 43 53 57 54 76 55
REMARK SMILES IDX 41 56 42 57 56 59 77 60 44 61 28 62 29 63 37 64 30 65 36 66
REMARK SMILES IDX 38 67 35 68 31 69 32 70 33 71 34 72 60 73 61 74 69 75 62 76
REMARK SMILES IDX 68 77 70 78 67 79 63 80 64 81 65 82 66 83 45 84 46 85 54 86
REMARK SMILES IDX 47 87 53 88 55 89 52 90 48 91 49 92 50 93 51 94
REMARK H PARENT 11 6 16 28 75 47 43 58
REMARK Flexibility Score: inf
ROOT
ATOM      1  C   UNL A   1      31.125  27.724  26.714  1.00  0.00     0.023 C 
ENDROOT
BRANCH   1   2
ATOM      2  C   UNL A   1      31.072  26.488  25.833  1.00  0.00     0.116 C 
BRANCH   2   3
ATOM      3  N   UNL A   1      30.468  25.376  26.539  1.00  0.00    -0.356 N 
ATOM      4  C   UNL A   1      30.915  24.100  26.695  1.00  0.00     0.220 C 
ATOM      5  O   UNL A   1      30.241  23.333  27.389  1.00  0.00    -0.275 OA
ATOM      6  H   UNL A   1      29.606  25.574  26.970  1.00  0.00     0.163 HD
BRANCH   4   7
ATOM      7  C   UNL A   1      32.235  23.635  26.103  1.00  0.00     0.108 C 
BRANCH   7   8
ATOM      8  C   UNL A   1      32.312  23.025  24.668  1.00  0.00     0.032 C 
BRANCH   8   9
ATOM      9  C   UNL A   1      32.894  21.601  24.648  1.00  0.00    -0.042 A 
ATOM     10  C   UNL A   1      34.120  19.014  24.545  1.00  0.00     0.137 A 
ATOM     11  C   UNL A   1      32.743  19.161  24.408  1.00  0.00     0.048 A 
ATOM     12  C   UNL A   1      34.881  20.170  24.770  1.00  0.00     0.083 A 
ATOM     13  C   UNL A   1      32.142  20.430  24.483  1.00  0.00     0.008 A 
ATOM     14  C   UNL A   1      34.279  21.435  24.828  1.00  0.00     0.028 A 
ATOM     15  Cl  UNL A   1      36.600  20.097  24.968  1.00  0.00    -0.080 Cl
BRANCH  10  16
ATOM     16  O   UNL A   1      34.810  17.840  24.470  1.00  0.00    -0.495 OA
ATOM     17  C   UNL A   1      34.213  16.668  23.934  1.00  0.00     0.278 C 
ENDBRANCH  10  16
ENDBRANCH   8   9
BRANCH   8  18
ATOM     18  C   UNL A   1      32.682  24.032  23.511  1.00  0.00    -0.003 C 
ATOM     19  C   UNL A   1      31.495  24.620  22.720  1.00  0.00     0.004 C 
ATOM     20  C   UNL A   1      33.678  25.109  24.021  1.00  0.00     0.004 C 
ATOM     21  C   UNL A   1      31.877  25.751  21.770  1.00  0.00     0.000 C 
ATOM     22  C   UNL A   1      33.952  26.243  23.041  1.00  0.00     0.000 C 
ATOM     23  C   UNL A   1      32.664  26.830  22.490  1.00  0.00     0.000 C 
ENDBRANCH   8  18
ENDBRANCH   7   8
ENDBRANCH   4   7
ENDBRANCH   2   3
ENDBRANCH   1   2
BRANCH   1  24
ATOM     24  C   UNL A   1      31.834  28.940  26.150  1.00  0.00     0.023 C 
BRANCH  24  25
ATOM     25  C   UNL A   1      32.905  29.515  27.061  1.00  0.00     0.116 C 
BRANCH  25  26
ATOM     26  N   UNL A   1      32.879  30.971  27.181  1.00  0.00    -0.352 N 
ATOM     27  C   UNL A   1      33.853  31.830  27.645  1.00  0.00     0.251 C 
ATOM     28  H   UNL A   1      32.044  31.402  26.887  1.00  0.00     0.163 HD
ATOM     29  O   UNL A   1      33.620  33.029  27.740  1.00  0.00    -0.269 OA
BRANCH  27  30
ATOM     30  C   UNL A   1      35.152  31.280  28.094  1.00  0.00     0.039 A 
ATOM     31  C   UNL A   1      36.233  32.148  28.265  1.00  0.00     0.014 A 
ATOM     32  C   UNL A   1      35.270  29.936  28.442  1.00  0.00     0.014 A 
ATOM     33  C   UNL A   1      37.389  31.689  28.901  1.00  0.00     0.010 A 
ATOM     34  C   UNL A   1      36.359  29.521  29.193  1.00  0.00     0.010 A 
ATOM     35  C   UNL A   1      37.432  30.391  29.435  1.00  0.00    -0.014 A 
BRANCH  35  36
ATOM     36  C   UNL A   1      38.582  29.904  30.243  1.00  0.00     0.031 A 
ATOM     37  C   UNL A   1      38.762  30.401  31.653  1.00  0.00     0.074 A 
ATOM     38  C   UNL A   1      39.517  29.112  29.680  1.00  0.00     0.049 A 
ATOM     39  N   UNL A   1      39.773  30.249  32.468  1.00  0.00    -0.248 NA
ATOM     40  C   UNL A   1      37.680  31.242  32.190  1.00  0.00     0.031 C 
ATOM     41  C   UNL A   1      39.494  28.615  28.301  1.00  0.00     0.029 A 
ATOM     42  N   UNL A   1      40.676  28.590  30.196  1.00  0.00    -0.354 N 
ATOM     43  C   UNL A   1      39.469  31.014  33.590  1.00  0.00     0.074 A 
ATOM     44  C   UNL A   1      38.223  31.692  33.308  1.00  0.00     0.031 C 
ATOM     45  C   UNL A   1      40.559  27.822  28.099  1.00  0.00     0.029 A 
ATOM     46  C   UNL A   1      41.370  27.796  29.312  1.00  0.00     0.049 A 
ATOM     47  H   UNL A   1      40.983  28.768  31.115  1.00  0.00     0.167 HD
ATOM     48  C   UNL A   1      40.148  31.115  34.760  1.00  0.00     0.034 A 
ATOM     49  C   UNL A   1      42.530  27.128  29.463  1.00  0.00     0.034 A 
ATOM     50  C   UNL A   1      41.360  30.384  35.039  1.00  0.00     0.049 A 
ATOM     51  C   UNL A   1      43.253  27.224  30.781  1.00  0.00     0.074 A 
ATOM     52  C   UNL A   1      42.093  30.338  36.212  1.00  0.00     0.029 A 
ATOM     53  N   UNL A   1      42.012  29.559  34.131  1.00  0.00    -0.354 N 
ATOM     54  N   UNL A   1      42.933  27.915  31.852  1.00  0.00    -0.248 NA
ATOM     55  C   UNL A   1      44.490  26.445  30.914  1.00  0.00     0.031 C 
ATOM     56  C   UNL A   1      43.212  29.524  35.998  1.00  0.00     0.029 A 
ATOM     57  C   UNL A   1      43.146  29.013  34.711  1.00  0.00     0.049 A 
ATOM     58  H   UNL A   1      41.711  29.387  33.210  1.00  0.00     0.167 HD
ATOM     59  C   UNL A   1      43.915  27.628  32.795  1.00  0.00     0.074 A 
ATOM     60  C   UNL A   1      44.829  26.694  32.170  1.00  0.00     0.031 C 
ATOM     61  C   UNL A   1      44.047  28.088  34.065  1.00  0.00     0.034 A 
BRANCH  48  62
ATOM     62  C   UNL A   1      39.590  32.059  35.801  1.00  0.00     0.023 A 
ATOM     63  C   UNL A   1      38.890  31.584  36.925  1.00  0.00     0.031 A 
ATOM     64  C   UNL A   1      39.685  33.451  35.631  1.00  0.00     0.131 A 
ATOM     65  C   UNL A   1      38.209  32.483  37.759  1.00  0.00     0.055 A 
ATOM     66  C   UNL A   1      39.093  34.345  36.527  1.00  0.00     0.041 A 
ATOM     67  F   UNL A   1      40.326  33.970  34.571  1.00  0.00    -0.206 F 
ATOM     68  C   UNL A   1      38.328  33.863  37.585  1.00  0.00     0.022 A 
BRANCH  65  69
ATOM     69  S   UNL A   1      37.012  31.813  38.947  1.00  0.00     0.124 S 
ATOM     70  O   UNL A   1      35.832  32.627  38.663  1.00  0.00    -0.237 OA
ATOM     71  O   UNL A   1      36.930  30.411  38.556  1.00  0.00    -0.237 OA
ATOM     72  O   UNL A   1      37.637  32.067  40.243  1.00  0.00    -0.744 OA
ENDBRANCH  65  69
ENDBRANCH  48  62
BRANCH  49  73
ATOM     73  C   UNL A   1      43.072  26.292  28.356  1.00  0.00     0.023 A 
ATOM     74  C   UNL A   1      44.132  26.760  27.563  1.00  0.00     0.031 A 
ATOM     75  C   UNL A   1      42.527  25.033  28.054  1.00  0.00     0.131 A 
ATOM     76  C   UNL A   1      44.587  25.994  26.479  1.00  0.00     0.055 A 
ATOM     77  C   UNL A   1      43.011  24.254  27.001  1.00  0.00     0.041 A 
ATOM     78  F   UNL A   1      41.520  24.534  28.789  1.00  0.00    -0.206 F 
ATOM     79  C   UNL A   1      44.041  24.740  26.198  1.00  0.00     0.022 A 
BRANCH  76  80
ATOM     80  S   UNL A   1      45.863  26.694  25.397  1.00  0.00     0.124 S 
ATOM     81  O   UNL A   1      46.204  25.550  24.559  1.00  0.00    -0.237 OA
ATOM     82  O   UNL A   1      45.141  27.779  24.740  1.00  0.00    -0.237 OA
ATOM     83  O   UNL A   1      46.905  27.118  26.330  1.00  0.00    -0.744 OA
ENDBRANCH  76  80
ENDBRANCH  49  73
BRANCH  61  84
ATOM     84  C   UNL A   1      45.199  27.542  34.868  1.00  0.00     0.023 A 
ATOM     85  C   UNL A   1      45.079  26.363  35.623  1.00  0.00     0.031 A 
ATOM     86  C   UNL A   1      46.428  28.223  34.886  1.00  0.00     0.131 A 
ATOM     87  C   UNL A   1      46.156  25.927  36.408  1.00  0.00     0.055 A 
ATOM     88  C   UNL A   1      47.514  27.755  35.626  1.00  0.00     0.041 A 
ATOM     89  F   UNL A   1      46.593  29.355  34.182  1.00  0.00    -0.206 F 
ATOM     90  C   UNL A   1      47.378  26.607  36.403  1.00  0.00     0.022 A 
BRANCH  87  91
ATOM     91  S   UNL A   1      45.914  24.502  37.502  1.00  0.00     0.124 S 
ATOM     92  O   UNL A   1      45.634  23.432  36.549  1.00  0.00    -0.237 OA
ATOM     93  O   UNL A   1      47.195  24.418  38.196  1.00  0.00    -0.237 OA
ATOM     94  O   UNL A   1      44.782  24.900  38.338  1.00  0.00    -0.744 OA
ENDBRANCH  87  91
ENDBRANCH  61  84
ENDBRANCH  35  36
ENDBRANCH  27  30
ENDBRANCH  25  26
ENDBRANCH  24  25
ENDBRANCH   1  24
TORSDOF 18
ENDMDL
MODEL 3
REMARK VINA RESULT:     -11.3      5.465     10.687
REMARK SMILES COc1ccc([C@@H](CC(=O)NCCCCNC(=O)c2ccc(-c3c4nc(c(-c5cc(S(=O)(=O)[O-])ccc5F)c5ccc([nH]5)c(-c5cc(S(=O)(=O)[O-])ccc5F)c5nc(c(-c6cc(S(=O)(=O)[O-])ccc6F)c6ccc3[nH]6)C=C5)C=C4)cc2)C2CCCCC2)cc1Cl
REMARK SMILES IDX 13 1 12 2 11 3 9 4 10 5 8 7 7 8 6 9 3 10 4 11 89 12 5 13
REMARK SMILES IDX 88 14 90 15 2 16 1 17 82 18 83 19 87 20 84 21 86 22 85 23
REMARK SMILES IDX 14 24 15 25 16 26 17 27 18 29 19 30 20 31 81 32 21 33 80 34
REMARK SMILES IDX 22 35 23 36 24 37 74 38 25 39 79 40 73 41 75 42 26 43 78 44
REMARK SMILES IDX 72 45 71 46 27 48 59 49 39 50 58 51 40 52 43 53 57 54 76 55
REMARK SMILES IDX 41 56 42 57 56 59 77 60 44 61 28 62 29 63 37 64 30 65 36 66
REMARK SMILES IDX 38 67 35 68 31 69 32 70 33 71 34 72 60 73 61 74 69 75 62 76
REMARK SMILES IDX 68 77 70 78 67 79 63 80 64 81 65 82 66 83 45 84 46 85 54 86
REMARK SMILES IDX 47 87 53 88 55 89 52 90 48 91 49 92 50 93 51 94
REMARK H PARENT 11 6 16 28 75 47 43 58
REMARK Flexibility Score: inf
ROOT
ATOM      1  C   UNL A   1      39.502  22.741  26.503  1.00  0.00     0.023 C 
ENDROOT
BRANCH   1   2
ATOM      2  C   UNL A   1      38.152  23.391  26.254  1.00  0.00     0.116 C 
BRANCH   2   3
ATOM      3  N   UNL A   1      37.770  23.272  24.861  1.00  0.00    -0.356 N 
ATOM      4  C   UNL A   1      36.838  22.469  24.281  1.00  0.00     0.220 C 
ATOM      5  O   UNL A   1      36.655  22.581  23.065  1.00  0.00    -0.275 OA
ATOM      6  H   UNL A   1      38.259  23.862  24.242  1.00  0.00     0.163 HD
BRANCH   4   7
ATOM      7  C   UNL A   1      35.987  21.509  25.096  1.00  0.00     0.108 C 
BRANCH   7   8
ATOM      8  C   UNL A   1      34.667  20.905  24.522  1.00  0.00     0.032 C 
BRANCH   8   9
ATOM      9  C   UNL A   1      33.560  21.954  24.324  1.00  0.00    -0.042 A 
ATOM     10  C   UNL A   1      31.454  23.886  24.117  1.00  0.00     0.137 A 
ATOM     11  C   UNL A   1      31.835  23.119  23.019  1.00  0.00     0.048 A 
ATOM     12  C   UNL A   1      32.159  23.705  25.315  1.00  0.00     0.083 A 
ATOM     13  C   UNL A   1      32.884  22.189  23.119  1.00  0.00     0.008 A 
ATOM     14  C   UNL A   1      33.195  22.766  25.413  1.00  0.00     0.028 A 
ATOM     15  Cl  UNL A   1      31.775  24.618  26.736  1.00  0.00    -0.080 Cl
BRANCH  10  16
ATOM     16  O   UNL A   1      30.442  24.799  24.141  1.00  0.00    -0.495 OA
ATOM     17  C   UNL A   1      30.549  26.035  23.449  1.00  0.00     0.278 C 
ENDBRANCH  10  16
ENDBRANCH   8   9
BRANCH   8  18
ATOM     18  C   UNL A   1      34.288  19.464  25.039  1.00  0.00    -0.003 C 
ATOM     19  C   UNL A   1      32.788  19.107  25.013  1.00  0.00     0.004 C 
ATOM     20  C   UNL A   1      35.190  18.389  24.372  1.00  0.00     0.004 C 
ATOM     21  C   UNL A   1      32.490  17.639  25.303  1.00  0.00     0.000 C 
ATOM     22  C   UNL A   1      34.784  16.947  24.653  1.00  0.00     0.000 C 
ATOM     23  C   UNL A   1      33.301  16.726  24.404  1.00  0.00     0.000 C 
ENDBRANCH   8  18
ENDBRANCH   7   8
ENDBRANCH   4   7
ENDBRANCH   2   3
ENDBRANCH   1   2
BRANCH   1  24
ATOM     24  C   UNL A   1      39.650  21.289  26.094  1.00  0.00     0.023 C 
BRANCH  24  25
ATOM     25  C   UNL A   1      40.659  20.509  26.919  1.00  0.00     0.116 C 
BRANCH  25  26
ATOM     26  N   UNL A   1      41.572  19.681  26.136  1.00  0.00    -0.352 N 
ATOM     27  C   UNL A   1      42.799  20.000  25.592  1.00  0.00     0.251 C 
ATOM     28  H   UNL A   1      41.267  18.759  25.972  1.00  0.00     0.163 HD
ATOM     29  O   UNL A   1      43.392  19.186  24.895  1.00  0.00    -0.269 OA
BRANCH  27  30
ATOM     30  C   UNL A   1      43.353  21.357  25.796  1.00  0.00     0.039 A 
ATOM     31  C   UNL A   1      43.152  22.327  24.812  1.00  0.00     0.014 A 
ATOM     32  C   UNL A   1      43.974  21.695  26.997  1.00  0.00     0.014 A 
ATOM     33  C   UNL A   1      43.464  23.661  25.087  1.00  0.00     0.010 A 
ATOM     34  C   UNL A   1      44.155  23.032  27.317  1.00  0.00     0.010 A 
ATOM     35  C   UNL A   1      43.901  24.033  26.368  1.00  0.00    -0.014 A 
BRANCH  35  36
ATOM     36  C   UNL A   1      44.111  25.455  26.752  1.00  0.00     0.031 A 
ATOM     37  C   UNL A   1      45.486  26.059  26.638  1.00  0.00     0.074 A 
ATOM     38  C   UNL A   1      43.104  26.162  27.301  1.00  0.00     0.049 A 
ATOM     39  N   UNL A   1      45.930  27.209  27.075  1.00  0.00    -0.248 NA
ATOM     40  C   UNL A   1      46.516  25.220  26.005  1.00  0.00     0.031 C 
ATOM     41  C   UNL A   1      41.741  25.671  27.528  1.00  0.00     0.029 A 
ATOM     42  N   UNL A   1      43.070  27.448  27.778  1.00  0.00    -0.354 N 
ATOM     43  C   UNL A   1      47.296  27.208  26.813  1.00  0.00     0.074 A 
ATOM     44  C   UNL A   1      47.614  25.909  26.260  1.00  0.00     0.031 C 
ATOM     45  C   UNL A   1      40.997  26.658  28.052  1.00  0.00     0.029 A 
ATOM     46  C   UNL A   1      41.837  27.834  28.250  1.00  0.00     0.049 A 
ATOM     47  H   UNL A   1      43.857  28.041  27.783  1.00  0.00     0.167 HD
ATOM     48  C   UNL A   1      48.196  28.208  26.985  1.00  0.00     0.034 A 
ATOM     49  C   UNL A   1      41.432  29.002  28.786  1.00  0.00     0.034 A 
ATOM     50  C   UNL A   1      47.844  29.514  27.484  1.00  0.00     0.049 A 
ATOM     51  C   UNL A   1      42.438  30.114  28.938  1.00  0.00     0.074 A 
ATOM     52  C   UNL A   1      48.645  30.633  27.625  1.00  0.00     0.029 A 
ATOM     53  N   UNL A   1      46.574  29.878  27.917  1.00  0.00    -0.354 N 
ATOM     54  N   UNL A   1      43.718  30.117  28.645  1.00  0.00    -0.248 NA
ATOM     55  C   UNL A   1      41.941  31.382  29.487  1.00  0.00     0.031 C 
ATOM     56  C   UNL A   1      47.874  31.657  28.187  1.00  0.00     0.029 A 
ATOM     57  C   UNL A   1      46.575  31.198  28.340  1.00  0.00     0.049 A 
ATOM     58  H   UNL A   1      45.789  29.286  27.921  1.00  0.00     0.167 HD
ATOM     59  C   UNL A   1      44.172  31.397  28.946  1.00  0.00     0.074 A 
ATOM     60  C   UNL A   1      43.027  32.140  29.431  1.00  0.00     0.031 C 
ATOM     61  C   UNL A   1      45.421  31.916  28.826  1.00  0.00     0.034 A 
BRANCH  48  62
ATOM     62  C   UNL A   1      49.636  27.905  26.639  1.00  0.00     0.023 A 
ATOM     63  C   UNL A   1      50.141  28.112  25.341  1.00  0.00     0.031 A 
ATOM     64  C   UNL A   1      50.497  27.328  27.589  1.00  0.00     0.131 A 
ATOM     65  C   UNL A   1      51.413  27.633  24.998  1.00  0.00     0.055 A 
ATOM     66  C   UNL A   1      51.802  26.949  27.267  1.00  0.00     0.041 A 
ATOM     67  F   UNL A   1      50.073  27.090  28.841  1.00  0.00    -0.206 F 
ATOM     68  C   UNL A   1      52.259  27.077  25.959  1.00  0.00     0.022 A 
BRANCH  65  69
ATOM     69  S   UNL A   1      51.860  27.567  23.240  1.00  0.00     0.124 S 
ATOM     70  O   UNL A   1      52.115  28.977  22.951  1.00  0.00    -0.237 OA
ATOM     71  O   UNL A   1      53.028  26.694  23.244  1.00  0.00    -0.237 OA
ATOM     72  O   UNL A   1      50.667  27.014  22.604  1.00  0.00    -0.744 OA
ENDBRANCH  65  69
ENDBRANCH  48  62
BRANCH  49  73
ATOM     73  C   UNL A   1      40.014  29.197  29.196  1.00  0.00     0.023 A 
ATOM     74  C   UNL A   1      39.655  29.175  30.554  1.00  0.00     0.031 A 
ATOM     75  C   UNL A   1      38.994  29.377  28.247  1.00  0.00     0.131 A 
ATOM     76  C   UNL A   1      38.306  29.288  30.924  1.00  0.00     0.055 A 
ATOM     77  C   UNL A   1      37.658  29.532  28.622  1.00  0.00     0.041 A 
ATOM     78  F   UNL A   1      39.285  29.416  26.937  1.00  0.00    -0.206 F 
ATOM     79  C   UNL A   1      37.306  29.477  29.969  1.00  0.00     0.022 A 
BRANCH  76  80
ATOM     80  S   UNL A   1      37.871  29.118  32.677  1.00  0.00     0.124 S 
ATOM     81  O   UNL A   1      37.767  27.670  32.819  1.00  0.00    -0.237 OA
ATOM     82  O   UNL A   1      39.011  29.748  33.334  1.00  0.00    -0.237 OA
ATOM     83  O   UNL A   1      36.610  29.849  32.786  1.00  0.00    -0.744 OA
ENDBRANCH  76  80
ENDBRANCH  49  73
BRANCH  61  84
ATOM     84  C   UNL A   1      45.588  33.370  29.184  1.00  0.00     0.023 A 
ATOM     85  C   UNL A   1      45.192  34.395  28.309  1.00  0.00     0.031 A 
ATOM     86  C   UNL A   1      46.166  33.729  30.414  1.00  0.00     0.131 A 
ATOM     87  C   UNL A   1      45.427  35.735  28.654  1.00  0.00     0.055 A 
ATOM     88  C   UNL A   1      46.347  35.064  30.775  1.00  0.00     0.041 A 
ATOM     89  F   UNL A   1      46.561  32.787  31.284  1.00  0.00    -0.206 F 
ATOM     90  C   UNL A   1      45.988  36.076  29.888  1.00  0.00     0.022 A 
BRANCH  87  91
ATOM     91  S   UNL A   1      45.063  37.024  27.433  1.00  0.00     0.124 S 
ATOM     92  O   UNL A   1      44.807  38.183  28.282  1.00  0.00    -0.237 OA
ATOM     93  O   UNL A   1      46.293  37.069  26.648  1.00  0.00    -0.237 OA
ATOM     94  O   UNL A   1      43.895  36.504  26.723  1.00  0.00    -0.744 OA
ENDBRANCH  87  91
ENDBRANCH  61  84
ENDBRANCH  35  36
ENDBRANCH  27  30
ENDBRANCH  25  26
ENDBRANCH  24  25
ENDBRANCH   1  24
TORSDOF 18
ENDMDL
