MODEL 1
REMARK VINA RESULT:     -10.9      0.000      0.000
REMARK SMILES CC(C)CCOc1ccccc1-c1cc(C(=O)NCCCCNC(=O)c2ccc(-c3c4nc(c(-c5cc(S(=O)(=O)[O-])ccc5F)c5ccc([nH]5)c(-c5cc(S(=O)(=O)[O-])ccc5F)c5nc(c(-c6cc(S(=O)(=O)[O-])ccc6F)c6ccc3[nH]6)C=C5)C=C4)cc2)no1
REMARK SMILES IDX 19 1 18 2 16 3 17 4 15 6 13 7 14 8 90 9 89 10 12 11 7 12
REMARK SMILES IDX 8 13 9 14 11 15 10 16 6 17 5 18 4 19 2 20 1 21 3 22 20 23
REMARK SMILES IDX 21 24 22 25 23 26 24 27 25 29 26 30 27 31 88 32 28 33 87 34
REMARK SMILES IDX 29 35 30 36 31 37 81 38 32 39 86 40 80 41 82 42 33 43 85 44
REMARK SMILES IDX 79 45 78 46 34 48 66 49 46 50 65 51 47 52 50 53 64 54 83 55
REMARK SMILES IDX 48 56 49 57 63 59 84 60 51 61 35 62 36 63 44 64 37 65 43 66
REMARK SMILES IDX 45 67 42 68 38 69 39 70 40 71 41 72 67 73 68 74 76 75 69 76
REMARK SMILES IDX 75 77 77 78 74 79 70 80 71 81 72 82 73 83 52 84 53 85 61 86
REMARK SMILES IDX 54 87 60 88 62 89 59 90 55 91 56 92 57 93 58 94
REMARK H PARENT 18 5 23 28 82 47 50 58
REMARK Flexibility Score: inf
ROOT
ATOM      1  C   UNL A   1      31.452  27.899  25.460  1.00  0.00     0.116 C 
ENDROOT
BRANCH   1   2
ATOM      2  N   UNL A   1      30.316  27.455  24.670  1.00  0.00    -0.351 N 
ATOM      3  C   UNL A   1      29.654  26.245  24.575  1.00  0.00     0.273 C 
ATOM      4  O   UNL A   1      28.587  26.244  23.960  1.00  0.00    -0.267 OA
ATOM      5  H   UNL A   1      29.943  28.155  24.086  1.00  0.00     0.163 HD
BRANCH   3   6
ATOM      6  C   UNL A   1      30.219  25.009  25.148  1.00  0.00     0.171 A 
ATOM      7  C   UNL A   1      31.383  22.362  25.148  1.00  0.00     0.171 A 
ATOM      8  C   UNL A   1      30.973  23.612  24.201  1.00  0.00     0.088 A 
ATOM      9  O   UNL A   1      30.810  22.768  26.898  1.00  0.00    -0.355 OA
ATOM     10  N   UNL A   1      30.043  24.626  26.786  1.00  0.00    -0.074 NA
BRANCH   7  11
ATOM     11  C   UNL A   1      32.494  21.437  24.996  1.00  0.00     0.062 A 
ATOM     12  C   UNL A   1      33.768  21.865  25.448  1.00  0.00     0.130 A 
ATOM     13  C   UNL A   1      34.855  21.003  25.398  1.00  0.00     0.047 A 
ATOM     14  C   UNL A   1      34.678  19.716  24.891  1.00  0.00     0.004 A 
ATOM     15  C   UNL A   1      32.325  20.155  24.485  1.00  0.00     0.016 A 
ATOM     16  C   UNL A   1      33.426  19.300  24.423  1.00  0.00     0.001 A 
BRANCH  12  17
ATOM     17  O   UNL A   1      34.007  23.169  25.831  1.00  0.00    -0.493 OA
BRANCH  17  18
ATOM     18  C   UNL A   1      34.904  23.896  24.971  1.00  0.00     0.230 C 
BRANCH  18  19
ATOM     19  C   UNL A   1      34.338  25.280  24.567  1.00  0.00     0.044 C 
BRANCH  19  20
ATOM     20  C   UNL A   1      33.557  25.215  23.077  1.00  0.00    -0.014 C 
ATOM     21  C   UNL A   1      33.670  26.920  22.623  1.00  0.00     0.007 C 
ATOM     22  C   UNL A   1      33.294  23.606  21.502  1.00  0.00     0.007 C 
ENDBRANCH  19  20
ENDBRANCH  18  19
ENDBRANCH  17  18
ENDBRANCH  12  17
ENDBRANCH   7  11
ENDBRANCH   3   6
ENDBRANCH   1   2
BRANCH   1  23
ATOM     23  C   UNL A   1      31.785  29.378  25.264  1.00  0.00     0.023 C 
BRANCH  23  24
ATOM     24  C   UNL A   1      33.227  29.743  25.614  1.00  0.00     0.023 C 
BRANCH  24  25
ATOM     25  C   UNL A   1      33.556  29.699  27.103  1.00  0.00     0.116 C 
BRANCH  25  26
ATOM     26  N   UNL A   1      33.536  31.008  27.738  1.00  0.00    -0.352 N 
ATOM     27  C   UNL A   1      34.478  31.555  28.580  1.00  0.00     0.251 C 
ATOM     28  H   UNL A   1      32.753  31.571  27.543  1.00  0.00     0.163 HD
ATOM     29  O   UNL A   1      34.248  32.617  29.151  1.00  0.00    -0.269 OA
BRANCH  27  30
ATOM     30  C   UNL A   1      35.742  30.826  28.817  1.00  0.00     0.039 A 
ATOM     31  C   UNL A   1      36.885  31.218  28.121  1.00  0.00     0.014 A 
ATOM     32  C   UNL A   1      35.810  29.804  29.769  1.00  0.00     0.014 A 
ATOM     33  C   UNL A   1      38.112  30.629  28.432  1.00  0.00     0.010 A 
ATOM     34  C   UNL A   1      37.046  29.286  30.141  1.00  0.00     0.010 A 
ATOM     35  C   UNL A   1      38.213  29.694  29.478  1.00  0.00    -0.014 A 
BRANCH  35  36
ATOM     36  C   UNL A   1      39.539  29.162  29.894  1.00  0.00     0.031 A 
ATOM     37  C   UNL A   1      40.313  29.824  31.002  1.00  0.00     0.074 A 
ATOM     38  C   UNL A   1      40.055  28.097  29.248  1.00  0.00     0.049 A 
ATOM     39  N   UNL A   1      41.479  29.502  31.498  1.00  0.00    -0.248 NA
ATOM     40  C   UNL A   1      39.709  31.016  31.619  1.00  0.00     0.031 C 
ATOM     41  C   UNL A   1      39.417  27.401  28.127  1.00  0.00     0.029 A 
ATOM     42  N   UNL A   1      41.225  27.405  29.441  1.00  0.00    -0.354 N 
ATOM     43  C   UNL A   1      41.751  30.448  32.481  1.00  0.00     0.074 A 
ATOM     44  C   UNL A   1      40.655  31.393  32.465  1.00  0.00     0.031 C 
ATOM     45  C   UNL A   1      40.180  26.359  27.764  1.00  0.00     0.029 A 
ATOM     46  C   UNL A   1      41.390  26.344  28.578  1.00  0.00     0.049 A 
ATOM     47  H   UNL A   1      41.885  27.645  30.130  1.00  0.00     0.167 HD
ATOM     48  C   UNL A   1      42.805  30.508  33.330  1.00  0.00     0.034 A 
ATOM     49  C   UNL A   1      42.407  25.469  28.445  1.00  0.00     0.034 A 
ATOM     50  C   UNL A   1      43.890  29.556  33.330  1.00  0.00     0.049 A 
ATOM     51  C   UNL A   1      43.587  25.587  29.376  1.00  0.00     0.074 A 
ATOM     52  C   UNL A   1      44.977  29.494  34.184  1.00  0.00     0.029 A 
ATOM     53  N   UNL A   1      44.038  28.513  32.424  1.00  0.00    -0.354 N 
ATOM     54  N   UNL A   1      43.792  26.448  30.347  1.00  0.00    -0.248 NA
ATOM     55  C   UNL A   1      44.666  24.607  29.202  1.00  0.00     0.031 C 
ATOM     56  C   UNL A   1      45.829  28.481  33.737  1.00  0.00     0.029 A 
ATOM     57  C   UNL A   1      45.224  27.835  32.669  1.00  0.00     0.049 A 
ATOM     58  H   UNL A   1      43.396  28.287  31.713  1.00  0.00     0.167 HD
ATOM     59  C   UNL A   1      45.012  26.093  30.916  1.00  0.00     0.074 A 
ATOM     60  C   UNL A   1      45.477  24.923  30.200  1.00  0.00     0.031 C 
ATOM     61  C   UNL A   1      45.688  26.680  31.937  1.00  0.00     0.034 A 
BRANCH  48  62
ATOM     62  C   UNL A   1      42.858  31.660  34.307  1.00  0.00     0.023 A 
ATOM     63  C   UNL A   1      42.309  31.565  35.598  1.00  0.00     0.031 A 
ATOM     64  C   UNL A   1      43.474  32.870  33.942  1.00  0.00     0.131 A 
ATOM     65  C   UNL A   1      42.335  32.677  36.453  1.00  0.00     0.055 A 
ATOM     66  C   UNL A   1      43.573  33.943  34.829  1.00  0.00     0.041 A 
ATOM     67  F   UNL A   1      43.990  33.031  32.714  1.00  0.00    -0.206 F 
ATOM     68  C   UNL A   1      42.990  33.856  36.089  1.00  0.00     0.022 A 
BRANCH  65  69
ATOM     69  S   UNL A   1      41.376  32.611  37.991  1.00  0.00     0.124 S 
ATOM     70  O   UNL A   1      41.418  34.005  38.426  1.00  0.00    -0.237 OA
ATOM     71  O   UNL A   1      40.080  32.123  37.534  1.00  0.00    -0.237 OA
ATOM     72  O   UNL A   1      42.134  31.682  38.828  1.00  0.00    -0.744 OA
ENDBRANCH  65  69
ENDBRANCH  48  62
BRANCH  49  73
ATOM     73  C   UNL A   1      42.379  24.424  27.377  1.00  0.00     0.023 A 
ATOM     74  C   UNL A   1      41.736  23.192  27.578  1.00  0.00     0.031 A 
ATOM     75  C   UNL A   1      43.058  24.619  26.161  1.00  0.00     0.131 A 
ATOM     76  C   UNL A   1      41.839  22.182  26.608  1.00  0.00     0.055 A 
ATOM     77  C   UNL A   1      43.095  23.638  25.169  1.00  0.00     0.041 A 
ATOM     78  F   UNL A   1      43.695  25.775  25.915  1.00  0.00    -0.206 F 
ATOM     79  C   UNL A   1      42.498  22.403  25.397  1.00  0.00     0.022 A 
BRANCH  76  80
ATOM     80  S   UNL A   1      41.211  20.526  27.007  1.00  0.00     0.124 S 
ATOM     81  O   UNL A   1      42.372  19.694  26.717  1.00  0.00    -0.237 OA
ATOM     82  O   UNL A   1      40.858  20.669  28.416  1.00  0.00    -0.237 OA
ATOM     83  O   UNL A   1      40.080  20.364  26.097  1.00  0.00    -0.744 OA
ENDBRANCH  76  80
ENDBRANCH  49  73
BRANCH  61  84
ATOM     84  C   UNL A   1      46.987  26.035  32.363  1.00  0.00     0.023 A 
ATOM     85  C   UNL A   1      47.036  25.074  33.389  1.00  0.00     0.031 A 
ATOM     86  C   UNL A   1      48.200  26.410  31.757  1.00  0.00     0.131 A 
ATOM     87  C   UNL A   1      48.273  24.587  33.833  1.00  0.00     0.055 A 
ATOM     88  C   UNL A   1      49.420  25.856  32.145  1.00  0.00     0.041 A 
ATOM     89  F   UNL A   1      48.221  27.329  30.777  1.00  0.00    -0.206 F 
ATOM     90  C   UNL A   1      49.464  24.953  33.202  1.00  0.00     0.022 A 
BRANCH  87  91
ATOM     91  S   UNL A   1      48.316  23.580  35.342  1.00  0.00     0.124 S 
ATOM     92  O   UNL A   1      49.530  24.064  35.991  1.00  0.00    -0.237 OA
ATOM     93  O   UNL A   1      47.059  23.937  35.991  1.00  0.00    -0.237 OA
ATOM     94  O   UNL A   1      48.387  22.210  34.836  1.00  0.00    -0.744 OA
ENDBRANCH  87  91
ENDBRANCH  61  84
ENDBRANCH  35  36
ENDBRANCH  27  30
ENDBRANCH  25  26
ENDBRANCH  24  25
ENDBRANCH  23  24
ENDBRANCH   1  23
TORSDOF 19
ENDMDL
MODEL 2
REMARK VINA RESULT:     -10.5      5.044      9.754
REMARK SMILES CC(C)CCOc1ccccc1-c1cc(C(=O)NCCCCNC(=O)c2ccc(-c3c4nc(c(-c5cc(S(=O)(=O)[O-])ccc5F)c5ccc([nH]5)c(-c5cc(S(=O)(=O)[O-])ccc5F)c5nc(c(-c6cc(S(=O)(=O)[O-])ccc6F)c6ccc3[nH]6)C=C5)C=C4)cc2)no1
REMARK SMILES IDX 19 1 18 2 16 3 17 4 15 6 13 7 14 8 90 9 89 10 12 11 7 12
REMARK SMILES IDX 8 13 9 14 11 15 10 16 6 17 5 18 4 19 2 20 1 21 3 22 20 23
REMARK SMILES IDX 21 24 22 25 23 26 24 27 25 29 26 30 27 31 88 32 28 33 87 34
REMARK SMILES IDX 29 35 30 36 31 37 81 38 32 39 86 40 80 41 82 42 33 43 85 44
REMARK SMILES IDX 79 45 78 46 34 48 66 49 46 50 65 51 47 52 50 53 64 54 83 55
REMARK SMILES IDX 48 56 49 57 63 59 84 60 51 61 35 62 36 63 44 64 37 65 43 66
REMARK SMILES IDX 45 67 42 68 38 69 39 70 40 71 41 72 67 73 68 74 76 75 69 76
REMARK SMILES IDX 75 77 77 78 74 79 70 80 71 81 72 82 73 83 52 84 53 85 61 86
REMARK SMILES IDX 54 87 60 88 62 89 59 90 55 91 56 92 57 93 58 94
REMARK H PARENT 18 5 23 28 82 47 50 58
REMARK Flexibility Score: inf
ROOT
ATOM      1  C   UNL A   1      37.839  23.779  25.977  1.00  0.00     0.116 C 
ENDROOT
BRANCH   1   2
ATOM      2  N   UNL A   1      37.417  23.239  24.695  1.00  0.00    -0.351 N 
ATOM      3  C   UNL A   1      36.260  23.380  23.952  1.00  0.00     0.273 C 
ATOM      4  O   UNL A   1      36.289  22.955  22.797  1.00  0.00    -0.267 OA
ATOM      5  H   UNL A   1      38.089  22.656  24.272  1.00  0.00     0.163 HD
BRANCH   3   6
ATOM      6  C   UNL A   1      35.040  23.975  24.528  1.00  0.00     0.171 A 
ATOM      7  C   UNL A   1      32.805  25.799  24.734  1.00  0.00     0.171 A 
ATOM      8  C   UNL A   1      34.006  25.303  23.764  1.00  0.00     0.088 A 
ATOM      9  O   UNL A   1      32.993  24.889  26.375  1.00  0.00    -0.355 OA
ATOM     10  N   UNL A   1      34.551  23.640  26.113  1.00  0.00    -0.074 NA
BRANCH   7  11
ATOM     11  C   UNL A   1      31.479  26.266  24.366  1.00  0.00     0.062 A 
ATOM     12  C   UNL A   1      31.302  27.663  24.195  1.00  0.00     0.130 A 
ATOM     13  C   UNL A   1      30.079  28.167  23.773  1.00  0.00     0.047 A 
ATOM     14  C   UNL A   1      29.028  27.284  23.528  1.00  0.00     0.004 A 
ATOM     15  C   UNL A   1      30.426  25.391  24.127  1.00  0.00     0.016 A 
ATOM     16  C   UNL A   1      29.195  25.907  23.720  1.00  0.00     0.001 A 
BRANCH  12  17
ATOM     17  O   UNL A   1      32.276  28.572  24.553  1.00  0.00    -0.493 OA
BRANCH  17  18
ATOM     18  C   UNL A   1      31.803  29.917  24.748  1.00  0.00     0.230 C 
BRANCH  18  19
ATOM     19  C   UNL A   1      31.672  30.282  26.249  1.00  0.00     0.044 C 
BRANCH  19  20
ATOM     20  C   UNL A   1      32.702  29.352  27.201  1.00  0.00    -0.014 C 
ATOM     21  C   UNL A   1      31.559  28.109  27.725  1.00  0.00     0.007 C 
ATOM     22  C   UNL A   1      34.933  28.948  27.183  1.00  0.00     0.007 C 
ENDBRANCH  19  20
ENDBRANCH  18  19
ENDBRANCH  17  18
ENDBRANCH  12  17
ENDBRANCH   7  11
ENDBRANCH   3   6
ENDBRANCH   1   2
BRANCH   1  23
ATOM     23  C   UNL A   1      39.110  23.128  26.520  1.00  0.00     0.023 C 
BRANCH  23  24
ATOM     24  C   UNL A   1      39.358  21.714  25.997  1.00  0.00     0.023 C 
BRANCH  24  25
ATOM     25  C   UNL A   1      40.183  20.823  26.921  1.00  0.00     0.116 C 
BRANCH  25  26
ATOM     26  N   UNL A   1      41.112  19.957  26.210  1.00  0.00    -0.352 N 
ATOM     27  C   UNL A   1      42.368  20.267  25.739  1.00  0.00     0.251 C 
ATOM     28  H   UNL A   1      40.805  19.037  26.046  1.00  0.00     0.163 HD
ATOM     29  O   UNL A   1      42.973  19.469  25.031  1.00  0.00    -0.269 OA
BRANCH  27  30
ATOM     30  C   UNL A   1      42.952  21.587  26.060  1.00  0.00     0.039 A 
ATOM     31  C   UNL A   1      42.934  22.586  25.087  1.00  0.00     0.014 A 
ATOM     32  C   UNL A   1      43.457  21.853  27.337  1.00  0.00     0.014 A 
ATOM     33  C   UNL A   1      43.358  23.874  25.419  1.00  0.00     0.010 A 
ATOM     34  C   UNL A   1      43.792  23.156  27.690  1.00  0.00     0.010 A 
ATOM     35  C   UNL A   1      43.745  24.183  26.736  1.00  0.00    -0.014 A 
BRANCH  35  36
ATOM     36  C   UNL A   1      44.075  25.582  27.120  1.00  0.00     0.031 A 
ATOM     37  C   UNL A   1      45.474  26.110  26.947  1.00  0.00     0.074 A 
ATOM     38  C   UNL A   1      43.115  26.365  27.651  1.00  0.00     0.049 A 
ATOM     39  N   UNL A   1      45.945  27.298  27.226  1.00  0.00    -0.248 NA
ATOM     40  C   UNL A   1      46.480  25.177  26.415  1.00  0.00     0.031 C 
ATOM     41  C   UNL A   1      41.734  25.947  27.909  1.00  0.00     0.029 A 
ATOM     42  N   UNL A   1      43.144  27.674  28.063  1.00  0.00    -0.354 N 
ATOM     43  C   UNL A   1      47.298  27.257  26.905  1.00  0.00     0.074 A 
ATOM     44  C   UNL A   1      47.584  25.905  26.472  1.00  0.00     0.031 C 
ATOM     45  C   UNL A   1      41.040  26.990  28.391  1.00  0.00     0.029 A 
ATOM     46  C   UNL A   1      41.935  28.133  28.538  1.00  0.00     0.049 A 
ATOM     47  H   UNL A   1      43.953  28.233  28.024  1.00  0.00     0.167 HD
ATOM     48  C   UNL A   1      48.210  28.258  26.948  1.00  0.00     0.034 A 
ATOM     49  C   UNL A   1      41.588  29.331  29.049  1.00  0.00     0.034 A 
ATOM     50  C   UNL A   1      47.906  29.600  27.384  1.00  0.00     0.049 A 
ATOM     51  C   UNL A   1      42.635  30.414  29.124  1.00  0.00     0.074 A 
ATOM     52  C   UNL A   1      48.742  30.703  27.413  1.00  0.00     0.029 A 
ATOM     53  N   UNL A   1      46.680  30.020  27.884  1.00  0.00    -0.354 N 
ATOM     54  N   UNL A   1      43.894  30.375  28.750  1.00  0.00    -0.248 NA
ATOM     55  C   UNL A   1      42.211  31.705  29.679  1.00  0.00     0.031 C 
ATOM     56  C   UNL A   1      48.056  31.758  28.020  1.00  0.00     0.029 A 
ATOM     57  C   UNL A   1      46.755  31.351  28.270  1.00  0.00     0.049 A 
ATOM     58  H   UNL A   1      45.876  29.456  27.954  1.00  0.00     0.167 HD
ATOM     59  C   UNL A   1      44.402  31.647  28.999  1.00  0.00     0.074 A 
ATOM     60  C   UNL A   1      43.306  32.434  29.524  1.00  0.00     0.031 C 
ATOM     61  C   UNL A   1      45.660  32.123  28.811  1.00  0.00     0.034 A 
BRANCH  48  62
ATOM     62  C   UNL A   1      49.631  27.936  26.547  1.00  0.00     0.023 A 
ATOM     63  C   UNL A   1      50.134  28.252  25.273  1.00  0.00     0.031 A 
ATOM     64  C   UNL A   1      50.498  27.307  27.458  1.00  0.00     0.131 A 
ATOM     65  C   UNL A   1      51.443  27.886  24.927  1.00  0.00     0.055 A 
ATOM     66  C   UNL A   1      51.826  27.024  27.136  1.00  0.00     0.041 A 
ATOM     67  F   UNL A   1      50.067  26.954  28.679  1.00  0.00    -0.206 F 
ATOM     68  C   UNL A   1      52.303  27.303  25.859  1.00  0.00     0.022 A 
BRANCH  65  69
ATOM     69  S   UNL A   1      51.962  28.054  23.196  1.00  0.00     0.124 S 
ATOM     70  O   UNL A   1      50.823  28.759  22.614  1.00  0.00    -0.237 OA
ATOM     71  O   UNL A   1      53.197  28.820  23.310  1.00  0.00    -0.237 OA
ATOM     72  O   UNL A   1      52.122  26.671  22.751  1.00  0.00    -0.744 OA
ENDBRANCH  65  69
ENDBRANCH  48  62
BRANCH  49  73
ATOM     73  C   UNL A   1      40.204  29.571  29.559  1.00  0.00     0.023 A 
ATOM     74  C   UNL A   1      39.925  29.577  30.935  1.00  0.00     0.031 A 
ATOM     75  C   UNL A   1      39.125  29.729  28.670  1.00  0.00     0.131 A 
ATOM     76  C   UNL A   1      38.597  29.673  31.380  1.00  0.00     0.055 A 
ATOM     77  C   UNL A   1      37.815  29.898  29.119  1.00  0.00     0.041 A 
ATOM     78  F   UNL A   1      39.331  29.725  27.343  1.00  0.00    -0.206 F 
ATOM     79  C   UNL A   1      37.542  29.853  30.482  1.00  0.00     0.022 A 
BRANCH  76  80
ATOM     80  S   UNL A   1      38.251  29.429  33.145  1.00  0.00     0.124 S 
ATOM     81  O   UNL A   1      37.326  28.303  33.109  1.00  0.00    -0.237 OA
ATOM     82  O   UNL A   1      39.581  29.152  33.677  1.00  0.00    -0.237 OA
ATOM     83  O   UNL A   1      37.670  30.704  33.557  1.00  0.00    -0.744 OA
ENDBRANCH  76  80
ENDBRANCH  49  73
BRANCH  61  84
ATOM     84  C   UNL A   1      45.902  33.577  29.143  1.00  0.00     0.023 A 
ATOM     85  C   UNL A   1      46.352  33.983  30.412  1.00  0.00     0.031 A 
ATOM     86  C   UNL A   1      45.646  34.577  28.186  1.00  0.00     0.131 A 
ATOM     87  C   UNL A   1      46.452  35.349  30.716  1.00  0.00     0.055 A 
ATOM     88  C   UNL A   1      45.832  35.931  28.467  1.00  0.00     0.041 A 
ATOM     89  F   UNL A   1      45.208  34.253  26.958  1.00  0.00    -0.206 F 
ATOM     90  C   UNL A   1      46.218  36.325  29.745  1.00  0.00     0.022 A 
BRANCH  87  91
ATOM     91  S   UNL A   1      46.749  35.833  32.438  1.00  0.00     0.124 S 
ATOM     92  O   UNL A   1      46.147  34.724  33.170  1.00  0.00    -0.237 OA
ATOM     93  O   UNL A   1      48.205  35.917  32.491  1.00  0.00    -0.237 OA
ATOM     94  O   UNL A   1      46.048  37.110  32.560  1.00  0.00    -0.744 OA
ENDBRANCH  87  91
ENDBRANCH  61  84
ENDBRANCH  35  36
ENDBRANCH  27  30
ENDBRANCH  25  26
ENDBRANCH  24  25
ENDBRANCH  23  24
ENDBRANCH   1  23
TORSDOF 19
ENDMDL
MODEL 3
REMARK VINA RESULT:     -10.5      5.463      8.610
REMARK SMILES CC(C)CCOc1ccccc1-c1cc(C(=O)NCCCCNC(=O)c2ccc(-c3c4nc(c(-c5cc(S(=O)(=O)[O-])ccc5F)c5ccc([nH]5)c(-c5cc(S(=O)(=O)[O-])ccc5F)c5nc(c(-c6cc(S(=O)(=O)[O-])ccc6F)c6ccc3[nH]6)C=C5)C=C4)cc2)no1
REMARK SMILES IDX 19 1 18 2 16 3 17 4 15 6 13 7 14 8 90 9 89 10 12 11 7 12
REMARK SMILES IDX 8 13 9 14 11 15 10 16 6 17 5 18 4 19 2 20 1 21 3 22 20 23
REMARK SMILES IDX 21 24 22 25 23 26 24 27 25 29 26 30 27 31 88 32 28 33 87 34
REMARK SMILES IDX 29 35 30 36 31 37 81 38 32 39 86 40 80 41 82 42 33 43 85 44
REMARK SMILES IDX 79 45 78 46 34 48 66 49 46 50 65 51 47 52 50 53 64 54 83 55
REMARK SMILES IDX 48 56 49 57 63 59 84 60 51 61 35 62 36 63 44 64 37 65 43 66
REMARK SMILES IDX 45 67 42 68 38 69 39 70 40 71 41 72 67 73 68 74 76 75 69 76
REMARK SMILES IDX 75 77 77 78 74 79 70 80 71 81 72 82 73 83 52 84 53 85 61 86
REMARK SMILES IDX 54 87 60 88 62 89 59 90 55 91 56 92 57 93 58 94
REMARK H PARENT 18 5 23 28 82 47 50 58
REMARK Flexibility Score: inf
ROOT
ATOM      1  C   UNL A   1      37.171  23.760  26.009  1.00  0.00     0.116 C 
ENDROOT
BRANCH   1   2
ATOM      2  N   UNL A   1      36.272  22.630  26.170  1.00  0.00    -0.351 N 
ATOM      3  C   UNL A   1      35.139  22.226  25.488  1.00  0.00     0.273 C 
ATOM      4  O   UNL A   1      34.713  21.099  25.740  1.00  0.00    -0.267 OA
ATOM      5  H   UNL A   1      36.518  22.032  26.914  1.00  0.00     0.163 HD
BRANCH   3   6
ATOM      6  C   UNL A   1      34.453  23.119  24.536  1.00  0.00     0.171 A 
ATOM      7  C   UNL A   1      32.332  24.795  23.509  1.00  0.00     0.171 A 
ATOM      8  C   UNL A   1      32.848  23.992  24.819  1.00  0.00     0.088 A 
ATOM      9  O   UNL A   1      33.541  24.428  22.109  1.00  0.00    -0.355 OA
ATOM     10  N   UNL A   1      34.976  23.283  22.936  1.00  0.00    -0.074 NA
BRANCH   7  11
ATOM     11  C   UNL A   1      31.580  26.037  23.447  1.00  0.00     0.062 A 
ATOM     12  C   UNL A   1      32.312  27.237  23.258  1.00  0.00     0.130 A 
ATOM     13  C   UNL A   1      31.648  28.448  23.118  1.00  0.00     0.047 A 
ATOM     14  C   UNL A   1      30.255  28.469  23.172  1.00  0.00     0.004 A 
ATOM     15  C   UNL A   1      30.191  26.065  23.508  1.00  0.00     0.016 A 
ATOM     16  C   UNL A   1      29.532  27.288  23.382  1.00  0.00     0.001 A 
BRANCH  12  17
ATOM     17  O   UNL A   1      33.690  27.271  23.331  1.00  0.00    -0.493 OA
BRANCH  17  18
ATOM     18  C   UNL A   1      34.220  28.169  24.323  1.00  0.00     0.230 C 
BRANCH  18  19
ATOM     19  C   UNL A   1      33.841  27.742  25.764  1.00  0.00     0.044 C 
BRANCH  19  20
ATOM     20  C   UNL A   1      32.689  28.774  26.429  1.00  0.00    -0.014 C 
ATOM     21  C   UNL A   1      31.597  27.569  27.124  1.00  0.00     0.007 C 
ATOM     22  C   UNL A   1      32.744  30.895  27.230  1.00  0.00     0.007 C 
ENDBRANCH  19  20
ENDBRANCH  18  19
ENDBRANCH  17  18
ENDBRANCH  12  17
ENDBRANCH   7  11
ENDBRANCH   3   6
ENDBRANCH   1   2
BRANCH   1  23
ATOM     23  C   UNL A   1      38.647  23.383  26.135  1.00  0.00     0.023 C 
BRANCH  23  24
ATOM     24  C   UNL A   1      38.886  21.926  26.529  1.00  0.00     0.023 C 
BRANCH  24  25
ATOM     25  C   UNL A   1      39.290  21.008  25.379  1.00  0.00     0.116 C 
BRANCH  25  26
ATOM     26  N   UNL A   1      40.049  19.844  25.809  1.00  0.00    -0.352 N 
ATOM     27  C   UNL A   1      41.335  19.804  26.299  1.00  0.00     0.251 C 
ATOM     28  H   UNL A   1      39.587  18.977  25.741  1.00  0.00     0.163 HD
ATOM     29  O   UNL A   1      41.889  18.725  26.485  1.00  0.00    -0.269 OA
BRANCH  27  30
ATOM     30  C   UNL A   1      42.047  21.075  26.555  1.00  0.00     0.039 A 
ATOM     31  C   UNL A   1      42.396  21.881  25.472  1.00  0.00     0.014 A 
ATOM     32  C   UNL A   1      42.312  21.494  27.863  1.00  0.00     0.014 A 
ATOM     33  C   UNL A   1      42.947  23.142  25.706  1.00  0.00     0.010 A 
ATOM     34  C   UNL A   1      42.775  22.786  28.094  1.00  0.00     0.010 A 
ATOM     35  C   UNL A   1      43.096  23.626  27.018  1.00  0.00    -0.014 A 
BRANCH  35  36
ATOM     36  C   UNL A   1      43.564  25.017  27.264  1.00  0.00     0.031 A 
ATOM     37  C   UNL A   1      42.615  26.058  27.794  1.00  0.00     0.074 A 
ATOM     38  C   UNL A   1      44.840  25.344  26.980  1.00  0.00     0.049 A 
ATOM     39  N   UNL A   1      42.843  27.316  28.068  1.00  0.00    -0.248 NA
ATOM     40  C   UNL A   1      41.223  25.639  28.025  1.00  0.00     0.031 C 
ATOM     41  C   UNL A   1      45.839  24.430  26.417  1.00  0.00     0.029 A 
ATOM     42  N   UNL A   1      45.524  26.525  27.129  1.00  0.00    -0.354 N 
ATOM     43  C   UNL A   1      41.630  27.839  28.501  1.00  0.00     0.074 A 
ATOM     44  C   UNL A   1      40.654  26.776  28.391  1.00  0.00     0.031 C 
ATOM     45  C   UNL A   1      47.013  25.071  26.313  1.00  0.00     0.029 A 
ATOM     46  C   UNL A   1      46.843  26.456  26.738  1.00  0.00     0.049 A 
ATOM     47  H   UNL A   1      45.110  27.345  27.481  1.00  0.00     0.167 HD
ATOM     48  C   UNL A   1      41.361  29.082  28.967  1.00  0.00     0.034 A 
ATOM     49  C   UNL A   1      47.802  27.402  26.710  1.00  0.00     0.034 A 
ATOM     50  C   UNL A   1      42.348  30.131  29.069  1.00  0.00     0.049 A 
ATOM     51  C   UNL A   1      47.463  28.789  27.194  1.00  0.00     0.074 A 
ATOM     52  C   UNL A   1      42.193  31.409  29.579  1.00  0.00     0.029 A 
ATOM     53  N   UNL A   1      43.665  30.033  28.638  1.00  0.00    -0.354 N 
ATOM     54  N   UNL A   1      46.324  29.245  27.666  1.00  0.00    -0.248 NA
ATOM     55  C   UNL A   1      48.540  29.786  27.154  1.00  0.00     0.031 C 
ATOM     56  C   UNL A   1      43.382  32.112  29.366  1.00  0.00     0.029 A 
ATOM     57  C   UNL A   1      44.317  31.244  28.824  1.00  0.00     0.049 A 
ATOM     58  H   UNL A   1      44.075  29.224  28.256  1.00  0.00     0.167 HD
ATOM     59  C   UNL A   1      46.561  30.575  28.005  1.00  0.00     0.074 A 
ATOM     60  C   UNL A   1      47.955  30.834  27.712  1.00  0.00     0.031 C 
ATOM     61  C   UNL A   1      45.704  31.499  28.511  1.00  0.00     0.034 A 
BRANCH  48  62
ATOM     62  C   UNL A   1      39.938  29.393  29.369  1.00  0.00     0.023 A 
ATOM     63  C   UNL A   1      39.543  29.456  30.718  1.00  0.00     0.031 A 
ATOM     64  C   UNL A   1      38.961  29.635  28.387  1.00  0.00     0.131 A 
ATOM     65  C   UNL A   1      38.199  29.695  31.043  1.00  0.00     0.055 A 
ATOM     66  C   UNL A   1      37.645  29.958  28.720  1.00  0.00     0.041 A 
ATOM     67  F   UNL A   1      39.270  29.560  27.083  1.00  0.00    -0.206 F 
ATOM     68  C   UNL A   1      37.253  29.977  30.055  1.00  0.00     0.022 A 
BRANCH  65  69
ATOM     69  S   UNL A   1      37.676  29.491  32.768  1.00  0.00     0.124 S 
ATOM     70  O   UNL A   1      37.564  28.038  32.872  1.00  0.00    -0.237 OA
ATOM     71  O   UNL A   1      38.775  30.102  33.506  1.00  0.00    -0.237 OA
ATOM     72  O   UNL A   1      36.406  30.212  32.828  1.00  0.00    -0.744 OA
ENDBRANCH  65  69
ENDBRANCH  48  62
BRANCH  49  73
ATOM     73  C   UNL A   1      49.164  27.092  26.179  1.00  0.00     0.023 A 
ATOM     74  C   UNL A   1      49.556  27.497  24.893  1.00  0.00     0.031 A 
ATOM     75  C   UNL A   1      50.072  26.321  26.929  1.00  0.00     0.131 A 
ATOM     76  C   UNL A   1      50.791  27.078  24.373  1.00  0.00     0.055 A 
ATOM     77  C   UNL A   1      51.328  25.969  26.435  1.00  0.00     0.041 A 
ATOM     78  F   UNL A   1      49.749  25.901  28.163  1.00  0.00    -0.206 F 
ATOM     79  C   UNL A   1      51.688  26.333  25.142  1.00  0.00     0.022 A 
BRANCH  76  80
ATOM     80  S   UNL A   1      51.156  27.409  22.626  1.00  0.00     0.124 S 
ATOM     81  O   UNL A   1      52.469  26.794  22.478  1.00  0.00    -0.237 OA
ATOM     82  O   UNL A   1      50.051  26.734  21.954  1.00  0.00    -0.237 OA
ATOM     83  O   UNL A   1      51.134  28.868  22.545  1.00  0.00    -0.744 OA
ENDBRANCH  76  80
ENDBRANCH  49  73
BRANCH  61  84
ATOM     84  C   UNL A   1      46.270  32.867  28.817  1.00  0.00     0.023 A 
ATOM     85  C   UNL A   1      46.354  33.870  27.835  1.00  0.00     0.031 A 
ATOM     86  C   UNL A   1      46.763  33.162  30.101  1.00  0.00     0.131 A 
ATOM     87  C   UNL A   1      46.992  35.084  28.127  1.00  0.00     0.055 A 
ATOM     88  C   UNL A   1      47.318  34.405  30.409  1.00  0.00     0.041 A 
ATOM     89  F   UNL A   1      46.718  32.243  31.080  1.00  0.00    -0.206 F 
ATOM     90  C   UNL A   1      47.453  35.367  29.414  1.00  0.00     0.022 A 
BRANCH  87  91
ATOM     91  S   UNL A   1      47.341  36.229  26.764  1.00  0.00     0.124 S 
ATOM     92  O   UNL A   1      48.592  35.695  26.236  1.00  0.00    -0.237 OA
ATOM     93  O   UNL A   1      46.168  36.066  25.912  1.00  0.00    -0.237 OA
ATOM     94  O   UNL A   1      47.451  37.527  27.428  1.00  0.00    -0.744 OA
ENDBRANCH  87  91
ENDBRANCH  61  84
ENDBRANCH  35  36
ENDBRANCH  27  30
ENDBRANCH  25  26
ENDBRANCH  24  25
ENDBRANCH  23  24
ENDBRANCH   1  23
TORSDOF 19
ENDMDL
