MODEL 1
REMARK VINA RESULT:     -12.1      0.000      0.000
REMARK SMILES COc1cccc(-c2ccc(=O)n(CC(=O)N[C@@H](C(=O)NCCCCNC(=O)c3ccc(-c4c5nc(c(-c6cc(S(=O)(=O)[O-])ccc6F)c6ccc([nH]6)c(-c6cc(S(=O)(=O)[O-])ccc6F)c6nc(c(-c7cc(S(=O)(=O)[O-])ccc7F)c7ccc4[nH]7)C=C6)C=C5)cc3)C(C)C)n2)c1
REMARK SMILES IDX 22 1 21 2 19 3 20 4 18 6 17 7 15 8 16 9 14 11 13 12 8 13
REMARK SMILES IDX 9 14 95 15 10 16 11 17 12 18 7 19 3 20 4 21 96 22 5 23 6 24
REMARK SMILES IDX 2 25 1 26 92 27 93 28 94 29 23 30 24 31 25 32 26 33 27 34
REMARK SMILES IDX 28 36 29 37 30 38 91 39 31 40 90 41 32 42 33 43 34 44 84 45
REMARK SMILES IDX 35 46 89 47 83 48 85 49 36 50 88 51 82 52 81 53 37 55 69 56
REMARK SMILES IDX 49 57 68 58 50 59 53 60 67 61 86 62 51 63 52 64 66 66 87 67
REMARK SMILES IDX 54 68 38 69 39 70 47 71 40 72 46 73 48 74 45 75 41 76 42 77
REMARK SMILES IDX 43 78 44 79 70 80 71 81 79 82 72 83 78 84 80 85 77 86 73 87
REMARK SMILES IDX 74 88 75 89 76 90 55 91 56 92 64 93 57 94 63 95 65 96 62 97
REMARK SMILES IDX 58 98 59 99 60 100 61 101
REMARK H PARENT 21 5 17 10 26 35 85 54 53 65
REMARK Flexibility Score: inf
ROOT
ATOM      1  C   UNL A   1      32.276  28.076  26.396  1.00  0.00     0.116 C 
ENDROOT
BRANCH   1   2
ATOM      2  N   UNL A   1      31.174  27.144  26.455  1.00  0.00    -0.354 N 
ATOM      3  C   UNL A   1      30.494  26.560  25.419  1.00  0.00     0.242 C 
ATOM      4  O   UNL A   1      29.690  25.672  25.716  1.00  0.00    -0.273 OA
ATOM      5  H   UNL A   1      30.873  26.896  27.358  1.00  0.00     0.163 HD
BRANCH   3   6
ATOM      6  C   UNL A   1      30.808  26.946  23.936  1.00  0.00     0.173 C 
BRANCH   6   7
ATOM      7  N   UNL A   1      32.177  26.521  23.618  1.00  0.00    -0.342 N 
ATOM      8  C   UNL A   1      32.707  25.277  23.419  1.00  0.00     0.242 C 
ATOM      9  O   UNL A   1      33.886  25.238  23.051  1.00  0.00    -0.273 OA
ATOM     10  H   UNL A   1      32.824  27.258  23.534  1.00  0.00     0.164 HD
BRANCH   8  11
ATOM     11  C   UNL A   1      31.869  23.991  23.502  1.00  0.00     0.248 C 
BRANCH  11  12
ATOM     12  N   UNL A   1      32.344  22.980  24.444  1.00  0.00    -0.220 N 
ATOM     13  C   UNL A   1      32.800  20.772  24.810  1.00  0.00     0.091 A 
ATOM     14  C   UNL A   1      33.211  21.006  26.205  1.00  0.00     0.036 A 
ATOM     15  N   UNL A   1      32.399  21.682  23.982  1.00  0.00    -0.169 NA
ATOM     16  C   UNL A   1      33.230  22.279  26.605  1.00  0.00     0.075 A 
ATOM     17  C   UNL A   1      32.796  23.370  25.701  1.00  0.00     0.267 A 
ATOM     18  O   UNL A   1      32.794  24.522  26.120  1.00  0.00    -0.268 OA
BRANCH  13  19
ATOM     19  C   UNL A   1      32.919  19.385  24.342  1.00  0.00     0.006 A 
ATOM     20  C   UNL A   1      33.594  17.126  24.827  1.00  0.00     0.119 A 
ATOM     21  C   UNL A   1      33.240  16.763  23.524  1.00  0.00     0.046 A 
ATOM     22  C   UNL A   1      33.453  18.450  25.232  1.00  0.00     0.056 A 
ATOM     23  C   UNL A   1      32.712  17.708  22.637  1.00  0.00     0.005 A 
ATOM     24  C   UNL A   1      32.547  19.030  23.046  1.00  0.00     0.011 A 
BRANCH  20  25
ATOM     25  O   UNL A   1      34.100  16.126  25.611  1.00  0.00    -0.497 OA
ATOM     26  C   UNL A   1      35.462  15.792  25.354  1.00  0.00     0.278 C 
ENDBRANCH  20  25
ENDBRANCH  13  19
ENDBRANCH  11  12
ENDBRANCH   8  11
ENDBRANCH   6   7
BRANCH   6  27
ATOM     27  C   UNL A   1      30.613  28.474  23.711  1.00  0.00     0.015 C 
ATOM     28  C   UNL A   1      31.653  29.109  22.780  1.00  0.00     0.010 C 
ATOM     29  C   UNL A   1      29.215  28.763  23.140  1.00  0.00     0.010 C 
ENDBRANCH   6  27
ENDBRANCH   3   6
ENDBRANCH   1   2
BRANCH   1  30
ATOM     30  C   UNL A   1      32.068  29.312  27.264  1.00  0.00     0.023 C 
BRANCH  30  31
ATOM     31  C   UNL A   1      32.389  30.631  26.564  1.00  0.00     0.023 C 
BRANCH  31  32
ATOM     32  C   UNL A   1      33.345  31.560  27.313  1.00  0.00     0.116 C 
BRANCH  32  33
ATOM     33  N   UNL A   1      32.865  32.925  27.457  1.00  0.00    -0.352 N 
ATOM     34  C   UNL A   1      33.347  33.915  28.289  1.00  0.00     0.251 C 
ATOM     35  H   UNL A   1      32.100  33.175  26.890  1.00  0.00     0.163 HD
ATOM     36  O   UNL A   1      32.823  35.017  28.309  1.00  0.00    -0.269 OA
BRANCH  34  37
ATOM     37  C   UNL A   1      34.478  33.603  29.194  1.00  0.00     0.039 A 
ATOM     38  C   UNL A   1      34.250  32.758  30.283  1.00  0.00     0.014 A 
ATOM     39  C   UNL A   1      35.764  34.075  28.921  1.00  0.00     0.014 A 
ATOM     40  C   UNL A   1      35.331  32.310  31.045  1.00  0.00     0.010 A 
ATOM     41  C   UNL A   1      36.847  33.576  29.642  1.00  0.00     0.010 A 
ATOM     42  C   UNL A   1      36.643  32.673  30.698  1.00  0.00    -0.014 A 
BRANCH  42  43
ATOM     43  C   UNL A   1      37.814  32.079  31.398  1.00  0.00     0.031 A 
ATOM     44  C   UNL A   1      38.609  30.979  30.754  1.00  0.00     0.074 A 
ATOM     45  C   UNL A   1      38.109  32.481  32.651  1.00  0.00     0.049 A 
ATOM     46  N   UNL A   1      39.619  30.297  31.233  1.00  0.00    -0.248 NA
ATOM     47  C   UNL A   1      38.189  30.569  29.407  1.00  0.00     0.031 C 
ATOM     48  C   UNL A   1      37.372  33.497  33.407  1.00  0.00     0.029 A 
ATOM     49  N   UNL A   1      39.095  32.076  33.515  1.00  0.00    -0.354 N 
ATOM     50  C   UNL A   1      39.951  29.370  30.251  1.00  0.00     0.074 A 
ATOM     51  C   UNL A   1      38.991  29.538  29.179  1.00  0.00     0.031 C 
ATOM     52  C   UNL A   1      37.943  33.648  34.612  1.00  0.00     0.029 A 
ATOM     53  C   UNL A   1      39.061  32.718  34.732  1.00  0.00     0.049 A 
ATOM     54  H   UNL A   1      39.764  31.391  33.286  1.00  0.00     0.167 HD
ATOM     55  C   UNL A   1      40.972  28.476  30.237  1.00  0.00     0.034 A 
ATOM     56  C   UNL A   1      39.835  32.568  35.825  1.00  0.00     0.034 A 
ATOM     57  C   UNL A   1      41.925  28.328  31.312  1.00  0.00     0.049 A 
ATOM     58  C   UNL A   1      40.964  31.571  35.789  1.00  0.00     0.074 A 
ATOM     59  C   UNL A   1      43.039  27.510  31.370  1.00  0.00     0.029 A 
ATOM     60  N   UNL A   1      41.870  29.006  32.525  1.00  0.00    -0.354 N 
ATOM     61  N   UNL A   1      41.309  30.750  34.824  1.00  0.00    -0.248 NA
ATOM     62  C   UNL A   1      41.814  31.491  36.983  1.00  0.00     0.031 C 
ATOM     63  C   UNL A   1      43.619  27.644  32.638  1.00  0.00     0.029 A 
ATOM     64  C   UNL A   1      42.910  28.598  33.348  1.00  0.00     0.049 A 
ATOM     65  H   UNL A   1      41.191  29.678  32.764  1.00  0.00     0.167 HD
ATOM     66  C   UNL A   1      42.432  30.072  35.289  1.00  0.00     0.074 A 
ATOM     67  C   UNL A   1      42.714  30.593  36.611  1.00  0.00     0.031 C 
ATOM     68  C   UNL A   1      43.166  29.109  34.675  1.00  0.00     0.034 A 
BRANCH  55  69
ATOM     69  C   UNL A   1      41.085  27.576  29.029  1.00  0.00     0.023 A 
ATOM     70  C   UNL A   1      42.078  27.773  28.053  1.00  0.00     0.031 A 
ATOM     71  C   UNL A   1      40.165  26.533  28.828  1.00  0.00     0.131 A 
ATOM     72  C   UNL A   1      42.073  27.001  26.882  1.00  0.00     0.055 A 
ATOM     73  C   UNL A   1      40.218  25.710  27.700  1.00  0.00     0.041 A 
ATOM     74  F   UNL A   1      39.182  26.306  29.714  1.00  0.00    -0.206 F 
ATOM     75  C   UNL A   1      41.165  25.955  26.709  1.00  0.00     0.022 A 
BRANCH  72  76
ATOM     76  S   UNL A   1      43.164  27.494  25.518  1.00  0.00     0.124 S 
ATOM     77  O   UNL A   1      43.639  26.199  25.039  1.00  0.00    -0.237 OA
ATOM     78  O   UNL A   1      42.255  28.210  24.630  1.00  0.00    -0.237 OA
ATOM     79  O   UNL A   1      44.177  28.319  26.172  1.00  0.00    -0.744 OA
ENDBRANCH  72  76
ENDBRANCH  55  69
BRANCH  56  80
ATOM     80  C   UNL A   1      39.570  33.374  37.049  1.00  0.00     0.023 A 
ATOM     81  C   UNL A   1      38.900  32.820  38.151  1.00  0.00     0.031 A 
ATOM     82  C   UNL A   1      39.962  34.723  37.124  1.00  0.00     0.131 A 
ATOM     83  C   UNL A   1      38.608  33.620  39.266  1.00  0.00     0.055 A 
ATOM     84  C   UNL A   1      39.709  35.503  38.253  1.00  0.00     0.041 A 
ATOM     85  F   UNL A   1      40.615  35.297  36.100  1.00  0.00    -0.206 F 
ATOM     86  C   UNL A   1      39.019  34.954  39.330  1.00  0.00     0.022 A 
BRANCH  83  87
ATOM     87  S   UNL A   1      37.626  32.907  40.615  1.00  0.00     0.124 S 
ATOM     88  O   UNL A   1      38.181  31.561  40.706  1.00  0.00    -0.237 OA
ATOM     89  O   UNL A   1      37.936  33.805  41.722  1.00  0.00    -0.237 OA
ATOM     90  O   UNL A   1      36.255  32.986  40.115  1.00  0.00    -0.744 OA
ENDBRANCH  83  87
ENDBRANCH  56  80
BRANCH  68  91
ATOM     91  C   UNL A   1      44.365  28.583  35.426  1.00  0.00     0.023 A 
ATOM     92  C   UNL A   1      44.248  27.552  36.375  1.00  0.00     0.031 A 
ATOM     93  C   UNL A   1      45.639  29.137  35.206  1.00  0.00     0.131 A 
ATOM     94  C   UNL A   1      45.373  27.144  37.107  1.00  0.00     0.055 A 
ATOM     95  C   UNL A   1      46.765  28.689  35.896  1.00  0.00     0.041 A 
ATOM     96  F   UNL A   1      45.807  30.126  34.314  1.00  0.00    -0.206 F 
ATOM     97  C   UNL A   1      46.633  27.695  36.863  1.00  0.00     0.022 A 
BRANCH  94  98
ATOM     98  S   UNL A   1      45.151  25.945  38.450  1.00  0.00     0.124 S 
ATOM     99  O   UNL A   1      44.017  26.508  39.175  1.00  0.00    -0.237 OA
ATOM    100  O   UNL A   1      44.892  24.707  37.724  1.00  0.00    -0.237 OA
ATOM    101  O   UNL A   1      46.426  25.989  39.163  1.00  0.00    -0.744 OA
ENDBRANCH  94  98
ENDBRANCH  68  91
ENDBRANCH  42  43
ENDBRANCH  34  37
ENDBRANCH  32  33
ENDBRANCH  31  32
ENDBRANCH  30  31
ENDBRANCH   1  30
TORSDOF 20
ENDMDL
MODEL 2
REMARK VINA RESULT:     -11.7      3.176      8.089
REMARK SMILES COc1cccc(-c2ccc(=O)n(CC(=O)N[C@@H](C(=O)NCCCCNC(=O)c3ccc(-c4c5nc(c(-c6cc(S(=O)(=O)[O-])ccc6F)c6ccc([nH]6)c(-c6cc(S(=O)(=O)[O-])ccc6F)c6nc(c(-c7cc(S(=O)(=O)[O-])ccc7F)c7ccc4[nH]7)C=C6)C=C5)cc3)C(C)C)n2)c1
REMARK SMILES IDX 22 1 21 2 19 3 20 4 18 6 17 7 15 8 16 9 14 11 13 12 8 13
REMARK SMILES IDX 9 14 95 15 10 16 11 17 12 18 7 19 3 20 4 21 96 22 5 23 6 24
REMARK SMILES IDX 2 25 1 26 92 27 93 28 94 29 23 30 24 31 25 32 26 33 27 34
REMARK SMILES IDX 28 36 29 37 30 38 91 39 31 40 90 41 32 42 33 43 34 44 84 45
REMARK SMILES IDX 35 46 89 47 83 48 85 49 36 50 88 51 82 52 81 53 37 55 69 56
REMARK SMILES IDX 49 57 68 58 50 59 53 60 67 61 86 62 51 63 52 64 66 66 87 67
REMARK SMILES IDX 54 68 38 69 39 70 47 71 40 72 46 73 48 74 45 75 41 76 42 77
REMARK SMILES IDX 43 78 44 79 70 80 71 81 79 82 72 83 78 84 80 85 77 86 73 87
REMARK SMILES IDX 74 88 75 89 76 90 55 91 56 92 64 93 57 94 63 95 65 96 62 97
REMARK SMILES IDX 58 98 59 99 60 100 61 101
REMARK H PARENT 21 5 17 10 26 35 85 54 53 65
REMARK Flexibility Score: inf
ROOT
ATOM      1  C   UNL A   1      31.578  29.622  25.368  1.00  0.00     0.116 C 
ENDROOT
BRANCH   1   2
ATOM      2  N   UNL A   1      32.712  29.678  24.475  1.00  0.00    -0.354 N 
ATOM      3  C   UNL A   1      33.155  28.724  23.596  1.00  0.00     0.242 C 
ATOM      4  O   UNL A   1      34.054  29.061  22.822  1.00  0.00    -0.273 OA
ATOM      5  H   UNL A   1      33.235  30.510  24.501  1.00  0.00     0.163 HD
BRANCH   3   6
ATOM      6  C   UNL A   1      32.471  27.318  23.529  1.00  0.00     0.173 C 
BRANCH   6   7
ATOM      7  N   UNL A   1      33.485  26.319  23.170  1.00  0.00    -0.342 N 
ATOM      8  C   UNL A   1      33.517  24.966  23.359  1.00  0.00     0.242 C 
ATOM      9  O   UNL A   1      34.466  24.364  22.843  1.00  0.00    -0.273 OA
ATOM     10  H   UNL A   1      34.277  26.686  22.716  1.00  0.00     0.164 HD
BRANCH   8  11
ATOM     11  C   UNL A   1      32.380  24.193  24.046  1.00  0.00     0.248 C 
BRANCH  11  12
ATOM     12  N   UNL A   1      32.790  23.088  24.910  1.00  0.00    -0.220 N 
ATOM     13  C   UNL A   1      33.056  20.831  25.130  1.00  0.00     0.091 A 
ATOM     14  C   UNL A   1      33.529  20.943  26.521  1.00  0.00     0.036 A 
ATOM     15  N   UNL A   1      32.713  21.821  24.372  1.00  0.00    -0.169 NA
ATOM     16  C   UNL A   1      33.675  22.181  26.992  1.00  0.00     0.075 A 
ATOM     17  C   UNL A   1      33.314  23.359  26.170  1.00  0.00     0.267 A 
ATOM     18  O   UNL A   1      33.429  24.479  26.654  1.00  0.00    -0.268 OA
BRANCH  13  19
ATOM     19  C   UNL A   1      33.033  19.469  24.579  1.00  0.00     0.006 A 
ATOM     20  C   UNL A   1      33.561  17.141  24.889  1.00  0.00     0.119 A 
ATOM     21  C   UNL A   1      33.093  16.885  23.597  1.00  0.00     0.046 A 
ATOM     22  C   UNL A   1      33.552  18.445  25.375  1.00  0.00     0.056 A 
ATOM     23  C   UNL A   1      32.582  17.919  22.804  1.00  0.00     0.005 A 
ATOM     24  C   UNL A   1      32.549  19.223  23.295  1.00  0.00     0.011 A 
BRANCH  20  25
ATOM     25  O   UNL A   1      34.039  16.061  25.578  1.00  0.00    -0.497 OA
ATOM     26  C   UNL A   1      35.390  15.711  25.284  1.00  0.00     0.278 C 
ENDBRANCH  20  25
ENDBRANCH  13  19
ENDBRANCH  11  12
ENDBRANCH   8  11
ENDBRANCH   6   7
BRANCH   6  27
ATOM     27  C   UNL A   1      31.288  27.329  22.516  1.00  0.00     0.015 C 
ATOM     28  C   UNL A   1      31.403  26.276  21.408  1.00  0.00     0.010 C 
ATOM     29  C   UNL A   1      29.952  27.119  23.245  1.00  0.00     0.010 C 
ENDBRANCH   6  27
ENDBRANCH   3   6
ENDBRANCH   1   2
BRANCH   1  30
ATOM     30  C   UNL A   1      31.969  29.424  26.828  1.00  0.00     0.023 C 
BRANCH  30  31
ATOM     31  C   UNL A   1      33.313  28.728  27.029  1.00  0.00     0.023 C 
BRANCH  31  32
ATOM     32  C   UNL A   1      34.517  29.654  27.200  1.00  0.00     0.116 C 
BRANCH  32  33
ATOM     33  N   UNL A   1      34.173  31.034  27.503  1.00  0.00    -0.352 N 
ATOM     34  C   UNL A   1      34.849  31.923  28.315  1.00  0.00     0.251 C 
ATOM     35  H   UNL A   1      33.356  31.378  27.076  1.00  0.00     0.163 HD
ATOM     36  O   UNL A   1      34.423  33.054  28.485  1.00  0.00    -0.269 OA
BRANCH  34  37
ATOM     37  C   UNL A   1      36.071  31.466  29.015  1.00  0.00     0.039 A 
ATOM     38  C   UNL A   1      35.965  30.419  29.933  1.00  0.00     0.014 A 
ATOM     39  C   UNL A   1      37.320  32.014  28.708  1.00  0.00     0.014 A 
ATOM     40  C   UNL A   1      37.124  29.856  30.473  1.00  0.00     0.010 A 
ATOM     41  C   UNL A   1      38.475  31.409  29.198  1.00  0.00     0.010 A 
ATOM     42  C   UNL A   1      38.389  30.312  30.069  1.00  0.00    -0.014 A 
BRANCH  42  43
ATOM     43  C   UNL A   1      39.630  29.620  30.510  1.00  0.00     0.031 A 
ATOM     44  C   UNL A   1      40.407  30.128  31.692  1.00  0.00     0.074 A 
ATOM     45  C   UNL A   1      40.098  28.580  29.791  1.00  0.00     0.049 A 
ATOM     46  N   UNL A   1      41.541  29.698  32.184  1.00  0.00    -0.248 NA
ATOM     47  C   UNL A   1      39.852  31.297  32.388  1.00  0.00     0.031 C 
ATOM     48  C   UNL A   1      39.467  28.034  28.587  1.00  0.00     0.029 A 
ATOM     49  N   UNL A   1      41.218  27.805  29.957  1.00  0.00    -0.354 N 
ATOM     50  C   UNL A   1      41.842  30.547  33.243  1.00  0.00     0.074 A 
ATOM     51  C   UNL A   1      40.801  31.554  33.277  1.00  0.00     0.031 C 
ATOM     52  C   UNL A   1      40.198  27.003  28.136  1.00  0.00     0.029 A 
ATOM     53  C   UNL A   1      41.368  26.835  28.992  1.00  0.00     0.049 A 
ATOM     54  H   UNL A   1      41.855  27.930  30.697  1.00  0.00     0.167 HD
ATOM     55  C   UNL A   1      42.877  30.481  34.118  1.00  0.00     0.034 A 
ATOM     56  C   UNL A   1      42.341  25.920  28.810  1.00  0.00     0.034 A 
ATOM     57  C   UNL A   1      43.902  29.464  34.075  1.00  0.00     0.049 A 
ATOM     58  C   UNL A   1      43.482  25.863  29.793  1.00  0.00     0.074 A 
ATOM     59  C   UNL A   1      44.951  29.259  34.953  1.00  0.00     0.029 A 
ATOM     60  N   UNL A   1      44.014  28.487  33.092  1.00  0.00    -0.354 N 
ATOM     61  N   UNL A   1      43.714  26.630  30.833  1.00  0.00    -0.248 NA
ATOM     62  C   UNL A   1      44.482  24.809  29.584  1.00  0.00     0.031 C 
ATOM     63  C   UNL A   1      45.732  28.203  34.468  1.00  0.00     0.029 A 
ATOM     64  C   UNL A   1      45.133  27.701  33.325  1.00  0.00     0.049 A 
ATOM     65  H   UNL A   1      43.389  28.370  32.340  1.00  0.00     0.167 HD
ATOM     66  C   UNL A   1      44.877  26.135  31.415  1.00  0.00     0.074 A 
ATOM     67  C   UNL A   1      45.286  24.994  30.620  1.00  0.00     0.031 C 
ATOM     68  C   UNL A   1      45.544  26.580  32.511  1.00  0.00     0.034 A 
BRANCH  55  69
ATOM     69  C   UNL A   1      42.959  31.559  35.174  1.00  0.00     0.023 A 
ATOM     70  C   UNL A   1      42.113  31.556  36.298  1.00  0.00     0.031 A 
ATOM     71  C   UNL A   1      43.865  32.625  35.038  1.00  0.00     0.131 A 
ATOM     72  C   UNL A   1      42.127  32.639  37.188  1.00  0.00     0.055 A 
ATOM     73  C   UNL A   1      43.934  33.657  35.976  1.00  0.00     0.041 A 
ATOM     74  F   UNL A   1      44.685  32.694  33.978  1.00  0.00    -0.206 F 
ATOM     75  C   UNL A   1      43.048  33.678  37.050  1.00  0.00     0.022 A 
BRANCH  72  76
ATOM     76  S   UNL A   1      40.812  32.749  38.434  1.00  0.00     0.124 S 
ATOM     77  O   UNL A   1      41.403  32.015  39.551  1.00  0.00    -0.237 OA
ATOM     78  O   UNL A   1      40.672  34.189  38.618  1.00  0.00    -0.237 OA
ATOM     79  O   UNL A   1      39.677  32.087  37.793  1.00  0.00    -0.744 OA
ENDBRANCH  72  76
ENDBRANCH  55  69
BRANCH  56  80
ATOM     80  C   UNL A   1      42.286  24.987  27.651  1.00  0.00     0.023 A 
ATOM     81  C   UNL A   1      41.578  23.778  27.726  1.00  0.00     0.031 A 
ATOM     82  C   UNL A   1      42.965  25.282  26.455  1.00  0.00     0.131 A 
ATOM     83  C   UNL A   1      41.595  22.889  26.640  1.00  0.00     0.055 A 
ATOM     84  C   UNL A   1      42.942  24.416  25.361  1.00  0.00     0.041 A 
ATOM     85  F   UNL A   1      43.648  26.432  26.329  1.00  0.00    -0.206 F 
ATOM     86  C   UNL A   1      42.262  23.205  25.454  1.00  0.00     0.022 A 
BRANCH  83  87
ATOM     87  S   UNL A   1      40.779  21.279  26.822  1.00  0.00     0.124 S 
ATOM     88  O   UNL A   1      40.684  21.156  28.272  1.00  0.00    -0.237 OA
ATOM     89  O   UNL A   1      39.523  21.495  26.113  1.00  0.00    -0.237 OA
ATOM     90  O   UNL A   1      41.707  20.353  26.175  1.00  0.00    -0.744 OA
ENDBRANCH  83  87
ENDBRANCH  56  80
BRANCH  68  91
ATOM     91  C   UNL A   1      46.770  25.804  32.925  1.00  0.00     0.023 A 
ATOM     92  C   UNL A   1      47.984  25.913  32.223  1.00  0.00     0.031 A 
ATOM     93  C   UNL A   1      46.717  24.927  34.023  1.00  0.00     0.131 A 
ATOM     94  C   UNL A   1      49.078  25.117  32.592  1.00  0.00     0.055 A 
ATOM     95  C   UNL A   1      47.825  24.181  34.421  1.00  0.00     0.041 A 
ATOM     96  F   UNL A   1      45.582  24.783  34.726  1.00  0.00    -0.206 F 
ATOM     97  C   UNL A   1      49.012  24.263  33.697  1.00  0.00     0.022 A 
BRANCH  94  98
ATOM     98  S   UNL A   1      50.566  25.144  31.555  1.00  0.00     0.124 S 
ATOM     99  O   UNL A   1      51.082  23.790  31.728  1.00  0.00    -0.237 OA
ATOM    100  O   UNL A   1      50.023  25.455  30.238  1.00  0.00    -0.237 OA
ATOM    101  O   UNL A   1      51.382  26.199  32.153  1.00  0.00    -0.744 OA
ENDBRANCH  94  98
ENDBRANCH  68  91
ENDBRANCH  42  43
ENDBRANCH  34  37
ENDBRANCH  32  33
ENDBRANCH  31  32
ENDBRANCH  30  31
ENDBRANCH   1  30
TORSDOF 20
ENDMDL
MODEL 3
REMARK VINA RESULT:     -11.5      2.706      3.164
REMARK SMILES COc1cccc(-c2ccc(=O)n(CC(=O)N[C@@H](C(=O)NCCCCNC(=O)c3ccc(-c4c5nc(c(-c6cc(S(=O)(=O)[O-])ccc6F)c6ccc([nH]6)c(-c6cc(S(=O)(=O)[O-])ccc6F)c6nc(c(-c7cc(S(=O)(=O)[O-])ccc7F)c7ccc4[nH]7)C=C6)C=C5)cc3)C(C)C)n2)c1
REMARK SMILES IDX 22 1 21 2 19 3 20 4 18 6 17 7 15 8 16 9 14 11 13 12 8 13
REMARK SMILES IDX 9 14 95 15 10 16 11 17 12 18 7 19 3 20 4 21 96 22 5 23 6 24
REMARK SMILES IDX 2 25 1 26 92 27 93 28 94 29 23 30 24 31 25 32 26 33 27 34
REMARK SMILES IDX 28 36 29 37 30 38 91 39 31 40 90 41 32 42 33 43 34 44 84 45
REMARK SMILES IDX 35 46 89 47 83 48 85 49 36 50 88 51 82 52 81 53 37 55 69 56
REMARK SMILES IDX 49 57 68 58 50 59 53 60 67 61 86 62 51 63 52 64 66 66 87 67
REMARK SMILES IDX 54 68 38 69 39 70 47 71 40 72 46 73 48 74 45 75 41 76 42 77
REMARK SMILES IDX 43 78 44 79 70 80 71 81 79 82 72 83 78 84 80 85 77 86 73 87
REMARK SMILES IDX 74 88 75 89 76 90 55 91 56 92 64 93 57 94 63 95 65 96 62 97
REMARK SMILES IDX 58 98 59 99 60 100 61 101
REMARK H PARENT 21 5 17 10 26 35 85 54 53 65
REMARK Flexibility Score: inf
ROOT
ATOM      1  C   UNL A   1      32.324  29.073  24.479  1.00  0.00     0.116 C 
ENDROOT
BRANCH   1   2
ATOM      2  N   UNL A   1      31.926  29.413  23.133  1.00  0.00    -0.354 N 
ATOM      3  C   UNL A   1      30.700  29.264  22.542  1.00  0.00     0.242 C 
ATOM      4  O   UNL A   1      30.557  29.774  21.427  1.00  0.00    -0.273 OA
ATOM      5  H   UNL A   1      32.629  29.803  22.566  1.00  0.00     0.163 HD
BRANCH   3   6
ATOM      6  C   UNL A   1      29.524  28.565  23.301  1.00  0.00     0.173 C 
BRANCH   6   7
ATOM      7  N   UNL A   1      29.526  27.137  22.962  1.00  0.00    -0.342 N 
ATOM      8  C   UNL A   1      29.979  26.050  23.654  1.00  0.00     0.242 C 
ATOM      9  O   UNL A   1      29.741  24.944  23.154  1.00  0.00    -0.273 OA
ATOM     10  H   UNL A   1      29.133  26.926  22.084  1.00  0.00     0.164 HD
BRANCH   8  11
ATOM     11  C   UNL A   1      30.626  26.158  25.045  1.00  0.00     0.248 C 
BRANCH  11  12
ATOM     12  N   UNL A   1      31.322  24.965  25.520  1.00  0.00    -0.220 N 
ATOM     13  C   UNL A   1      33.200  23.671  25.396  1.00  0.00     0.091 A 
ATOM     14  C   UNL A   1      32.683  22.689  26.365  1.00  0.00     0.036 A 
ATOM     15  N   UNL A   1      32.577  24.733  24.999  1.00  0.00    -0.169 NA
ATOM     16  C   UNL A   1      31.505  22.977  26.919  1.00  0.00     0.075 A 
ATOM     17  C   UNL A   1      30.747  24.185  26.518  1.00  0.00     0.267 A 
ATOM     18  O   UNL A   1      29.650  24.393  27.025  1.00  0.00    -0.268 OA
BRANCH  13  19
ATOM     19  C   UNL A   1      34.558  23.413  24.901  1.00  0.00     0.006 A 
ATOM     20  C   UNL A   1      36.903  23.208  25.406  1.00  0.00     0.119 A 
ATOM     21  C   UNL A   1      37.156  23.004  24.047  1.00  0.00     0.046 A 
ATOM     22  C   UNL A   1      35.598  23.436  25.833  1.00  0.00     0.056 A 
ATOM     23  C   UNL A   1      36.109  22.990  23.118  1.00  0.00     0.005 A 
ATOM     24  C   UNL A   1      34.798  23.194  23.544  1.00  0.00     0.011 A 
BRANCH  20  25
ATOM     25  O   UNL A   1      37.996  23.203  26.227  1.00  0.00    -0.497 OA
ATOM     26  C   UNL A   1      38.847  22.067  26.088  1.00  0.00     0.278 C 
ENDBRANCH  20  25
ENDBRANCH  13  19
ENDBRANCH  11  12
ENDBRANCH   8  11
ENDBRANCH   6   7
BRANCH   6  27
ATOM     27  C   UNL A   1      28.164  29.239  22.951  1.00  0.00     0.015 C 
ATOM     28  C   UNL A   1      26.937  28.472  23.457  1.00  0.00     0.010 C 
ATOM     29  C   UNL A   1      28.108  30.667  23.515  1.00  0.00     0.010 C 
ENDBRANCH   6  27
ENDBRANCH   3   6
ENDBRANCH   1   2
BRANCH   1  30
ATOM     30  C   UNL A   1      31.789  30.039  25.529  1.00  0.00     0.023 C 
BRANCH  30  31
ATOM     31  C   UNL A   1      32.433  29.890  26.906  1.00  0.00     0.023 C 
BRANCH  31  32
ATOM     32  C   UNL A   1      33.442  30.975  27.284  1.00  0.00     0.116 C 
BRANCH  32  33
ATOM     33  N   UNL A   1      32.878  32.312  27.378  1.00  0.00    -0.352 N 
ATOM     34  C   UNL A   1      33.333  33.379  28.126  1.00  0.00     0.251 C 
ATOM     35  H   UNL A   1      32.070  32.477  26.840  1.00  0.00     0.163 HD
ATOM     36  O   UNL A   1      32.737  34.444  28.114  1.00  0.00    -0.269 OA
BRANCH  34  37
ATOM     37  C   UNL A   1      34.527  33.194  28.983  1.00  0.00     0.039 A 
ATOM     38  C   UNL A   1      34.400  32.448  30.157  1.00  0.00     0.014 A 
ATOM     39  C   UNL A   1      35.774  33.687  28.589  1.00  0.00     0.014 A 
ATOM     40  C   UNL A   1      35.543  32.113  30.888  1.00  0.00     0.010 A 
ATOM     41  C   UNL A   1      36.918  33.298  29.284  1.00  0.00     0.010 A 
ATOM     42  C   UNL A   1      36.815  32.491  30.428  1.00  0.00    -0.014 A 
BRANCH  42  43
ATOM     43  C   UNL A   1      38.049  32.009  31.104  1.00  0.00     0.031 A 
ATOM     44  C   UNL A   1      38.984  31.065  30.402  1.00  0.00     0.074 A 
ATOM     45  C   UNL A   1      38.282  32.363  32.385  1.00  0.00     0.049 A 
ATOM     46  N   UNL A   1      40.071  30.490  30.851  1.00  0.00    -0.248 NA
ATOM     47  C   UNL A   1      38.628  30.693  29.026  1.00  0.00     0.031 C 
ATOM     48  C   UNL A   1      37.416  33.223  33.194  1.00  0.00     0.029 A 
ATOM     49  N   UNL A   1      39.308  32.033  33.235  1.00  0.00    -0.354 N 
ATOM     50  C   UNL A   1      40.526  29.679  29.817  1.00  0.00     0.074 A 
ATOM     51  C   UNL A   1      39.559  29.792  28.744  1.00  0.00     0.031 C 
ATOM     52  C   UNL A   1      37.956  33.368  34.414  1.00  0.00     0.029 A 
ATOM     53  C   UNL A   1      39.184  32.584  34.490  1.00  0.00     0.049 A 
ATOM     54  H   UNL A   1      40.061  31.457  32.972  1.00  0.00     0.167 HD
ATOM     55  C   UNL A   1      41.655  28.928  29.760  1.00  0.00     0.034 A 
ATOM     56  C   UNL A   1      39.965  32.465  35.582  1.00  0.00     0.034 A 
ATOM     57  C   UNL A   1      42.613  28.835  30.836  1.00  0.00     0.049 A 
ATOM     58  C   UNL A   1      41.214  31.626  35.498  1.00  0.00     0.074 A 
ATOM     59  C   UNL A   1      43.824  28.165  30.858  1.00  0.00     0.029 A 
ATOM     60  N   UNL A   1      42.464  29.419  32.089  1.00  0.00    -0.354 N 
ATOM     61  N   UNL A   1      41.668  30.921  34.487  1.00  0.00    -0.248 NA
ATOM     62  C   UNL A   1      42.061  31.579  36.696  1.00  0.00     0.031 C 
ATOM     63  C   UNL A   1      44.374  28.289  32.139  1.00  0.00     0.029 A 
ATOM     64  C   UNL A   1      43.543  29.096  32.898  1.00  0.00     0.049 A 
ATOM     65  H   UNL A   1      41.702  29.981  32.361  1.00  0.00     0.167 HD
ATOM     66  C   UNL A   1      42.867  30.366  34.923  1.00  0.00     0.074 A 
ATOM     67  C   UNL A   1      43.072  30.831  36.280  1.00  0.00     0.031 C 
ATOM     68  C   UNL A   1      43.724  29.548  34.259  1.00  0.00     0.034 A 
BRANCH  55  69
ATOM     69  C   UNL A   1      41.890  28.130  28.498  1.00  0.00     0.023 A 
ATOM     70  C   UNL A   1      41.673  26.741  28.452  1.00  0.00     0.031 A 
ATOM     71  C   UNL A   1      42.378  28.757  27.338  1.00  0.00     0.131 A 
ATOM     72  C   UNL A   1      42.026  26.015  27.306  1.00  0.00     0.055 A 
ATOM     73  C   UNL A   1      42.645  28.040  26.170  1.00  0.00     0.041 A 
ATOM     74  F   UNL A   1      42.624  30.077  27.325  1.00  0.00    -0.206 F 
ATOM     75  C   UNL A   1      42.488  26.656  26.155  1.00  0.00     0.022 A 
BRANCH  72  76
ATOM     76  S   UNL A   1      42.029  24.202  27.400  1.00  0.00     0.124 S 
ATOM     77  O   UNL A   1      41.902  23.835  25.991  1.00  0.00    -0.237 OA
ATOM     78  O   UNL A   1      43.318  23.921  28.020  1.00  0.00    -0.237 OA
ATOM     79  O   UNL A   1      40.860  23.901  28.223  1.00  0.00    -0.744 OA
ENDBRANCH  72  76
ENDBRANCH  55  69
BRANCH  56  80
ATOM     80  C   UNL A   1      39.590  33.148  36.851  1.00  0.00     0.023 A 
ATOM     81  C   UNL A   1      38.720  32.542  37.771  1.00  0.00     0.031 A 
ATOM     82  C   UNL A   1      40.081  34.432  37.151  1.00  0.00     0.131 A 
ATOM     83  C   UNL A   1      38.334  33.235  38.928  1.00  0.00     0.055 A 
ATOM     84  C   UNL A   1      39.730  35.098  38.326  1.00  0.00     0.041 A 
ATOM     85  F   UNL A   1      40.925  35.049  36.309  1.00  0.00    -0.206 F 
ATOM     86  C   UNL A   1      38.843  34.504  39.219  1.00  0.00     0.022 A 
BRANCH  83  87
ATOM     87  S   UNL A   1      37.106  32.477  40.027  1.00  0.00     0.124 S 
ATOM     88  O   UNL A   1      37.846  31.338  40.559  1.00  0.00    -0.237 OA
ATOM     89  O   UNL A   1      36.831  33.559  40.966  1.00  0.00    -0.237 OA
ATOM     90  O   UNL A   1      36.005  32.141  39.125  1.00  0.00    -0.744 OA
ENDBRANCH  83  87
ENDBRANCH  56  80
BRANCH  68  91
ATOM     91  C   UNL A   1      44.976  29.134  34.992  1.00  0.00     0.023 A 
ATOM     92  C   UNL A   1      46.136  29.928  34.978  1.00  0.00     0.031 A 
ATOM     93  C   UNL A   1      45.016  27.917  35.696  1.00  0.00     0.131 A 
ATOM     94  C   UNL A   1      47.304  29.471  35.607  1.00  0.00     0.055 A 
ATOM     95  C   UNL A   1      46.163  27.494  36.368  1.00  0.00     0.041 A 
ATOM     96  F   UNL A   1      43.938  27.119  35.739  1.00  0.00    -0.206 F 
ATOM     97  C   UNL A   1      47.320  28.267  36.316  1.00  0.00     0.022 A 
BRANCH  94  98
ATOM     98  S   UNL A   1      48.832  30.430  35.413  1.00  0.00     0.124 S 
ATOM     99  O   UNL A   1      48.372  31.789  35.679  1.00  0.00    -0.237 OA
ATOM    100  O   UNL A   1      49.701  29.842  36.426  1.00  0.00    -0.237 OA
ATOM    101  O   UNL A   1      49.228  30.169  34.031  1.00  0.00    -0.744 OA
ENDBRANCH  94  98
ENDBRANCH  68  91
ENDBRANCH  42  43
ENDBRANCH  34  37
ENDBRANCH  32  33
ENDBRANCH  31  32
ENDBRANCH  30  31
ENDBRANCH   1  30
TORSDOF 20
ENDMDL
