MODEL 1
REMARK VINA RESULT:     -13.4      0.000      0.000
REMARK SMILES Cc1cccc(OCC(=O)Nc2cc(C(=O)NCCCCNC(=O)c3ccc(-c4c5nc(c(-c6cc(S(=O)(=O)[O-])ccc6F)c6ccc([nH]6)c(-c6cc(S(=O)(=O)[O-])ccc6F)c6nc(c(-c7cc(S(=O)(=O)[O-])ccc7F)c7ccc4[nH]7)C=C6)C=C5)cc3)c(Cl)cc2Cl)c1
REMARK SMILES IDX 19 1 18 2 17 3 15 4 16 5 14 7 12 8 13 9 91 10 90 11 92 12
REMARK SMILES IDX 88 13 89 14 11 15 9 16 10 17 8 19 7 20 6 21 1 22 2 23 3 24
REMARK SMILES IDX 93 25 4 26 5 27 20 28 21 29 22 30 23 31 24 33 25 34 26 35
REMARK SMILES IDX 87 36 27 37 86 38 28 39 29 40 30 41 80 42 31 43 85 44 79 45
REMARK SMILES IDX 81 46 32 47 84 48 78 49 77 50 33 52 65 53 45 54 64 55 46 56
REMARK SMILES IDX 49 57 63 58 82 59 47 60 48 61 62 63 83 64 50 65 34 66 35 67
REMARK SMILES IDX 43 68 36 69 42 70 44 71 41 72 37 73 38 74 39 75 40 76 66 77
REMARK SMILES IDX 67 78 75 79 68 80 74 81 76 82 73 83 69 84 70 85 71 86 72 87
REMARK SMILES IDX 51 88 52 89 60 90 53 91 59 92 61 93 58 94 54 95 55 96 56 97
REMARK SMILES IDX 57 98
REMARK H PARENT 17 6 11 18 22 32 81 51 49 62
REMARK Flexibility Score: inf
ROOT
ATOM      1  C   UNL A   1      31.812  29.595  25.248  1.00  0.00     0.023 C 
ENDROOT
BRANCH   1   2
ATOM      2  C   UNL A   1      32.991  29.047  24.432  1.00  0.00     0.116 C 
BRANCH   2   3
ATOM      3  N   UNL A   1      32.651  28.179  23.325  1.00  0.00    -0.352 N 
ATOM      4  C   UNL A   1      32.452  26.816  23.268  1.00  0.00     0.252 C 
ATOM      5  O   UNL A   1      31.916  26.374  22.252  1.00  0.00    -0.269 OA
ATOM      6  H   UNL A   1      32.540  28.642  22.464  1.00  0.00     0.163 HD
BRANCH   4   7
ATOM      7  C   UNL A   1      32.885  25.854  24.334  1.00  0.00     0.060 A 
ATOM      8  C   UNL A   1      34.609  24.550  25.507  1.00  0.00     0.061 A 
ATOM      9  C   UNL A   1      34.240  25.478  24.518  1.00  0.00     0.043 A 
ATOM     10  C   UNL A   1      33.604  24.070  26.374  1.00  0.00     0.066 A 
ATOM     11  C   UNL A   1      32.287  24.496  26.265  1.00  0.00     0.044 A 
ATOM     12  Cl  UNL A   1      33.969  22.940  27.641  1.00  0.00    -0.082 Cl
ATOM     13  C   UNL A   1      31.920  25.369  25.240  1.00  0.00     0.055 A 
ATOM     14  Cl  UNL A   1      30.230  25.747  25.168  1.00  0.00    -0.083 Cl
BRANCH   8  15
ATOM     15  N   UNL A   1      35.895  24.018  25.720  1.00  0.00    -0.322 N 
ATOM     16  C   UNL A   1      36.553  22.846  25.526  1.00  0.00     0.262 C 
ATOM     17  O   UNL A   1      37.741  22.838  25.879  1.00  0.00    -0.271 OA
ATOM     18  H   UNL A   1      36.489  24.689  26.130  1.00  0.00     0.170 HD
BRANCH  16  19
ATOM     19  C   UNL A   1      35.950  21.639  24.819  1.00  0.00     0.329 C 
BRANCH  19  20
ATOM     20  O   UNL A   1      34.933  20.904  25.459  1.00  0.00    -0.484 OA
BRANCH  20  21
ATOM     21  C   UNL A   1      34.245  19.964  24.753  1.00  0.00     0.120 A 
ATOM     22  C   UNL A   1      34.146  16.489  23.266  1.00  0.00     0.044 C 
ATOM     23  C   UNL A   1      33.691  17.821  23.777  1.00  0.00    -0.047 A 
ATOM     24  C   UNL A   1      32.494  18.340  23.270  1.00  0.00     0.003 A 
ATOM     25  C   UNL A   1      34.535  18.622  24.576  1.00  0.00     0.049 A 
ATOM     26  C   UNL A   1      32.212  19.678  23.438  1.00  0.00     0.004 A 
ATOM     27  C   UNL A   1      33.137  20.480  24.095  1.00  0.00     0.046 A 
ENDBRANCH  20  21
ENDBRANCH  19  20
ENDBRANCH  16  19
ENDBRANCH   8  15
ENDBRANCH   4   7
ENDBRANCH   2   3
ENDBRANCH   1   2
BRANCH   1  28
ATOM     28  C   UNL A   1      32.046  30.522  26.459  1.00  0.00     0.023 C 
BRANCH  28  29
ATOM     29  C   UNL A   1      33.226  30.356  27.425  1.00  0.00     0.116 C 
BRANCH  29  30
ATOM     30  N   UNL A   1      34.062  31.507  27.768  1.00  0.00    -0.352 N 
ATOM     31  C   UNL A   1      35.288  31.541  28.440  1.00  0.00     0.251 C 
ATOM     32  H   UNL A   1      33.712  32.383  27.486  1.00  0.00     0.163 HD
ATOM     33  O   UNL A   1      35.747  32.607  28.842  1.00  0.00    -0.269 OA
BRANCH  31  34
ATOM     34  C   UNL A   1      36.116  30.311  28.562  1.00  0.00     0.039 A 
ATOM     35  C   UNL A   1      36.289  29.737  29.833  1.00  0.00     0.014 A 
ATOM     36  C   UNL A   1      36.909  29.886  27.510  1.00  0.00     0.014 A 
ATOM     37  C   UNL A   1      37.430  28.986  30.097  1.00  0.00     0.010 A 
ATOM     38  C   UNL A   1      38.119  29.335  27.799  1.00  0.00     0.010 A 
ATOM     39  C   UNL A   1      38.395  28.943  29.106  1.00  0.00    -0.014 A 
BRANCH  39  40
ATOM     40  C   UNL A   1      39.771  28.529  29.256  1.00  0.00     0.031 A 
ATOM     41  C   UNL A   1      40.102  27.154  28.871  1.00  0.00     0.074 A 
ATOM     42  C   UNL A   1      40.642  29.560  29.299  1.00  0.00     0.049 A 
ATOM     43  N   UNL A   1      41.219  26.570  29.101  1.00  0.00    -0.248 NA
ATOM     44  C   UNL A   1      39.131  26.290  28.199  1.00  0.00     0.031 C 
ATOM     45  C   UNL A   1      42.032  29.638  28.875  1.00  0.00     0.029 A 
ATOM     46  N   UNL A   1      40.409  30.788  29.915  1.00  0.00    -0.354 N 
ATOM     47  C   UNL A   1      41.246  25.442  28.305  1.00  0.00     0.074 A 
ATOM     48  C   UNL A   1      39.880  25.227  27.908  1.00  0.00     0.031 C 
ATOM     49  C   UNL A   1      42.595  30.725  29.444  1.00  0.00     0.029 A 
ATOM     50  C   UNL A   1      41.635  31.233  30.421  1.00  0.00     0.049 A 
ATOM     51  H   UNL A   1      39.545  31.254  29.981  1.00  0.00     0.167 HD
ATOM     52  C   UNL A   1      42.457  24.956  27.912  1.00  0.00     0.034 A 
ATOM     53  C   UNL A   1      41.829  31.178  31.779  1.00  0.00     0.034 A 
ATOM     54  C   UNL A   1      43.527  25.756  28.522  1.00  0.00     0.049 A 
ATOM     55  C   UNL A   1      42.900  30.180  32.175  1.00  0.00     0.074 A 
ATOM     56  C   UNL A   1      44.325  26.776  28.031  1.00  0.00     0.029 A 
ATOM     57  N   UNL A   1      43.634  25.808  29.906  1.00  0.00    -0.354 N 
ATOM     58  N   UNL A   1      43.257  29.149  31.459  1.00  0.00    -0.248 NA
ATOM     59  C   UNL A   1      43.629  30.278  33.433  1.00  0.00     0.031 C 
ATOM     60  C   UNL A   1      44.838  27.498  29.145  1.00  0.00     0.029 A 
ATOM     61  C   UNL A   1      44.385  26.895  30.308  1.00  0.00     0.049 A 
ATOM     62  H   UNL A   1      43.226  25.155  30.521  1.00  0.00     0.167 HD
ATOM     63  C   UNL A   1      44.164  28.400  32.161  1.00  0.00     0.074 A 
ATOM     64  C   UNL A   1      44.411  29.190  33.359  1.00  0.00     0.031 C 
ATOM     65  C   UNL A   1      44.582  27.170  31.728  1.00  0.00     0.034 A 
BRANCH  52  66
ATOM     66  C   UNL A   1      42.715  23.994  26.766  1.00  0.00     0.023 A 
ATOM     67  C   UNL A   1      42.252  22.669  26.905  1.00  0.00     0.031 A 
ATOM     68  C   UNL A   1      43.413  24.251  25.567  1.00  0.00     0.131 A 
ATOM     69  C   UNL A   1      42.535  21.675  25.949  1.00  0.00     0.055 A 
ATOM     70  C   UNL A   1      43.715  23.258  24.623  1.00  0.00     0.041 A 
ATOM     71  F   UNL A   1      43.814  25.473  25.209  1.00  0.00    -0.206 F 
ATOM     72  C   UNL A   1      43.282  21.959  24.812  1.00  0.00     0.022 A 
BRANCH  69  73
ATOM     73  S   UNL A   1      41.907  20.000  26.222  1.00  0.00     0.124 S 
ATOM     74  O   UNL A   1      42.563  19.250  25.155  1.00  0.00    -0.237 OA
ATOM     75  O   UNL A   1      42.354  19.718  27.581  1.00  0.00    -0.237 OA
ATOM     76  O   UNL A   1      40.461  20.153  26.069  1.00  0.00    -0.744 OA
ENDBRANCH  69  73
ENDBRANCH  52  66
BRANCH  53  77
ATOM     77  C   UNL A   1      40.547  31.320  32.558  1.00  0.00     0.023 A 
ATOM     78  C   UNL A   1      39.931  32.586  32.637  1.00  0.00     0.031 A 
ATOM     79  C   UNL A   1      39.753  30.191  32.829  1.00  0.00     0.131 A 
ATOM     80  C   UNL A   1      38.538  32.671  32.810  1.00  0.00     0.055 A 
ATOM     81  C   UNL A   1      38.375  30.295  33.046  1.00  0.00     0.041 A 
ATOM     82  F   UNL A   1      40.272  28.957  32.766  1.00  0.00    -0.206 F 
ATOM     83  C   UNL A   1      37.753  31.535  32.991  1.00  0.00     0.022 A 
BRANCH  80  84
ATOM     84  S   UNL A   1      37.719  34.273  32.646  1.00  0.00     0.124 S 
ATOM     85  O   UNL A   1      38.318  34.808  31.441  1.00  0.00    -0.237 OA
ATOM     86  O   UNL A   1      36.317  33.851  32.569  1.00  0.00    -0.237 OA
ATOM     87  O   UNL A   1      38.087  34.972  33.882  1.00  0.00    -0.744 OA
ENDBRANCH  80  84
ENDBRANCH  53  77
BRANCH  65  88
ATOM     88  C   UNL A   1      45.251  26.134  32.610  1.00  0.00     0.023 A 
ATOM     89  C   UNL A   1      44.535  25.113  33.246  1.00  0.00     0.031 A 
ATOM     90  C   UNL A   1      46.652  26.090  32.800  1.00  0.00     0.131 A 
ATOM     91  C   UNL A   1      45.153  24.223  34.134  1.00  0.00     0.055 A 
ATOM     92  C   UNL A   1      47.287  25.120  33.584  1.00  0.00     0.041 A 
ATOM     93  F   UNL A   1      47.480  26.975  32.225  1.00  0.00    -0.206 F 
ATOM     94  C   UNL A   1      46.532  24.198  34.290  1.00  0.00     0.022 A 
BRANCH  91  95
ATOM     95  S   UNL A   1      44.076  23.203  35.171  1.00  0.00     0.124 S 
ATOM     96  O   UNL A   1      42.751  23.683  34.783  1.00  0.00    -0.237 OA
ATOM     97  O   UNL A   1      44.409  21.852  34.736  1.00  0.00    -0.237 OA
ATOM     98  O   UNL A   1      44.486  23.543  36.530  1.00  0.00    -0.744 OA
ENDBRANCH  91  95
ENDBRANCH  65  88
ENDBRANCH  39  40
ENDBRANCH  31  34
ENDBRANCH  29  30
ENDBRANCH  28  29
ENDBRANCH   1  28
TORSDOF 18
ENDMDL
MODEL 2
REMARK VINA RESULT:     -13.0      3.334      9.654
REMARK SMILES Cc1cccc(OCC(=O)Nc2cc(C(=O)NCCCCNC(=O)c3ccc(-c4c5nc(c(-c6cc(S(=O)(=O)[O-])ccc6F)c6ccc([nH]6)c(-c6cc(S(=O)(=O)[O-])ccc6F)c6nc(c(-c7cc(S(=O)(=O)[O-])ccc7F)c7ccc4[nH]7)C=C6)C=C5)cc3)c(Cl)cc2Cl)c1
REMARK SMILES IDX 19 1 18 2 17 3 15 4 16 5 14 7 12 8 13 9 91 10 90 11 92 12
REMARK SMILES IDX 88 13 89 14 11 15 9 16 10 17 8 19 7 20 6 21 1 22 2 23 3 24
REMARK SMILES IDX 93 25 4 26 5 27 20 28 21 29 22 30 23 31 24 33 25 34 26 35
REMARK SMILES IDX 87 36 27 37 86 38 28 39 29 40 30 41 80 42 31 43 85 44 79 45
REMARK SMILES IDX 81 46 32 47 84 48 78 49 77 50 33 52 65 53 45 54 64 55 46 56
REMARK SMILES IDX 49 57 63 58 82 59 47 60 48 61 62 63 83 64 50 65 34 66 35 67
REMARK SMILES IDX 43 68 36 69 42 70 44 71 41 72 37 73 38 74 39 75 40 76 66 77
REMARK SMILES IDX 67 78 75 79 68 80 74 81 76 82 73 83 69 84 70 85 71 86 72 87
REMARK SMILES IDX 51 88 52 89 60 90 53 91 59 92 61 93 58 94 54 95 55 96 56 97
REMARK SMILES IDX 57 98
REMARK H PARENT 17 6 11 18 22 32 81 51 49 62
REMARK Flexibility Score: inf
ROOT
ATOM      1  C   UNL A   1      35.829  20.783  25.388  1.00  0.00     0.023 C 
ENDROOT
BRANCH   1   2
ATOM      2  C   UNL A   1      34.730  21.446  24.546  1.00  0.00     0.116 C 
BRANCH   2   3
ATOM      3  N   UNL A   1      33.453  21.635  25.202  1.00  0.00    -0.352 N 
ATOM      4  C   UNL A   1      32.614  22.727  25.259  1.00  0.00     0.252 C 
ATOM      5  O   UNL A   1      31.470  22.529  25.667  1.00  0.00    -0.269 OA
ATOM      6  H   UNL A   1      33.126  20.845  25.691  1.00  0.00     0.163 HD
BRANCH   4   7
ATOM      7  C   UNL A   1      33.023  24.125  24.902  1.00  0.00     0.060 A 
ATOM      8  C   UNL A   1      33.790  26.381  25.510  1.00  0.00     0.061 A 
ATOM      9  C   UNL A   1      33.443  25.069  25.874  1.00  0.00     0.043 A 
ATOM     10  C   UNL A   1      33.797  26.709  24.137  1.00  0.00     0.066 A 
ATOM     11  C   UNL A   1      33.475  25.771  23.165  1.00  0.00     0.044 A 
ATOM     12  Cl  UNL A   1      34.236  28.298  23.590  1.00  0.00    -0.082 Cl
ATOM     13  C   UNL A   1      33.071  24.489  23.541  1.00  0.00     0.055 A 
ATOM     14  Cl  UNL A   1      32.612  23.451  22.231  1.00  0.00    -0.083 Cl
BRANCH   8  15
ATOM     15  N   UNL A   1      34.119  27.435  26.384  1.00  0.00    -0.322 N 
ATOM     16  C   UNL A   1      33.510  28.506  26.955  1.00  0.00     0.262 C 
ATOM     17  O   UNL A   1      34.227  29.190  27.700  1.00  0.00    -0.271 OA
ATOM     18  H   UNL A   1      35.063  27.381  26.659  1.00  0.00     0.170 HD
BRANCH  16  19
ATOM     19  C   UNL A   1      32.025  28.815  26.816  1.00  0.00     0.329 C 
BRANCH  19  20
ATOM     20  O   UNL A   1      31.598  29.698  25.805  1.00  0.00    -0.484 OA
BRANCH  20  21
ATOM     21  C   UNL A   1      30.866  29.214  24.763  1.00  0.00     0.120 A 
ATOM     22  C   UNL A   1      28.656  29.925  21.779  1.00  0.00     0.044 C 
ATOM     23  C   UNL A   1      29.561  29.199  22.727  1.00  0.00    -0.047 A 
ATOM     24  C   UNL A   1      29.482  27.803  22.764  1.00  0.00     0.003 A 
ATOM     25  C   UNL A   1      30.312  29.899  23.695  1.00  0.00     0.049 A 
ATOM     26  C   UNL A   1      30.024  27.124  23.833  1.00  0.00     0.004 A 
ATOM     27  C   UNL A   1      30.623  27.851  24.855  1.00  0.00     0.046 A 
ENDBRANCH  20  21
ENDBRANCH  19  20
ENDBRANCH  16  19
ENDBRANCH   8  15
ENDBRANCH   4   7
ENDBRANCH   2   3
ENDBRANCH   1   2
BRANCH   1  28
ATOM     28  C   UNL A   1      37.321  21.050  25.098  1.00  0.00     0.023 C 
BRANCH  28  29
ATOM     29  C   UNL A   1      38.083  22.252  25.672  1.00  0.00     0.116 C 
BRANCH  29  30
ATOM     30  N   UNL A   1      39.300  22.043  26.457  1.00  0.00    -0.352 N 
ATOM     31  C   UNL A   1      40.192  22.987  26.974  1.00  0.00     0.251 C 
ATOM     32  H   UNL A   1      39.523  21.103  26.649  1.00  0.00     0.163 HD
ATOM     33  O   UNL A   1      41.281  22.634  27.420  1.00  0.00    -0.269 OA
BRANCH  31  34
ATOM     34  C   UNL A   1      39.785  24.411  27.116  1.00  0.00     0.039 A 
ATOM     35  C   UNL A   1      40.416  25.376  26.312  1.00  0.00     0.014 A 
ATOM     36  C   UNL A   1      39.002  24.820  28.183  1.00  0.00     0.014 A 
ATOM     37  C   UNL A   1      40.501  26.691  26.759  1.00  0.00     0.010 A 
ATOM     38  C   UNL A   1      39.249  26.040  28.731  1.00  0.00     0.010 A 
ATOM     39  C   UNL A   1      40.048  26.948  28.041  1.00  0.00    -0.014 A 
BRANCH  39  40
ATOM     40  C   UNL A   1      40.330  28.119  28.839  1.00  0.00     0.031 A 
ATOM     41  C   UNL A   1      39.340  29.200  28.813  1.00  0.00     0.074 A 
ATOM     42  C   UNL A   1      41.215  27.894  29.833  1.00  0.00     0.049 A 
ATOM     43  N   UNL A   1      39.505  30.368  29.311  1.00  0.00    -0.248 NA
ATOM     44  C   UNL A   1      38.042  29.036  28.156  1.00  0.00     0.031 C 
ATOM     45  C   UNL A   1      41.348  28.526  31.138  1.00  0.00     0.029 A 
ATOM     46  N   UNL A   1      42.325  27.056  29.751  1.00  0.00    -0.354 N 
ATOM     47  C   UNL A   1      38.256  30.952  29.377  1.00  0.00     0.074 A 
ATOM     48  C   UNL A   1      37.428  30.167  28.501  1.00  0.00     0.031 C 
ATOM     49  C   UNL A   1      42.576  28.248  31.627  1.00  0.00     0.029 A 
ATOM     50  C   UNL A   1      43.329  27.624  30.542  1.00  0.00     0.049 A 
ATOM     51  H   UNL A   1      42.390  26.222  29.234  1.00  0.00     0.167 HD
ATOM     52  C   UNL A   1      38.034  31.900  30.329  1.00  0.00     0.034 A 
ATOM     53  C   UNL A   1      44.387  28.224  29.906  1.00  0.00     0.034 A 
ATOM     54  C   UNL A   1      39.276  32.149  31.072  1.00  0.00     0.049 A 
ATOM     55  C   UNL A   1      44.428  29.724  30.130  1.00  0.00     0.074 A 
ATOM     56  C   UNL A   1      39.727  31.714  32.307  1.00  0.00     0.029 A 
ATOM     57  N   UNL A   1      40.390  32.627  30.395  1.00  0.00    -0.354 N 
ATOM     58  N   UNL A   1      43.392  30.459  30.431  1.00  0.00    -0.248 NA
ATOM     59  C   UNL A   1      45.656  30.497  30.006  1.00  0.00     0.031 C 
ATOM     60  C   UNL A   1      41.144  31.853  32.324  1.00  0.00     0.029 A 
ATOM     61  C   UNL A   1      41.546  32.408  31.118  1.00  0.00     0.049 A 
ATOM     62  H   UNL A   1      40.360  33.065  29.513  1.00  0.00     0.167 HD
ATOM     63  C   UNL A   1      43.761  31.778  30.450  1.00  0.00     0.074 A 
ATOM     64  C   UNL A   1      45.201  31.737  30.244  1.00  0.00     0.031 C 
ATOM     65  C   UNL A   1      42.843  32.788  30.568  1.00  0.00     0.034 A 
BRANCH  52  66
ATOM     66  C   UNL A   1      36.682  32.384  30.822  1.00  0.00     0.023 A 
ATOM     67  C   UNL A   1      35.942  33.238  29.977  1.00  0.00     0.031 A 
ATOM     68  C   UNL A   1      36.073  32.118  32.067  1.00  0.00     0.131 A 
ATOM     69  C   UNL A   1      34.731  33.827  30.385  1.00  0.00     0.055 A 
ATOM     70  C   UNL A   1      34.876  32.720  32.485  1.00  0.00     0.041 A 
ATOM     71  F   UNL A   1      36.566  31.237  32.941  1.00  0.00    -0.206 F 
ATOM     72  C   UNL A   1      34.200  33.586  31.646  1.00  0.00     0.022 A 
BRANCH  69  73
ATOM     73  S   UNL A   1      33.861  34.918  29.233  1.00  0.00     0.124 S 
ATOM     74  O   UNL A   1      32.587  34.225  29.059  1.00  0.00    -0.237 OA
ATOM     75  O   UNL A   1      33.819  36.176  29.969  1.00  0.00    -0.237 OA
ATOM     76  O   UNL A   1      34.725  34.923  28.054  1.00  0.00    -0.744 OA
ENDBRANCH  69  73
ENDBRANCH  52  66
BRANCH  53  77
ATOM     77  C   UNL A   1      44.683  27.613  28.562  1.00  0.00     0.023 A 
ATOM     78  C   UNL A   1      45.228  26.313  28.507  1.00  0.00     0.031 A 
ATOM     79  C   UNL A   1      44.056  28.106  27.404  1.00  0.00     0.131 A 
ATOM     80  C   UNL A   1      44.981  25.503  27.383  1.00  0.00     0.055 A 
ATOM     81  C   UNL A   1      43.858  27.304  26.276  1.00  0.00     0.041 A 
ATOM     82  F   UNL A   1      43.511  29.331  27.388  1.00  0.00    -0.206 F 
ATOM     83  C   UNL A   1      44.281  25.981  26.278  1.00  0.00     0.022 A 
BRANCH  80  84
ATOM     84  S   UNL A   1      45.449  23.760  27.424  1.00  0.00     0.124 S 
ATOM     85  O   UNL A   1      46.832  23.798  26.997  1.00  0.00    -0.237 OA
ATOM     86  O   UNL A   1      45.189  23.445  28.832  1.00  0.00    -0.237 OA
ATOM     87  O   UNL A   1      44.525  23.136  26.470  1.00  0.00    -0.744 OA
ENDBRANCH  80  84
ENDBRANCH  53  77
BRANCH  65  88
ATOM     88  C   UNL A   1      43.113  34.235  30.204  1.00  0.00     0.023 A 
ATOM     89  C   UNL A   1      42.974  34.721  28.899  1.00  0.00     0.031 A 
ATOM     90  C   UNL A   1      43.460  35.208  31.171  1.00  0.00     0.131 A 
ATOM     91  C   UNL A   1      43.320  36.036  28.562  1.00  0.00     0.055 A 
ATOM     92  C   UNL A   1      43.679  36.554  30.857  1.00  0.00     0.041 A 
ATOM     93  F   UNL A   1      43.593  34.908  32.471  1.00  0.00    -0.206 F 
ATOM     94  C   UNL A   1      43.647  36.970  29.536  1.00  0.00     0.022 A 
BRANCH  91  95
ATOM     95  S   UNL A   1      43.458  36.433  26.802  1.00  0.00     0.124 S 
ATOM     96  O   UNL A   1      42.417  37.447  26.646  1.00  0.00    -0.237 OA
ATOM     97  O   UNL A   1      44.829  36.917  26.695  1.00  0.00    -0.237 OA
ATOM     98  O   UNL A   1      43.189  35.160  26.141  1.00  0.00    -0.744 OA
ENDBRANCH  91  95
ENDBRANCH  65  88
ENDBRANCH  39  40
ENDBRANCH  31  34
ENDBRANCH  29  30
ENDBRANCH  28  29
ENDBRANCH   1  28
TORSDOF 18
ENDMDL
MODEL 3
REMARK VINA RESULT:     -12.8      1.725      2.518
REMARK SMILES Cc1cccc(OCC(=O)Nc2cc(C(=O)NCCCCNC(=O)c3ccc(-c4c5nc(c(-c6cc(S(=O)(=O)[O-])ccc6F)c6ccc([nH]6)c(-c6cc(S(=O)(=O)[O-])ccc6F)c6nc(c(-c7cc(S(=O)(=O)[O-])ccc7F)c7ccc4[nH]7)C=C6)C=C5)cc3)c(Cl)cc2Cl)c1
REMARK SMILES IDX 19 1 18 2 17 3 15 4 16 5 14 7 12 8 13 9 91 10 90 11 92 12
REMARK SMILES IDX 88 13 89 14 11 15 9 16 10 17 8 19 7 20 6 21 1 22 2 23 3 24
REMARK SMILES IDX 93 25 4 26 5 27 20 28 21 29 22 30 23 31 24 33 25 34 26 35
REMARK SMILES IDX 87 36 27 37 86 38 28 39 29 40 30 41 80 42 31 43 85 44 79 45
REMARK SMILES IDX 81 46 32 47 84 48 78 49 77 50 33 52 65 53 45 54 64 55 46 56
REMARK SMILES IDX 49 57 63 58 82 59 47 60 48 61 62 63 83 64 50 65 34 66 35 67
REMARK SMILES IDX 43 68 36 69 42 70 44 71 41 72 37 73 38 74 39 75 40 76 66 77
REMARK SMILES IDX 67 78 75 79 68 80 74 81 76 82 73 83 69 84 70 85 71 86 72 87
REMARK SMILES IDX 51 88 52 89 60 90 53 91 59 92 61 93 58 94 54 95 55 96 56 97
REMARK SMILES IDX 57 98
REMARK H PARENT 17 6 11 18 22 32 81 51 49 62
REMARK Flexibility Score: inf
ROOT
ATOM      1  C   UNL A   1      33.877  29.455  27.110  1.00  0.00     0.023 C 
ENDROOT
BRANCH   1   2
ATOM      2  C   UNL A   1      33.821  29.022  25.637  1.00  0.00     0.116 C 
BRANCH   2   3
ATOM      3  N   UNL A   1      32.682  29.494  24.878  1.00  0.00    -0.352 N 
ATOM      4  C   UNL A   1      31.584  28.827  24.378  1.00  0.00     0.252 C 
ATOM      5  O   UNL A   1      30.639  29.518  23.997  1.00  0.00    -0.269 OA
ATOM      6  H   UNL A   1      32.692  30.460  24.687  1.00  0.00     0.163 HD
BRANCH   4   7
ATOM      7  C   UNL A   1      31.496  27.338  24.232  1.00  0.00     0.060 A 
ATOM      8  C   UNL A   1      30.716  25.129  24.981  1.00  0.00     0.061 A 
ATOM      9  C   UNL A   1      30.753  26.525  25.128  1.00  0.00     0.043 A 
ATOM     10  C   UNL A   1      31.364  24.561  23.862  1.00  0.00     0.066 A 
ATOM     11  C   UNL A   1      32.020  25.349  22.926  1.00  0.00     0.044 A 
ATOM     12  Cl  UNL A   1      31.350  22.846  23.584  1.00  0.00    -0.082 Cl
ATOM     13  C   UNL A   1      32.105  26.729  23.115  1.00  0.00     0.055 A 
ATOM     14  Cl  UNL A   1      33.029  27.578  21.920  1.00  0.00    -0.083 Cl
BRANCH   8  15
ATOM     15  N   UNL A   1      30.107  24.209  25.856  1.00  0.00    -0.322 N 
ATOM     16  C   UNL A   1      30.481  23.311  26.804  1.00  0.00     0.262 C 
ATOM     17  O   UNL A   1      29.553  22.696  27.350  1.00  0.00    -0.271 OA
ATOM     18  H   UNL A   1      29.128  24.218  25.751  1.00  0.00     0.170 HD
BRANCH  16  19
ATOM     19  C   UNL A   1      31.916  23.125  27.281  1.00  0.00     0.329 C 
BRANCH  19  20
ATOM     20  O   UNL A   1      32.713  22.127  26.688  1.00  0.00    -0.484 OA
BRANCH  20  21
ATOM     21  C   UNL A   1      33.858  22.485  26.041  1.00  0.00     0.120 A 
ATOM     22  C   UNL A   1      37.156  21.438  24.518  1.00  0.00     0.044 C 
ATOM     23  C   UNL A   1      35.946  22.260  24.842  1.00  0.00    -0.047 A 
ATOM     24  C   UNL A   1      36.053  23.650  24.726  1.00  0.00     0.003 A 
ATOM     25  C   UNL A   1      34.811  21.677  25.445  1.00  0.00     0.049 A 
ATOM     26  C   UNL A   1      35.109  24.452  25.329  1.00  0.00     0.004 A 
ATOM     27  C   UNL A   1      34.083  23.855  26.051  1.00  0.00     0.046 A 
ENDBRANCH  20  21
ENDBRANCH  19  20
ENDBRANCH  16  19
ENDBRANCH   8  15
ENDBRANCH   4   7
ENDBRANCH   2   3
ENDBRANCH   1   2
BRANCH   1  28
ATOM     28  C   UNL A   1      33.305  30.815  27.560  1.00  0.00     0.023 C 
BRANCH  28  29
ATOM     29  C   UNL A   1      34.151  32.092  27.647  1.00  0.00     0.116 C 
BRANCH  29  30
ATOM     30  N   UNL A   1      34.571  32.608  28.950  1.00  0.00    -0.352 N 
ATOM     31  C   UNL A   1      35.361  31.999  29.929  1.00  0.00     0.251 C 
ATOM     32  H   UNL A   1      34.250  33.513  29.170  1.00  0.00     0.163 HD
ATOM     33  O   UNL A   1      35.434  32.481  31.057  1.00  0.00    -0.269 OA
BRANCH  31  34
ATOM     34  C   UNL A   1      36.229  30.841  29.585  1.00  0.00     0.039 A 
ATOM     35  C   UNL A   1      36.309  29.766  30.488  1.00  0.00     0.014 A 
ATOM     36  C   UNL A   1      37.135  30.921  28.542  1.00  0.00     0.014 A 
ATOM     37  C   UNL A   1      37.453  28.975  30.513  1.00  0.00     0.010 A 
ATOM     38  C   UNL A   1      38.336  30.298  28.683  1.00  0.00     0.010 A 
ATOM     39  C   UNL A   1      38.507  29.371  29.708  1.00  0.00    -0.014 A 
BRANCH  39  40
ATOM     40  C   UNL A   1      39.880  28.933  29.804  1.00  0.00     0.031 A 
ATOM     41  C   UNL A   1      40.188  27.584  29.318  1.00  0.00     0.074 A 
ATOM     42  C   UNL A   1      40.764  29.948  29.902  1.00  0.00     0.049 A 
ATOM     43  N   UNL A   1      41.300  26.973  29.486  1.00  0.00    -0.248 NA
ATOM     44  C   UNL A   1      39.194  26.780  28.606  1.00  0.00     0.031 C 
ATOM     45  C   UNL A   1      42.148  30.040  29.459  1.00  0.00     0.029 A 
ATOM     46  N   UNL A   1      40.558  31.133  30.606  1.00  0.00    -0.354 N 
ATOM     47  C   UNL A   1      41.300  25.903  28.613  1.00  0.00     0.074 A 
ATOM     48  C   UNL A   1      39.925  25.732  28.228  1.00  0.00     0.031 C 
ATOM     49  C   UNL A   1      42.734  31.079  30.091  1.00  0.00     0.029 A 
ATOM     50  C   UNL A   1      41.798  31.528  31.119  1.00  0.00     0.049 A 
ATOM     51  H   UNL A   1      39.701  31.603  30.720  1.00  0.00     0.167 HD
ATOM     52  C   UNL A   1      42.497  25.432  28.165  1.00  0.00     0.034 A 
ATOM     53  C   UNL A   1      42.015  31.376  32.466  1.00  0.00     0.034 A 
ATOM     54  C   UNL A   1      43.588  26.175  28.809  1.00  0.00     0.049 A 
ATOM     55  C   UNL A   1      43.081  30.341  32.772  1.00  0.00     0.074 A 
ATOM     56  C   UNL A   1      44.390  27.218  28.375  1.00  0.00     0.029 A 
ATOM     57  N   UNL A   1      43.720  26.130  30.191  1.00  0.00    -0.354 N 
ATOM     58  N   UNL A   1      43.412  29.359  31.979  1.00  0.00    -0.248 NA
ATOM     59  C   UNL A   1      43.834  30.343  34.019  1.00  0.00     0.031 C 
ATOM     60  C   UNL A   1      44.931  27.856  29.527  1.00  0.00     0.029 A 
ATOM     61  C   UNL A   1      44.492  27.178  30.653  1.00  0.00     0.049 A 
ATOM     62  H   UNL A   1      43.315  25.441  30.767  1.00  0.00     0.167 HD
ATOM     63  C   UNL A   1      44.323  28.553  32.611  1.00  0.00     0.074 A 
ATOM     64  C   UNL A   1      44.600  29.255  33.855  1.00  0.00     0.031 C 
ATOM     65  C   UNL A   1      44.717  27.351  32.085  1.00  0.00     0.034 A 
BRANCH  52  66
ATOM     66  C   UNL A   1      42.723  24.550  26.950  1.00  0.00     0.023 A 
ATOM     67  C   UNL A   1      42.320  23.200  27.035  1.00  0.00     0.031 A 
ATOM     68  C   UNL A   1      43.338  24.904  25.731  1.00  0.00     0.131 A 
ATOM     69  C   UNL A   1      42.583  22.277  26.007  1.00  0.00     0.055 A 
ATOM     70  C   UNL A   1      43.621  23.981  24.713  1.00  0.00     0.041 A 
ATOM     71  F   UNL A   1      43.670  26.160  25.425  1.00  0.00    -0.206 F 
ATOM     72  C   UNL A   1      43.249  22.656  24.849  1.00  0.00     0.022 A 
BRANCH  69  73
ATOM     73  S   UNL A   1      42.036  20.564  26.214  1.00  0.00     0.124 S 
ATOM     74  O   UNL A   1      40.621  20.650  25.867  1.00  0.00    -0.237 OA
ATOM     75  O   UNL A   1      42.892  19.849  25.273  1.00  0.00    -0.237 OA
ATOM     76  O   UNL A   1      42.309  20.290  27.624  1.00  0.00    -0.744 OA
ENDBRANCH  69  73
ENDBRANCH  52  66
BRANCH  53  77
ATOM     77  C   UNL A   1      40.749  31.478  33.276  1.00  0.00     0.023 A 
ATOM     78  C   UNL A   1      40.111  32.731  33.395  1.00  0.00     0.031 A 
ATOM     79  C   UNL A   1      39.983  30.329  33.543  1.00  0.00     0.131 A 
ATOM     80  C   UNL A   1      38.721  32.785  33.601  1.00  0.00     0.055 A 
ATOM     81  C   UNL A   1      38.610  30.402  33.793  1.00  0.00     0.041 A 
ATOM     82  F   UNL A   1      40.524  29.106  33.443  1.00  0.00    -0.206 F 
ATOM     83  C   UNL A   1      37.962  31.630  33.777  1.00  0.00     0.022 A 
BRANCH  80  84
ATOM     84  S   UNL A   1      37.868  34.373  33.488  1.00  0.00     0.124 S 
ATOM     85  O   UNL A   1      38.641  35.206  34.385  1.00  0.00    -0.237 OA
ATOM     86  O   UNL A   1      37.987  34.640  32.052  1.00  0.00    -0.237 OA
ATOM     87  O   UNL A   1      36.511  34.064  33.950  1.00  0.00    -0.744 OA
ENDBRANCH  80  84
ENDBRANCH  53  77
BRANCH  65  88
ATOM     88  C   UNL A   1      45.388  26.249  32.881  1.00  0.00     0.023 A 
ATOM     89  C   UNL A   1      44.663  25.289  33.595  1.00  0.00     0.031 A 
ATOM     90  C   UNL A   1      46.793  26.077  32.903  1.00  0.00     0.131 A 
ATOM     91  C   UNL A   1      45.298  24.337  34.403  1.00  0.00     0.055 A 
ATOM     92  C   UNL A   1      47.425  25.045  33.606  1.00  0.00     0.041 A 
ATOM     93  F   UNL A   1      47.624  26.891  32.236  1.00  0.00    -0.206 F 
ATOM     94  C   UNL A   1      46.678  24.186  34.395  1.00  0.00     0.022 A 
BRANCH  91  95
ATOM     95  S   UNL A   1      44.263  23.405  35.559  1.00  0.00     0.124 S 
ATOM     96  O   UNL A   1      45.111  22.251  35.850  1.00  0.00    -0.237 OA
ATOM     97  O   UNL A   1      44.087  24.350  36.655  1.00  0.00    -0.237 OA
ATOM     98  O   UNL A   1      43.061  23.113  34.784  1.00  0.00    -0.744 OA
ENDBRANCH  91  95
ENDBRANCH  65  88
ENDBRANCH  39  40
ENDBRANCH  31  34
ENDBRANCH  29  30
ENDBRANCH  28  29
ENDBRANCH   1  28
TORSDOF 18
ENDMDL
