MODEL 1
REMARK VINA RESULT:     -11.0      0.000      0.000
REMARK SMILES CNC(=O)NC(=O)CCSc1csc(C(=O)NCCCCNC(=O)c2ccc(-c3c4nc(c(-c5cc(S(=O)(=O)[O-])ccc5F)c5ccc([nH]5)c(-c5cc(S(=O)(=O)[O-])ccc5F)c5nc(c(-c6cc(S(=O)(=O)[O-])ccc6F)c6ccc3[nH]6)C=C5)C=C4)cc2)c1
REMARK SMILES IDX 19 1 18 2 17 3 15 4 16 5 14 7 11 8 12 9 88 10 13 11 10 12
REMARK SMILES IDX 9 13 8 14 6 15 1 16 2 17 3 18 4 20 5 21 7 23 20 24 21 25
REMARK SMILES IDX 22 26 23 27 24 29 25 30 26 31 87 32 27 33 86 34 28 35 29 36
REMARK SMILES IDX 30 37 80 38 31 39 85 40 79 41 81 42 32 43 84 44 78 45 77 46
REMARK SMILES IDX 33 48 65 49 45 50 64 51 46 52 49 53 63 54 82 55 47 56 48 57
REMARK SMILES IDX 62 59 83 60 50 61 34 62 35 63 43 64 36 65 42 66 44 67 41 68
REMARK SMILES IDX 37 69 38 70 39 71 40 72 66 73 67 74 75 75 68 76 74 77 76 78
REMARK SMILES IDX 73 79 69 80 70 81 71 82 72 83 51 84 52 85 60 86 53 87 59 88
REMARK SMILES IDX 61 89 58 90 54 91 55 92 56 93 57 94
REMARK H PARENT 17 6 2 19 5 22 22 28 81 47 49 58
REMARK Flexibility Score: inf
ROOT
ATOM      1  C   UNL A   1      30.991  29.750  24.558  1.00  0.00     0.023 C 
ENDROOT
BRANCH   1   2
ATOM      2  C   UNL A   1      31.100  29.003  23.231  1.00  0.00     0.116 C 
BRANCH   2   3
ATOM      3  N   UNL A   1      32.449  29.049  22.708  1.00  0.00    -0.351 N 
ATOM      4  C   UNL A   1      33.360  28.070  22.396  1.00  0.00     0.261 C 
ATOM      5  O   UNL A   1      34.404  28.483  21.880  1.00  0.00    -0.268 OA
ATOM      6  H   UNL A   1      32.779  29.961  22.545  1.00  0.00     0.163 HD
BRANCH   4   7
ATOM      7  C   UNL A   1      33.099  26.654  22.629  1.00  0.00     0.093 A 
ATOM      8  C   UNL A   1      32.692  24.524  23.520  1.00  0.00     0.019 A 
ATOM      9  C   UNL A   1      32.486  24.289  22.184  1.00  0.00     0.080 A 
ATOM     10  C   UNL A   1      33.138  25.858  23.762  1.00  0.00     0.040 A 
ATOM     11  S   UNL A   1      32.698  25.697  21.249  1.00  0.00    -0.137 S 
BRANCH   8  12
ATOM     12  S   UNL A   1      32.487  23.365  24.826  1.00  0.00    -0.125 SA
BRANCH  12  13
ATOM     13  C   UNL A   1      33.570  24.015  26.136  1.00  0.00     0.085 C 
BRANCH  13  14
ATOM     14  C   UNL A   1      34.913  23.327  26.331  1.00  0.00     0.112 C 
BRANCH  14  15
ATOM     15  C   UNL A   1      34.863  21.844  26.548  1.00  0.00     0.228 C 
ATOM     16  C   UNL A   1      36.610  22.949  23.587  1.00  0.00     0.144 C 
ATOM     17  N   UNL A   1      37.176  21.789  24.220  1.00  0.00    -0.341 N 
ATOM     18  C   UNL A   1      36.651  20.821  24.977  1.00  0.00     0.321 C 
ATOM     19  H   UNL A   1      38.144  21.688  24.066  1.00  0.00     0.165 HD
ATOM     20  O   UNL A   1      37.249  19.741  25.002  1.00  0.00    -0.248 OA
ATOM     21  N   UNL A   1      35.533  20.938  25.748  1.00  0.00    -0.278 N 
ATOM     22  H   UNL A   1      35.034  20.090  25.729  1.00  0.00     0.174 HD
ATOM     23  O   UNL A   1      34.196  21.398  27.489  1.00  0.00    -0.275 OA
ENDBRANCH  14  15
ENDBRANCH  13  14
ENDBRANCH  12  13
ENDBRANCH   8  12
ENDBRANCH   4   7
ENDBRANCH   2   3
ENDBRANCH   1   2
BRANCH   1  24
ATOM     24  C   UNL A   1      32.264  29.709  25.411  1.00  0.00     0.023 C 
BRANCH  24  25
ATOM     25  C   UNL A   1      32.125  30.272  26.825  1.00  0.00     0.116 C 
BRANCH  25  26
ATOM     26  N   UNL A   1      32.119  31.725  26.860  1.00  0.00    -0.352 N 
ATOM     27  C   UNL A   1      33.030  32.592  27.422  1.00  0.00     0.251 C 
ATOM     28  H   UNL A   1      31.352  32.153  26.416  1.00  0.00     0.163 HD
ATOM     29  O   UNL A   1      32.776  33.787  27.466  1.00  0.00    -0.269 OA
BRANCH  27  30
ATOM     30  C   UNL A   1      34.290  32.070  28.002  1.00  0.00     0.039 A 
ATOM     31  C   UNL A   1      35.395  32.923  28.085  1.00  0.00     0.014 A 
ATOM     32  C   UNL A   1      34.389  30.753  28.459  1.00  0.00     0.014 A 
ATOM     33  C   UNL A   1      36.572  32.478  28.693  1.00  0.00     0.010 A 
ATOM     34  C   UNL A   1      35.541  30.332  29.122  1.00  0.00     0.010 A 
ATOM     35  C   UNL A   1      36.643  31.192  29.251  1.00  0.00    -0.014 A 
BRANCH  35  36
ATOM     36  C   UNL A   1      37.856  30.733  29.982  1.00  0.00     0.031 A 
ATOM     37  C   UNL A   1      38.793  29.741  29.349  1.00  0.00     0.074 A 
ATOM     38  C   UNL A   1      38.076  31.160  31.242  1.00  0.00     0.049 A 
ATOM     39  N   UNL A   1      39.851  29.160  29.854  1.00  0.00    -0.248 NA
ATOM     40  C   UNL A   1      38.479  29.326  27.973  1.00  0.00     0.031 C 
ATOM     41  C   UNL A   1      37.220  32.090  31.981  1.00  0.00     0.029 A 
ATOM     42  N   UNL A   1      39.079  30.859  32.130  1.00  0.00    -0.354 N 
ATOM     43  C   UNL A   1      40.322  28.302  28.866  1.00  0.00     0.074 A 
ATOM     44  C   UNL A   1      39.398  28.398  27.755  1.00  0.00     0.031 C 
ATOM     45  C   UNL A   1      37.743  32.297  33.200  1.00  0.00     0.029 A 
ATOM     46  C   UNL A   1      38.945  31.484  33.349  1.00  0.00     0.049 A 
ATOM     47  H   UNL A   1      39.824  30.252  31.915  1.00  0.00     0.167 HD
ATOM     48  C   UNL A   1      41.433  27.522  28.877  1.00  0.00     0.034 A 
ATOM     49  C   UNL A   1      39.697  31.402  34.464  1.00  0.00     0.034 A 
ATOM     50  C   UNL A   1      42.351  27.445  29.989  1.00  0.00     0.049 A 
ATOM     51  C   UNL A   1      40.916  30.514  34.460  1.00  0.00     0.074 A 
ATOM     52  C   UNL A   1      43.533  26.729  30.084  1.00  0.00     0.029 A 
ATOM     53  N   UNL A   1      42.187  28.099  31.204  1.00  0.00    -0.354 N 
ATOM     54  N   UNL A   1      41.376  29.746  33.499  1.00  0.00    -0.248 NA
ATOM     55  C   UNL A   1      41.724  30.493  35.686  1.00  0.00     0.031 C 
ATOM     56  C   UNL A   1      44.048  26.900  31.373  1.00  0.00     0.029 A 
ATOM     57  C   UNL A   1      43.230  27.781  32.061  1.00  0.00     0.049 A 
ATOM     58  H   UNL A   1      41.440  28.700  31.423  1.00  0.00     0.167 HD
ATOM     59  C   UNL A   1      42.544  29.175  33.996  1.00  0.00     0.074 A 
ATOM     60  C   UNL A   1      42.724  29.699  35.335  1.00  0.00     0.031 C 
ATOM     61  C   UNL A   1      43.394  28.301  33.398  1.00  0.00     0.034 A 
BRANCH  48  62
ATOM     62  C   UNL A   1      41.696  26.674  27.655  1.00  0.00     0.023 A 
ATOM     63  C   UNL A   1      41.353  25.311  27.614  1.00  0.00     0.031 A 
ATOM     64  C   UNL A   1      42.323  27.227  26.524  1.00  0.00     0.131 A 
ATOM     65  C   UNL A   1      41.709  24.530  26.503  1.00  0.00     0.055 A 
ATOM     66  C   UNL A   1      42.601  26.463  25.387  1.00  0.00     0.041 A 
ATOM     67  F   UNL A   1      42.692  28.518  26.509  1.00  0.00    -0.206 F 
ATOM     68  C   UNL A   1      42.308  25.102  25.379  1.00  0.00     0.022 A 
BRANCH  65  69
ATOM     69  S   UNL A   1      41.511  22.731  26.611  1.00  0.00     0.124 S 
ATOM     70  O   UNL A   1      41.705  22.498  28.041  1.00  0.00    -0.237 OA
ATOM     71  O   UNL A   1      40.156  22.532  26.110  1.00  0.00    -0.237 OA
ATOM     72  O   UNL A   1      42.576  22.216  25.754  1.00  0.00    -0.744 OA
ENDBRANCH  65  69
ENDBRANCH  48  62
BRANCH  49  73
ATOM     73  C   UNL A   1      39.322  32.169  35.686  1.00  0.00     0.023 A 
ATOM     74  C   UNL A   1      38.556  31.577  36.704  1.00  0.00     0.031 A 
ATOM     75  C   UNL A   1      39.687  33.519  35.835  1.00  0.00     0.131 A 
ATOM     76  C   UNL A   1      38.139  32.346  37.802  1.00  0.00     0.055 A 
ATOM     77  C   UNL A   1      39.313  34.264  36.955  1.00  0.00     0.041 A 
ATOM     78  F   UNL A   1      40.424  34.130  34.895  1.00  0.00    -0.206 F 
ATOM     79  C   UNL A   1      38.523  33.682  37.941  1.00  0.00     0.022 A 
BRANCH  76  80
ATOM     80  S   UNL A   1      37.014  31.594  39.010  1.00  0.00     0.124 S 
ATOM     81  O   UNL A   1      36.899  30.233  38.503  1.00  0.00    -0.237 OA
ATOM     82  O   UNL A   1      37.758  31.753  40.256  1.00  0.00    -0.237 OA
ATOM     83  O   UNL A   1      35.805  32.407  38.902  1.00  0.00    -0.744 OA
ENDBRANCH  76  80
ENDBRANCH  49  73
BRANCH  61  84
ATOM     84  C   UNL A   1      44.622  27.900  34.178  1.00  0.00     0.023 A 
ATOM     85  C   UNL A   1      44.635  26.766  35.011  1.00  0.00     0.031 A 
ATOM     86  C   UNL A   1      45.793  28.674  34.097  1.00  0.00     0.131 A 
ATOM     87  C   UNL A   1      45.777  26.472  35.772  1.00  0.00     0.055 A 
ATOM     88  C   UNL A   1      46.945  28.343  34.812  1.00  0.00     0.041 A 
ATOM     89  F   UNL A   1      45.837  29.768  33.320  1.00  0.00    -0.206 F 
ATOM     90  C   UNL A   1      46.936  27.244  35.666  1.00  0.00     0.022 A 
BRANCH  87  91
ATOM     91  S   UNL A   1      45.696  25.118  36.977  1.00  0.00     0.124 S 
ATOM     92  O   UNL A   1      47.093  24.704  37.062  1.00  0.00    -0.237 OA
ATOM     93  O   UNL A   1      45.155  25.782  38.157  1.00  0.00    -0.237 OA
ATOM     94  O   UNL A   1      44.800  24.150  36.346  1.00  0.00    -0.744 OA
ENDBRANCH  87  91
ENDBRANCH  61  84
ENDBRANCH  35  36
ENDBRANCH  27  30
ENDBRANCH  25  26
ENDBRANCH  24  25
ENDBRANCH   1  24
TORSDOF 18
ENDMDL
MODEL 2
REMARK VINA RESULT:     -11.0      5.529     10.878
REMARK SMILES CNC(=O)NC(=O)CCSc1csc(C(=O)NCCCCNC(=O)c2ccc(-c3c4nc(c(-c5cc(S(=O)(=O)[O-])ccc5F)c5ccc([nH]5)c(-c5cc(S(=O)(=O)[O-])ccc5F)c5nc(c(-c6cc(S(=O)(=O)[O-])ccc6F)c6ccc3[nH]6)C=C5)C=C4)cc2)c1
REMARK SMILES IDX 19 1 18 2 17 3 15 4 16 5 14 7 11 8 12 9 88 10 13 11 10 12
REMARK SMILES IDX 9 13 8 14 6 15 1 16 2 17 3 18 4 20 5 21 7 23 20 24 21 25
REMARK SMILES IDX 22 26 23 27 24 29 25 30 26 31 87 32 27 33 86 34 28 35 29 36
REMARK SMILES IDX 30 37 80 38 31 39 85 40 79 41 81 42 32 43 84 44 78 45 77 46
REMARK SMILES IDX 33 48 65 49 45 50 64 51 46 52 49 53 63 54 82 55 47 56 48 57
REMARK SMILES IDX 62 59 83 60 50 61 34 62 35 63 43 64 36 65 42 66 44 67 41 68
REMARK SMILES IDX 37 69 38 70 39 71 40 72 66 73 67 74 75 75 68 76 74 77 76 78
REMARK SMILES IDX 73 79 69 80 70 81 71 82 72 83 51 84 52 85 60 86 53 87 59 88
REMARK SMILES IDX 61 89 58 90 54 91 55 92 56 93 57 94
REMARK H PARENT 17 6 2 19 5 22 22 28 81 47 49 58
REMARK Flexibility Score: inf
ROOT
ATOM      1  C   UNL A   1      36.477  20.001  24.958  1.00  0.00     0.023 C 
ENDROOT
BRANCH   1   2
ATOM      2  C   UNL A   1      36.348  21.456  25.400  1.00  0.00     0.116 C 
BRANCH   2   3
ATOM      3  N   UNL A   1      35.454  21.587  26.531  1.00  0.00    -0.351 N 
ATOM      4  C   UNL A   1      34.171  22.060  26.654  1.00  0.00     0.261 C 
ATOM      5  O   UNL A   1      33.682  21.938  27.782  1.00  0.00    -0.268 OA
ATOM      6  H   UNL A   1      35.843  21.277  27.380  1.00  0.00     0.163 HD
BRANCH   4   7
ATOM      7  C   UNL A   1      33.437  22.634  25.532  1.00  0.00     0.093 A 
ATOM      8  C   UNL A   1      32.631  23.939  23.759  1.00  0.00     0.019 A 
ATOM      9  C   UNL A   1      31.848  22.819  23.632  1.00  0.00     0.080 A 
ATOM     10  C   UNL A   1      33.475  23.870  24.908  1.00  0.00     0.040 A 
ATOM     11  S   UNL A   1      32.222  21.643  24.807  1.00  0.00    -0.137 S 
BRANCH   8  12
ATOM     12  S   UNL A   1      32.626  25.340  22.697  1.00  0.00    -0.125 SA
BRANCH  12  13
ATOM     13  C   UNL A   1      33.389  26.641  23.717  1.00  0.00     0.085 C 
BRANCH  13  14
ATOM     14  C   UNL A   1      32.453  27.524  24.529  1.00  0.00     0.112 C 
BRANCH  14  15
ATOM     15  C   UNL A   1      32.247  27.120  25.959  1.00  0.00     0.228 C 
ATOM     16  C   UNL A   1      29.381  26.773  23.791  1.00  0.00     0.144 C 
ATOM     17  N   UNL A   1      29.497  25.755  24.799  1.00  0.00    -0.341 N 
ATOM     18  C   UNL A   1      30.056  25.739  26.013  1.00  0.00     0.321 C 
ATOM     19  H   UNL A   1      29.083  24.898  24.544  1.00  0.00     0.165 HD
ATOM     20  O   UNL A   1      29.625  24.910  26.819  1.00  0.00    -0.248 OA
ATOM     21  N   UNL A   1      31.083  26.537  26.421  1.00  0.00    -0.278 N 
ATOM     22  H   UNL A   1      30.950  26.781  27.366  1.00  0.00     0.174 HD
ATOM     23  O   UNL A   1      33.160  27.308  26.771  1.00  0.00    -0.275 OA
ENDBRANCH  14  15
ENDBRANCH  13  14
ENDBRANCH  12  13
ENDBRANCH   8  12
ENDBRANCH   4   7
ENDBRANCH   2   3
ENDBRANCH   1   2
BRANCH   1  24
ATOM     24  C   UNL A   1      37.922  19.515  24.797  1.00  0.00     0.023 C 
BRANCH  24  25
ATOM     25  C   UNL A   1      38.900  19.996  25.869  1.00  0.00     0.116 C 
BRANCH  25  26
ATOM     26  N   UNL A   1      40.103  19.184  25.945  1.00  0.00    -0.352 N 
ATOM     27  C   UNL A   1      41.408  19.569  26.157  1.00  0.00     0.251 C 
ATOM     28  H   UNL A   1      39.964  18.216  25.829  1.00  0.00     0.163 HD
ATOM     29  O   UNL A   1      42.304  18.744  26.050  1.00  0.00    -0.269 OA
BRANCH  27  30
ATOM     30  C   UNL A   1      41.722  20.982  26.477  1.00  0.00     0.039 A 
ATOM     31  C   UNL A   1      41.998  21.324  27.804  1.00  0.00     0.014 A 
ATOM     32  C   UNL A   1      41.743  21.964  25.484  1.00  0.00     0.014 A 
ATOM     33  C   UNL A   1      42.367  22.635  28.121  1.00  0.00     0.010 A 
ATOM     34  C   UNL A   1      42.175  23.254  25.791  1.00  0.00     0.010 A 
ATOM     35  C   UNL A   1      42.496  23.602  27.112  1.00  0.00    -0.014 A 
BRANCH  35  36
ATOM     36  C   UNL A   1      42.977  24.977  27.418  1.00  0.00     0.031 A 
ATOM     37  C   UNL A   1      42.052  25.979  28.056  1.00  0.00     0.074 A 
ATOM     38  C   UNL A   1      44.224  25.343  27.059  1.00  0.00     0.049 A 
ATOM     39  N   UNL A   1      42.257  27.243  28.323  1.00  0.00    -0.248 NA
ATOM     40  C   UNL A   1      40.710  25.498  28.414  1.00  0.00     0.031 C 
ATOM     41  C   UNL A   1      45.201  24.476  26.397  1.00  0.00     0.029 A 
ATOM     42  N   UNL A   1      44.880  26.542  27.187  1.00  0.00    -0.354 N 
ATOM     43  C   UNL A   1      41.067  27.714  28.868  1.00  0.00     0.074 A 
ATOM     44  C   UNL A   1      40.129  26.611  28.837  1.00  0.00     0.031 C 
ATOM     45  C   UNL A   1      46.336  25.165  26.195  1.00  0.00     0.029 A 
ATOM     46  C   UNL A   1      46.156  26.533  26.671  1.00  0.00     0.049 A 
ATOM     47  H   UNL A   1      44.475  27.334  27.609  1.00  0.00     0.167 HD
ATOM     48  C   UNL A   1      40.789  28.945  29.365  1.00  0.00     0.034 A 
ATOM     49  C   UNL A   1      47.071  27.518  26.578  1.00  0.00     0.034 A 
ATOM     50  C   UNL A   1      41.738  30.033  29.398  1.00  0.00     0.049 A 
ATOM     51  C   UNL A   1      46.734  28.884  27.120  1.00  0.00     0.074 A 
ATOM     52  C   UNL A   1      41.577  31.303  29.927  1.00  0.00     0.029 A 
ATOM     53  N   UNL A   1      43.023  29.984  28.872  1.00  0.00    -0.354 N 
ATOM     54  N   UNL A   1      45.620  29.299  27.677  1.00  0.00    -0.248 NA
ATOM     55  C   UNL A   1      47.782  29.908  27.032  1.00  0.00     0.031 C 
ATOM     56  C   UNL A   1      42.738  32.038  29.666  1.00  0.00     0.029 A 
ATOM     57  C   UNL A   1      43.654  31.208  29.041  1.00  0.00     0.049 A 
ATOM     58  H   UNL A   1      43.427  29.196  28.444  1.00  0.00     0.167 HD
ATOM     59  C   UNL A   1      45.846  30.626  28.033  1.00  0.00     0.074 A 
ATOM     60  C   UNL A   1      47.207  30.934  27.641  1.00  0.00     0.031 C 
ATOM     61  C   UNL A   1      45.008  31.508  28.636  1.00  0.00     0.034 A 
BRANCH  48  62
ATOM     62  C   UNL A   1      39.391  29.182  29.889  1.00  0.00     0.023 A 
ATOM     63  C   UNL A   1      38.437  29.901  29.149  1.00  0.00     0.031 A 
ATOM     64  C   UNL A   1      39.015  28.707  31.159  1.00  0.00     0.131 A 
ATOM     65  C   UNL A   1      37.185  30.192  29.712  1.00  0.00     0.055 A 
ATOM     66  C   UNL A   1      37.739  28.928  31.681  1.00  0.00     0.041 A 
ATOM     67  F   UNL A   1      39.888  28.029  31.921  1.00  0.00    -0.206 F 
ATOM     68  C   UNL A   1      36.820  29.689  30.963  1.00  0.00     0.022 A 
BRANCH  65  69
ATOM     69  S   UNL A   1      36.098  31.360  28.849  1.00  0.00     0.124 S 
ATOM     70  O   UNL A   1      37.025  32.442  28.526  1.00  0.00    -0.237 OA
ATOM     71  O   UNL A   1      35.619  30.570  27.721  1.00  0.00    -0.237 OA
ATOM     72  O   UNL A   1      35.088  31.693  29.852  1.00  0.00    -0.744 OA
ENDBRANCH  65  69
ENDBRANCH  48  62
BRANCH  49  73
ATOM     73  C   UNL A   1      48.394  27.261  25.939  1.00  0.00     0.023 A 
ATOM     74  C   UNL A   1      48.588  27.482  24.566  1.00  0.00     0.031 A 
ATOM     75  C   UNL A   1      49.471  26.749  26.683  1.00  0.00     0.131 A 
ATOM     76  C   UNL A   1      49.814  27.147  23.970  1.00  0.00     0.055 A 
ATOM     77  C   UNL A   1      50.706  26.467  26.096  1.00  0.00     0.041 A 
ATOM     78  F   UNL A   1      49.341  26.525  28.000  1.00  0.00    -0.206 F 
ATOM     79  C   UNL A   1      50.879  26.653  24.728  1.00  0.00     0.022 A 
BRANCH  76  80
ATOM     80  S   UNL A   1      49.971  27.291  22.168  1.00  0.00     0.124 S 
ATOM     81  O   UNL A   1      51.362  26.908  21.960  1.00  0.00    -0.237 OA
ATOM     82  O   UNL A   1      48.967  26.341  21.700  1.00  0.00    -0.237 OA
ATOM     83  O   UNL A   1      49.664  28.696  21.911  1.00  0.00    -0.744 OA
ENDBRANCH  76  80
ENDBRANCH  49  73
BRANCH  61  84
ATOM     84  C   UNL A   1      45.564  32.876  28.949  1.00  0.00     0.023 A 
ATOM     85  C   UNL A   1      45.493  33.934  28.026  1.00  0.00     0.031 A 
ATOM     86  C   UNL A   1      46.188  33.116  30.185  1.00  0.00     0.131 A 
ATOM     87  C   UNL A   1      46.087  35.168  28.332  1.00  0.00     0.055 A 
ATOM     88  C   UNL A   1      46.725  34.363  30.507  1.00  0.00     0.041 A 
ATOM     89  F   UNL A   1      46.286  32.141  31.103  1.00  0.00    -0.206 F 
ATOM     90  C   UNL A   1      46.689  35.394  29.573  1.00  0.00     0.022 A 
BRANCH  87  91
ATOM     91  S   UNL A   1      46.146  36.450  27.050  1.00  0.00     0.124 S 
ATOM     92  O   UNL A   1      47.230  37.304  27.523  1.00  0.00    -0.237 OA
ATOM     93  O   UNL A   1      46.425  35.675  25.846  1.00  0.00    -0.237 OA
ATOM     94  O   UNL A   1      44.814  37.051  27.103  1.00  0.00    -0.744 OA
ENDBRANCH  87  91
ENDBRANCH  61  84
ENDBRANCH  35  36
ENDBRANCH  27  30
ENDBRANCH  25  26
ENDBRANCH  24  25
ENDBRANCH   1  24
TORSDOF 18
ENDMDL
MODEL 3
REMARK VINA RESULT:     -10.9      1.715      7.743
REMARK SMILES CNC(=O)NC(=O)CCSc1csc(C(=O)NCCCCNC(=O)c2ccc(-c3c4nc(c(-c5cc(S(=O)(=O)[O-])ccc5F)c5ccc([nH]5)c(-c5cc(S(=O)(=O)[O-])ccc5F)c5nc(c(-c6cc(S(=O)(=O)[O-])ccc6F)c6ccc3[nH]6)C=C5)C=C4)cc2)c1
REMARK SMILES IDX 19 1 18 2 17 3 15 4 16 5 14 7 11 8 12 9 88 10 13 11 10 12
REMARK SMILES IDX 9 13 8 14 6 15 1 16 2 17 3 18 4 20 5 21 7 23 20 24 21 25
REMARK SMILES IDX 22 26 23 27 24 29 25 30 26 31 87 32 27 33 86 34 28 35 29 36
REMARK SMILES IDX 30 37 80 38 31 39 85 40 79 41 81 42 32 43 84 44 78 45 77 46
REMARK SMILES IDX 33 48 65 49 45 50 64 51 46 52 49 53 63 54 82 55 47 56 48 57
REMARK SMILES IDX 62 59 83 60 50 61 34 62 35 63 43 64 36 65 42 66 44 67 41 68
REMARK SMILES IDX 37 69 38 70 39 71 40 72 66 73 67 74 75 75 68 76 74 77 76 78
REMARK SMILES IDX 73 79 69 80 70 81 71 82 72 83 51 84 52 85 60 86 53 87 59 88
REMARK SMILES IDX 61 89 58 90 54 91 55 92 56 93 57 94
REMARK H PARENT 17 6 2 19 5 22 22 28 81 47 49 58
REMARK Flexibility Score: inf
ROOT
ATOM      1  C   UNL A   1      31.391  29.563  23.640  1.00  0.00     0.023 C 
ENDROOT
BRANCH   1   2
ATOM      2  C   UNL A   1      30.924  28.416  22.747  1.00  0.00     0.116 C 
BRANCH   2   3
ATOM      3  N   UNL A   1      32.044  27.746  22.120  1.00  0.00    -0.351 N 
ATOM      4  C   UNL A   1      32.799  26.659  22.482  1.00  0.00     0.261 C 
ATOM      5  O   UNL A   1      33.636  26.309  21.643  1.00  0.00    -0.268 OA
ATOM      6  H   UNL A   1      32.318  28.150  21.265  1.00  0.00     0.163 HD
BRANCH   4   7
ATOM      7  C   UNL A   1      32.606  25.957  23.746  1.00  0.00     0.093 A 
ATOM      8  C   UNL A   1      31.914  24.570  25.505  1.00  0.00     0.019 A 
ATOM      9  C   UNL A   1      33.032  25.145  26.055  1.00  0.00     0.080 A 
ATOM     10  C   UNL A   1      31.617  25.109  24.217  1.00  0.00     0.040 A 
ATOM     11  S   UNL A   1      33.790  26.224  24.975  1.00  0.00    -0.137 S 
BRANCH   8  12
ATOM     12  S   UNL A   1      30.901  23.341  26.250  1.00  0.00    -0.125 SA
BRANCH  12  13
ATOM     13  C   UNL A   1      31.518  21.792  25.519  1.00  0.00     0.085 C 
BRANCH  13  14
ATOM     14  C   UNL A   1      32.968  21.423  25.797  1.00  0.00     0.112 C 
BRANCH  14  15
ATOM     15  C   UNL A   1      33.377  20.034  25.406  1.00  0.00     0.228 C 
ATOM     16  C   UNL A   1      35.748  22.651  24.651  1.00  0.00     0.144 C 
ATOM     17  N   UNL A   1      36.339  21.398  25.038  1.00  0.00    -0.341 N 
ATOM     18  C   UNL A   1      35.924  20.132  24.944  1.00  0.00     0.321 C 
ATOM     19  H   UNL A   1      37.227  21.493  25.456  1.00  0.00     0.165 HD
ATOM     20  O   UNL A   1      36.793  19.255  24.934  1.00  0.00    -0.248 OA
ATOM     21  N   UNL A   1      34.624  19.727  24.895  1.00  0.00    -0.278 N 
ATOM     22  H   UNL A   1      34.546  18.954  24.291  1.00  0.00     0.174 HD
ATOM     23  O   UNL A   1      32.568  19.110  25.547  1.00  0.00    -0.275 OA
ENDBRANCH  14  15
ENDBRANCH  13  14
ENDBRANCH  12  13
ENDBRANCH   8  12
ENDBRANCH   4   7
ENDBRANCH   2   3
ENDBRANCH   1   2
BRANCH   1  24
ATOM     24  C   UNL A   1      31.419  29.227  25.136  1.00  0.00     0.023 C 
BRANCH  24  25
ATOM     25  C   UNL A   1      32.591  29.817  25.919  1.00  0.00     0.116 C 
BRANCH  25  26
ATOM     26  N   UNL A   1      32.367  31.195  26.324  1.00  0.00    -0.352 N 
ATOM     27  C   UNL A   1      33.087  31.979  27.198  1.00  0.00     0.251 C 
ATOM     28  H   UNL A   1      31.587  31.632  25.912  1.00  0.00     0.163 HD
ATOM     29  O   UNL A   1      32.656  33.079  27.514  1.00  0.00    -0.269 OA
BRANCH  27  30
ATOM     30  C   UNL A   1      34.355  31.474  27.776  1.00  0.00     0.039 A 
ATOM     31  C   UNL A   1      35.406  32.374  27.975  1.00  0.00     0.014 A 
ATOM     32  C   UNL A   1      34.512  30.129  28.118  1.00  0.00     0.014 A 
ATOM     33  C   UNL A   1      36.587  31.939  28.586  1.00  0.00     0.010 A 
ATOM     34  C   UNL A   1      35.664  29.712  28.785  1.00  0.00     0.010 A 
ATOM     35  C   UNL A   1      36.711  30.613  29.030  1.00  0.00    -0.014 A 
BRANCH  35  36
ATOM     36  C   UNL A   1      37.923  30.155  29.763  1.00  0.00     0.031 A 
ATOM     37  C   UNL A   1      38.193  30.643  31.162  1.00  0.00     0.074 A 
ATOM     38  C   UNL A   1      38.813  29.353  29.145  1.00  0.00     0.049 A 
ATOM     39  N   UNL A   1      39.229  30.426  31.930  1.00  0.00    -0.248 NA
ATOM     40  C   UNL A   1      37.172  31.515  31.761  1.00  0.00     0.031 C 
ATOM     41  C   UNL A   1      38.685  28.846  27.777  1.00  0.00     0.029 A 
ATOM     42  N   UNL A   1      40.008  28.835  29.579  1.00  0.00    -0.354 N 
ATOM     43  C   UNL A   1      38.994  31.143  33.098  1.00  0.00     0.074 A 
ATOM     44  C   UNL A   1      37.743  31.847  32.909  1.00  0.00     0.031 C 
ATOM     45  C   UNL A   1      39.747  28.076  27.492  1.00  0.00     0.029 A 
ATOM     46  C   UNL A   1      40.653  28.068  28.636  1.00  0.00     0.049 A 
ATOM     47  H   UNL A   1      40.369  28.997  30.480  1.00  0.00     0.167 HD
ATOM     48  C   UNL A   1      39.742  31.193  34.228  1.00  0.00     0.034 A 
ATOM     49  C   UNL A   1      41.845  27.441  28.681  1.00  0.00     0.034 A 
ATOM     50  C   UNL A   1      40.983  30.477  34.405  1.00  0.00     0.049 A 
ATOM     51  C   UNL A   1      42.669  27.526  29.942  1.00  0.00     0.074 A 
ATOM     52  C   UNL A   1      41.792  30.416  35.528  1.00  0.00     0.029 A 
ATOM     53  N   UNL A   1      41.602  29.704  33.431  1.00  0.00    -0.354 N 
ATOM     54  N   UNL A   1      42.407  28.170  31.057  1.00  0.00    -0.248 NA
ATOM     55  C   UNL A   1      43.939  26.791  29.954  1.00  0.00     0.031 C 
ATOM     56  C   UNL A   1      42.926  29.660  35.212  1.00  0.00     0.029 A 
ATOM     57  C   UNL A   1      42.793  29.186  33.918  1.00  0.00     0.049 A 
ATOM     58  H   UNL A   1      41.246  29.546  32.527  1.00  0.00     0.167 HD
ATOM     59  C   UNL A   1      43.469  27.890  31.913  1.00  0.00     0.074 A 
ATOM     60  C   UNL A   1      44.364  27.008  31.189  1.00  0.00     0.031 C 
ATOM     61  C   UNL A   1      43.683  28.317  33.184  1.00  0.00     0.034 A 
BRANCH  48  62
ATOM     62  C   UNL A   1      39.244  32.075  35.350  1.00  0.00     0.023 A 
ATOM     63  C   UNL A   1      39.642  33.418  35.467  1.00  0.00     0.031 A 
ATOM     64  C   UNL A   1      38.380  31.559  36.333  1.00  0.00     0.131 A 
ATOM     65  C   UNL A   1      39.244  34.175  36.580  1.00  0.00     0.055 A 
ATOM     66  C   UNL A   1      37.919  32.342  37.395  1.00  0.00     0.041 A 
ATOM     67  F   UNL A   1      37.978  30.279  36.287  1.00  0.00    -0.206 F 
ATOM     68  C   UNL A   1      38.365  33.654  37.532  1.00  0.00     0.022 A 
BRANCH  65  69
ATOM     69  S   UNL A   1      40.009  35.798  36.841  1.00  0.00     0.124 S 
ATOM     70  O   UNL A   1      39.661  36.491  35.603  1.00  0.00    -0.237 OA
ATOM     71  O   UNL A   1      39.341  36.271  38.048  1.00  0.00    -0.237 OA
ATOM     72  O   UNL A   1      41.429  35.487  36.994  1.00  0.00    -0.744 OA
ENDBRANCH  65  69
ENDBRANCH  48  62
BRANCH  49  73
ATOM     73  C   UNL A   1      42.346  26.684  27.499  1.00  0.00     0.023 A 
ATOM     74  C   UNL A   1      42.028  25.328  27.320  1.00  0.00     0.031 A 
ATOM     75  C   UNL A   1      43.187  27.294  26.551  1.00  0.00     0.131 A 
ATOM     76  C   UNL A   1      42.585  24.613  26.249  1.00  0.00     0.055 A 
ATOM     77  C   UNL A   1      43.697  26.592  25.456  1.00  0.00     0.041 A 
ATOM     78  F   UNL A   1      43.517  28.590  26.671  1.00  0.00    -0.206 F 
ATOM     79  C   UNL A   1      43.407  25.239  25.308  1.00  0.00     0.022 A 
BRANCH  76  80
ATOM     80  S   UNL A   1      42.285  22.827  26.146  1.00  0.00     0.124 S 
ATOM     81  O   UNL A   1      43.030  22.334  27.298  1.00  0.00    -0.237 OA
ATOM     82  O   UNL A   1      40.831  22.759  26.246  1.00  0.00    -0.237 OA
ATOM     83  O   UNL A   1      42.836  22.464  24.843  1.00  0.00    -0.744 OA
ENDBRANCH  76  80
ENDBRANCH  49  73
BRANCH  61  84
ATOM     84  C   UNL A   1      44.912  27.791  33.885  1.00  0.00     0.023 A 
ATOM     85  C   UNL A   1      44.874  26.632  34.681  1.00  0.00     0.031 A 
ATOM     86  C   UNL A   1      46.136  28.473  33.765  1.00  0.00     0.131 A 
ATOM     87  C   UNL A   1      46.025  26.221  35.370  1.00  0.00     0.055 A 
ATOM     88  C   UNL A   1      47.292  28.025  34.407  1.00  0.00     0.041 A 
ATOM     89  F   UNL A   1      46.230  29.585  33.020  1.00  0.00    -0.206 F 
ATOM     90  C   UNL A   1      47.237  26.902  35.227  1.00  0.00     0.022 A 
BRANCH  87  91
ATOM     91  S   UNL A   1      45.895  24.837  36.536  1.00  0.00     0.124 S 
ATOM     92  O   UNL A   1      47.198  24.869  37.192  1.00  0.00    -0.237 OA
ATOM     93  O   UNL A   1      44.757  25.228  37.360  1.00  0.00    -0.237 OA
ATOM     94  O   UNL A   1      45.665  23.681  35.671  1.00  0.00    -0.744 OA
ENDBRANCH  87  91
ENDBRANCH  61  84
ENDBRANCH  35  36
ENDBRANCH  27  30
ENDBRANCH  25  26
ENDBRANCH  24  25
ENDBRANCH   1  24
TORSDOF 18
ENDMDL
