MODEL 1
REMARK VINA RESULT:     -11.2      0.000      0.000
REMARK SMILES CC(C)C[C@@H](CNc1ccc(C(=O)N(C)C)nn1)C(=O)NCCCCNC(=O)c1ccc(-c2c3nc(c(-c4cc(S(=O)(=O)[O-])ccc4F)c4ccc([nH]4)c(-c4cc(S(=O)(=O)[O-])ccc4F)c4nc(c(-c5cc(S(=O)(=O)[O-])ccc5F)c5ccc2[nH]5)C=C4)C=C3)cc1
REMARK SMILES IDX 23 1 22 2 21 3 19 4 20 5 5 7 4 8 2 9 1 10 3 11 6 12 7 13
REMARK SMILES IDX 8 15 9 16 18 17 10 18 17 19 11 20 12 21 13 22 14 23 15 24
REMARK SMILES IDX 16 25 24 26 25 27 26 28 27 29 28 31 29 32 30 33 91 34 31 35
REMARK SMILES IDX 90 36 32 37 33 38 34 39 84 40 35 41 89 42 83 43 85 44 36 45
REMARK SMILES IDX 88 46 82 47 81 48 37 50 69 51 49 52 68 53 50 54 53 55 67 56
REMARK SMILES IDX 86 57 51 58 52 59 66 61 87 62 54 63 38 64 39 65 47 66 40 67
REMARK SMILES IDX 46 68 48 69 45 70 41 71 42 72 43 73 44 74 70 75 71 76 79 77
REMARK SMILES IDX 72 78 78 79 80 80 77 81 73 82 74 83 75 84 76 85 55 86 56 87
REMARK SMILES IDX 64 88 57 89 63 90 65 91 62 92 58 93 59 94 60 95 61 96
REMARK H PARENT 21 6 7 14 26 30 85 49 53 60
REMARK Flexibility Score: inf
ROOT
ATOM      1  C   UNL A   1      31.898  28.132  27.397  1.00  0.00     0.023 C 
ENDROOT
BRANCH   1   2
ATOM      2  C   UNL A   1      32.088  26.897  26.522  1.00  0.00     0.116 C 
BRANCH   2   3
ATOM      3  N   UNL A   1      31.070  25.891  26.753  1.00  0.00    -0.356 N 
ATOM      4  C   UNL A   1      30.885  24.665  26.201  1.00  0.00     0.224 C 
ATOM      5  O   UNL A   1      30.036  23.932  26.722  1.00  0.00    -0.275 OA
ATOM      6  H   UNL A   1      30.397  26.140  27.426  1.00  0.00     0.163 HD
BRANCH   4   7
ATOM      7  C   UNL A   1      31.672  24.151  24.996  1.00  0.00     0.098 C 
BRANCH   7   8
ATOM      8  C   UNL A   1      32.410  22.823  25.243  1.00  0.00     0.018 C 
BRANCH   8   9
ATOM      9  C   UNL A   1      33.240  22.276  24.066  1.00  0.00    -0.017 C 
ATOM     10  C   UNL A   1      34.605  21.742  24.501  1.00  0.00     0.007 C 
ATOM     11  C   UNL A   1      32.453  21.162  23.368  1.00  0.00     0.007 C 
ENDBRANCH   8   9
ENDBRANCH   7   8
BRANCH   7  12
ATOM     12  C   UNL A   1      30.912  24.355  23.676  1.00  0.00     0.128 C 
BRANCH  12  13
ATOM     13  N   UNL A   1      29.707  25.155  23.758  1.00  0.00    -0.368 N 
ATOM     14  H   UNL A   1      28.870  24.696  24.004  1.00  0.00     0.162 HD
BRANCH  13  15
ATOM     15  C   UNL A   1      29.643  26.510  23.519  1.00  0.00     0.148 A 
ATOM     16  C   UNL A   1      30.745  27.299  23.222  1.00  0.00     0.051 A 
ATOM     17  N   UNL A   1      28.429  27.090  23.599  1.00  0.00    -0.132 NA
ATOM     18  C   UNL A   1      30.607  28.681  23.075  1.00  0.00     0.040 A 
ATOM     19  N   UNL A   1      28.274  28.462  23.467  1.00  0.00    -0.143 NA
ATOM     20  C   UNL A   1      29.347  29.235  23.207  1.00  0.00     0.151 A 
BRANCH  20  21
ATOM     21  C   UNL A   1      29.134  30.709  23.205  1.00  0.00     0.273 C 
ATOM     22  O   UNL A   1      29.428  31.330  24.227  1.00  0.00    -0.267 OA
ATOM     23  N   UNL A   1      28.670  31.356  22.050  1.00  0.00    -0.343 N 
ATOM     24  C   UNL A   1      28.063  30.707  20.899  1.00  0.00     0.146 C 
ATOM     25  C   UNL A   1      28.632  32.811  22.070  1.00  0.00     0.146 C 
ENDBRANCH  20  21
ENDBRANCH  13  15
ENDBRANCH  12  13
ENDBRANCH   7  12
ENDBRANCH   4   7
ENDBRANCH   2   3
ENDBRANCH   1   2
BRANCH   1  26
ATOM     26  C   UNL A   1      31.408  29.369  26.646  1.00  0.00     0.023 C 
BRANCH  26  27
ATOM     27  C   UNL A   1      32.504  30.301  26.133  1.00  0.00     0.116 C 
BRANCH  27  28
ATOM     28  N   UNL A   1      32.341  31.682  26.566  1.00  0.00    -0.352 N 
ATOM     29  C   UNL A   1      33.168  32.431  27.374  1.00  0.00     0.251 C 
ATOM     30  H   UNL A   1      31.534  32.141  26.237  1.00  0.00     0.163 HD
ATOM     31  O   UNL A   1      32.827  33.546  27.748  1.00  0.00    -0.269 OA
BRANCH  29  32
ATOM     32  C   UNL A   1      34.442  31.836  27.828  1.00  0.00     0.039 A 
ATOM     33  C   UNL A   1      35.567  32.656  27.939  1.00  0.00     0.014 A 
ATOM     34  C   UNL A   1      34.498  30.496  28.218  1.00  0.00     0.014 A 
ATOM     35  C   UNL A   1      36.726  32.153  28.532  1.00  0.00     0.010 A 
ATOM     36  C   UNL A   1      35.625  30.022  28.879  1.00  0.00     0.010 A 
ATOM     37  C   UNL A   1      36.747  30.847  29.053  1.00  0.00    -0.014 A 
BRANCH  37  38
ATOM     38  C   UNL A   1      37.929  30.332  29.791  1.00  0.00     0.031 A 
ATOM     39  C   UNL A   1      38.190  30.787  31.200  1.00  0.00     0.074 A 
ATOM     40  C   UNL A   1      38.803  29.516  29.169  1.00  0.00     0.049 A 
ATOM     41  N   UNL A   1      39.208  30.529  31.980  1.00  0.00    -0.248 NA
ATOM     42  C   UNL A   1      37.186  31.681  31.798  1.00  0.00     0.031 C 
ATOM     43  C   UNL A   1      38.686  29.045  27.786  1.00  0.00     0.029 A 
ATOM     44  N   UNL A   1      39.972  28.946  29.612  1.00  0.00    -0.354 N 
ATOM     45  C   UNL A   1      38.976  31.239  33.153  1.00  0.00     0.074 A 
ATOM     46  C   UNL A   1      37.754  31.988  32.953  1.00  0.00     0.031 C 
ATOM     47  C   UNL A   1      39.725  28.244  27.503  1.00  0.00     0.029 A 
ATOM     48  C   UNL A   1      40.607  28.177  28.664  1.00  0.00     0.049 A 
ATOM     49  H   UNL A   1      40.322  29.074  30.522  1.00  0.00     0.167 HD
ATOM     50  C   UNL A   1      39.703  31.248  34.297  1.00  0.00     0.034 A 
ATOM     51  C   UNL A   1      41.774  27.504  28.720  1.00  0.00     0.034 A 
ATOM     52  C   UNL A   1      40.914  30.486  34.484  1.00  0.00     0.049 A 
ATOM     53  C   UNL A   1      42.568  27.531  30.001  1.00  0.00     0.074 A 
ATOM     54  C   UNL A   1      41.702  30.381  35.617  1.00  0.00     0.029 A 
ATOM     55  N   UNL A   1      41.517  29.702  33.508  1.00  0.00    -0.354 N 
ATOM     56  N   UNL A   1      42.311  28.169  31.118  1.00  0.00    -0.248 NA
ATOM     57  C   UNL A   1      43.803  26.737  30.032  1.00  0.00     0.031 C 
ATOM     58  C   UNL A   1      42.809  29.581  35.310  1.00  0.00     0.029 A 
ATOM     59  C   UNL A   1      42.677  29.128  34.006  1.00  0.00     0.049 A 
ATOM     60  H   UNL A   1      41.170  29.572  32.596  1.00  0.00     0.167 HD
ATOM     61  C   UNL A   1      43.337  27.831  31.994  1.00  0.00     0.074 A 
ATOM     62  C   UNL A   1      44.209  26.922  31.279  1.00  0.00     0.031 C 
ATOM     63  C   UNL A   1      43.541  28.232  33.275  1.00  0.00     0.034 A 
BRANCH  50  64
ATOM     64  C   UNL A   1      39.209  32.128  35.421  1.00  0.00     0.023 A 
ATOM     65  C   UNL A   1      39.627  33.465  35.548  1.00  0.00     0.031 A 
ATOM     66  C   UNL A   1      38.340  31.615  36.400  1.00  0.00     0.131 A 
ATOM     67  C   UNL A   1      39.243  34.215  36.670  1.00  0.00     0.055 A 
ATOM     68  C   UNL A   1      37.895  32.393  37.471  1.00  0.00     0.041 A 
ATOM     69  F   UNL A   1      37.921  30.340  36.343  1.00  0.00    -0.206 F 
ATOM     70  C   UNL A   1      38.360  33.698  37.619  1.00  0.00     0.022 A 
BRANCH  67  71
ATOM     71  S   UNL A   1      40.026  35.829  36.942  1.00  0.00     0.124 S 
ATOM     72  O   UNL A   1      39.690  36.533  35.706  1.00  0.00    -0.237 OA
ATOM     73  O   UNL A   1      39.361  36.304  38.149  1.00  0.00    -0.237 OA
ATOM     74  O   UNL A   1      41.442  35.501  37.097  1.00  0.00    -0.744 OA
ENDBRANCH  67  71
ENDBRANCH  50  64
BRANCH  51  75
ATOM     75  C   UNL A   1      42.273  26.756  27.530  1.00  0.00     0.023 A 
ATOM     76  C   UNL A   1      42.001  25.389  27.367  1.00  0.00     0.031 A 
ATOM     77  C   UNL A   1      43.067  27.391  26.559  1.00  0.00     0.131 A 
ATOM     78  C   UNL A   1      42.554  24.689  26.283  1.00  0.00     0.055 A 
ATOM     79  C   UNL A   1      43.575  26.703  25.457  1.00  0.00     0.041 A 
ATOM     80  F   UNL A   1      43.353  28.699  26.665  1.00  0.00    -0.206 F 
ATOM     81  C   UNL A   1      43.330  25.339  25.320  1.00  0.00     0.022 A 
BRANCH  78  82
ATOM     82  S   UNL A   1      42.311  22.894  26.191  1.00  0.00     0.124 S 
ATOM     83  O   UNL A   1      42.815  22.593  24.856  1.00  0.00    -0.237 OA
ATOM     84  O   UNL A   1      43.124  22.421  27.306  1.00  0.00    -0.237 OA
ATOM     85  O   UNL A   1      40.869  22.737  26.364  1.00  0.00    -0.744 OA
ENDBRANCH  78  82
ENDBRANCH  51  75
BRANCH  63  86
ATOM     86  C   UNL A   1      44.732  27.647  33.993  1.00  0.00     0.023 A 
ATOM     87  C   UNL A   1      44.666  26.405  34.648  1.00  0.00     0.031 A 
ATOM     88  C   UNL A   1      45.948  28.352  34.028  1.00  0.00     0.131 A 
ATOM     89  C   UNL A   1      45.780  25.930  35.357  1.00  0.00     0.055 A 
ATOM     90  C   UNL A   1      47.070  27.849  34.687  1.00  0.00     0.041 A 
ATOM     91  F   UNL A   1      46.065  29.543  33.420  1.00  0.00    -0.206 F 
ATOM     92  C   UNL A   1      46.986  26.637  35.368  1.00  0.00     0.022 A 
BRANCH  89  93
ATOM     93  S   UNL A   1      45.609  24.414  36.337  1.00  0.00     0.124 S 
ATOM     94  O   UNL A   1      46.575  23.527  35.696  1.00  0.00    -0.237 OA
ATOM     95  O   UNL A   1      45.954  24.869  37.680  1.00  0.00    -0.237 OA
ATOM     96  O   UNL A   1      44.207  24.041  36.152  1.00  0.00    -0.744 OA
ENDBRANCH  89  93
ENDBRANCH  63  86
ENDBRANCH  37  38
ENDBRANCH  29  32
ENDBRANCH  27  28
ENDBRANCH  26  27
ENDBRANCH   1  26
TORSDOF 20
ENDMDL
MODEL 2
REMARK VINA RESULT:     -11.2      2.040      2.320
REMARK SMILES CC(C)C[C@@H](CNc1ccc(C(=O)N(C)C)nn1)C(=O)NCCCCNC(=O)c1ccc(-c2c3nc(c(-c4cc(S(=O)(=O)[O-])ccc4F)c4ccc([nH]4)c(-c4cc(S(=O)(=O)[O-])ccc4F)c4nc(c(-c5cc(S(=O)(=O)[O-])ccc5F)c5ccc2[nH]5)C=C4)C=C3)cc1
REMARK SMILES IDX 23 1 22 2 21 3 19 4 20 5 5 7 4 8 2 9 1 10 3 11 6 12 7 13
REMARK SMILES IDX 8 15 9 16 18 17 10 18 17 19 11 20 12 21 13 22 14 23 15 24
REMARK SMILES IDX 16 25 24 26 25 27 26 28 27 29 28 31 29 32 30 33 91 34 31 35
REMARK SMILES IDX 90 36 32 37 33 38 34 39 84 40 35 41 89 42 83 43 85 44 36 45
REMARK SMILES IDX 88 46 82 47 81 48 37 50 69 51 49 52 68 53 50 54 53 55 67 56
REMARK SMILES IDX 86 57 51 58 52 59 66 61 87 62 54 63 38 64 39 65 47 66 40 67
REMARK SMILES IDX 46 68 48 69 45 70 41 71 42 72 43 73 44 74 70 75 71 76 79 77
REMARK SMILES IDX 72 78 78 79 80 80 77 81 73 82 74 83 75 84 76 85 55 86 56 87
REMARK SMILES IDX 64 88 57 89 63 90 65 91 62 92 58 93 59 94 60 95 61 96
REMARK H PARENT 21 6 7 14 26 30 85 49 53 60
REMARK Flexibility Score: inf
ROOT
ATOM      1  C   UNL A   1      32.060  27.646  26.973  1.00  0.00     0.023 C 
ENDROOT
BRANCH   1   2
ATOM      2  C   UNL A   1      32.202  26.258  26.357  1.00  0.00     0.116 C 
BRANCH   2   3
ATOM      3  N   UNL A   1      31.227  25.317  26.873  1.00  0.00    -0.356 N 
ATOM      4  C   UNL A   1      30.919  24.051  26.494  1.00  0.00     0.224 C 
ATOM      5  O   UNL A   1      30.169  23.405  27.235  1.00  0.00    -0.275 OA
ATOM      6  H   UNL A   1      30.696  25.656  27.629  1.00  0.00     0.163 HD
BRANCH   4   7
ATOM      7  C   UNL A   1      31.458  23.393  25.224  1.00  0.00     0.098 C 
BRANCH   7   8
ATOM      8  C   UNL A   1      31.837  21.910  25.394  1.00  0.00     0.018 C 
BRANCH   8   9
ATOM      9  C   UNL A   1      33.341  21.583  25.348  1.00  0.00    -0.017 C 
ATOM     10  C   UNL A   1      33.968  21.481  26.739  1.00  0.00     0.007 C 
ATOM     11  C   UNL A   1      33.549  20.265  24.595  1.00  0.00     0.007 C 
ENDBRANCH   8   9
ENDBRANCH   7   8
BRANCH   7  12
ATOM     12  C   UNL A   1      30.688  23.834  23.970  1.00  0.00     0.128 C 
BRANCH  12  13
ATOM     13  N   UNL A   1      31.242  24.965  23.253  1.00  0.00    -0.368 N 
ATOM     14  H   UNL A   1      32.127  24.851  22.835  1.00  0.00     0.162 HD
BRANCH  13  15
ATOM     15  C   UNL A   1      30.624  26.187  23.112  1.00  0.00     0.148 A 
ATOM     16  C   UNL A   1      29.442  26.539  23.749  1.00  0.00     0.051 A 
ATOM     17  N   UNL A   1      31.209  27.078  22.287  1.00  0.00    -0.132 NA
ATOM     18  C   UNL A   1      28.836  27.769  23.487  1.00  0.00     0.040 A 
ATOM     19  N   UNL A   1      30.616  28.300  22.006  1.00  0.00    -0.143 NA
ATOM     20  C   UNL A   1      29.453  28.633  22.601  1.00  0.00     0.151 A 
BRANCH  20  21
ATOM     21  C   UNL A   1      28.806  29.899  22.160  1.00  0.00     0.273 C 
ATOM     22  O   UNL A   1      28.249  29.904  21.062  1.00  0.00    -0.267 OA
ATOM     23  N   UNL A   1      28.791  31.019  23.005  1.00  0.00    -0.343 N 
ATOM     24  C   UNL A   1      29.619  31.202  24.186  1.00  0.00     0.146 C 
ATOM     25  C   UNL A   1      28.011  32.170  22.575  1.00  0.00     0.146 C 
ENDBRANCH  20  21
ENDBRANCH  13  15
ENDBRANCH  12  13
ENDBRANCH   7  12
ENDBRANCH   4   7
ENDBRANCH   2   3
ENDBRANCH   1   2
BRANCH   1  26
ATOM     26  C   UNL A   1      31.782  28.759  25.964  1.00  0.00     0.023 C 
BRANCH  26  27
ATOM     27  C   UNL A   1      32.908  29.776  25.786  1.00  0.00     0.116 C 
BRANCH  27  28
ATOM     28  N   UNL A   1      32.601  31.085  26.347  1.00  0.00    -0.352 N 
ATOM     29  C   UNL A   1      33.325  31.816  27.263  1.00  0.00     0.251 C 
ATOM     30  H   UNL A   1      31.768  31.501  26.030  1.00  0.00     0.163 HD
ATOM     31  O   UNL A   1      32.869  32.851  27.731  1.00  0.00    -0.269 OA
BRANCH  29  32
ATOM     32  C   UNL A   1      34.632  31.293  27.712  1.00  0.00     0.039 A 
ATOM     33  C   UNL A   1      35.688  32.187  27.897  1.00  0.00     0.014 A 
ATOM     34  C   UNL A   1      34.782  29.940  28.026  1.00  0.00     0.014 A 
ATOM     35  C   UNL A   1      36.871  31.739  28.487  1.00  0.00     0.010 A 
ATOM     36  C   UNL A   1      35.930  29.515  28.686  1.00  0.00     0.010 A 
ATOM     37  C   UNL A   1      36.982  30.410  28.933  1.00  0.00    -0.014 A 
BRANCH  37  38
ATOM     38  C   UNL A   1      38.185  29.943  29.669  1.00  0.00     0.031 A 
ATOM     39  C   UNL A   1      38.474  30.471  31.046  1.00  0.00     0.074 A 
ATOM     40  C   UNL A   1      39.053  29.104  29.068  1.00  0.00     0.049 A 
ATOM     41  N   UNL A   1      39.512  30.260  31.814  1.00  0.00    -0.248 NA
ATOM     42  C   UNL A   1      37.475  31.385  31.622  1.00  0.00     0.031 C 
ATOM     43  C   UNL A   1      38.908  28.563  27.713  1.00  0.00     0.029 A 
ATOM     44  N   UNL A   1      40.236  28.567  29.511  1.00  0.00    -0.354 N 
ATOM     45  C   UNL A   1      39.300  31.027  32.955  1.00  0.00     0.074 A 
ATOM     46  C   UNL A   1      38.066  31.755  32.747  1.00  0.00     0.031 C 
ATOM     47  C   UNL A   1      39.949  27.758  27.447  1.00  0.00     0.029 A 
ATOM     48  C   UNL A   1      40.857  27.757  28.588  1.00  0.00     0.049 A 
ATOM     49  H   UNL A   1      40.606  28.744  30.406  1.00  0.00     0.167 HD
ATOM     50  C   UNL A   1      40.052  31.100  34.081  1.00  0.00     0.034 A 
ATOM     51  C   UNL A   1      42.032  27.098  28.651  1.00  0.00     0.034 A 
ATOM     52  C   UNL A   1      41.274  30.358  34.277  1.00  0.00     0.049 A 
ATOM     53  C   UNL A   1      42.854  27.196  29.910  1.00  0.00     0.074 A 
ATOM     54  C   UNL A   1      42.089  30.317  35.395  1.00  0.00     0.029 A 
ATOM     55  N   UNL A   1      41.863  29.531  33.328  1.00  0.00    -0.354 N 
ATOM     56  N   UNL A   1      42.617  27.887  31.000  1.00  0.00    -0.248 NA
ATOM     57  C   UNL A   1      44.097  26.415  29.952  1.00  0.00     0.031 C 
ATOM     58  C   UNL A   1      43.197  29.512  35.103  1.00  0.00     0.029 A 
ATOM     59  C   UNL A   1      43.039  28.993  33.826  1.00  0.00     0.049 A 
ATOM     60  H   UNL A   1      41.497  29.352  32.431  1.00  0.00     0.167 HD
ATOM     61  C   UNL A   1      43.666  27.602  31.867  1.00  0.00     0.074 A 
ATOM     62  C   UNL A   1      44.530  26.665  31.179  1.00  0.00     0.031 C 
ATOM     63  C   UNL A   1      43.895  28.068  33.122  1.00  0.00     0.034 A 
BRANCH  50  64
ATOM     64  C   UNL A   1      39.575  32.030  35.170  1.00  0.00     0.023 A 
ATOM     65  C   UNL A   1      38.918  31.547  36.317  1.00  0.00     0.031 A 
ATOM     66  C   UNL A   1      39.743  33.421  35.046  1.00  0.00     0.131 A 
ATOM     67  C   UNL A   1      38.383  32.448  37.249  1.00  0.00     0.055 A 
ATOM     68  C   UNL A   1      39.279  34.308  36.019  1.00  0.00     0.041 A 
ATOM     69  F   UNL A   1      40.345  33.943  33.965  1.00  0.00    -0.206 F 
ATOM     70  C   UNL A   1      38.580  33.824  37.122  1.00  0.00     0.022 A 
BRANCH  67  71
ATOM     71  S   UNL A   1      37.304  31.802  38.557  1.00  0.00     0.124 S 
ATOM     72  O   UNL A   1      38.150  31.951  39.739  1.00  0.00    -0.237 OA
ATOM     73  O   UNL A   1      36.150  32.689  38.481  1.00  0.00    -0.237 OA
ATOM     74  O   UNL A   1      37.058  30.421  38.147  1.00  0.00    -0.744 OA
ENDBRANCH  67  71
ENDBRANCH  50  64
BRANCH  51  75
ATOM     75  C   UNL A   1      42.511  26.295  27.489  1.00  0.00     0.023 A 
ATOM     76  C   UNL A   1      42.348  24.901  27.454  1.00  0.00     0.031 A 
ATOM     77  C   UNL A   1      43.178  26.909  26.414  1.00  0.00     0.131 A 
ATOM     78  C   UNL A   1      42.884  24.160  26.389  1.00  0.00     0.055 A 
ATOM     79  C   UNL A   1      43.666  26.173  25.333  1.00  0.00     0.041 A 
ATOM     80  F   UNL A   1      43.355  28.240  26.395  1.00  0.00    -0.206 F 
ATOM     81  C   UNL A   1      43.532  24.788  25.323  1.00  0.00     0.022 A 
BRANCH  78  82
ATOM     82  S   UNL A   1      42.792  22.350  26.456  1.00  0.00     0.124 S 
ATOM     83  O   UNL A   1      41.637  22.078  25.610  1.00  0.00    -0.237 OA
ATOM     84  O   UNL A   1      44.090  21.961  25.914  1.00  0.00    -0.237 OA
ATOM     85  O   UNL A   1      42.605  22.071  27.878  1.00  0.00    -0.744 OA
ENDBRANCH  78  82
ENDBRANCH  51  75
BRANCH  63  86
ATOM     86  C   UNL A   1      45.108  27.530  33.840  1.00  0.00     0.023 A 
ATOM     87  C   UNL A   1      46.360  28.165  33.757  1.00  0.00     0.031 A 
ATOM     88  C   UNL A   1      45.008  26.358  34.608  1.00  0.00     0.131 A 
ATOM     89  C   UNL A   1      47.475  27.593  34.389  1.00  0.00     0.055 A 
ATOM     90  C   UNL A   1      46.108  25.824  35.281  1.00  0.00     0.041 A 
ATOM     91  F   UNL A   1      43.836  25.711  34.720  1.00  0.00    -0.206 F 
ATOM     92  C   UNL A   1      47.353  26.435  35.163  1.00  0.00     0.022 A 
BRANCH  89  93
ATOM     93  S   UNL A   1      49.107  28.336  34.119  1.00  0.00     0.124 S 
ATOM     94  O   UNL A   1      48.759  29.668  33.634  1.00  0.00    -0.237 OA
ATOM     95  O   UNL A   1      49.701  28.277  35.450  1.00  0.00    -0.237 OA
ATOM     96  O   UNL A   1      49.725  27.458  33.126  1.00  0.00    -0.744 OA
ENDBRANCH  89  93
ENDBRANCH  63  86
ENDBRANCH  37  38
ENDBRANCH  29  32
ENDBRANCH  27  28
ENDBRANCH  26  27
ENDBRANCH   1  26
TORSDOF 20
ENDMDL
MODEL 3
REMARK VINA RESULT:     -11.2      2.608      8.607
REMARK SMILES CC(C)C[C@@H](CNc1ccc(C(=O)N(C)C)nn1)C(=O)NCCCCNC(=O)c1ccc(-c2c3nc(c(-c4cc(S(=O)(=O)[O-])ccc4F)c4ccc([nH]4)c(-c4cc(S(=O)(=O)[O-])ccc4F)c4nc(c(-c5cc(S(=O)(=O)[O-])ccc5F)c5ccc2[nH]5)C=C4)C=C3)cc1
REMARK SMILES IDX 23 1 22 2 21 3 19 4 20 5 5 7 4 8 2 9 1 10 3 11 6 12 7 13
REMARK SMILES IDX 8 15 9 16 18 17 10 18 17 19 11 20 12 21 13 22 14 23 15 24
REMARK SMILES IDX 16 25 24 26 25 27 26 28 27 29 28 31 29 32 30 33 91 34 31 35
REMARK SMILES IDX 90 36 32 37 33 38 34 39 84 40 35 41 89 42 83 43 85 44 36 45
REMARK SMILES IDX 88 46 82 47 81 48 37 50 69 51 49 52 68 53 50 54 53 55 67 56
REMARK SMILES IDX 86 57 51 58 52 59 66 61 87 62 54 63 38 64 39 65 47 66 40 67
REMARK SMILES IDX 46 68 48 69 45 70 41 71 42 72 43 73 44 74 70 75 71 76 79 77
REMARK SMILES IDX 72 78 78 79 80 80 77 81 73 82 74 83 75 84 76 85 55 86 56 87
REMARK SMILES IDX 64 88 57 89 63 90 65 91 62 92 58 93 59 94 60 95 61 96
REMARK H PARENT 21 6 7 14 26 30 85 49 53 60
REMARK Flexibility Score: inf
ROOT
ATOM      1  C   UNL A   1      32.319  29.704  27.230  1.00  0.00     0.023 C 
ENDROOT
BRANCH   1   2
ATOM      2  C   UNL A   1      32.626  28.785  26.052  1.00  0.00     0.116 C 
BRANCH   2   3
ATOM      3  N   UNL A   1      31.545  27.859  25.774  1.00  0.00    -0.356 N 
ATOM      4  C   UNL A   1      30.755  27.712  24.680  1.00  0.00     0.224 C 
ATOM      5  O   UNL A   1      30.031  26.710  24.636  1.00  0.00    -0.275 OA
ATOM      6  H   UNL A   1      31.352  27.228  26.503  1.00  0.00     0.163 HD
BRANCH   4   7
ATOM      7  C   UNL A   1      30.729  28.701  23.515  1.00  0.00     0.098 C 
BRANCH   7   8
ATOM      8  C   UNL A   1      29.968  30.005  23.811  1.00  0.00     0.018 C 
BRANCH   8   9
ATOM      9  C   UNL A   1      28.606  30.174  23.110  1.00  0.00    -0.017 C 
ATOM     10  C   UNL A   1      27.831  31.395  23.606  1.00  0.00     0.007 C 
ATOM     11  C   UNL A   1      28.827  30.287  21.598  1.00  0.00     0.007 C 
ENDBRANCH   8   9
ENDBRANCH   7   8
BRANCH   7  12
ATOM     12  C   UNL A   1      32.076  28.765  22.778  1.00  0.00     0.128 C 
BRANCH  12  13
ATOM     13  N   UNL A   1      32.402  27.617  21.956  1.00  0.00    -0.368 N 
ATOM     14  H   UNL A   1      32.253  27.693  20.986  1.00  0.00     0.162 HD
BRANCH  13  15
ATOM     15  C   UNL A   1      32.907  26.427  22.431  1.00  0.00     0.148 A 
ATOM     16  C   UNL A   1      32.656  25.191  21.852  1.00  0.00     0.051 A 
ATOM     17  N   UNL A   1      33.675  26.485  23.537  1.00  0.00    -0.132 NA
ATOM     18  C   UNL A   1      33.138  24.021  22.445  1.00  0.00     0.040 A 
ATOM     19  N   UNL A   1      34.152  25.334  24.146  1.00  0.00    -0.143 NA
ATOM     20  C   UNL A   1      33.886  24.129  23.603  1.00  0.00     0.151 A 
BRANCH  20  21
ATOM     21  C   UNL A   1      34.317  22.930  24.373  1.00  0.00     0.273 C 
ATOM     22  O   UNL A   1      33.530  22.469  25.200  1.00  0.00    -0.267 OA
ATOM     23  N   UNL A   1      35.555  22.326  24.109  1.00  0.00    -0.343 N 
ATOM     24  C   UNL A   1      36.647  22.920  23.354  1.00  0.00     0.146 C 
ATOM     25  C   UNL A   1      35.844  21.071  24.788  1.00  0.00     0.146 C 
ENDBRANCH  20  21
ENDBRANCH  13  15
ENDBRANCH  12  13
ENDBRANCH   7  12
ENDBRANCH   4   7
ENDBRANCH   2   3
ENDBRANCH   1   2
BRANCH   1  26
ATOM     26  C   UNL A   1      32.130  31.173  26.852  1.00  0.00     0.023 C 
BRANCH  26  27
ATOM     27  C   UNL A   1      33.207  32.125  27.369  1.00  0.00     0.116 C 
BRANCH  27  28
ATOM     28  N   UNL A   1      32.731  33.488  27.563  1.00  0.00    -0.352 N 
ATOM     29  C   UNL A   1      33.168  34.427  28.472  1.00  0.00     0.251 C 
ATOM     30  H   UNL A   1      32.003  33.775  26.967  1.00  0.00     0.163 HD
ATOM     31  O   UNL A   1      32.579  35.494  28.593  1.00  0.00    -0.269 OA
BRANCH  29  32
ATOM     32  C   UNL A   1      34.320  34.095  29.335  1.00  0.00     0.039 A 
ATOM     33  C   UNL A   1      34.097  33.373  30.509  1.00  0.00     0.014 A 
ATOM     34  C   UNL A   1      35.618  34.426  28.940  1.00  0.00     0.014 A 
ATOM     35  C   UNL A   1      35.187  32.900  31.241  1.00  0.00     0.010 A 
ATOM     36  C   UNL A   1      36.700  33.887  29.626  1.00  0.00     0.010 A 
ATOM     37  C   UNL A   1      36.498  33.110  30.777  1.00  0.00    -0.014 A 
BRANCH  37  38
ATOM     38  C   UNL A   1      37.666  32.516  31.476  1.00  0.00     0.031 A 
ATOM     39  C   UNL A   1      38.412  31.371  30.850  1.00  0.00     0.074 A 
ATOM     40  C   UNL A   1      38.006  32.957  32.704  1.00  0.00     0.049 A 
ATOM     41  N   UNL A   1      39.396  30.658  31.335  1.00  0.00    -0.248 NA
ATOM     42  C   UNL A   1      37.970  30.953  29.510  1.00  0.00     0.031 C 
ATOM     43  C   UNL A   1      37.325  34.027  33.439  1.00  0.00     0.029 A 
ATOM     44  N   UNL A   1      39.001  32.553  33.560  1.00  0.00    -0.354 N 
ATOM     45  C   UNL A   1      39.678  29.697  30.370  1.00  0.00     0.074 A 
ATOM     46  C   UNL A   1      38.719  29.883  29.301  1.00  0.00     0.031 C 
ATOM     47  C   UNL A   1      37.935  34.207  34.621  1.00  0.00     0.029 A 
ATOM     48  C   UNL A   1      39.020  33.240  34.752  1.00  0.00     0.049 A 
ATOM     49  H   UNL A   1      39.642  31.839  33.341  1.00  0.00     0.167 HD
ATOM     50  C   UNL A   1      40.661  28.763  30.364  1.00  0.00     0.034 A 
ATOM     51  C   UNL A   1      39.814  33.099  35.832  1.00  0.00     0.034 A 
ATOM     52  C   UNL A   1      41.617  28.599  31.432  1.00  0.00     0.049 A 
ATOM     53  C   UNL A   1      40.897  32.051  35.806  1.00  0.00     0.074 A 
ATOM     54  C   UNL A   1      42.684  27.720  31.510  1.00  0.00     0.029 A 
ATOM     55  N   UNL A   1      41.618  29.327  32.616  1.00  0.00    -0.354 N 
ATOM     56  N   UNL A   1      41.183  31.182  34.866  1.00  0.00    -0.248 NA
ATOM     57  C   UNL A   1      41.772  31.974  36.983  1.00  0.00     0.031 C 
ATOM     58  C   UNL A   1      43.294  27.878  32.759  1.00  0.00     0.029 A 
ATOM     59  C   UNL A   1      42.652  28.903  33.437  1.00  0.00     0.049 A 
ATOM     60  H   UNL A   1      40.978  30.042  32.839  1.00  0.00     0.167 HD
ATOM     61  C   UNL A   1      42.288  30.474  35.326  1.00  0.00     0.074 A 
ATOM     62  C   UNL A   1      42.625  31.027  36.622  1.00  0.00     0.031 C 
ATOM     63  C   UNL A   1      42.968  29.459  34.731  1.00  0.00     0.034 A 
BRANCH  50  64
ATOM     64  C   UNL A   1      40.728  27.840  29.171  1.00  0.00     0.023 A 
ATOM     65  C   UNL A   1      41.670  28.030  28.144  1.00  0.00     0.031 A 
ATOM     66  C   UNL A   1      39.815  26.779  29.037  1.00  0.00     0.131 A 
ATOM     67  C   UNL A   1      41.625  27.227  26.994  1.00  0.00     0.055 A 
ATOM     68  C   UNL A   1      39.829  25.931  27.927  1.00  0.00     0.041 A 
ATOM     69  F   UNL A   1      38.880  26.558  29.975  1.00  0.00    -0.206 F 
ATOM     70  C   UNL A   1      40.727  26.164  26.889  1.00  0.00     0.022 A 
BRANCH  67  71
ATOM     71  S   UNL A   1      42.664  27.683  25.578  1.00  0.00     0.124 S 
ATOM     72  O   UNL A   1      41.955  28.849  25.056  1.00  0.00    -0.237 OA
ATOM     73  O   UNL A   1      43.954  27.946  26.204  1.00  0.00    -0.237 OA
ATOM     74  O   UNL A   1      42.615  26.500  24.722  1.00  0.00    -0.744 OA
ENDBRANCH  67  71
ENDBRANCH  50  64
BRANCH  51  75
ATOM     75  C   UNL A   1      39.615  33.958  37.034  1.00  0.00     0.023 A 
ATOM     76  C   UNL A   1      38.987  33.460  38.187  1.00  0.00     0.031 A 
ATOM     77  C   UNL A   1      40.013  35.307  37.031  1.00  0.00     0.131 A 
ATOM     78  C   UNL A   1      38.735  34.313  39.272  1.00  0.00     0.055 A 
ATOM     79  C   UNL A   1      39.804  36.140  38.131  1.00  0.00     0.041 A 
ATOM     80  F   UNL A   1      40.623  35.833  35.956  1.00  0.00    -0.206 F 
ATOM     81  C   UNL A   1      39.149  35.647  39.257  1.00  0.00     0.022 A 
BRANCH  78  82
ATOM     82  S   UNL A   1      37.784  33.675  40.678  1.00  0.00     0.124 S 
ATOM     83  O   UNL A   1      36.663  33.024  40.009  1.00  0.00    -0.237 OA
ATOM     84  O   UNL A   1      38.750  32.789  41.320  1.00  0.00    -0.237 OA
ATOM     85  O   UNL A   1      37.446  34.878  41.435  1.00  0.00    -0.744 OA
ENDBRANCH  78  82
ENDBRANCH  51  75
BRANCH  63  86
ATOM     86  C   UNL A   1      44.170  28.920  35.465  1.00  0.00     0.023 A 
ATOM     87  C   UNL A   1      44.049  27.941  36.467  1.00  0.00     0.031 A 
ATOM     88  C   UNL A   1      45.455  29.405  35.162  1.00  0.00     0.131 A 
ATOM     89  C   UNL A   1      45.188  27.516  37.167  1.00  0.00     0.055 A 
ATOM     90  C   UNL A   1      46.591  28.937  35.823  1.00  0.00     0.041 A 
ATOM     91  F   UNL A   1      45.626  30.341  34.215  1.00  0.00    -0.206 F 
ATOM     92  C   UNL A   1      46.460  27.996  36.841  1.00  0.00     0.022 A 
BRANCH  89  93
ATOM     93  S   UNL A   1      44.978  26.386  38.570  1.00  0.00     0.124 S 
ATOM     94  O   UNL A   1      43.539  26.454  38.803  1.00  0.00    -0.237 OA
ATOM     95  O   UNL A   1      45.478  25.124  38.032  1.00  0.00    -0.237 OA
ATOM     96  O   UNL A   1      45.805  26.981  39.618  1.00  0.00    -0.744 OA
ENDBRANCH  89  93
ENDBRANCH  63  86
ENDBRANCH  37  38
ENDBRANCH  29  32
ENDBRANCH  27  28
ENDBRANCH  26  27
ENDBRANCH   1  26
TORSDOF 20
ENDMDL
