MODEL 1
REMARK VINA RESULT:     -12.1      0.000      0.000
REMARK SMILES C[C@@H](c1ccccc1)[C@@H](CC(=O)Nc1ccccc1I)C(=O)NCCCCNC(=O)c1ccc(-c2c3nc(c(-c4cc(S(=O)(=O)[O-])ccc4F)c4ccc([nH]4)c(-c4cc(S(=O)(=O)[O-])ccc4F)c4nc(c(-c5cc(S(=O)(=O)[O-])ccc5F)c5ccc2[nH]5)C=C4)C=C3)cc1
REMARK SMILES IDX 25 1 24 2 23 3 21 4 22 5 9 7 2 8 1 9 3 10 4 11 8 12 5 13
REMARK SMILES IDX 7 14 6 15 10 16 11 17 12 18 13 19 14 21 15 22 19 23 16 24
REMARK SMILES IDX 18 25 20 26 17 27 26 28 27 29 28 30 29 31 30 33 31 34 32 35
REMARK SMILES IDX 93 36 33 37 92 38 34 39 35 40 36 41 86 42 37 43 91 44 85 45
REMARK SMILES IDX 87 46 38 47 90 48 84 49 83 50 39 52 71 53 51 54 70 55 52 56
REMARK SMILES IDX 55 57 69 58 88 59 53 60 54 61 68 63 89 64 56 65 40 66 41 67
REMARK SMILES IDX 49 68 42 69 48 70 50 71 47 72 43 73 44 74 45 75 46 76 72 77
REMARK SMILES IDX 73 78 81 79 74 80 80 81 82 82 79 83 75 84 76 85 77 86 78 87
REMARK SMILES IDX 57 88 58 89 66 90 59 91 65 92 67 93 64 94 60 95 61 96 62 97
REMARK SMILES IDX 63 98
REMARK H PARENT 23 6 13 20 28 32 87 51 55 62
REMARK Flexibility Score: inf
ROOT
ATOM      1  C   UNL A   1      35.017  22.151  26.499  1.00  0.00     0.023 C 
ENDROOT
BRANCH   1   2
ATOM      2  C   UNL A   1      33.668  21.494  26.734  1.00  0.00     0.116 C 
BRANCH   2   3
ATOM      3  N   UNL A   1      32.718  22.376  27.389  1.00  0.00    -0.356 N 
ATOM      4  C   UNL A   1      31.889  23.345  26.930  1.00  0.00     0.224 C 
ATOM      5  O   UNL A   1      30.815  23.431  27.541  1.00  0.00    -0.275 OA
ATOM      6  H   UNL A   1      32.665  22.244  28.364  1.00  0.00     0.163 HD
BRANCH   4   7
ATOM      7  C   UNL A   1      32.190  24.368  25.818  1.00  0.00     0.095 C 
BRANCH   7   8
ATOM      8  C   UNL A   1      33.345  25.368  26.128  1.00  0.00     0.029 C 
ATOM      9  C   UNL A   1      34.407  25.329  25.003  1.00  0.00     0.013 C 
BRANCH   8  10
ATOM     10  C   UNL A   1      33.024  26.819  26.524  1.00  0.00    -0.044 A 
ATOM     11  C   UNL A   1      33.996  27.817  26.339  1.00  0.00     0.004 A 
ATOM     12  C   UNL A   1      31.733  27.242  26.889  1.00  0.00     0.004 A 
ATOM     13  C   UNL A   1      33.686  29.174  26.471  1.00  0.00     0.000 A 
ATOM     14  C   UNL A   1      31.415  28.599  26.998  1.00  0.00     0.000 A 
ATOM     15  C   UNL A   1      32.391  29.566  26.779  1.00  0.00     0.000 A 
ENDBRANCH   8  10
ENDBRANCH   7   8
BRANCH   7  16
ATOM     16  C   UNL A   1      32.165  23.846  24.368  1.00  0.00     0.114 C 
BRANCH  16  17
ATOM     17  C   UNL A   1      31.246  24.385  23.256  1.00  0.00     0.225 C 
ATOM     18  O   UNL A   1      30.278  23.709  22.894  1.00  0.00    -0.275 OA
ATOM     19  N   UNL A   1      31.552  25.528  22.563  1.00  0.00    -0.325 N 
ATOM     20  H   UNL A   1      32.150  25.444  21.785  1.00  0.00     0.169 HD
BRANCH  19  21
ATOM     21  C   UNL A   1      31.068  26.827  22.887  1.00  0.00     0.054 A 
ATOM     22  C   UNL A   1      29.703  27.006  23.137  1.00  0.00     0.027 A 
ATOM     23  C   UNL A   1      31.916  27.955  22.921  1.00  0.00     0.037 A 
ATOM     24  C   UNL A   1      29.209  28.259  23.507  1.00  0.00     0.002 A 
ATOM     25  C   UNL A   1      31.426  29.188  23.363  1.00  0.00     0.017 A 
ATOM     26  I   UNL A   1      33.943  27.970  22.374  1.00  0.00    -0.042 I 
ATOM     27  C   UNL A   1      30.076  29.337  23.661  1.00  0.00     0.001 A 
ENDBRANCH  19  21
ENDBRANCH  16  17
ENDBRANCH   7  16
ENDBRANCH   4   7
ENDBRANCH   2   3
ENDBRANCH   1   2
BRANCH   1  28
ATOM     28  C   UNL A   1      35.720  21.756  25.207  1.00  0.00     0.023 C 
BRANCH  28  29
ATOM     29  C   UNL A   1      37.147  22.260  25.157  1.00  0.00     0.116 C 
BRANCH  29  30
ATOM     30  N   UNL A   1      38.133  21.213  25.422  1.00  0.00    -0.352 N 
ATOM     31  C   UNL A   1      39.315  21.328  26.126  1.00  0.00     0.251 C 
ATOM     32  H   UNL A   1      37.930  20.323  25.057  1.00  0.00     0.163 HD
ATOM     33  O   UNL A   1      40.090  20.393  26.214  1.00  0.00    -0.269 OA
BRANCH  31  34
ATOM     34  C   UNL A   1      39.629  22.650  26.702  1.00  0.00     0.039 A 
ATOM     35  C   UNL A   1      40.645  22.752  27.653  1.00  0.00     0.014 A 
ATOM     36  C   UNL A   1      39.030  23.788  26.160  1.00  0.00     0.014 A 
ATOM     37  C   UNL A   1      41.125  24.015  28.001  1.00  0.00     0.010 A 
ATOM     38  C   UNL A   1      39.590  25.027  26.417  1.00  0.00     0.010 A 
ATOM     39  C   UNL A   1      40.633  25.156  27.349  1.00  0.00    -0.014 A 
BRANCH  39  40
ATOM     40  C   UNL A   1      41.119  26.522  27.664  1.00  0.00     0.031 A 
ATOM     41  C   UNL A   1      42.533  26.873  27.290  1.00  0.00     0.074 A 
ATOM     42  C   UNL A   1      40.352  27.385  28.358  1.00  0.00     0.049 A 
ATOM     43  N   UNL A   1      43.268  27.883  27.668  1.00  0.00    -0.248 NA
ATOM     44  C   UNL A   1      43.235  25.906  26.429  1.00  0.00     0.031 C 
ATOM     45  C   UNL A   1      38.977  27.138  28.802  1.00  0.00     0.029 A 
ATOM     46  N   UNL A   1      40.627  28.643  28.827  1.00  0.00    -0.354 N 
ATOM     47  C   UNL A   1      44.530  27.645  27.134  1.00  0.00     0.074 A 
ATOM     48  C   UNL A   1      44.477  26.358  26.479  1.00  0.00     0.031 C 
ATOM     49  C   UNL A   1      38.522  28.224  29.450  1.00  0.00     0.029 A 
ATOM     50  C   UNL A   1      39.585  29.221  29.515  1.00  0.00     0.049 A 
ATOM     51  H   UNL A   1      41.492  29.092  28.685  1.00  0.00     0.167 HD
ATOM     52  C   UNL A   1      45.625  28.444  27.160  1.00  0.00     0.034 A 
ATOM     53  C   UNL A   1      39.511  30.417  30.134  1.00  0.00     0.034 A 
ATOM     54  C   UNL A   1      45.628  29.750  27.763  1.00  0.00     0.049 A 
ATOM     55  C   UNL A   1      40.728  31.309  30.115  1.00  0.00     0.074 A 
ATOM     56  C   UNL A   1      46.655  30.674  27.827  1.00  0.00     0.029 A 
ATOM     57  N   UNL A   1      44.529  30.329  28.388  1.00  0.00    -0.354 N 
ATOM     58  N   UNL A   1      41.918  31.072  29.609  1.00  0.00    -0.248 NA
ATOM     59  C   UNL A   1      40.592  32.631  30.739  1.00  0.00     0.031 C 
ATOM     60  C   UNL A   1      46.187  31.799  28.516  1.00  0.00     0.029 A 
ATOM     61  C   UNL A   1      44.852  31.598  28.832  1.00  0.00     0.049 A 
ATOM     62  H   UNL A   1      43.652  29.899  28.499  1.00  0.00     0.167 HD
ATOM     63  C   UNL A   1      42.655  32.235  29.814  1.00  0.00     0.074 A 
ATOM     64  C   UNL A   1      41.777  33.169  30.488  1.00  0.00     0.031 C 
ATOM     65  C   UNL A   1      43.940  32.512  29.475  1.00  0.00     0.034 A 
BRANCH  52  66
ATOM     66  C   UNL A   1      46.883  27.911  26.520  1.00  0.00     0.023 A 
ATOM     67  C   UNL A   1      47.156  28.116  25.155  1.00  0.00     0.031 A 
ATOM     68  C   UNL A   1      47.788  27.131  27.259  1.00  0.00     0.131 A 
ATOM     69  C   UNL A   1      48.239  27.464  24.550  1.00  0.00     0.055 A 
ATOM     70  C   UNL A   1      48.921  26.563  26.671  1.00  0.00     0.041 A 
ATOM     71  F   UNL A   1      47.573  26.882  28.560  1.00  0.00    -0.206 F 
ATOM     72  C   UNL A   1      49.142  26.711  25.304  1.00  0.00     0.022 A 
BRANCH  69  73
ATOM     73  S   UNL A   1      48.354  27.479  22.741  1.00  0.00     0.124 S 
ATOM     74  O   UNL A   1      49.609  28.198  22.535  1.00  0.00    -0.237 OA
ATOM     75  O   UNL A   1      48.370  26.059  22.412  1.00  0.00    -0.237 OA
ATOM     76  O   UNL A   1      47.153  28.202  22.327  1.00  0.00    -0.744 OA
ENDBRANCH  69  73
ENDBRANCH  52  66
BRANCH  53  77
ATOM     77  C   UNL A   1      38.255  30.854  30.809  1.00  0.00     0.023 A 
ATOM     78  C   UNL A   1      37.248  31.516  30.088  1.00  0.00     0.031 A 
ATOM     79  C   UNL A   1      38.061  30.669  32.189  1.00  0.00     0.131 A 
ATOM     80  C   UNL A   1      36.121  32.020  30.756  1.00  0.00     0.055 A 
ATOM     81  C   UNL A   1      36.913  31.128  32.841  1.00  0.00     0.041 A 
ATOM     82  F   UNL A   1      38.986  30.035  32.927  1.00  0.00    -0.206 F 
ATOM     83  C   UNL A   1      35.942  31.823  32.126  1.00  0.00     0.022 A 
BRANCH  80  84
ATOM     84  S   UNL A   1      34.940  33.030  29.820  1.00  0.00     0.124 S 
ATOM     85  O   UNL A   1      34.027  33.470  30.869  1.00  0.00    -0.237 OA
ATOM     86  O   UNL A   1      35.806  34.057  29.251  1.00  0.00    -0.237 OA
ATOM     87  O   UNL A   1      34.376  32.089  28.856  1.00  0.00    -0.744 OA
ENDBRANCH  80  84
ENDBRANCH  53  77
BRANCH  65  88
ATOM     88  C   UNL A   1      44.433  33.906  29.750  1.00  0.00     0.023 A 
ATOM     89  C   UNL A   1      44.301  34.939  28.808  1.00  0.00     0.031 A 
ATOM     90  C   UNL A   1      45.031  34.201  30.989  1.00  0.00     0.131 A 
ATOM     91  C   UNL A   1      44.799  36.216  29.105  1.00  0.00     0.055 A 
ATOM     92  C   UNL A   1      45.480  35.485  31.296  1.00  0.00     0.041 A 
ATOM     93  F   UNL A   1      45.176  33.247  31.921  1.00  0.00    -0.206 F 
ATOM     94  C   UNL A   1      45.374  36.498  30.348  1.00  0.00     0.022 A 
BRANCH  91  95
ATOM     95  S   UNL A   1      44.738  37.492  27.820  1.00  0.00     0.124 S 
ATOM     96  O   UNL A   1      45.947  37.211  27.054  1.00  0.00    -0.237 OA
ATOM     97  O   UNL A   1      43.475  37.201  27.148  1.00  0.00    -0.237 OA
ATOM     98  O   UNL A   1      44.760  38.743  28.578  1.00  0.00    -0.744 OA
ENDBRANCH  91  95
ENDBRANCH  65  88
ENDBRANCH  39  40
ENDBRANCH  31  34
ENDBRANCH  29  30
ENDBRANCH  28  29
ENDBRANCH   1  28
TORSDOF 19
ENDMDL
MODEL 2
REMARK VINA RESULT:     -11.6      1.587      7.521
REMARK SMILES C[C@@H](c1ccccc1)[C@@H](CC(=O)Nc1ccccc1I)C(=O)NCCCCNC(=O)c1ccc(-c2c3nc(c(-c4cc(S(=O)(=O)[O-])ccc4F)c4ccc([nH]4)c(-c4cc(S(=O)(=O)[O-])ccc4F)c4nc(c(-c5cc(S(=O)(=O)[O-])ccc5F)c5ccc2[nH]5)C=C4)C=C3)cc1
REMARK SMILES IDX 25 1 24 2 23 3 21 4 22 5 9 7 2 8 1 9 3 10 4 11 8 12 5 13
REMARK SMILES IDX 7 14 6 15 10 16 11 17 12 18 13 19 14 21 15 22 19 23 16 24
REMARK SMILES IDX 18 25 20 26 17 27 26 28 27 29 28 30 29 31 30 33 31 34 32 35
REMARK SMILES IDX 93 36 33 37 92 38 34 39 35 40 36 41 86 42 37 43 91 44 85 45
REMARK SMILES IDX 87 46 38 47 90 48 84 49 83 50 39 52 71 53 51 54 70 55 52 56
REMARK SMILES IDX 55 57 69 58 88 59 53 60 54 61 68 63 89 64 56 65 40 66 41 67
REMARK SMILES IDX 49 68 42 69 48 70 50 71 47 72 43 73 44 74 45 75 46 76 72 77
REMARK SMILES IDX 73 78 81 79 74 80 80 81 82 82 79 83 75 84 76 85 77 86 78 87
REMARK SMILES IDX 57 88 58 89 66 90 59 91 65 92 67 93 64 94 60 95 61 96 62 97
REMARK SMILES IDX 63 98
REMARK H PARENT 23 6 13 20 28 32 87 51 55 62
REMARK Flexibility Score: inf
ROOT
ATOM      1  C   UNL A   1      34.930  21.921  26.573  1.00  0.00     0.023 C 
ENDROOT
BRANCH   1   2
ATOM      2  C   UNL A   1      33.489  21.444  26.623  1.00  0.00     0.116 C 
BRANCH   2   3
ATOM      3  N   UNL A   1      32.613  22.368  27.323  1.00  0.00    -0.356 N 
ATOM      4  C   UNL A   1      31.815  23.381  26.904  1.00  0.00     0.224 C 
ATOM      5  O   UNL A   1      30.774  23.516  27.562  1.00  0.00    -0.275 OA
ATOM      6  H   UNL A   1      32.595  22.231  28.299  1.00  0.00     0.163 HD
BRANCH   4   7
ATOM      7  C   UNL A   1      32.120  24.396  25.786  1.00  0.00     0.095 C 
BRANCH   7   8
ATOM      8  C   UNL A   1      33.303  25.369  26.075  1.00  0.00     0.029 C 
ATOM      9  C   UNL A   1      34.315  25.348  24.905  1.00  0.00     0.013 C 
BRANCH   8  10
ATOM     10  C   UNL A   1      33.022  26.812  26.526  1.00  0.00    -0.044 A 
ATOM     11  C   UNL A   1      34.004  27.800  26.333  1.00  0.00     0.004 A 
ATOM     12  C   UNL A   1      31.755  27.244  26.955  1.00  0.00     0.004 A 
ATOM     13  C   UNL A   1      33.722  29.157  26.517  1.00  0.00     0.000 A 
ATOM     14  C   UNL A   1      31.464  28.602  27.118  1.00  0.00     0.000 A 
ATOM     15  C   UNL A   1      32.446  29.560  26.889  1.00  0.00     0.000 A 
ENDBRANCH   8  10
ENDBRANCH   7   8
BRANCH   7  16
ATOM     16  C   UNL A   1      32.058  23.873  24.338  1.00  0.00     0.114 C 
BRANCH  16  17
ATOM     17  C   UNL A   1      31.153  24.451  23.234  1.00  0.00     0.225 C 
ATOM     18  O   UNL A   1      30.179  23.796  22.849  1.00  0.00    -0.275 OA
ATOM     19  N   UNL A   1      31.477  25.607  22.571  1.00  0.00    -0.325 N 
ATOM     20  H   UNL A   1      32.080  25.535  21.796  1.00  0.00     0.169 HD
BRANCH  19  21
ATOM     21  C   UNL A   1      31.007  26.904  22.925  1.00  0.00     0.054 A 
ATOM     22  C   UNL A   1      29.651  27.082  23.224  1.00  0.00     0.027 A 
ATOM     23  C   UNL A   1      31.858  28.030  22.940  1.00  0.00     0.037 A 
ATOM     24  C   UNL A   1      29.173  28.331  23.623  1.00  0.00     0.002 A 
ATOM     25  C   UNL A   1      31.385  29.259  23.411  1.00  0.00     0.017 A 
ATOM     26  I   UNL A   1      33.865  28.048  22.325  1.00  0.00    -0.042 I 
ATOM     27  C   UNL A   1      30.047  29.407  23.757  1.00  0.00     0.001 A 
ENDBRANCH  19  21
ENDBRANCH  16  17
ENDBRANCH   7  16
ENDBRANCH   4   7
ENDBRANCH   2   3
ENDBRANCH   1   2
BRANCH   1  28
ATOM     28  C   UNL A   1      35.467  22.236  25.184  1.00  0.00     0.023 C 
BRANCH  28  29
ATOM     29  C   UNL A   1      36.946  22.560  25.204  1.00  0.00     0.116 C 
BRANCH  29  30
ATOM     30  N   UNL A   1      37.791  21.370  25.301  1.00  0.00    -0.352 N 
ATOM     31  C   UNL A   1      39.015  21.256  25.928  1.00  0.00     0.251 C 
ATOM     32  H   UNL A   1      37.445  20.556  24.872  1.00  0.00     0.163 HD
ATOM     33  O   UNL A   1      39.657  20.222  25.875  1.00  0.00    -0.269 OA
BRANCH  31  34
ATOM     34  C   UNL A   1      39.542  22.460  26.599  1.00  0.00     0.039 A 
ATOM     35  C   UNL A   1      40.543  22.318  27.561  1.00  0.00     0.014 A 
ATOM     36  C   UNL A   1      39.160  23.720  26.136  1.00  0.00     0.014 A 
ATOM     37  C   UNL A   1      41.227  23.451  28.002  1.00  0.00     0.010 A 
ATOM     38  C   UNL A   1      39.920  24.821  26.485  1.00  0.00     0.010 A 
ATOM     39  C   UNL A   1      40.952  24.702  27.430  1.00  0.00    -0.014 A 
BRANCH  39  40
ATOM     40  C   UNL A   1      41.661  25.938  27.845  1.00  0.00     0.031 A 
ATOM     41  C   UNL A   1      40.889  26.966  28.628  1.00  0.00     0.074 A 
ATOM     42  C   UNL A   1      42.923  26.179  27.442  1.00  0.00     0.049 A 
ATOM     43  N   UNL A   1      41.187  28.210  28.888  1.00  0.00    -0.248 NA
ATOM     44  C   UNL A   1      39.565  26.548  29.118  1.00  0.00     0.031 C 
ATOM     45  C   UNL A   1      43.756  25.268  26.652  1.00  0.00     0.029 A 
ATOM     46  N   UNL A   1      43.725  27.275  27.631  1.00  0.00    -0.354 N 
ATOM     47  C   UNL A   1      40.066  28.734  29.525  1.00  0.00     0.074 A 
ATOM     48  C   UNL A   1      39.060  27.696  29.535  1.00  0.00     0.031 C 
ATOM     49  C   UNL A   1      44.959  25.832  26.453  1.00  0.00     0.029 A 
ATOM     50  C   UNL A   1      44.967  27.162  27.053  1.00  0.00     0.049 A 
ATOM     51  H   UNL A   1      43.437  28.071  28.135  1.00  0.00     0.167 HD
ATOM     52  C   UNL A   1      39.905  29.960  30.081  1.00  0.00     0.034 A 
ATOM     53  C   UNL A   1      45.988  28.042  27.008  1.00  0.00     0.034 A 
ATOM     54  C   UNL A   1      40.949  30.950  30.114  1.00  0.00     0.049 A 
ATOM     55  C   UNL A   1      45.803  29.386  27.669  1.00  0.00     0.074 A 
ATOM     56  C   UNL A   1      40.930  32.213  30.675  1.00  0.00     0.029 A 
ATOM     57  N   UNL A   1      42.220  30.769  29.579  1.00  0.00    -0.354 N 
ATOM     58  N   UNL A   1      44.737  29.873  28.267  1.00  0.00    -0.248 NA
ATOM     59  C   UNL A   1      46.955  30.296  27.661  1.00  0.00     0.031 C 
ATOM     60  C   UNL A   1      42.178  32.807  30.454  1.00  0.00     0.029 A 
ATOM     61  C   UNL A   1      42.992  31.893  29.804  1.00  0.00     0.049 A 
ATOM     62  H   UNL A   1      42.524  29.960  29.108  1.00  0.00     0.167 HD
ATOM     63  C   UNL A   1      45.110  31.126  28.745  1.00  0.00     0.074 A 
ATOM     64  C   UNL A   1      46.495  31.318  28.367  1.00  0.00     0.031 C 
ATOM     65  C   UNL A   1      44.380  32.037  29.437  1.00  0.00     0.034 A 
BRANCH  52  66
ATOM     66  C   UNL A   1      38.557  30.272  30.683  1.00  0.00     0.023 A 
ATOM     67  C   UNL A   1      37.578  30.980  29.961  1.00  0.00     0.031 A 
ATOM     68  C   UNL A   1      38.268  29.924  32.012  1.00  0.00     0.131 A 
ATOM     69  C   UNL A   1      36.407  31.407  30.602  1.00  0.00     0.055 A 
ATOM     70  C   UNL A   1      37.056  30.268  32.617  1.00  0.00     0.041 A 
ATOM     71  F   UNL A   1      39.168  29.267  32.759  1.00  0.00    -0.206 F 
ATOM     72  C   UNL A   1      36.124  31.032  31.917  1.00  0.00     0.022 A 
BRANCH  69  73
ATOM     73  S   UNL A   1      35.340  32.597  29.745  1.00  0.00     0.124 S 
ATOM     74  O   UNL A   1      36.188  33.787  29.727  1.00  0.00    -0.237 OA
ATOM     75  O   UNL A   1      35.118  31.953  28.457  1.00  0.00    -0.237 OA
ATOM     76  O   UNL A   1      34.165  32.688  30.609  1.00  0.00    -0.744 OA
ENDBRANCH  69  73
ENDBRANCH  52  66
BRANCH  53  77
ATOM     77  C   UNL A   1      47.272  27.695  26.334  1.00  0.00     0.023 A 
ATOM     78  C   UNL A   1      47.428  27.884  24.951  1.00  0.00     0.031 A 
ATOM     79  C   UNL A   1      48.341  27.121  27.042  1.00  0.00     0.131 A 
ATOM     80  C   UNL A   1      48.599  27.452  24.310  1.00  0.00     0.055 A 
ATOM     81  C   UNL A   1      49.526  26.739  26.408  1.00  0.00     0.041 A 
ATOM     82  F   UNL A   1      48.251  26.925  28.367  1.00  0.00    -0.206 F 
ATOM     83  C   UNL A   1      49.654  26.889  25.030  1.00  0.00     0.022 A 
BRANCH  80  84
ATOM     84  S   UNL A   1      48.681  27.544  22.500  1.00  0.00     0.124 S 
ATOM     85  O   UNL A   1      50.042  28.024  22.287  1.00  0.00    -0.237 OA
ATOM     86  O   UNL A   1      48.420  26.161  22.116  1.00  0.00    -0.237 OA
ATOM     87  O   UNL A   1      47.624  28.493  22.159  1.00  0.00    -0.744 OA
ENDBRANCH  80  84
ENDBRANCH  53  77
BRANCH  65  88
ATOM     88  C   UNL A   1      45.095  33.276  29.901  1.00  0.00     0.023 A 
ATOM     89  C   UNL A   1      45.718  33.346  31.158  1.00  0.00     0.031 A 
ATOM     90  C   UNL A   1      45.165  34.397  29.055  1.00  0.00     0.131 A 
ATOM     91  C   UNL A   1      46.352  34.533  31.552  1.00  0.00     0.055 A 
ATOM     92  C   UNL A   1      45.839  35.557  29.434  1.00  0.00     0.041 A 
ATOM     93  F   UNL A   1      44.587  34.376  27.844  1.00  0.00    -0.206 F 
ATOM     94  C   UNL A   1      46.428  35.633  30.692  1.00  0.00     0.022 A 
BRANCH  91  95
ATOM     95  S   UNL A   1      47.027  34.641  33.230  1.00  0.00     0.124 S 
ATOM     96  O   UNL A   1      48.284  33.912  33.099  1.00  0.00    -0.237 OA
ATOM     97  O   UNL A   1      47.145  36.082  33.429  1.00  0.00    -0.237 OA
ATOM     98  O   UNL A   1      46.011  33.984  34.052  1.00  0.00    -0.744 OA
ENDBRANCH  91  95
ENDBRANCH  65  88
ENDBRANCH  39  40
ENDBRANCH  31  34
ENDBRANCH  29  30
ENDBRANCH  28  29
ENDBRANCH   1  28
TORSDOF 19
ENDMDL
MODEL 3
REMARK VINA RESULT:     -11.6      5.603      8.445
REMARK SMILES C[C@@H](c1ccccc1)[C@@H](CC(=O)Nc1ccccc1I)C(=O)NCCCCNC(=O)c1ccc(-c2c3nc(c(-c4cc(S(=O)(=O)[O-])ccc4F)c4ccc([nH]4)c(-c4cc(S(=O)(=O)[O-])ccc4F)c4nc(c(-c5cc(S(=O)(=O)[O-])ccc5F)c5ccc2[nH]5)C=C4)C=C3)cc1
REMARK SMILES IDX 25 1 24 2 23 3 21 4 22 5 9 7 2 8 1 9 3 10 4 11 8 12 5 13
REMARK SMILES IDX 7 14 6 15 10 16 11 17 12 18 13 19 14 21 15 22 19 23 16 24
REMARK SMILES IDX 18 25 20 26 17 27 26 28 27 29 28 30 29 31 30 33 31 34 32 35
REMARK SMILES IDX 93 36 33 37 92 38 34 39 35 40 36 41 86 42 37 43 91 44 85 45
REMARK SMILES IDX 87 46 38 47 90 48 84 49 83 50 39 52 71 53 51 54 70 55 52 56
REMARK SMILES IDX 55 57 69 58 88 59 53 60 54 61 68 63 89 64 56 65 40 66 41 67
REMARK SMILES IDX 49 68 42 69 48 70 50 71 47 72 43 73 44 74 45 75 46 76 72 77
REMARK SMILES IDX 73 78 81 79 74 80 80 81 82 82 79 83 75 84 76 85 77 86 78 87
REMARK SMILES IDX 57 88 58 89 66 90 59 91 65 92 67 93 64 94 60 95 61 96 62 97
REMARK SMILES IDX 63 98
REMARK H PARENT 23 6 13 20 28 32 87 51 55 62
REMARK Flexibility Score: inf
ROOT
ATOM      1  C   UNL A   1      33.278  29.568  26.573  1.00  0.00     0.023 C 
ENDROOT
BRANCH   1   2
ATOM      2  C   UNL A   1      32.852  28.329  27.342  1.00  0.00     0.116 C 
BRANCH   2   3
ATOM      3  N   UNL A   1      31.593  27.779  26.873  1.00  0.00    -0.356 N 
ATOM      4  C   UNL A   1      31.241  27.105  25.750  1.00  0.00     0.224 C 
ATOM      5  O   UNL A   1      30.362  26.249  25.923  1.00  0.00    -0.275 OA
ATOM      6  H   UNL A   1      30.843  27.924  27.495  1.00  0.00     0.163 HD
BRANCH   4   7
ATOM      7  C   UNL A   1      31.750  27.363  24.319  1.00  0.00     0.095 C 
BRANCH   7   8
ATOM      8  C   UNL A   1      31.451  28.785  23.752  1.00  0.00     0.029 C 
ATOM      9  C   UNL A   1      32.424  29.118  22.596  1.00  0.00     0.013 C 
BRANCH   8  10
ATOM     10  C   UNL A   1      30.012  29.181  23.385  1.00  0.00    -0.044 A 
ATOM     11  C   UNL A   1      29.074  28.178  23.087  1.00  0.00     0.004 A 
ATOM     12  C   UNL A   1      29.527  30.494  23.514  1.00  0.00     0.004 A 
ATOM     13  C   UNL A   1      27.710  28.464  22.965  1.00  0.00     0.000 A 
ATOM     14  C   UNL A   1      28.161  30.779  23.416  1.00  0.00     0.000 A 
ATOM     15  C   UNL A   1      27.251  29.761  23.151  1.00  0.00     0.000 A 
ENDBRANCH   8  10
ENDBRANCH   7   8
BRANCH   7  16
ATOM     16  C   UNL A   1      33.147  26.813  23.969  1.00  0.00     0.114 C 
BRANCH  16  17
ATOM     17  C   UNL A   1      33.417  25.684  22.957  1.00  0.00     0.225 C 
ATOM     18  O   UNL A   1      33.819  25.973  21.825  1.00  0.00    -0.275 OA
ATOM     19  N   UNL A   1      33.094  24.381  23.232  1.00  0.00    -0.325 N 
ATOM     20  H   UNL A   1      32.172  24.089  23.044  1.00  0.00     0.169 HD
BRANCH  19  21
ATOM     21  C   UNL A   1      33.994  23.418  23.773  1.00  0.00     0.054 A 
ATOM     22  C   UNL A   1      35.274  23.294  23.221  1.00  0.00     0.027 A 
ATOM     23  C   UNL A   1      33.621  22.549  24.820  1.00  0.00     0.037 A 
ATOM     24  C   UNL A   1      36.194  22.395  23.764  1.00  0.00     0.002 A 
ATOM     25  C   UNL A   1      34.570  21.705  25.403  1.00  0.00     0.017 A 
ATOM     26  I   UNL A   1      31.699  22.403  25.654  1.00  0.00    -0.042 I 
ATOM     27  C   UNL A   1      35.856  21.633  24.879  1.00  0.00     0.001 A 
ENDBRANCH  19  21
ENDBRANCH  16  17
ENDBRANCH   7  16
ENDBRANCH   4   7
ENDBRANCH   2   3
ENDBRANCH   1   2
BRANCH   1  28
ATOM     28  C   UNL A   1      32.556  30.854  26.955  1.00  0.00     0.023 C 
BRANCH  28  29
ATOM     29  C   UNL A   1      33.506  31.901  27.499  1.00  0.00     0.116 C 
BRANCH  29  30
ATOM     30  N   UNL A   1      32.889  33.220  27.629  1.00  0.00    -0.352 N 
ATOM     31  C   UNL A   1      33.235  34.228  28.505  1.00  0.00     0.251 C 
ATOM     32  H   UNL A   1      32.141  33.411  27.020  1.00  0.00     0.163 HD
ATOM     33  O   UNL A   1      32.591  35.261  28.566  1.00  0.00    -0.269 OA
BRANCH  31  34
ATOM     34  C   UNL A   1      34.371  33.970  29.413  1.00  0.00     0.039 A 
ATOM     35  C   UNL A   1      34.168  33.179  30.545  1.00  0.00     0.014 A 
ATOM     36  C   UNL A   1      35.651  34.371  29.031  1.00  0.00     0.014 A 
ATOM     37  C   UNL A   1      35.275  32.714  31.254  1.00  0.00     0.010 A 
ATOM     38  C   UNL A   1      36.746  33.809  29.664  1.00  0.00     0.010 A 
ATOM     39  C   UNL A   1      36.571  32.986  30.789  1.00  0.00    -0.014 A 
BRANCH  39  40
ATOM     40  C   UNL A   1      37.785  32.502  31.492  1.00  0.00     0.031 A 
ATOM     41  C   UNL A   1      38.569  31.384  30.859  1.00  0.00     0.074 A 
ATOM     42  C   UNL A   1      38.114  32.976  32.709  1.00  0.00     0.049 A 
ATOM     43  N   UNL A   1      39.498  30.625  31.373  1.00  0.00    -0.248 NA
ATOM     44  C   UNL A   1      38.195  31.030  29.479  1.00  0.00     0.031 C 
ATOM     45  C   UNL A   1      37.407  34.036  33.432  1.00  0.00     0.029 A 
ATOM     46  N   UNL A   1      39.125  32.615  33.562  1.00  0.00    -0.354 N 
ATOM     47  C   UNL A   1      39.780  29.673  30.397  1.00  0.00     0.074 A 
ATOM     48  C   UNL A   1      38.867  29.905  29.301  1.00  0.00     0.031 C 
ATOM     49  C   UNL A   1      38.026  34.259  34.604  1.00  0.00     0.029 A 
ATOM     50  C   UNL A   1      39.138  33.325  34.740  1.00  0.00     0.049 A 
ATOM     51  H   UNL A   1      39.781  31.912  33.351  1.00  0.00     0.167 HD
ATOM     52  C   UNL A   1      40.738  28.715  30.403  1.00  0.00     0.034 A 
ATOM     53  C   UNL A   1      39.954  33.218  35.809  1.00  0.00     0.034 A 
ATOM     54  C   UNL A   1      41.677  28.550  31.481  1.00  0.00     0.049 A 
ATOM     55  C   UNL A   1      41.041  32.172  35.777  1.00  0.00     0.074 A 
ATOM     56  C   UNL A   1      42.716  27.646  31.596  1.00  0.00     0.029 A 
ATOM     57  N   UNL A   1      41.703  29.337  32.627  1.00  0.00    -0.354 N 
ATOM     58  N   UNL A   1      41.297  31.275  34.851  1.00  0.00    -0.248 NA
ATOM     59  C   UNL A   1      41.954  32.126  36.927  1.00  0.00     0.031 C 
ATOM     60  C   UNL A   1      43.351  27.866  32.825  1.00  0.00     0.029 A 
ATOM     61  C   UNL A   1      42.743  28.944  33.449  1.00  0.00     0.049 A 
ATOM     62  H   UNL A   1      41.072  30.066  32.824  1.00  0.00     0.167 HD
ATOM     63  C   UNL A   1      42.429  30.592  35.286  1.00  0.00     0.074 A 
ATOM     64  C   UNL A   1      42.805  31.181  36.556  1.00  0.00     0.031 C 
ATOM     65  C   UNL A   1      43.104  29.574  34.695  1.00  0.00     0.034 A 
BRANCH  52  66
ATOM     66  C   UNL A   1      40.796  27.790  29.211  1.00  0.00     0.023 A 
ATOM     67  C   UNL A   1      41.743  27.974  28.187  1.00  0.00     0.031 A 
ATOM     68  C   UNL A   1      39.856  26.759  29.058  1.00  0.00     0.131 A 
ATOM     69  C   UNL A   1      41.663  27.212  27.013  1.00  0.00     0.055 A 
ATOM     70  C   UNL A   1      39.842  25.938  27.927  1.00  0.00     0.041 A 
ATOM     71  F   UNL A   1      38.915  26.547  29.990  1.00  0.00    -0.206 F 
ATOM     72  C   UNL A   1      40.736  26.175  26.887  1.00  0.00     0.022 A 
BRANCH  69  73
ATOM     73  S   UNL A   1      42.674  27.708  25.593  1.00  0.00     0.124 S 
ATOM     74  O   UNL A   1      43.955  27.996  26.234  1.00  0.00    -0.237 OA
ATOM     75  O   UNL A   1      42.637  26.521  24.747  1.00  0.00    -0.237 OA
ATOM     76  O   UNL A   1      41.973  28.875  25.062  1.00  0.00    -0.744 OA
ENDBRANCH  69  73
ENDBRANCH  52  66
BRANCH  53  77
ATOM     77  C   UNL A   1      39.797  34.119  36.987  1.00  0.00     0.023 A 
ATOM     78  C   UNL A   1      39.248  33.638  38.187  1.00  0.00     0.031 A 
ATOM     79  C   UNL A   1      40.138  35.481  36.920  1.00  0.00     0.131 A 
ATOM     80  C   UNL A   1      39.004  34.519  39.251  1.00  0.00     0.055 A 
ATOM     81  C   UNL A   1      39.939  36.345  38.000  1.00  0.00     0.041 A 
ATOM     82  F   UNL A   1      40.674  35.994  35.801  1.00  0.00    -0.206 F 
ATOM     83  C   UNL A   1      39.354  35.868  39.170  1.00  0.00     0.022 A 
BRANCH  80  84
ATOM     84  S   UNL A   1      38.123  33.894  40.709  1.00  0.00     0.124 S 
ATOM     85  O   UNL A   1      36.985  33.214  40.100  1.00  0.00    -0.237 OA
ATOM     86  O   UNL A   1      39.130  33.038  41.325  1.00  0.00    -0.237 OA
ATOM     87  O   UNL A   1      37.798  35.107  41.456  1.00  0.00    -0.744 OA
ENDBRANCH  80  84
ENDBRANCH  53  77
BRANCH  65  88
ATOM     88  C   UNL A   1      44.360  29.101  35.373  1.00  0.00     0.023 A 
ATOM     89  C   UNL A   1      44.331  28.150  36.406  1.00  0.00     0.031 A 
ATOM     90  C   UNL A   1      45.606  29.605  34.961  1.00  0.00     0.131 A 
ATOM     91  C   UNL A   1      45.529  27.759  37.022  1.00  0.00     0.055 A 
ATOM     92  C   UNL A   1      46.797  29.176  35.544  1.00  0.00     0.041 A 
ATOM     93  F   UNL A   1      45.683  30.514  33.976  1.00  0.00    -0.206 F 
ATOM     94  C   UNL A   1      46.762  28.255  36.588  1.00  0.00     0.022 A 
BRANCH  91  95
ATOM     95  S   UNL A   1      45.450  26.635  38.440  1.00  0.00     0.124 S 
ATOM     96  O   UNL A   1      46.384  27.256  39.374  1.00  0.00    -0.237 OA
ATOM     97  O   UNL A   1      44.040  26.698  38.813  1.00  0.00    -0.237 OA
ATOM     98  O   UNL A   1      45.886  25.353  37.887  1.00  0.00    -0.744 OA
ENDBRANCH  91  95
ENDBRANCH  65  88
ENDBRANCH  39  40
ENDBRANCH  31  34
ENDBRANCH  29  30
ENDBRANCH  28  29
ENDBRANCH   1  28
TORSDOF 19
ENDMDL
