MODEL 1
REMARK VINA RESULT:     -12.1      0.000      0.000
REMARK SMILES O=C(NCCCCNC(=O)[C@@H]1CC[C@@H](CS(=O)(=O)c2cccc(F)c2)O1)c1ccc(-c2c3nc(c(-c4cc(S(=O)(=O)[O-])ccc4F)c4ccc([nH]4)c(-c4cc(S(=O)(=O)[O-])ccc4F)c4nc(c(-c5cc(S(=O)(=O)[O-])ccc5F)c5ccc2[nH]5)C=C4)C=C3)cc1
REMARK SMILES IDX 5 1 4 2 3 3 1 4 2 5 27 7 28 8 89 9 29 10 88 11 30 12 31 13
REMARK SMILES IDX 32 14 82 15 33 16 87 17 81 18 83 19 34 20 86 21 80 22 79 23
REMARK SMILES IDX 35 25 67 26 47 27 66 28 48 29 51 30 65 31 84 32 49 33 50 34
REMARK SMILES IDX 64 36 85 37 52 38 36 39 37 40 45 41 38 42 44 43 46 44 43 45
REMARK SMILES IDX 39 46 40 47 41 48 42 49 68 50 69 51 77 52 70 53 76 54 78 55
REMARK SMILES IDX 75 56 71 57 72 58 73 59 74 60 53 61 54 62 62 63 55 64 61 65
REMARK SMILES IDX 63 66 60 67 56 68 57 69 58 70 59 71 6 72 7 73 8 74 9 75
REMARK SMILES IDX 10 77 11 78 12 79 26 80 13 81 14 82 15 83 16 84 17 85 18 86
REMARK SMILES IDX 19 87 20 88 25 89 21 90 23 91 22 92 24 93
REMARK H PARENT 3 6 83 24 51 35 8 76
REMARK Flexibility Score: inf
ROOT
ATOM      1  C   UNL A   1      35.093  21.546  24.733  1.00  0.00     0.023 C 
ENDROOT
BRANCH   1   2
ATOM      2  C   UNL A   1      36.351  21.870  25.524  1.00  0.00     0.116 C 
BRANCH   2   3
ATOM      3  N   UNL A   1      37.308  20.772  25.564  1.00  0.00    -0.352 N 
ATOM      4  O   UNL A   1      39.349  19.816  25.734  1.00  0.00    -0.269 OA
ATOM      5  C   UNL A   1      38.652  20.818  25.861  1.00  0.00     0.251 C 
ATOM      6  H   UNL A   1      36.945  19.881  25.351  1.00  0.00     0.163 HD
BRANCH   5   7
ATOM      7  C   UNL A   1      39.244  22.097  26.305  1.00  0.00     0.039 A 
ATOM      8  C   UNL A   1      38.696  23.305  25.871  1.00  0.00     0.014 A 
ATOM      9  C   UNL A   1      40.384  22.090  27.113  1.00  0.00     0.014 A 
ATOM     10  C   UNL A   1      39.386  24.488  26.094  1.00  0.00     0.010 A 
ATOM     11  C   UNL A   1      41.015  23.297  27.431  1.00  0.00     0.010 A 
ATOM     12  C   UNL A   1      40.540  24.504  26.895  1.00  0.00    -0.014 A 
BRANCH  12  13
ATOM     13  C   UNL A   1      41.171  25.813  27.207  1.00  0.00     0.031 A 
ATOM     14  C   UNL A   1      40.492  26.829  28.083  1.00  0.00     0.074 A 
ATOM     15  C   UNL A   1      42.410  26.048  26.730  1.00  0.00     0.049 A 
ATOM     16  N   UNL A   1      40.941  27.990  28.487  1.00  0.00    -0.248 NA
ATOM     17  C   UNL A   1      39.138  26.511  28.559  1.00  0.00     0.031 C 
ATOM     18  C   UNL A   1      43.162  25.130  25.868  1.00  0.00     0.029 A 
ATOM     19  N   UNL A   1      43.270  27.097  26.924  1.00  0.00    -0.354 N 
ATOM     20  C   UNL A   1      39.922  28.552  29.248  1.00  0.00     0.074 A 
ATOM     21  C   UNL A   1      38.819  27.613  29.226  1.00  0.00     0.031 C 
ATOM     22  C   UNL A   1      44.394  25.618  25.675  1.00  0.00     0.029 A 
ATOM     23  C   UNL A   1      44.492  26.922  26.320  1.00  0.00     0.049 A 
ATOM     24  H   UNL A   1      43.036  27.898  27.447  1.00  0.00     0.167 HD
ATOM     25  C   UNL A   1      39.915  29.738  29.905  1.00  0.00     0.034 A 
ATOM     26  C   UNL A   1      45.573  27.725  26.265  1.00  0.00     0.034 A 
ATOM     27  C   UNL A   1      41.030  30.654  29.922  1.00  0.00     0.049 A 
ATOM     28  C   UNL A   1      45.524  29.052  26.959  1.00  0.00     0.074 A 
ATOM     29  C   UNL A   1      41.142  31.859  30.597  1.00  0.00     0.029 A 
ATOM     30  N   UNL A   1      42.221  30.479  29.227  1.00  0.00    -0.354 N 
ATOM     31  N   UNL A   1      44.551  29.565  27.675  1.00  0.00    -0.248 NA
ATOM     32  C   UNL A   1      46.704  29.914  26.831  1.00  0.00     0.031 C 
ATOM     33  C   UNL A   1      42.360  32.447  30.246  1.00  0.00     0.029 A 
ATOM     34  C   UNL A   1      43.050  31.573  29.420  1.00  0.00     0.049 A 
ATOM     35  H   UNL A   1      42.443  29.694  28.677  1.00  0.00     0.167 HD
ATOM     36  C   UNL A   1      45.005  30.811  28.092  1.00  0.00     0.074 A 
ATOM     37  C   UNL A   1      46.342  30.968  27.552  1.00  0.00     0.031 C 
ATOM     38  C   UNL A   1      44.371  31.733  28.858  1.00  0.00     0.034 A 
BRANCH  25  39
ATOM     39  C   UNL A   1      38.650  30.142  30.624  1.00  0.00     0.023 A 
ATOM     40  C   UNL A   1      37.639  30.885  29.993  1.00  0.00     0.031 A 
ATOM     41  C   UNL A   1      38.444  29.750  31.960  1.00  0.00     0.131 A 
ATOM     42  C   UNL A   1      36.489  31.251  30.710  1.00  0.00     0.055 A 
ATOM     43  C   UNL A   1      37.270  30.059  32.647  1.00  0.00     0.041 A 
ATOM     44  F   UNL A   1      39.383  29.053  32.619  1.00  0.00    -0.206 F 
ATOM     45  C   UNL A   1      36.287  30.822  32.025  1.00  0.00     0.022 A 
BRANCH  42  46
ATOM     46  S   UNL A   1      35.301  32.378  29.931  1.00  0.00     0.124 S 
ATOM     47  O   UNL A   1      34.371  32.631  31.029  1.00  0.00    -0.237 OA
ATOM     48  O   UNL A   1      36.142  33.501  29.534  1.00  0.00    -0.237 OA
ATOM     49  O   UNL A   1      34.752  31.591  28.829  1.00  0.00    -0.744 OA
ENDBRANCH  42  46
ENDBRANCH  25  39
BRANCH  26  50
ATOM     50  C   UNL A   1      46.761  27.281  25.489  1.00  0.00     0.023 A 
ATOM     51  C   UNL A   1      46.934  27.656  24.149  1.00  0.00     0.031 A 
ATOM     52  C   UNL A   1      47.784  26.541  26.111  1.00  0.00     0.131 A 
ATOM     53  C   UNL A   1      48.111  27.293  23.475  1.00  0.00     0.055 A 
ATOM     54  C   UNL A   1      48.965  26.215  25.448  1.00  0.00     0.041 A 
ATOM     55  F   UNL A   1      47.668  26.177  27.399  1.00  0.00    -0.206 F 
ATOM     56  C   UNL A   1      49.133  26.591  24.119  1.00  0.00     0.022 A 
BRANCH  53  57
ATOM     57  S   UNL A   1      48.296  27.758  21.731  1.00  0.00     0.124 S 
ATOM     58  O   UNL A   1      49.462  28.631  21.779  1.00  0.00    -0.237 OA
ATOM     59  O   UNL A   1      48.488  26.463  21.087  1.00  0.00    -0.237 OA
ATOM     60  O   UNL A   1      47.031  28.421  21.420  1.00  0.00    -0.744 OA
ENDBRANCH  53  57
ENDBRANCH  26  50
BRANCH  38  61
ATOM     61  C   UNL A   1      45.119  32.998  29.182  1.00  0.00     0.023 A 
ATOM     62  C   UNL A   1      45.083  34.113  28.329  1.00  0.00     0.031 A 
ATOM     63  C   UNL A   1      45.823  33.109  30.394  1.00  0.00     0.131 A 
ATOM     64  C   UNL A   1      45.756  35.289  28.693  1.00  0.00     0.055 A 
ATOM     65  C   UNL A   1      46.452  34.295  30.772  1.00  0.00     0.041 A 
ATOM     66  F   UNL A   1      45.887  32.069  31.243  1.00  0.00    -0.206 F 
ATOM     67  C   UNL A   1      46.423  35.393  29.917  1.00  0.00     0.022 A 
BRANCH  64  68
ATOM     68  S   UNL A   1      45.772  36.683  27.533  1.00  0.00     0.124 S 
ATOM     69  O   UNL A   1      44.470  37.295  27.781  1.00  0.00    -0.237 OA
ATOM     70  O   UNL A   1      46.932  37.450  27.975  1.00  0.00    -0.237 OA
ATOM     71  O   UNL A   1      45.916  36.041  26.228  1.00  0.00    -0.744 OA
ENDBRANCH  64  68
ENDBRANCH  38  61
ENDBRANCH  12  13
ENDBRANCH   5   7
ENDBRANCH   2   3
ENDBRANCH   1   2
BRANCH   1  72
ATOM     72  C   UNL A   1      34.103  20.616  25.440  1.00  0.00     0.023 C 
BRANCH  72  73
ATOM     73  C   UNL A   1      32.638  21.022  25.286  1.00  0.00     0.116 C 
BRANCH  73  74
ATOM     74  N   UNL A   1      32.174  21.795  26.423  1.00  0.00    -0.354 N 
ATOM     75  C   UNL A   1      31.859  23.123  26.491  1.00  0.00     0.249 C 
ATOM     76  H   UNL A   1      32.072  21.292  27.263  1.00  0.00     0.163 HD
ATOM     77  O   UNL A   1      31.500  23.590  27.573  1.00  0.00    -0.272 OA
BRANCH  75  78
ATOM     78  C   UNL A   1      31.911  23.968  25.212  1.00  0.00     0.207 C 
ATOM     79  C   UNL A   1      33.258  24.630  24.974  1.00  0.00     0.045 C 
ATOM     80  O   UNL A   1      30.940  25.034  25.302  1.00  0.00    -0.364 OA
ATOM     81  C   UNL A   1      32.862  25.910  24.281  1.00  0.00     0.036 C 
ATOM     82  C   UNL A   1      31.609  26.291  25.046  1.00  0.00     0.134 C 
BRANCH  82  83
ATOM     83  C   UNL A   1      30.622  27.193  24.336  1.00  0.00     0.174 C 
BRANCH  83  84
ATOM     84  S   UNL A   1      31.097  28.885  24.168  1.00  0.00     0.181 S 
ATOM     85  O   UNL A   1      31.344  29.406  25.496  1.00  0.00    -0.224 OA
ATOM     86  O   UNL A   1      32.140  28.948  23.155  1.00  0.00    -0.224 OA
BRANCH  84  87
ATOM     87  C   UNL A   1      29.736  29.802  23.498  1.00  0.00     0.070 A 
ATOM     88  C   UNL A   1      28.768  29.191  22.695  1.00  0.00     0.020 A 
ATOM     89  C   UNL A   1      29.669  31.170  23.779  1.00  0.00     0.059 A 
ATOM     90  C   UNL A   1      27.714  29.957  22.187  1.00  0.00     0.004 A 
ATOM     91  C   UNL A   1      28.625  31.918  23.251  1.00  0.00     0.124 A 
ATOM     92  C   UNL A   1      27.645  31.324  22.464  1.00  0.00     0.039 A 
ATOM     93  F   UNL A   1      28.565  33.233  23.498  1.00  0.00    -0.207 F 
ENDBRANCH  84  87
ENDBRANCH  83  84
ENDBRANCH  82  83
ENDBRANCH  75  78
ENDBRANCH  73  74
ENDBRANCH  72  73
ENDBRANCH   1  72
TORSDOF 17
ENDMDL
MODEL 2
REMARK VINA RESULT:     -11.9      5.857     11.160
REMARK SMILES O=C(NCCCCNC(=O)[C@@H]1CC[C@@H](CS(=O)(=O)c2cccc(F)c2)O1)c1ccc(-c2c3nc(c(-c4cc(S(=O)(=O)[O-])ccc4F)c4ccc([nH]4)c(-c4cc(S(=O)(=O)[O-])ccc4F)c4nc(c(-c5cc(S(=O)(=O)[O-])ccc5F)c5ccc2[nH]5)C=C4)C=C3)cc1
REMARK SMILES IDX 5 1 4 2 3 3 1 4 2 5 27 7 28 8 89 9 29 10 88 11 30 12 31 13
REMARK SMILES IDX 32 14 82 15 33 16 87 17 81 18 83 19 34 20 86 21 80 22 79 23
REMARK SMILES IDX 35 25 67 26 47 27 66 28 48 29 51 30 65 31 84 32 49 33 50 34
REMARK SMILES IDX 64 36 85 37 52 38 36 39 37 40 45 41 38 42 44 43 46 44 43 45
REMARK SMILES IDX 39 46 40 47 41 48 42 49 68 50 69 51 77 52 70 53 76 54 78 55
REMARK SMILES IDX 75 56 71 57 72 58 73 59 74 60 53 61 54 62 62 63 55 64 61 65
REMARK SMILES IDX 63 66 60 67 56 68 57 69 58 70 59 71 6 72 7 73 8 74 9 75
REMARK SMILES IDX 10 77 11 78 12 79 26 80 13 81 14 82 15 83 16 84 17 85 18 86
REMARK SMILES IDX 19 87 20 88 25 89 21 90 23 91 22 92 24 93
REMARK H PARENT 3 6 83 24 51 35 8 76
REMARK Flexibility Score: inf
ROOT
ATOM      1  C   UNL A   1      31.388  32.253  26.515  1.00  0.00     0.023 C 
ENDROOT
BRANCH   1   2
ATOM      2  C   UNL A   1      32.669  32.953  26.945  1.00  0.00     0.116 C 
BRANCH   2   3
ATOM      3  N   UNL A   1      32.434  34.226  27.615  1.00  0.00    -0.352 N 
ATOM      4  O   UNL A   1      32.684  35.784  29.233  1.00  0.00    -0.269 OA
ATOM      5  C   UNL A   1      33.083  34.747  28.713  1.00  0.00     0.251 C 
ATOM      6  H   UNL A   1      31.720  34.786  27.232  1.00  0.00     0.163 HD
BRANCH   5   7
ATOM      7  C   UNL A   1      34.243  34.021  29.271  1.00  0.00     0.039 A 
ATOM      8  C   UNL A   1      34.040  32.964  30.160  1.00  0.00     0.014 A 
ATOM      9  C   UNL A   1      35.538  34.432  28.948  1.00  0.00     0.014 A 
ATOM     10  C   UNL A   1      35.118  32.442  30.859  1.00  0.00     0.010 A 
ATOM     11  C   UNL A   1      36.633  33.824  29.572  1.00  0.00     0.010 A 
ATOM     12  C   UNL A   1      36.430  32.847  30.559  1.00  0.00    -0.014 A 
BRANCH  12  13
ATOM     13  C   UNL A   1      37.560  32.167  31.245  1.00  0.00     0.031 A 
ATOM     14  C   UNL A   1      38.336  31.063  30.585  1.00  0.00     0.074 A 
ATOM     15  C   UNL A   1      37.916  32.611  32.468  1.00  0.00     0.049 A 
ATOM     16  N   UNL A   1      39.379  30.412  31.038  1.00  0.00    -0.248 NA
ATOM     17  C   UNL A   1      37.886  30.622  29.257  1.00  0.00     0.031 C 
ATOM     18  C   UNL A   1      37.229  33.678  33.203  1.00  0.00     0.029 A 
ATOM     19  N   UNL A   1      38.953  32.258  33.292  1.00  0.00    -0.354 N 
ATOM     20  C   UNL A   1      39.700  29.475  30.063  1.00  0.00     0.074 A 
ATOM     21  C   UNL A   1      38.722  29.623  29.004  1.00  0.00     0.031 C 
ATOM     22  C   UNL A   1      37.907  33.946  34.326  1.00  0.00     0.029 A 
ATOM     23  C   UNL A   1      39.022  33.012  34.439  1.00  0.00     0.049 A 
ATOM     24  H   UNL A   1      39.587  31.535  33.082  1.00  0.00     0.167 HD
ATOM     25  C   UNL A   1      40.719  28.581  30.055  1.00  0.00     0.034 A 
ATOM     26  C   UNL A   1      39.870  32.954  35.483  1.00  0.00     0.034 A 
ATOM     27  C   UNL A   1      41.689  28.458  31.117  1.00  0.00     0.049 A 
ATOM     28  C   UNL A   1      40.960  31.925  35.474  1.00  0.00     0.074 A 
ATOM     29  C   UNL A   1      42.788  27.617  31.183  1.00  0.00     0.029 A 
ATOM     30  N   UNL A   1      41.675  29.183  32.302  1.00  0.00    -0.354 N 
ATOM     31  N   UNL A   1      41.248  31.047  34.542  1.00  0.00    -0.248 NA
ATOM     32  C   UNL A   1      41.829  31.865  36.654  1.00  0.00     0.031 C 
ATOM     33  C   UNL A   1      43.386  27.775  32.435  1.00  0.00     0.029 A 
ATOM     34  C   UNL A   1      42.716  28.776  33.122  1.00  0.00     0.049 A 
ATOM     35  H   UNL A   1      41.020  29.883  32.527  1.00  0.00     0.167 HD
ATOM     36  C   UNL A   1      42.340  30.333  35.020  1.00  0.00     0.074 A 
ATOM     37  C   UNL A   1      42.662  30.888  36.320  1.00  0.00     0.031 C 
ATOM     38  C   UNL A   1      43.014  29.317  34.427  1.00  0.00     0.034 A 
BRANCH  25  39
ATOM     39  C   UNL A   1      40.817  27.629  28.886  1.00  0.00     0.023 A 
ATOM     40  C   UNL A   1      41.771  27.795  27.869  1.00  0.00     0.031 A 
ATOM     41  C   UNL A   1      39.955  26.520  28.808  1.00  0.00     0.131 A 
ATOM     42  C   UNL A   1      41.811  26.893  26.794  1.00  0.00     0.055 A 
ATOM     43  C   UNL A   1      40.043  25.588  27.773  1.00  0.00     0.041 A 
ATOM     44  F   UNL A   1      39.013  26.320  29.743  1.00  0.00    -0.206 F 
ATOM     45  C   UNL A   1      40.970  25.777  26.752  1.00  0.00     0.022 A 
BRANCH  42  46
ATOM     46  S   UNL A   1      42.914  27.249  25.400  1.00  0.00     0.124 S 
ATOM     47  O   UNL A   1      44.167  27.557  26.085  1.00  0.00    -0.237 OA
ATOM     48  O   UNL A   1      42.888  25.999  24.648  1.00  0.00    -0.237 OA
ATOM     49  O   UNL A   1      42.278  28.387  24.739  1.00  0.00    -0.744 OA
ENDBRANCH  42  46
ENDBRANCH  25  39
BRANCH  26  50
ATOM     50  C   UNL A   1      39.674  33.888  36.624  1.00  0.00     0.023 A 
ATOM     51  C   UNL A   1      39.088  33.456  37.822  1.00  0.00     0.031 A 
ATOM     52  C   UNL A   1      40.151  35.210  36.553  1.00  0.00     0.131 A 
ATOM     53  C   UNL A   1      39.000  34.342  38.908  1.00  0.00     0.055 A 
ATOM     54  C   UNL A   1      40.093  36.073  37.645  1.00  0.00     0.041 A 
ATOM     55  F   UNL A   1      40.736  35.659  35.430  1.00  0.00    -0.206 F 
ATOM     56  C   UNL A   1      39.513  35.640  38.833  1.00  0.00     0.022 A 
BRANCH  53  57
ATOM     57  S   UNL A   1      38.205  33.773  40.436  1.00  0.00     0.124 S 
ATOM     58  O   UNL A   1      37.946  35.033  41.123  1.00  0.00    -0.237 OA
ATOM     59  O   UNL A   1      37.034  33.066  39.928  1.00  0.00    -0.237 OA
ATOM     60  O   UNL A   1      39.222  32.923  41.051  1.00  0.00    -0.744 OA
ENDBRANCH  53  57
ENDBRANCH  26  50
BRANCH  38  61
ATOM     61  C   UNL A   1      44.191  28.740  35.169  1.00  0.00     0.023 A 
ATOM     62  C   UNL A   1      44.020  27.816  36.213  1.00  0.00     0.031 A 
ATOM     63  C   UNL A   1      45.500  29.072  34.779  1.00  0.00     0.131 A 
ATOM     64  C   UNL A   1      45.146  27.267  36.846  1.00  0.00     0.055 A 
ATOM     65  C   UNL A   1      46.615  28.488  35.380  1.00  0.00     0.041 A 
ATOM     66  F   UNL A   1      45.713  29.951  33.786  1.00  0.00    -0.206 F 
ATOM     67  C   UNL A   1      46.441  27.582  36.422  1.00  0.00     0.022 A 
BRANCH  64  68
ATOM     68  S   UNL A   1      44.901  26.148  38.251  1.00  0.00     0.124 S 
ATOM     69  O   UNL A   1      45.239  24.853  37.668  1.00  0.00    -0.237 OA
ATOM     70  O   UNL A   1      45.841  26.667  39.239  1.00  0.00    -0.237 OA
ATOM     71  O   UNL A   1      43.490  26.326  38.589  1.00  0.00    -0.744 OA
ENDBRANCH  64  68
ENDBRANCH  38  61
ENDBRANCH  12  13
ENDBRANCH   5   7
ENDBRANCH   2   3
ENDBRANCH   1   2
BRANCH   1  72
ATOM     72  C   UNL A   1      31.476  30.726  26.442  1.00  0.00     0.023 C 
BRANCH  72  73
ATOM     73  C   UNL A   1      31.294  30.152  25.037  1.00  0.00     0.116 C 
BRANCH  73  74
ATOM     74  N   UNL A   1      32.534  29.609  24.516  1.00  0.00    -0.354 N 
ATOM     75  C   UNL A   1      32.902  28.302  24.355  1.00  0.00     0.249 C 
ATOM     76  H   UNL A   1      33.204  30.275  24.238  1.00  0.00     0.163 HD
ATOM     77  O   UNL A   1      34.023  28.056  23.907  1.00  0.00    -0.272 OA
BRANCH  75  78
ATOM     78  C   UNL A   1      31.890  27.197  24.684  1.00  0.00     0.207 C 
ATOM     79  C   UNL A   1      32.026  26.649  26.095  1.00  0.00     0.045 C 
ATOM     80  O   UNL A   1      32.091  26.081  23.789  1.00  0.00    -0.364 OA
ATOM     81  C   UNL A   1      31.615  25.209  25.914  1.00  0.00     0.036 C 
ATOM     82  C   UNL A   1      32.253  24.880  24.578  1.00  0.00     0.134 C 
BRANCH  82  83
ATOM     83  C   UNL A   1      31.645  23.737  23.792  1.00  0.00     0.174 C 
BRANCH  83  84
ATOM     84  S   UNL A   1      32.749  22.840  22.747  1.00  0.00     0.181 S 
ATOM     85  O   UNL A   1      32.033  21.689  22.235  1.00  0.00    -0.224 OA
ATOM     86  O   UNL A   1      33.352  23.791  21.827  1.00  0.00    -0.224 OA
BRANCH  84  87
ATOM     87  C   UNL A   1      34.091  22.218  23.726  1.00  0.00     0.070 A 
ATOM     88  C   UNL A   1      33.914  21.156  24.618  1.00  0.00     0.020 A 
ATOM     89  C   UNL A   1      35.336  22.841  23.597  1.00  0.00     0.059 A 
ATOM     90  C   UNL A   1      35.001  20.703  25.371  1.00  0.00     0.004 A 
ATOM     91  C   UNL A   1      36.400  22.389  24.367  1.00  0.00     0.124 A 
ATOM     92  C   UNL A   1      36.246  21.324  25.246  1.00  0.00     0.039 A 
ATOM     93  F   UNL A   1      37.591  22.992  24.265  1.00  0.00    -0.207 F 
ENDBRANCH  84  87
ENDBRANCH  83  84
ENDBRANCH  82  83
ENDBRANCH  75  78
ENDBRANCH  73  74
ENDBRANCH  72  73
ENDBRANCH   1  72
TORSDOF 17
ENDMDL
MODEL 3
REMARK VINA RESULT:     -11.9      5.554      8.521
REMARK SMILES O=C(NCCCCNC(=O)[C@@H]1CC[C@@H](CS(=O)(=O)c2cccc(F)c2)O1)c1ccc(-c2c3nc(c(-c4cc(S(=O)(=O)[O-])ccc4F)c4ccc([nH]4)c(-c4cc(S(=O)(=O)[O-])ccc4F)c4nc(c(-c5cc(S(=O)(=O)[O-])ccc5F)c5ccc2[nH]5)C=C4)C=C3)cc1
REMARK SMILES IDX 5 1 4 2 3 3 1 4 2 5 27 7 28 8 89 9 29 10 88 11 30 12 31 13
REMARK SMILES IDX 32 14 82 15 33 16 87 17 81 18 83 19 34 20 86 21 80 22 79 23
REMARK SMILES IDX 35 25 67 26 47 27 66 28 48 29 51 30 65 31 84 32 49 33 50 34
REMARK SMILES IDX 64 36 85 37 52 38 36 39 37 40 45 41 38 42 44 43 46 44 43 45
REMARK SMILES IDX 39 46 40 47 41 48 42 49 68 50 69 51 77 52 70 53 76 54 78 55
REMARK SMILES IDX 75 56 71 57 72 58 73 59 74 60 53 61 54 62 62 63 55 64 61 65
REMARK SMILES IDX 63 66 60 67 56 68 57 69 58 70 59 71 6 72 7 73 8 74 9 75
REMARK SMILES IDX 10 77 11 78 12 79 26 80 13 81 14 82 15 83 16 84 17 85 18 86
REMARK SMILES IDX 19 87 20 88 25 89 21 90 23 91 22 92 24 93
REMARK H PARENT 3 6 83 24 51 35 8 76
REMARK Flexibility Score: inf
ROOT
ATOM      1  C   UNL A   1      31.819  28.625  25.569  1.00  0.00     0.023 C 
ENDROOT
BRANCH   1   2
ATOM      2  C   UNL A   1      32.995  29.469  26.041  1.00  0.00     0.116 C 
BRANCH   2   3
ATOM      3  N   UNL A   1      32.626  30.839  26.372  1.00  0.00    -0.352 N 
ATOM      4  O   UNL A   1      32.753  32.798  27.492  1.00  0.00    -0.269 OA
ATOM      5  C   UNL A   1      33.260  31.713  27.227  1.00  0.00     0.251 C 
ATOM      6  H   UNL A   1      31.818  31.184  25.927  1.00  0.00     0.163 HD
BRANCH   5   7
ATOM      7  C   UNL A   1      34.542  31.309  27.843  1.00  0.00     0.039 A 
ATOM      8  C   UNL A   1      34.710  30.005  28.310  1.00  0.00     0.014 A 
ATOM      9  C   UNL A   1      35.560  32.252  28.003  1.00  0.00     0.014 A 
ATOM     10  C   UNL A   1      35.813  29.694  29.090  1.00  0.00     0.010 A 
ATOM     11  C   UNL A   1      36.725  31.902  28.695  1.00  0.00     0.010 A 
ATOM     12  C   UNL A   1      36.846  30.630  29.274  1.00  0.00    -0.014 A 
BRANCH  12  13
ATOM     13  C   UNL A   1      38.065  30.208  30.013  1.00  0.00     0.031 A 
ATOM     14  C   UNL A   1      38.309  30.623  31.437  1.00  0.00     0.074 A 
ATOM     15  C   UNL A   1      38.930  29.384  29.389  1.00  0.00     0.049 A 
ATOM     16  N   UNL A   1      39.298  30.290  32.228  1.00  0.00    -0.248 NA
ATOM     17  C   UNL A   1      37.331  31.531  32.052  1.00  0.00     0.031 C 
ATOM     18  C   UNL A   1      38.791  28.919  28.005  1.00  0.00     0.029 A 
ATOM     19  N   UNL A   1      40.067  28.761  29.833  1.00  0.00    -0.354 N 
ATOM     20  C   UNL A   1      39.074  30.960  33.426  1.00  0.00     0.074 A 
ATOM     21  C   UNL A   1      37.868  31.741  33.247  1.00  0.00     0.031 C 
ATOM     22  C   UNL A   1      39.755  28.027  27.741  1.00  0.00     0.029 A 
ATOM     23  C   UNL A   1      40.633  27.924  28.901  1.00  0.00     0.049 A 
ATOM     24  H   UNL A   1      40.442  28.899  30.733  1.00  0.00     0.167 HD
ATOM     25  C   UNL A   1      39.808  30.919  34.565  1.00  0.00     0.034 A 
ATOM     26  C   UNL A   1      41.746  27.168  28.954  1.00  0.00     0.034 A 
ATOM     27  C   UNL A   1      41.002  30.125  34.724  1.00  0.00     0.049 A 
ATOM     28  C   UNL A   1      42.567  27.176  30.208  1.00  0.00     0.074 A 
ATOM     29  C   UNL A   1      41.791  29.976  35.854  1.00  0.00     0.029 A 
ATOM     30  N   UNL A   1      41.591  29.354  33.728  1.00  0.00    -0.354 N 
ATOM     31  N   UNL A   1      42.338  27.815  31.331  1.00  0.00    -0.248 NA
ATOM     32  C   UNL A   1      43.797  26.378  30.203  1.00  0.00     0.031 C 
ATOM     33  C   UNL A   1      42.893  29.186  35.518  1.00  0.00     0.029 A 
ATOM     34  C   UNL A   1      42.753  28.769  34.203  1.00  0.00     0.049 A 
ATOM     35  H   UNL A   1      41.234  29.243  32.817  1.00  0.00     0.167 HD
ATOM     36  C   UNL A   1      43.395  27.490  32.173  1.00  0.00     0.074 A 
ATOM     37  C   UNL A   1      44.257  26.591  31.430  1.00  0.00     0.031 C 
ATOM     38  C   UNL A   1      43.620  27.895  33.447  1.00  0.00     0.034 A 
BRANCH  25  39
ATOM     39  C   UNL A   1      39.373  31.790  35.719  1.00  0.00     0.023 A 
ATOM     40  C   UNL A   1      38.552  31.305  36.751  1.00  0.00     0.031 A 
ATOM     41  C   UNL A   1      39.813  33.124  35.799  1.00  0.00     0.131 A 
ATOM     42  C   UNL A   1      38.160  32.160  37.793  1.00  0.00     0.055 A 
ATOM     43  C   UNL A   1      39.476  33.950  36.872  1.00  0.00     0.041 A 
ATOM     44  F   UNL A   1      40.585  33.647  34.833  1.00  0.00    -0.206 F 
ATOM     45  C   UNL A   1      38.637  33.471  37.874  1.00  0.00     0.022 A 
BRANCH  42  46
ATOM     46  S   UNL A   1      36.941  31.563  38.996  1.00  0.00     0.124 S 
ATOM     47  O   UNL A   1      37.708  31.604  40.239  1.00  0.00    -0.237 OA
ATOM     48  O   UNL A   1      35.869  32.544  38.874  1.00  0.00    -0.237 OA
ATOM     49  O   UNL A   1      36.615  30.221  38.518  1.00  0.00    -0.744 OA
ENDBRANCH  42  46
ENDBRANCH  25  39
BRANCH  26  50
ATOM     50  C   UNL A   1      42.141  26.381  27.756  1.00  0.00     0.023 A 
ATOM     51  C   UNL A   1      41.821  25.020  27.644  1.00  0.00     0.031 A 
ATOM     52  C   UNL A   1      42.775  27.008  26.667  1.00  0.00     0.131 A 
ATOM     53  C   UNL A   1      42.132  24.331  26.461  1.00  0.00     0.055 A 
ATOM     54  C   UNL A   1      43.048  26.328  25.482  1.00  0.00     0.041 A 
ATOM     55  F   UNL A   1      43.083  28.314  26.724  1.00  0.00    -0.206 F 
ATOM     56  C   UNL A   1      42.727  24.979  25.375  1.00  0.00     0.022 A 
BRANCH  53  57
ATOM     57  S   UNL A   1      41.741  22.563  26.353  1.00  0.00     0.124 S 
ATOM     58  O   UNL A   1      42.156  22.087  27.667  1.00  0.00    -0.237 OA
ATOM     59  O   UNL A   1      40.304  22.582  26.100  1.00  0.00    -0.237 OA
ATOM     60  O   UNL A   1      42.560  22.101  25.234  1.00  0.00    -0.744 OA
ENDBRANCH  53  57
ENDBRANCH  26  50
BRANCH  38  61
ATOM     61  C   UNL A   1      44.844  27.357  34.140  1.00  0.00     0.023 A 
ATOM     62  C   UNL A   1      44.818  26.138  34.838  1.00  0.00     0.031 A 
ATOM     63  C   UNL A   1      46.067  28.043  34.041  1.00  0.00     0.131 A 
ATOM     64  C   UNL A   1      45.994  25.651  35.429  1.00  0.00     0.055 A 
ATOM     65  C   UNL A   1      47.242  27.531  34.590  1.00  0.00     0.041 A 
ATOM     66  F   UNL A   1      46.142  29.212  33.383  1.00  0.00    -0.206 F 
ATOM     67  C   UNL A   1      47.208  26.329  35.291  1.00  0.00     0.022 A 
BRANCH  64  68
ATOM     68  S   UNL A   1      45.915  24.124  36.403  1.00  0.00     0.124 S 
ATOM     69  O   UNL A   1      47.003  24.318  37.356  1.00  0.00    -0.237 OA
ATOM     70  O   UNL A   1      44.566  24.170  36.956  1.00  0.00    -0.237 OA
ATOM     71  O   UNL A   1      46.140  23.073  35.412  1.00  0.00    -0.744 OA
ENDBRANCH  64  68
ENDBRANCH  38  61
ENDBRANCH  12  13
ENDBRANCH   5   7
ENDBRANCH   2   3
ENDBRANCH   1   2
BRANCH   1  72
ATOM     72  C   UNL A   1      31.246  29.016  24.205  1.00  0.00     0.023 C 
BRANCH  72  73
ATOM     73  C   UNL A   1      30.869  27.830  23.317  1.00  0.00     0.116 C 
BRANCH  73  74
ATOM     74  N   UNL A   1      31.891  27.557  22.325  1.00  0.00    -0.354 N 
ATOM     75  C   UNL A   1      32.860  26.593  22.329  1.00  0.00     0.249 C 
ATOM     76  H   UNL A   1      31.885  28.149  21.538  1.00  0.00     0.163 HD
ATOM     77  O   UNL A   1      33.650  26.547  21.385  1.00  0.00    -0.272 OA
BRANCH  75  78
ATOM     78  C   UNL A   1      32.894  25.575  23.475  1.00  0.00     0.207 C 
ATOM     79  C   UNL A   1      33.851  25.951  24.594  1.00  0.00     0.045 C 
ATOM     80  O   UNL A   1      33.336  24.297  22.968  1.00  0.00    -0.364 OA
ATOM     81  C   UNL A   1      34.313  24.599  25.080  1.00  0.00     0.036 C 
ATOM     82  C   UNL A   1      34.449  23.841  23.773  1.00  0.00     0.134 C 
BRANCH  82  83
ATOM     83  C   UNL A   1      34.365  22.331  23.846  1.00  0.00     0.174 C 
BRANCH  83  84
ATOM     84  S   UNL A   1      33.036  21.672  24.803  1.00  0.00     0.181 S 
ATOM     85  O   UNL A   1      33.427  21.731  26.197  1.00  0.00    -0.224 OA
ATOM     86  O   UNL A   1      31.814  22.323  24.361  1.00  0.00    -0.224 OA
BRANCH  84  87
ATOM     87  C   UNL A   1      32.829  19.958  24.398  1.00  0.00     0.070 A 
ATOM     88  C   UNL A   1      32.527  19.547  23.097  1.00  0.00     0.020 A 
ATOM     89  C   UNL A   1      32.955  19.024  25.431  1.00  0.00     0.059 A 
ATOM     90  C   UNL A   1      32.369  18.184  22.827  1.00  0.00     0.004 A 
ATOM     91  C   UNL A   1      32.777  17.676  25.147  1.00  0.00     0.124 A 
ATOM     92  C   UNL A   1      32.492  17.248  23.855  1.00  0.00     0.039 A 
ATOM     93  F   UNL A   1      32.876  16.776  26.133  1.00  0.00    -0.207 F 
ENDBRANCH  84  87
ENDBRANCH  83  84
ENDBRANCH  82  83
ENDBRANCH  75  78
ENDBRANCH  73  74
ENDBRANCH  72  73
ENDBRANCH   1  72
TORSDOF 17
ENDMDL
