MODEL 1
REMARK VINA RESULT:     -11.8      0.000      0.000
REMARK SMILES C[C@@H]1SCCC[C@H]1Nc1cccc(C(=O)NCCCCNC(=O)c2ccc(-c3c4nc(c(-c5cc(S(=O)(=O)[O-])ccc5F)c5ccc([nH]5)c(-c5cc(S(=O)(=O)[O-])ccc5F)c5nc(c(-c6cc(S(=O)(=O)[O-])ccc6F)c6ccc3[nH]6)C=C5)C=C4)cc2)c1
REMARK SMILES IDX 19 1 18 2 17 3 16 4 14 5 15 6 13 8 9 9 10 10 87 11 11 12
REMARK SMILES IDX 12 13 8 14 7 16 1 17 2 18 3 19 4 20 6 21 5 22 20 23 21 24
REMARK SMILES IDX 22 25 23 27 24 28 25 29 86 30 26 31 85 32 27 33 28 34 29 35
REMARK SMILES IDX 79 36 30 37 84 38 78 39 80 40 31 41 83 42 77 43 76 44 32 46
REMARK SMILES IDX 64 47 44 48 63 49 45 50 48 51 62 52 81 53 46 54 47 55 61 57
REMARK SMILES IDX 82 58 49 59 33 60 34 61 42 62 35 63 41 64 43 65 40 66 36 67
REMARK SMILES IDX 37 68 38 69 39 70 65 71 66 72 74 73 67 74 73 75 75 76 72 77
REMARK SMILES IDX 68 78 69 79 70 80 71 81 50 82 51 83 59 84 52 85 58 86 60 87
REMARK SMILES IDX 57 88 53 89 54 90 55 91 56 92
REMARK H PARENT 16 7 8 15 21 26 80 45 48 56
REMARK Flexibility Score: inf
ROOT
ATOM      1  C   UNL A   1      32.002  31.342  26.792  1.00  0.00     0.023 C 
ENDROOT
BRANCH   1   2
ATOM      2  C   UNL A   1      32.146  29.835  26.964  1.00  0.00     0.023 C 
BRANCH   2   3
ATOM      3  C   UNL A   1      33.379  29.188  26.345  1.00  0.00     0.116 C 
BRANCH   3   4
ATOM      4  N   UNL A   1      33.521  29.377  24.912  1.00  0.00    -0.352 N 
ATOM      5  C   UNL A   1      32.970  28.667  23.867  1.00  0.00     0.251 C 
ATOM      6  O   UNL A   1      33.221  29.000  22.711  1.00  0.00    -0.269 OA
ATOM      7  H   UNL A   1      34.101  30.127  24.646  1.00  0.00     0.163 HD
BRANCH   5   8
ATOM      8  C   UNL A   1      32.143  27.457  24.111  1.00  0.00     0.041 A 
ATOM      9  C   UNL A   1      31.893  25.038  24.119  1.00  0.00     0.035 A 
ATOM     10  C   UNL A   1      30.505  25.223  24.192  1.00  0.00     0.026 A 
ATOM     11  C   UNL A   1      32.699  26.174  24.191  1.00  0.00     0.039 A 
ATOM     12  C   UNL A   1      29.939  26.498  24.276  1.00  0.00     0.003 A 
ATOM     13  C   UNL A   1      30.759  27.619  24.210  1.00  0.00     0.014 A 
BRANCH   9  14
ATOM     14  N   UNL A   1      32.387  23.757  24.008  1.00  0.00    -0.381 N 
ATOM     15  H   UNL A   1      32.959  23.571  23.226  1.00  0.00     0.160 HD
BRANCH  14  16
ATOM     16  C   UNL A   1      32.153  22.643  24.927  1.00  0.00     0.092 C 
ATOM     17  C   UNL A   1      32.564  20.115  25.073  1.00  0.00     0.021 C 
ATOM     18  C   UNL A   1      33.001  21.435  24.444  1.00  0.00     0.066 C 
ATOM     19  S   UNL A   1      34.805  21.699  24.678  1.00  0.00    -0.157 SA
ATOM     20  C   UNL A   1      34.811  22.129  26.440  1.00  0.00     0.070 C 
ATOM     21  C   UNL A   1      32.434  23.049  26.387  1.00  0.00     0.027 C 
ATOM     22  C   UNL A   1      33.901  23.313  26.724  1.00  0.00     0.013 C 
ENDBRANCH  14  16
ENDBRANCH   9  14
ENDBRANCH   5   8
ENDBRANCH   3   4
ENDBRANCH   2   3
ENDBRANCH   1   2
BRANCH   1  23
ATOM     23  C   UNL A   1      33.064  32.204  27.463  1.00  0.00     0.116 C 
BRANCH  23  24
ATOM     24  N   UNL A   1      32.645  33.577  27.706  1.00  0.00    -0.352 N 
ATOM     25  C   UNL A   1      33.166  34.529  28.557  1.00  0.00     0.251 C 
ATOM     26  H   UNL A   1      31.866  33.872  27.180  1.00  0.00     0.163 HD
ATOM     27  O   UNL A   1      32.612  35.613  28.658  1.00  0.00    -0.269 OA
BRANCH  25  28
ATOM     28  C   UNL A   1      34.358  34.216  29.380  1.00  0.00     0.039 A 
ATOM     29  C   UNL A   1      34.171  33.632  30.636  1.00  0.00     0.014 A 
ATOM     30  C   UNL A   1      35.650  34.454  28.906  1.00  0.00     0.014 A 
ATOM     31  C   UNL A   1      35.277  33.185  31.364  1.00  0.00     0.010 A 
ATOM     32  C   UNL A   1      36.745  33.935  29.596  1.00  0.00     0.010 A 
ATOM     33  C   UNL A   1      36.568  33.277  30.823  1.00  0.00    -0.014 A 
BRANCH  33  34
ATOM     34  C   UNL A   1      37.740  32.657  31.499  1.00  0.00     0.031 A 
ATOM     35  C   UNL A   1      38.460  31.499  30.864  1.00  0.00     0.074 A 
ATOM     36  C   UNL A   1      38.096  33.079  32.731  1.00  0.00     0.049 A 
ATOM     37  N   UNL A   1      39.429  30.763  31.344  1.00  0.00    -0.248 NA
ATOM     38  C   UNL A   1      38.005  31.097  29.525  1.00  0.00     0.031 C 
ATOM     39  C   UNL A   1      37.442  34.158  33.477  1.00  0.00     0.029 A 
ATOM     40  N   UNL A   1      39.083  32.644  33.580  1.00  0.00    -0.354 N 
ATOM     41  C   UNL A   1      39.690  29.799  30.375  1.00  0.00     0.074 A 
ATOM     42  C   UNL A   1      38.737  30.015  29.307  1.00  0.00     0.031 C 
ATOM     43  C   UNL A   1      38.055  34.310  34.661  1.00  0.00     0.029 A 
ATOM     44  C   UNL A   1      39.114  33.314  34.783  1.00  0.00     0.049 A 
ATOM     45  H   UNL A   1      39.709  31.920  33.351  1.00  0.00     0.167 HD
ATOM     46  C   UNL A   1      40.648  28.838  30.369  1.00  0.00     0.034 A 
ATOM     47  C   UNL A   1      39.893  33.135  35.868  1.00  0.00     0.034 A 
ATOM     48  C   UNL A   1      41.602  28.648  31.435  1.00  0.00     0.049 A 
ATOM     49  C   UNL A   1      40.941  32.052  35.844  1.00  0.00     0.074 A 
ATOM     50  C   UNL A   1      42.661  27.758  31.495  1.00  0.00     0.029 A 
ATOM     51  N   UNL A   1      41.608  29.351  32.634  1.00  0.00    -0.354 N 
ATOM     52  N   UNL A   1      41.215  31.191  34.892  1.00  0.00    -0.248 NA
ATOM     53  C   UNL A   1      41.787  31.923  37.037  1.00  0.00     0.031 C 
ATOM     54  C   UNL A   1      43.264  27.876  32.752  1.00  0.00     0.029 A 
ATOM     55  C   UNL A   1      42.629  28.889  33.452  1.00  0.00     0.049 A 
ATOM     56  H   UNL A   1      40.979  30.071  32.868  1.00  0.00     0.167 HD
ATOM     57  C   UNL A   1      42.282  30.432  35.365  1.00  0.00     0.074 A 
ATOM     58  C   UNL A   1      42.611  30.950  36.677  1.00  0.00     0.031 C 
ATOM     59  C   UNL A   1      42.933  29.402  34.767  1.00  0.00     0.034 A 
BRANCH  46  60
ATOM     60  C   UNL A   1      40.691  27.910  29.180  1.00  0.00     0.023 A 
ATOM     61  C   UNL A   1      41.611  28.092  28.133  1.00  0.00     0.031 A 
ATOM     62  C   UNL A   1      39.782  26.841  29.077  1.00  0.00     0.131 A 
ATOM     63  C   UNL A   1      41.552  27.272  26.996  1.00  0.00     0.055 A 
ATOM     64  C   UNL A   1      39.782  25.978  27.980  1.00  0.00     0.041 A 
ATOM     65  F   UNL A   1      38.867  26.627  30.036  1.00  0.00    -0.206 F 
ATOM     66  C   UNL A   1      40.660  26.200  26.923  1.00  0.00     0.022 A 
BRANCH  63  67
ATOM     67  S   UNL A   1      42.561  27.716  25.557  1.00  0.00     0.124 S 
ATOM     68  O   UNL A   1      42.436  26.519  24.727  1.00  0.00    -0.237 OA
ATOM     69  O   UNL A   1      41.893  28.912  25.057  1.00  0.00    -0.237 OA
ATOM     70  O   UNL A   1      43.891  27.934  26.124  1.00  0.00    -0.744 OA
ENDBRANCH  63  67
ENDBRANCH  46  60
BRANCH  47  71
ATOM     71  C   UNL A   1      39.705  33.983  37.080  1.00  0.00     0.023 A 
ATOM     72  C   UNL A   1      39.037  33.489  38.211  1.00  0.00     0.031 A 
ATOM     73  C   UNL A   1      40.155  35.315  37.109  1.00  0.00     0.131 A 
ATOM     74  C   UNL A   1      38.797  34.333  39.307  1.00  0.00     0.055 A 
ATOM     75  C   UNL A   1      39.958  36.136  38.221  1.00  0.00     0.041 A 
ATOM     76  F   UNL A   1      40.806  35.835  36.056  1.00  0.00    -0.206 F 
ATOM     77  C   UNL A   1      39.265  35.649  39.325  1.00  0.00     0.022 A 
BRANCH  74  78
ATOM     78  S   UNL A   1      37.797  33.706  40.684  1.00  0.00     0.124 S 
ATOM     79  O   UNL A   1      37.349  34.943  41.313  1.00  0.00    -0.237 OA
ATOM     80  O   UNL A   1      36.774  32.932  39.987  1.00  0.00    -0.237 OA
ATOM     81  O   UNL A   1      38.748  32.916  41.464  1.00  0.00    -0.744 OA
ENDBRANCH  74  78
ENDBRANCH  47  71
BRANCH  59  82
ATOM     82  C   UNL A   1      44.086  28.793  35.526  1.00  0.00     0.023 A 
ATOM     83  C   UNL A   1      43.905  27.708  36.400  1.00  0.00     0.031 A 
ATOM     84  C   UNL A   1      45.383  29.318  35.382  1.00  0.00     0.131 A 
ATOM     85  C   UNL A   1      44.992  27.215  37.137  1.00  0.00     0.055 A 
ATOM     86  C   UNL A   1      46.472  28.787  36.075  1.00  0.00     0.041 A 
ATOM     87  F   UNL A   1      45.613  30.356  34.562  1.00  0.00    -0.206 F 
ATOM     88  C   UNL A   1      46.277  27.738  36.969  1.00  0.00     0.022 A 
BRANCH  85  89
ATOM     89  S   UNL A   1      44.689  25.934  38.385  1.00  0.00     0.124 S 
ATOM     90  O   UNL A   1      44.111  24.860  37.583  1.00  0.00    -0.237 OA
ATOM     91  O   UNL A   1      46.026  25.688  38.913  1.00  0.00    -0.237 OA
ATOM     92  O   UNL A   1      43.763  26.577  39.318  1.00  0.00    -0.744 OA
ENDBRANCH  85  89
ENDBRANCH  59  82
ENDBRANCH  33  34
ENDBRANCH  25  28
ENDBRANCH  23  24
ENDBRANCH   1  23
TORSDOF 16
ENDMDL
MODEL 2
REMARK VINA RESULT:     -11.8      5.812     11.075
REMARK SMILES C[C@@H]1SCCC[C@H]1Nc1cccc(C(=O)NCCCCNC(=O)c2ccc(-c3c4nc(c(-c5cc(S(=O)(=O)[O-])ccc5F)c5ccc([nH]5)c(-c5cc(S(=O)(=O)[O-])ccc5F)c5nc(c(-c6cc(S(=O)(=O)[O-])ccc6F)c6ccc3[nH]6)C=C5)C=C4)cc2)c1
REMARK SMILES IDX 19 1 18 2 17 3 16 4 14 5 15 6 13 8 9 9 10 10 87 11 11 12
REMARK SMILES IDX 12 13 8 14 7 16 1 17 2 18 3 19 4 20 6 21 5 22 20 23 21 24
REMARK SMILES IDX 22 25 23 27 24 28 25 29 86 30 26 31 85 32 27 33 28 34 29 35
REMARK SMILES IDX 79 36 30 37 84 38 78 39 80 40 31 41 83 42 77 43 76 44 32 46
REMARK SMILES IDX 64 47 44 48 63 49 45 50 48 51 62 52 81 53 46 54 47 55 61 57
REMARK SMILES IDX 82 58 49 59 33 60 34 61 42 62 35 63 41 64 43 65 40 66 36 67
REMARK SMILES IDX 37 68 38 69 39 70 65 71 66 72 74 73 67 74 73 75 75 76 72 77
REMARK SMILES IDX 68 78 69 79 70 80 71 81 50 82 51 83 59 84 52 85 58 86 60 87
REMARK SMILES IDX 57 88 53 89 54 90 55 91 56 92
REMARK H PARENT 16 7 8 15 21 26 80 45 48 56
REMARK Flexibility Score: inf
ROOT
ATOM      1  C   UNL A   1      35.813  21.107  24.656  1.00  0.00     0.023 C 
ENDROOT
BRANCH   1   2
ATOM      2  C   UNL A   1      34.759  20.730  25.690  1.00  0.00     0.023 C 
BRANCH   2   3
ATOM      3  C   UNL A   1      33.492  20.066  25.166  1.00  0.00     0.116 C 
BRANCH   3   4
ATOM      4  N   UNL A   1      32.249  20.678  25.602  1.00  0.00    -0.352 N 
ATOM      5  C   UNL A   1      31.734  21.927  25.327  1.00  0.00     0.251 C 
ATOM      6  O   UNL A   1      30.647  22.251  25.801  1.00  0.00    -0.269 OA
ATOM      7  H   UNL A   1      31.688  20.115  26.184  1.00  0.00     0.163 HD
BRANCH   5   8
ATOM      8  C   UNL A   1      32.504  22.919  24.534  1.00  0.00     0.041 A 
ATOM      9  C   UNL A   1      33.551  25.105  24.330  1.00  0.00     0.035 A 
ATOM     10  C   UNL A   1      33.598  24.908  22.944  1.00  0.00     0.026 A 
ATOM     11  C   UNL A   1      33.098  24.046  25.117  1.00  0.00     0.039 A 
ATOM     12  C   UNL A   1      33.157  23.719  22.357  1.00  0.00     0.003 A 
ATOM     13  C   UNL A   1      32.585  22.731  23.152  1.00  0.00     0.014 A 
BRANCH   9  14
ATOM     14  N   UNL A   1      33.973  26.311  24.845  1.00  0.00    -0.381 N 
ATOM     15  H   UNL A   1      34.778  26.291  25.413  1.00  0.00     0.160 HD
BRANCH  14  16
ATOM     16  C   UNL A   1      33.350  27.619  24.638  1.00  0.00     0.092 C 
ATOM     17  C   UNL A   1      31.022  28.638  24.289  1.00  0.00     0.021 C 
ATOM     18  C   UNL A   1      31.818  27.460  24.843  1.00  0.00     0.066 C 
ATOM     19  S   UNL A   1      31.370  27.141  26.598  1.00  0.00    -0.157 SA
ATOM     20  C   UNL A   1      32.221  28.539  27.376  1.00  0.00     0.070 C 
ATOM     21  C   UNL A   1      33.985  28.694  25.542  1.00  0.00     0.027 C 
ATOM     22  C   UNL A   1      33.702  28.546  27.036  1.00  0.00     0.013 C 
ENDBRANCH  14  16
ENDBRANCH   9  14
ENDBRANCH   5   8
ENDBRANCH   3   4
ENDBRANCH   2   3
ENDBRANCH   1   2
BRANCH   1  23
ATOM     23  C   UNL A   1      37.121  21.670  25.199  1.00  0.00     0.116 C 
BRANCH  23  24
ATOM     24  N   UNL A   1      38.144  20.664  25.440  1.00  0.00    -0.352 N 
ATOM     25  C   UNL A   1      39.373  20.773  26.056  1.00  0.00     0.251 C 
ATOM     26  H   UNL A   1      37.923  19.761  25.112  1.00  0.00     0.163 HD
ATOM     27  O   UNL A   1      40.117  19.805  26.093  1.00  0.00    -0.269 OA
BRANCH  25  28
ATOM     28  C   UNL A   1      39.807  22.074  26.619  1.00  0.00     0.039 A 
ATOM     29  C   UNL A   1      40.810  22.083  27.592  1.00  0.00     0.014 A 
ATOM     30  C   UNL A   1      39.264  23.278  26.166  1.00  0.00     0.014 A 
ATOM     31  C   UNL A   1      41.346  23.299  28.025  1.00  0.00     0.010 A 
ATOM     32  C   UNL A   1      39.853  24.486  26.538  1.00  0.00     0.010 A 
ATOM     33  C   UNL A   1      40.914  24.508  27.457  1.00  0.00    -0.014 A 
BRANCH  33  34
ATOM     34  C   UNL A   1      41.584  25.798  27.774  1.00  0.00     0.031 A 
ATOM     35  C   UNL A   1      40.849  26.872  28.529  1.00  0.00     0.074 A 
ATOM     36  C   UNL A   1      42.825  26.036  27.300  1.00  0.00     0.049 A 
ATOM     37  N   UNL A   1      41.225  28.094  28.806  1.00  0.00    -0.248 NA
ATOM     38  C   UNL A   1      39.499  26.534  29.003  1.00  0.00     0.031 C 
ATOM     39  C   UNL A   1      43.623  25.095  26.508  1.00  0.00     0.029 A 
ATOM     40  N   UNL A   1      43.628  27.145  27.399  1.00  0.00    -0.354 N 
ATOM     41  C   UNL A   1      40.153  28.679  29.473  1.00  0.00     0.074 A 
ATOM     42  C   UNL A   1      39.095  27.691  29.507  1.00  0.00     0.031 C 
ATOM     43  C   UNL A   1      44.803  25.659  26.211  1.00  0.00     0.029 A 
ATOM     44  C   UNL A   1      44.833  27.016  26.745  1.00  0.00     0.049 A 
ATOM     45  H   UNL A   1      43.367  27.956  27.891  1.00  0.00     0.167 HD
ATOM     46  C   UNL A   1      40.069  29.916  30.024  1.00  0.00     0.034 A 
ATOM     47  C   UNL A   1      45.842  27.896  26.579  1.00  0.00     0.034 A 
ATOM     48  C   UNL A   1      41.140  30.882  29.998  1.00  0.00     0.049 A 
ATOM     49  C   UNL A   1      45.719  29.269  27.187  1.00  0.00     0.074 A 
ATOM     50  C   UNL A   1      41.188  32.132  30.591  1.00  0.00     0.029 A 
ATOM     51  N   UNL A   1      42.349  30.714  29.333  1.00  0.00    -0.354 N 
ATOM     52  N   UNL A   1      44.722  29.782  27.870  1.00  0.00    -0.248 NA
ATOM     53  C   UNL A   1      46.859  30.177  27.008  1.00  0.00     0.031 C 
ATOM     54  C   UNL A   1      42.395  32.744  30.232  1.00  0.00     0.029 A 
ATOM     55  C   UNL A   1      43.133  31.850  29.473  1.00  0.00     0.049 A 
ATOM     56  H   UNL A   1      42.611  29.906  28.836  1.00  0.00     0.167 HD
ATOM     57  C   UNL A   1      45.127  31.067  28.221  1.00  0.00     0.074 A 
ATOM     58  C   UNL A   1      46.464  31.241  27.690  1.00  0.00     0.031 C 
ATOM     59  C   UNL A   1      44.456  32.018  28.921  1.00  0.00     0.034 A 
BRANCH  46  60
ATOM     60  C   UNL A   1      38.763  30.295  30.680  1.00  0.00     0.023 A 
ATOM     61  C   UNL A   1      37.753  30.974  29.977  1.00  0.00     0.031 A 
ATOM     62  C   UNL A   1      38.534  29.997  32.035  1.00  0.00     0.131 A 
ATOM     63  C   UNL A   1      36.597  31.401  30.648  1.00  0.00     0.055 A 
ATOM     64  C   UNL A   1      37.346  30.354  32.677  1.00  0.00     0.041 A 
ATOM     65  F   UNL A   1      39.468  29.366  32.765  1.00  0.00    -0.206 F 
ATOM     66  C   UNL A   1      36.375  31.074  31.987  1.00  0.00     0.022 A 
BRANCH  63  67
ATOM     67  S   UNL A   1      35.456  32.512  29.781  1.00  0.00     0.124 S 
ATOM     68  O   UNL A   1      36.292  33.692  29.573  1.00  0.00    -0.237 OA
ATOM     69  O   UNL A   1      35.118  31.749  28.585  1.00  0.00    -0.237 OA
ATOM     70  O   UNL A   1      34.363  32.693  30.735  1.00  0.00    -0.744 OA
ENDBRANCH  63  67
ENDBRANCH  46  60
BRANCH  47  71
ATOM     71  C   UNL A   1      47.048  27.521  25.787  1.00  0.00     0.023 A 
ATOM     72  C   UNL A   1      47.156  27.860  24.430  1.00  0.00     0.031 A 
ATOM     73  C   UNL A   1      48.093  26.780  26.367  1.00  0.00     0.131 A 
ATOM     74  C   UNL A   1      48.262  27.424  23.685  1.00  0.00     0.055 A 
ATOM     75  C   UNL A   1      49.215  26.389  25.634  1.00  0.00     0.041 A 
ATOM     76  F   UNL A   1      48.042  26.434  27.663  1.00  0.00    -0.206 F 
ATOM     77  C   UNL A   1      49.298  26.700  24.281  1.00  0.00     0.022 A 
BRANCH  74  78
ATOM     78  S   UNL A   1      48.291  27.749  21.901  1.00  0.00     0.124 S 
ATOM     79  O   UNL A   1      49.408  28.680  21.787  1.00  0.00    -0.237 OA
ATOM     80  O   UNL A   1      48.509  26.415  21.353  1.00  0.00    -0.237 OA
ATOM     81  O   UNL A   1      46.972  28.321  21.637  1.00  0.00    -0.744 OA
ENDBRANCH  74  78
ENDBRANCH  47  71
BRANCH  59  82
ATOM     82  C   UNL A   1      45.180  33.317  29.174  1.00  0.00     0.023 A 
ATOM     83  C   UNL A   1      45.165  34.364  28.237  1.00  0.00     0.031 A 
ATOM     84  C   UNL A   1      45.908  33.501  30.363  1.00  0.00     0.131 A 
ATOM     85  C   UNL A   1      45.907  35.530  28.480  1.00  0.00     0.055 A 
ATOM     86  C   UNL A   1      46.598  34.686  30.625  1.00  0.00     0.041 A 
ATOM     87  F   UNL A   1      45.958  32.532  31.291  1.00  0.00    -0.206 F 
ATOM     88  C   UNL A   1      46.611  35.703  29.676  1.00  0.00     0.022 A 
BRANCH  85  89
ATOM     89  S   UNL A   1      46.009  36.786  27.176  1.00  0.00     0.124 S 
ATOM     90  O   UNL A   1      46.232  35.970  25.986  1.00  0.00    -0.237 OA
ATOM     91  O   UNL A   1      44.709  37.439  27.267  1.00  0.00    -0.237 OA
ATOM     92  O   UNL A   1      47.147  37.610  27.583  1.00  0.00    -0.744 OA
ENDBRANCH  85  89
ENDBRANCH  59  82
ENDBRANCH  33  34
ENDBRANCH  25  28
ENDBRANCH  23  24
ENDBRANCH   1  23
TORSDOF 16
ENDMDL
MODEL 3
REMARK VINA RESULT:     -11.8      1.918      2.377
REMARK SMILES C[C@@H]1SCCC[C@H]1Nc1cccc(C(=O)NCCCCNC(=O)c2ccc(-c3c4nc(c(-c5cc(S(=O)(=O)[O-])ccc5F)c5ccc([nH]5)c(-c5cc(S(=O)(=O)[O-])ccc5F)c5nc(c(-c6cc(S(=O)(=O)[O-])ccc6F)c6ccc3[nH]6)C=C5)C=C4)cc2)c1
REMARK SMILES IDX 19 1 18 2 17 3 16 4 14 5 15 6 13 8 9 9 10 10 87 11 11 12
REMARK SMILES IDX 12 13 8 14 7 16 1 17 2 18 3 19 4 20 6 21 5 22 20 23 21 24
REMARK SMILES IDX 22 25 23 27 24 28 25 29 86 30 26 31 85 32 27 33 28 34 29 35
REMARK SMILES IDX 79 36 30 37 84 38 78 39 80 40 31 41 83 42 77 43 76 44 32 46
REMARK SMILES IDX 64 47 44 48 63 49 45 50 48 51 62 52 81 53 46 54 47 55 61 57
REMARK SMILES IDX 82 58 49 59 33 60 34 61 42 62 35 63 41 64 43 65 40 66 36 67
REMARK SMILES IDX 37 68 38 69 39 70 65 71 66 72 74 73 67 74 73 75 75 76 72 77
REMARK SMILES IDX 68 78 69 79 70 80 71 81 50 82 51 83 59 84 52 85 58 86 60 87
REMARK SMILES IDX 57 88 53 89 54 90 55 91 56 92
REMARK H PARENT 16 7 8 15 21 26 80 45 48 56
REMARK Flexibility Score: inf
ROOT
ATOM      1  C   UNL A   1      31.304  32.292  26.908  1.00  0.00     0.023 C 
ENDROOT
BRANCH   1   2
ATOM      2  C   UNL A   1      31.408  30.896  26.305  1.00  0.00     0.023 C 
BRANCH   2   3
ATOM      3  C   UNL A   1      31.841  29.775  27.242  1.00  0.00     0.116 C 
BRANCH   3   4
ATOM      4  N   UNL A   1      33.268  29.705  27.502  1.00  0.00    -0.352 N 
ATOM      5  C   UNL A   1      34.249  28.973  26.866  1.00  0.00     0.251 C 
ATOM      6  O   UNL A   1      35.414  29.062  27.249  1.00  0.00    -0.269 OA
ATOM      7  H   UNL A   1      33.584  30.265  28.248  1.00  0.00     0.163 HD
BRANCH   5   8
ATOM      8  C   UNL A   1      33.913  28.018  25.779  1.00  0.00     0.041 A 
ATOM      9  C   UNL A   1      33.558  25.740  25.006  1.00  0.00     0.035 A 
ATOM     10  C   UNL A   1      33.667  26.213  23.691  1.00  0.00     0.026 A 
ATOM     11  C   UNL A   1      33.576  26.683  26.034  1.00  0.00     0.039 A 
ATOM     12  C   UNL A   1      33.842  27.572  23.413  1.00  0.00     0.003 A 
ATOM     13  C   UNL A   1      33.991  28.474  24.461  1.00  0.00     0.014 A 
BRANCH   9  14
ATOM     14  N   UNL A   1      33.417  24.386  25.215  1.00  0.00    -0.381 N 
ATOM     15  H   UNL A   1      32.761  23.918  24.648  1.00  0.00     0.160 HD
BRANCH  14  16
ATOM     16  C   UNL A   1      34.138  23.570  26.194  1.00  0.00     0.092 C 
ATOM     17  C   UNL A   1      33.918  21.312  27.390  1.00  0.00     0.021 C 
ATOM     18  C   UNL A   1      33.527  22.142  26.171  1.00  0.00     0.066 C 
ATOM     19  S   UNL A   1      33.910  21.235  24.618  1.00  0.00    -0.157 SA
ATOM     20  C   UNL A   1      35.714  21.420  24.608  1.00  0.00     0.070 C 
ATOM     21  C   UNL A   1      35.657  23.595  25.937  1.00  0.00     0.027 C 
ATOM     22  C   UNL A   1      36.121  22.883  24.667  1.00  0.00     0.013 C 
ENDBRANCH  14  16
ENDBRANCH   9  14
ENDBRANCH   5   8
ENDBRANCH   3   4
ENDBRANCH   2   3
ENDBRANCH   1   2
BRANCH   1  23
ATOM     23  C   UNL A   1      32.586  33.115  26.933  1.00  0.00     0.116 C 
BRANCH  23  24
ATOM     24  N   UNL A   1      32.528  34.272  27.813  1.00  0.00    -0.352 N 
ATOM     25  C   UNL A   1      33.345  34.632  28.866  1.00  0.00     0.251 C 
ATOM     26  H   UNL A   1      31.789  34.897  27.629  1.00  0.00     0.163 HD
ATOM     27  O   UNL A   1      33.074  35.623  29.526  1.00  0.00    -0.269 OA
BRANCH  25  28
ATOM     28  C   UNL A   1      34.509  33.787  29.222  1.00  0.00     0.039 A 
ATOM     29  C   UNL A   1      35.785  34.204  28.828  1.00  0.00     0.014 A 
ATOM     30  C   UNL A   1      34.357  32.619  29.971  1.00  0.00     0.014 A 
ATOM     31  C   UNL A   1      36.911  33.512  29.283  1.00  0.00     0.010 A 
ATOM     32  C   UNL A   1      35.482  31.978  30.489  1.00  0.00     0.010 A 
ATOM     33  C   UNL A   1      36.771  32.430  30.166  1.00  0.00    -0.014 A 
BRANCH  33  34
ATOM     34  C   UNL A   1      37.955  31.786  30.798  1.00  0.00     0.031 A 
ATOM     35  C   UNL A   1      38.725  30.722  30.064  1.00  0.00     0.074 A 
ATOM     36  C   UNL A   1      38.278  32.096  32.071  1.00  0.00     0.049 A 
ATOM     37  N   UNL A   1      39.713  29.976  30.485  1.00  0.00    -0.248 NA
ATOM     38  C   UNL A   1      38.303  30.441  28.684  1.00  0.00     0.031 C 
ATOM     39  C   UNL A   1      37.576  33.071  32.910  1.00  0.00     0.029 A 
ATOM     40  N   UNL A   1      39.268  31.612  32.891  1.00  0.00    -0.354 N 
ATOM     41  C   UNL A   1      40.022  29.124  29.431  1.00  0.00     0.074 A 
ATOM     42  C   UNL A   1      39.077  29.412  28.372  1.00  0.00     0.031 C 
ATOM     43  C   UNL A   1      38.167  33.126  34.113  1.00  0.00     0.029 A 
ATOM     44  C   UNL A   1      39.258  32.159  34.154  1.00  0.00     0.049 A 
ATOM     45  H   UNL A   1      39.924  30.937  32.602  1.00  0.00     0.167 HD
ATOM     46  C   UNL A   1      41.014  28.202  29.345  1.00  0.00     0.034 A 
ATOM     47  C   UNL A   1      40.029  31.900  35.230  1.00  0.00     0.034 A 
ATOM     48  C   UNL A   1      41.959  27.939  30.404  1.00  0.00     0.049 A 
ATOM     49  C   UNL A   1      41.115  30.862  35.117  1.00  0.00     0.074 A 
ATOM     50  C   UNL A   1      43.049  27.085  30.394  1.00  0.00     0.029 A 
ATOM     51  N   UNL A   1      41.923  28.518  31.667  1.00  0.00    -0.354 N 
ATOM     52  N   UNL A   1      41.433  30.110  34.089  1.00  0.00    -0.248 NA
ATOM     53  C   UNL A   1      41.949  30.643  36.305  1.00  0.00     0.031 C 
ATOM     54  C   UNL A   1      43.630  27.098  31.667  1.00  0.00     0.029 A 
ATOM     55  C   UNL A   1      42.949  28.013  32.453  1.00  0.00     0.049 A 
ATOM     56  H   UNL A   1      41.266  29.189  31.960  1.00  0.00     0.167 HD
ATOM     57  C   UNL A   1      42.520  29.345  34.502  1.00  0.00     0.074 A 
ATOM     58  C   UNL A   1      42.812  29.741  35.865  1.00  0.00     0.031 C 
ATOM     59  C   UNL A   1      43.216  28.402  33.817  1.00  0.00     0.034 A 
BRANCH  46  60
ATOM     60  C   UNL A   1      41.107  27.398  28.071  1.00  0.00     0.023 A 
ATOM     61  C   UNL A   1      40.730  26.045  28.023  1.00  0.00     0.031 A 
ATOM     62  C   UNL A   1      41.603  27.985  26.894  1.00  0.00     0.131 A 
ATOM     63  C   UNL A   1      40.928  25.303  26.848  1.00  0.00     0.055 A 
ATOM     64  C   UNL A   1      41.722  27.262  25.705  1.00  0.00     0.041 A 
ATOM     65  F   UNL A   1      41.997  29.268  26.882  1.00  0.00    -0.206 F 
ATOM     66  C   UNL A   1      41.398  25.908  25.681  1.00  0.00     0.022 A 
BRANCH  63  67
ATOM     67  S   UNL A   1      40.695  23.506  26.911  1.00  0.00     0.124 S 
ATOM     68  O   UNL A   1      41.749  23.040  26.012  1.00  0.00    -0.237 OA
ATOM     69  O   UNL A   1      40.886  23.211  28.327  1.00  0.00    -0.237 OA
ATOM     70  O   UNL A   1      39.334  23.319  26.411  1.00  0.00    -0.744 OA
ENDBRANCH  63  67
ENDBRANCH  46  60
BRANCH  47  71
ATOM     71  C   UNL A   1      39.793  32.616  36.517  1.00  0.00     0.023 A 
ATOM     72  C   UNL A   1      38.855  32.142  37.447  1.00  0.00     0.031 A 
ATOM     73  C   UNL A   1      40.474  33.809  36.816  1.00  0.00     0.131 A 
ATOM     74  C   UNL A   1      38.590  32.878  38.612  1.00  0.00     0.055 A 
ATOM     75  C   UNL A   1      40.243  34.513  38.000  1.00  0.00     0.041 A 
ATOM     76  F   UNL A   1      41.386  34.303  35.964  1.00  0.00    -0.206 F 
ATOM     77  C   UNL A   1      39.287  34.054  38.901  1.00  0.00     0.022 A 
BRANCH  74  78
ATOM     78  S   UNL A   1      37.263  32.315  39.712  1.00  0.00     0.124 S 
ATOM     79  O   UNL A   1      36.995  33.517  40.493  1.00  0.00    -0.237 OA
ATOM     80  O   UNL A   1      36.228  31.922  38.762  1.00  0.00    -0.237 OA
ATOM     81  O   UNL A   1      37.878  31.213  40.451  1.00  0.00    -0.744 OA
ENDBRANCH  74  78
ENDBRANCH  47  71
BRANCH  59  82
ATOM     82  C   UNL A   1      44.380  27.761  34.531  1.00  0.00     0.023 A 
ATOM     83  C   UNL A   1      44.247  26.537  35.208  1.00  0.00     0.031 A 
ATOM     84  C   UNL A   1      45.635  28.394  34.547  1.00  0.00     0.131 A 
ATOM     85  C   UNL A   1      45.337  26.008  35.917  1.00  0.00     0.055 A 
ATOM     86  C   UNL A   1      46.732  27.835  35.206  1.00  0.00     0.041 A 
ATOM     87  F   UNL A   1      45.818  29.567  33.919  1.00  0.00    -0.206 F 
ATOM     88  C   UNL A   1      46.582  26.642  35.907  1.00  0.00     0.022 A 
BRANCH  85  89
ATOM     89  S   UNL A   1      45.082  24.521  36.923  1.00  0.00     0.124 S 
ATOM     90  O   UNL A   1      44.522  25.077  38.150  1.00  0.00    -0.237 OA
ATOM     91  O   UNL A   1      44.166  23.739  36.100  1.00  0.00    -0.237 OA
ATOM     92  O   UNL A   1      46.427  23.962  37.054  1.00  0.00    -0.744 OA
ENDBRANCH  85  89
ENDBRANCH  59  82
ENDBRANCH  33  34
ENDBRANCH  25  28
ENDBRANCH  23  24
ENDBRANCH   1  23
TORSDOF 16
ENDMDL
