MODEL 1
REMARK VINA RESULT:     -11.5      0.000      0.000
REMARK SMILES O=C(CCc1cccnc1)Nc1ccsc1C(=O)NCCCCNC(=O)c1ccc(-c2c3nc(c(-c4cc(S(=O)(=O)[O-])ccc4F)c4ccc([nH]4)c(-c4cc(S(=O)(=O)[O-])ccc4F)c4nc(c(-c5cc(S(=O)(=O)[O-])ccc5F)c5ccc2[nH]5)C=C4)C=C3)cc1
REMARK SMILES IDX 21 1 20 2 19 3 17 4 18 5 16 7 12 8 13 9 14 10 15 11 11 12
REMARK SMILES IDX 1 13 2 14 3 16 4 17 5 18 6 19 10 20 7 21 9 22 8 23 22 24
REMARK SMILES IDX 23 25 24 26 25 27 26 29 27 30 28 31 89 32 29 33 88 34 30 35
REMARK SMILES IDX 31 36 32 37 82 38 33 39 87 40 81 41 83 42 34 43 86 44 80 45
REMARK SMILES IDX 79 46 35 48 67 49 47 50 66 51 48 52 51 53 65 54 84 55 49 56
REMARK SMILES IDX 50 57 64 59 85 60 52 61 36 62 37 63 45 64 38 65 44 66 46 67
REMARK SMILES IDX 43 68 39 69 40 70 41 71 42 72 68 73 69 74 77 75 70 76 76 77
REMARK SMILES IDX 78 78 75 79 71 80 72 81 73 82 74 83 53 84 54 85 62 86 55 87
REMARK SMILES IDX 61 88 63 89 60 90 56 91 57 92 58 93 59 94
REMARK H PARENT 19 6 11 15 24 28 83 47 51 58
REMARK Flexibility Score: inf
ROOT
ATOM      1  C   UNL A   1      31.912  28.797  27.280  1.00  0.00     0.023 C 
ENDROOT
BRANCH   1   2
ATOM      2  C   UNL A   1      32.358  27.435  26.734  1.00  0.00     0.116 C 
BRANCH   2   3
ATOM      3  N   UNL A   1      31.530  26.274  26.973  1.00  0.00    -0.351 N 
ATOM      4  C   UNL A   1      31.682  24.980  26.479  1.00  0.00     0.263 C 
ATOM      5  O   UNL A   1      30.836  24.162  26.848  1.00  0.00    -0.268 OA
ATOM      6  H   UNL A   1      30.756  26.415  27.563  1.00  0.00     0.163 HD
BRANCH   4   7
ATOM      7  C   UNL A   1      32.756  24.636  25.545  1.00  0.00     0.115 A 
ATOM      8  C   UNL A   1      32.949  24.886  24.193  1.00  0.00     0.065 A 
ATOM      9  C   UNL A   1      34.103  24.214  23.678  1.00  0.00     0.038 A 
ATOM     10  C   UNL A   1      34.837  23.601  24.665  1.00  0.00     0.068 A 
ATOM     11  S   UNL A   1      34.094  23.752  26.191  1.00  0.00    -0.137 S 
BRANCH   8  12
ATOM     12  N   UNL A   1      32.140  25.737  23.454  1.00  0.00    -0.325 N 
ATOM     13  O   UNL A   1      33.507  27.596  23.439  1.00  0.00    -0.275 OA
ATOM     14  C   UNL A   1      32.450  27.042  23.140  1.00  0.00     0.224 C 
ATOM     15  H   UNL A   1      31.279  25.383  23.131  1.00  0.00     0.169 HD
BRANCH  14  16
ATOM     16  C   UNL A   1      31.376  27.809  22.375  1.00  0.00     0.105 C 
BRANCH  16  17
ATOM     17  C   UNL A   1      29.924  27.631  22.829  1.00  0.00     0.047 C 
BRANCH  17  18
ATOM     18  C   UNL A   1      29.169  28.904  23.120  1.00  0.00    -0.029 A 
ATOM     19  C   UNL A   1      29.809  30.055  23.586  1.00  0.00     0.007 A 
ATOM     20  C   UNL A   1      27.799  28.997  22.933  1.00  0.00     0.114 A 
ATOM     21  C   UNL A   1      29.103  31.229  23.817  1.00  0.00     0.020 A 
ATOM     22  N   UNL A   1      27.081  30.125  23.131  1.00  0.00    -0.264 NA
ATOM     23  C   UNL A   1      27.746  31.213  23.577  1.00  0.00     0.111 A 
ENDBRANCH  17  18
ENDBRANCH  16  17
ENDBRANCH  14  16
ENDBRANCH   8  12
ENDBRANCH   4   7
ENDBRANCH   2   3
ENDBRANCH   1   2
BRANCH   1  24
ATOM     24  C   UNL A   1      32.185  30.158  26.613  1.00  0.00     0.023 C 
BRANCH  24  25
ATOM     25  C   UNL A   1      33.166  31.230  27.112  1.00  0.00     0.116 C 
BRANCH  25  26
ATOM     26  N   UNL A   1      32.662  32.570  27.333  1.00  0.00    -0.352 N 
ATOM     27  C   UNL A   1      33.256  33.600  28.057  1.00  0.00     0.251 C 
ATOM     28  H   UNL A   1      31.794  32.778  26.918  1.00  0.00     0.163 HD
ATOM     29  O   UNL A   1      32.728  34.697  28.086  1.00  0.00    -0.269 OA
BRANCH  27  30
ATOM     30  C   UNL A   1      34.471  33.331  28.881  1.00  0.00     0.039 A 
ATOM     31  C   UNL A   1      34.297  32.675  30.106  1.00  0.00     0.014 A 
ATOM     32  C   UNL A   1      35.760  33.651  28.448  1.00  0.00     0.014 A 
ATOM     33  C   UNL A   1      35.410  32.219  30.822  1.00  0.00     0.010 A 
ATOM     34  C   UNL A   1      36.872  33.161  29.147  1.00  0.00     0.010 A 
ATOM     35  C   UNL A   1      36.707  32.394  30.313  1.00  0.00    -0.014 A 
BRANCH  35  36
ATOM     36  C   UNL A   1      37.863  31.669  30.918  1.00  0.00     0.031 A 
ATOM     37  C   UNL A   1      38.355  31.983  32.303  1.00  0.00     0.074 A 
ATOM     38  C   UNL A   1      38.513  30.748  30.177  1.00  0.00     0.049 A 
ATOM     39  N   UNL A   1      39.364  31.466  32.960  1.00  0.00    -0.248 NA
ATOM     40  C   UNL A   1      37.626  33.025  33.036  1.00  0.00     0.031 C 
ATOM     41  C   UNL A   1      38.155  30.368  28.808  1.00  0.00     0.029 A 
ATOM     42  N   UNL A   1      39.604  29.962  30.460  1.00  0.00    -0.354 N 
ATOM     43  C   UNL A   1      39.391  32.113  34.191  1.00  0.00     0.074 A 
ATOM     44  C   UNL A   1      38.329  33.101  34.158  1.00  0.00     0.031 C 
ATOM     45  C   UNL A   1      38.992  29.408  28.382  1.00  0.00     0.029 A 
ATOM     46  C   UNL A   1      39.972  29.131  29.427  1.00  0.00     0.049 A 
ATOM     47  H   UNL A   1      40.079  29.992  31.321  1.00  0.00     0.167 HD
ATOM     48  C   UNL A   1      40.209  31.892  35.254  1.00  0.00     0.034 A 
ATOM     49  C   UNL A   1      40.986  28.248  29.322  1.00  0.00     0.034 A 
ATOM     50  C   UNL A   1      41.280  30.920  35.265  1.00  0.00     0.049 A 
ATOM     51  C   UNL A   1      41.919  28.061  30.491  1.00  0.00     0.074 A 
ATOM     52  C   UNL A   1      42.151  30.604  36.296  1.00  0.00     0.029 A 
ATOM     53  N   UNL A   1      41.639  30.115  34.191  1.00  0.00    -0.354 N 
ATOM     54  N   UNL A   1      41.904  28.654  31.662  1.00  0.00    -0.248 NA
ATOM     55  C   UNL A   1      42.999  27.080  30.326  1.00  0.00     0.031 C 
ATOM     56  C   UNL A   1      43.074  29.662  35.823  1.00  0.00     0.029 A 
ATOM     57  C   UNL A   1      42.735  29.329  34.523  1.00  0.00     0.049 A 
ATOM     58  H   UNL A   1      41.182  30.103  33.319  1.00  0.00     0.167 HD
ATOM     59  C   UNL A   1      42.952  28.092  32.384  1.00  0.00     0.074 A 
ATOM     60  C   UNL A   1      43.572  27.107  31.520  1.00  0.00     0.031 C 
ATOM     61  C   UNL A   1      43.359  28.360  33.652  1.00  0.00     0.034 A 
BRANCH  48  62
ATOM     62  C   UNL A   1      39.987  32.749  36.480  1.00  0.00     0.023 A 
ATOM     63  C   UNL A   1      39.135  32.336  37.519  1.00  0.00     0.031 A 
ATOM     64  C   UNL A   1      40.595  34.012  36.596  1.00  0.00     0.131 A 
ATOM     65  C   UNL A   1      38.837  33.211  38.574  1.00  0.00     0.055 A 
ATOM     66  C   UNL A   1      40.365  34.844  37.695  1.00  0.00     0.041 A 
ATOM     67  F   UNL A   1      41.409  34.471  35.632  1.00  0.00    -0.206 F 
ATOM     68  C   UNL A   1      39.465  34.453  38.682  1.00  0.00     0.022 A 
BRANCH  65  69
ATOM     69  S   UNL A   1      37.490  32.771  39.706  1.00  0.00     0.124 S 
ATOM     70  O   UNL A   1      37.951  31.486  40.228  1.00  0.00    -0.237 OA
ATOM     71  O   UNL A   1      37.493  33.883  40.648  1.00  0.00    -0.237 OA
ATOM     72  O   UNL A   1      36.320  32.695  38.832  1.00  0.00    -0.744 OA
ENDBRANCH  65  69
ENDBRANCH  48  62
BRANCH  49  73
ATOM     73  C   UNL A   1      41.179  27.467  28.066  1.00  0.00     0.023 A 
ATOM     74  C   UNL A   1      40.896  26.093  28.019  1.00  0.00     0.031 A 
ATOM     75  C   UNL A   1      41.681  28.078  26.902  1.00  0.00     0.131 A 
ATOM     76  C   UNL A   1      41.149  25.366  26.846  1.00  0.00     0.055 A 
ATOM     77  C   UNL A   1      41.888  27.360  25.724  1.00  0.00     0.041 A 
ATOM     78  F   UNL A   1      41.963  29.390  26.892  1.00  0.00    -0.206 F 
ATOM     79  C   UNL A   1      41.632  25.992  25.694  1.00  0.00     0.022 A 
BRANCH  76  80
ATOM     80  S   UNL A   1      40.903  23.568  26.866  1.00  0.00     0.124 S 
ATOM     81  O   UNL A   1      41.306  23.229  28.227  1.00  0.00    -0.237 OA
ATOM     82  O   UNL A   1      39.479  23.456  26.571  1.00  0.00    -0.237 OA
ATOM     83  O   UNL A   1      41.796  23.092  25.812  1.00  0.00    -0.744 OA
ENDBRANCH  76  80
ENDBRANCH  49  73
BRANCH  61  84
ATOM     84  C   UNL A   1      44.505  27.538  34.191  1.00  0.00     0.023 A 
ATOM     85  C   UNL A   1      44.292  26.382  34.964  1.00  0.00     0.031 A 
ATOM     86  C   UNL A   1      45.832  27.930  33.942  1.00  0.00     0.131 A 
ATOM     87  C   UNL A   1      45.387  25.691  35.505  1.00  0.00     0.055 A 
ATOM     88  C   UNL A   1      46.919  27.207  34.435  1.00  0.00     0.041 A 
ATOM     89  F   UNL A   1      46.095  29.027  33.214  1.00  0.00    -0.206 F 
ATOM     90  C   UNL A   1      46.700  26.086  35.231  1.00  0.00     0.022 A 
BRANCH  87  91
ATOM     91  S   UNL A   1      45.075  24.312  36.644  1.00  0.00     0.124 S 
ATOM     92  O   UNL A   1      43.983  24.834  37.459  1.00  0.00    -0.237 OA
ATOM     93  O   UNL A   1      44.728  23.227  35.733  1.00  0.00    -0.237 OA
ATOM     94  O   UNL A   1      46.348  24.150  37.343  1.00  0.00    -0.744 OA
ENDBRANCH  87  91
ENDBRANCH  61  84
ENDBRANCH  35  36
ENDBRANCH  27  30
ENDBRANCH  25  26
ENDBRANCH  24  25
ENDBRANCH   1  24
TORSDOF 18
ENDMDL
MODEL 2
REMARK VINA RESULT:     -11.4      1.752      2.167
REMARK SMILES O=C(CCc1cccnc1)Nc1ccsc1C(=O)NCCCCNC(=O)c1ccc(-c2c3nc(c(-c4cc(S(=O)(=O)[O-])ccc4F)c4ccc([nH]4)c(-c4cc(S(=O)(=O)[O-])ccc4F)c4nc(c(-c5cc(S(=O)(=O)[O-])ccc5F)c5ccc2[nH]5)C=C4)C=C3)cc1
REMARK SMILES IDX 21 1 20 2 19 3 17 4 18 5 16 7 12 8 13 9 14 10 15 11 11 12
REMARK SMILES IDX 1 13 2 14 3 16 4 17 5 18 6 19 10 20 7 21 9 22 8 23 22 24
REMARK SMILES IDX 23 25 24 26 25 27 26 29 27 30 28 31 89 32 29 33 88 34 30 35
REMARK SMILES IDX 31 36 32 37 82 38 33 39 87 40 81 41 83 42 34 43 86 44 80 45
REMARK SMILES IDX 79 46 35 48 67 49 47 50 66 51 48 52 51 53 65 54 84 55 49 56
REMARK SMILES IDX 50 57 64 59 85 60 52 61 36 62 37 63 45 64 38 65 44 66 46 67
REMARK SMILES IDX 43 68 39 69 40 70 41 71 42 72 68 73 69 74 77 75 70 76 76 77
REMARK SMILES IDX 78 78 75 79 71 80 72 81 73 82 74 83 53 84 54 85 62 86 55 87
REMARK SMILES IDX 61 88 63 89 60 90 56 91 57 92 58 93 59 94
REMARK H PARENT 19 6 11 15 24 28 83 47 51 58
REMARK Flexibility Score: inf
ROOT
ATOM      1  C   UNL A   1      31.838  27.863  27.263  1.00  0.00     0.023 C 
ENDROOT
BRANCH   1   2
ATOM      2  C   UNL A   1      32.209  26.522  26.617  1.00  0.00     0.116 C 
BRANCH   2   3
ATOM      3  N   UNL A   1      31.358  25.374  26.839  1.00  0.00    -0.351 N 
ATOM      4  C   UNL A   1      31.482  24.086  26.321  1.00  0.00     0.263 C 
ATOM      5  O   UNL A   1      30.621  23.279  26.680  1.00  0.00    -0.268 OA
ATOM      6  H   UNL A   1      30.590  25.520  27.436  1.00  0.00     0.163 HD
BRANCH   4   7
ATOM      7  C   UNL A   1      32.545  23.737  25.377  1.00  0.00     0.115 A 
ATOM      8  C   UNL A   1      32.759  24.046  24.039  1.00  0.00     0.065 A 
ATOM      9  C   UNL A   1      33.883  23.345  23.497  1.00  0.00     0.038 A 
ATOM     10  C   UNL A   1      34.579  22.647  24.455  1.00  0.00     0.068 A 
ATOM     11  S   UNL A   1      33.834  22.758  25.983  1.00  0.00    -0.137 S 
BRANCH   8  12
ATOM     12  N   UNL A   1      31.997  24.971  23.342  1.00  0.00    -0.325 N 
ATOM     13  O   UNL A   1      33.506  26.718  23.315  1.00  0.00    -0.275 OA
ATOM     14  C   UNL A   1      32.400  26.253  23.039  1.00  0.00     0.224 C 
ATOM     15  H   UNL A   1      31.103  24.691  23.040  1.00  0.00     0.169 HD
BRANCH  14  16
ATOM     16  C   UNL A   1      31.367  27.117  22.322  1.00  0.00     0.105 C 
BRANCH  16  17
ATOM     17  C   UNL A   1      30.025  27.342  23.025  1.00  0.00     0.047 C 
BRANCH  17  18
ATOM     18  C   UNL A   1      29.327  28.640  22.702  1.00  0.00    -0.029 A 
ATOM     19  C   UNL A   1      28.020  28.902  23.117  1.00  0.00     0.007 A 
ATOM     20  C   UNL A   1      29.954  29.641  21.977  1.00  0.00     0.114 A 
ATOM     21  C   UNL A   1      27.405  30.116  22.839  1.00  0.00     0.020 A 
ATOM     22  N   UNL A   1      29.394  30.841  21.701  1.00  0.00    -0.264 NA
ATOM     23  C   UNL A   1      28.130  31.049  22.130  1.00  0.00     0.111 A 
ENDBRANCH  17  18
ENDBRANCH  16  17
ENDBRANCH  14  16
ENDBRANCH   8  12
ENDBRANCH   4   7
ENDBRANCH   2   3
ENDBRANCH   1   2
BRANCH   1  24
ATOM     24  C   UNL A   1      31.536  29.167  26.502  1.00  0.00     0.023 C 
BRANCH  24  25
ATOM     25  C   UNL A   1      32.549  30.268  26.153  1.00  0.00     0.116 C 
BRANCH  25  26
ATOM     26  N   UNL A   1      32.409  31.556  26.800  1.00  0.00    -0.352 N 
ATOM     27  C   UNL A   1      33.374  32.269  27.507  1.00  0.00     0.251 C 
ATOM     28  H   UNL A   1      31.523  31.980  26.730  1.00  0.00     0.163 HD
ATOM     29  O   UNL A   1      33.111  33.379  27.932  1.00  0.00    -0.269 OA
BRANCH  27  30
ATOM     30  C   UNL A   1      34.683  31.632  27.836  1.00  0.00     0.039 A 
ATOM     31  C   UNL A   1      35.801  32.465  27.962  1.00  0.00     0.014 A 
ATOM     32  C   UNL A   1      34.813  30.263  28.079  1.00  0.00     0.014 A 
ATOM     33  C   UNL A   1      37.005  31.954  28.464  1.00  0.00     0.010 A 
ATOM     34  C   UNL A   1      36.007  29.760  28.616  1.00  0.00     0.010 A 
ATOM     35  C   UNL A   1      37.097  30.611  28.864  1.00  0.00    -0.014 A 
BRANCH  35  36
ATOM     36  C   UNL A   1      38.270  30.135  29.655  1.00  0.00     0.031 A 
ATOM     37  C   UNL A   1      38.538  30.633  31.048  1.00  0.00     0.074 A 
ATOM     38  C   UNL A   1      39.138  29.277  29.080  1.00  0.00     0.049 A 
ATOM     39  N   UNL A   1      39.527  30.341  31.855  1.00  0.00    -0.248 NA
ATOM     40  C   UNL A   1      37.574  31.595  31.595  1.00  0.00     0.031 C 
ATOM     41  C   UNL A   1      39.012  28.738  27.723  1.00  0.00     0.029 A 
ATOM     42  N   UNL A   1      40.296  28.706  29.552  1.00  0.00    -0.354 N 
ATOM     43  C   UNL A   1      39.306  31.079  33.014  1.00  0.00     0.074 A 
ATOM     44  C   UNL A   1      38.116  31.873  32.773  1.00  0.00     0.031 C 
ATOM     45  C   UNL A   1      40.031  27.898  27.484  1.00  0.00     0.029 A 
ATOM     46  C   UNL A   1      40.909  27.868  28.649  1.00  0.00     0.049 A 
ATOM     47  H   UNL A   1      40.653  28.881  30.452  1.00  0.00     0.167 HD
ATOM     48  C   UNL A   1      40.014  31.078  34.175  1.00  0.00     0.034 A 
ATOM     49  C   UNL A   1      42.052  27.158  28.739  1.00  0.00     0.034 A 
ATOM     50  C   UNL A   1      41.212  30.299  34.393  1.00  0.00     0.049 A 
ATOM     51  C   UNL A   1      42.854  27.218  30.013  1.00  0.00     0.074 A 
ATOM     52  C   UNL A   1      41.991  30.212  35.537  1.00  0.00     0.029 A 
ATOM     53  N   UNL A   1      41.818  29.482  33.446  1.00  0.00    -0.354 N 
ATOM     54  N   UNL A   1      42.608  27.891  31.113  1.00  0.00    -0.248 NA
ATOM     55  C   UNL A   1      44.085  26.418  30.059  1.00  0.00     0.031 C 
ATOM     56  C   UNL A   1      43.098  29.400  35.258  1.00  0.00     0.029 A 
ATOM     57  C   UNL A   1      42.974  28.916  33.967  1.00  0.00     0.049 A 
ATOM     58  H   UNL A   1      41.477  29.327  32.536  1.00  0.00     0.167 HD
ATOM     59  C   UNL A   1      43.635  27.566  31.993  1.00  0.00     0.074 A 
ATOM     60  C   UNL A   1      44.499  26.632  31.299  1.00  0.00     0.031 C 
ATOM     61  C   UNL A   1      43.840  27.996  33.265  1.00  0.00     0.034 A 
BRANCH  48  62
ATOM     62  C   UNL A   1      39.517  31.981  35.281  1.00  0.00     0.023 A 
ATOM     63  C   UNL A   1      39.971  33.306  35.407  1.00  0.00     0.031 A 
ATOM     64  C   UNL A   1      38.615  31.505  36.250  1.00  0.00     0.131 A 
ATOM     65  C   UNL A   1      39.604  34.073  36.522  1.00  0.00     0.055 A 
ATOM     66  C   UNL A   1      38.182  32.304  37.311  1.00  0.00     0.041 A 
ATOM     67  F   UNL A   1      38.154  30.245  36.196  1.00  0.00    -0.206 F 
ATOM     68  C   UNL A   1      38.693  33.590  37.463  1.00  0.00     0.022 A 
BRANCH  65  69
ATOM     69  S   UNL A   1      40.468  35.641  36.813  1.00  0.00     0.124 S 
ATOM     70  O   UNL A   1      41.788  35.358  36.254  1.00  0.00    -0.237 OA
ATOM     71  O   UNL A   1      39.650  36.594  36.071  1.00  0.00    -0.237 OA
ATOM     72  O   UNL A   1      40.433  35.787  38.267  1.00  0.00    -0.744 OA
ENDBRANCH  65  69
ENDBRANCH  48  62
BRANCH  49  73
ATOM     73  C   UNL A   1      42.513  26.323  27.592  1.00  0.00     0.023 A 
ATOM     74  C   UNL A   1      42.107  24.986  27.463  1.00  0.00     0.031 A 
ATOM     75  C   UNL A   1      43.392  26.842  26.625  1.00  0.00     0.131 A 
ATOM     76  C   UNL A   1      42.607  24.201  26.413  1.00  0.00     0.055 A 
ATOM     77  C   UNL A   1      43.851  26.071  25.555  1.00  0.00     0.041 A 
ATOM     78  F   UNL A   1      43.807  28.117  26.698  1.00  0.00    -0.206 F 
ATOM     79  C   UNL A   1      43.467  24.738  25.451  1.00  0.00     0.022 A 
BRANCH  76  80
ATOM     80  S   UNL A   1      42.172  22.441  26.358  1.00  0.00     0.124 S 
ATOM     81  O   UNL A   1      40.721  22.498  26.217  1.00  0.00    -0.237 OA
ATOM     82  O   UNL A   1      42.914  21.982  25.188  1.00  0.00    -0.237 OA
ATOM     83  O   UNL A   1      42.656  21.931  27.639  1.00  0.00    -0.744 OA
ENDBRANCH  76  80
ENDBRANCH  49  73
BRANCH  61  84
ATOM     84  C   UNL A   1      45.025  27.418  34.000  1.00  0.00     0.023 A 
ATOM     85  C   UNL A   1      44.940  26.208  34.712  1.00  0.00     0.031 A 
ATOM     86  C   UNL A   1      46.254  28.101  34.002  1.00  0.00     0.131 A 
ATOM     87  C   UNL A   1      46.048  25.746  35.441  1.00  0.00     0.055 A 
ATOM     88  C   UNL A   1      47.369  27.608  34.682  1.00  0.00     0.041 A 
ATOM     89  F   UNL A   1      46.391  29.262  33.343  1.00  0.00    -0.206 F 
ATOM     90  C   UNL A   1      47.267  26.429  35.416  1.00  0.00     0.022 A 
BRANCH  87  91
ATOM     91  S   UNL A   1      45.853  24.280  36.493  1.00  0.00     0.124 S 
ATOM     92  O   UNL A   1      44.419  24.026  36.397  1.00  0.00    -0.237 OA
ATOM     93  O   UNL A   1      46.717  23.306  35.835  1.00  0.00    -0.237 OA
ATOM     94  O   UNL A   1      46.316  24.733  37.802  1.00  0.00    -0.744 OA
ENDBRANCH  87  91
ENDBRANCH  61  84
ENDBRANCH  35  36
ENDBRANCH  27  30
ENDBRANCH  25  26
ENDBRANCH  24  25
ENDBRANCH   1  24
TORSDOF 18
ENDMDL
MODEL 3
REMARK VINA RESULT:     -11.4      2.008      8.389
REMARK SMILES O=C(CCc1cccnc1)Nc1ccsc1C(=O)NCCCCNC(=O)c1ccc(-c2c3nc(c(-c4cc(S(=O)(=O)[O-])ccc4F)c4ccc([nH]4)c(-c4cc(S(=O)(=O)[O-])ccc4F)c4nc(c(-c5cc(S(=O)(=O)[O-])ccc5F)c5ccc2[nH]5)C=C4)C=C3)cc1
REMARK SMILES IDX 21 1 20 2 19 3 17 4 18 5 16 7 12 8 13 9 14 10 15 11 11 12
REMARK SMILES IDX 1 13 2 14 3 16 4 17 5 18 6 19 10 20 7 21 9 22 8 23 22 24
REMARK SMILES IDX 23 25 24 26 25 27 26 29 27 30 28 31 89 32 29 33 88 34 30 35
REMARK SMILES IDX 31 36 32 37 82 38 33 39 87 40 81 41 83 42 34 43 86 44 80 45
REMARK SMILES IDX 79 46 35 48 67 49 47 50 66 51 48 52 51 53 65 54 84 55 49 56
REMARK SMILES IDX 50 57 64 59 85 60 52 61 36 62 37 63 45 64 38 65 44 66 46 67
REMARK SMILES IDX 43 68 39 69 40 70 41 71 42 72 68 73 69 74 77 75 70 76 76 77
REMARK SMILES IDX 78 78 75 79 71 80 72 81 73 82 74 83 53 84 54 85 62 86 55 87
REMARK SMILES IDX 61 88 63 89 60 90 56 91 57 92 58 93 59 94
REMARK H PARENT 19 6 11 15 24 28 83 47 51 58
REMARK Flexibility Score: inf
ROOT
ATOM      1  C   UNL A   1      32.563  29.136  27.075  1.00  0.00     0.023 C 
ENDROOT
BRANCH   1   2
ATOM      2  C   UNL A   1      33.153  28.055  26.159  1.00  0.00     0.116 C 
BRANCH   2   3
ATOM      3  N   UNL A   1      33.563  28.414  24.820  1.00  0.00    -0.351 N 
ATOM      4  C   UNL A   1      32.794  28.469  23.659  1.00  0.00     0.263 C 
ATOM      5  O   UNL A   1      33.390  28.819  22.638  1.00  0.00    -0.268 OA
ATOM      6  H   UNL A   1      34.512  28.651  24.713  1.00  0.00     0.163 HD
BRANCH   4   7
ATOM      7  C   UNL A   1      31.380  28.090  23.657  1.00  0.00     0.115 A 
ATOM      8  C   UNL A   1      30.728  26.871  23.796  1.00  0.00     0.065 A 
ATOM      9  C   UNL A   1      29.318  26.985  23.578  1.00  0.00     0.038 A 
ATOM     10  C   UNL A   1      28.913  28.290  23.430  1.00  0.00     0.068 A 
ATOM     11  S   UNL A   1      30.233  29.368  23.460  1.00  0.00    -0.137 S 
BRANCH   8  12
ATOM     12  N   UNL A   1      31.376  25.700  24.160  1.00  0.00    -0.325 N 
ATOM     13  O   UNL A   1      30.767  25.640  26.386  1.00  0.00    -0.275 OA
ATOM     14  C   UNL A   1      31.379  25.165  25.430  1.00  0.00     0.224 C 
ATOM     15  H   UNL A   1      31.871  25.215  23.460  1.00  0.00     0.169 HD
BRANCH  14  16
ATOM     16  C   UNL A   1      32.218  23.904  25.611  1.00  0.00     0.105 C 
BRANCH  16  17
ATOM     17  C   UNL A   1      33.625  24.070  26.191  1.00  0.00     0.047 C 
BRANCH  17  18
ATOM     18  C   UNL A   1      34.761  23.754  25.250  1.00  0.00    -0.029 A 
ATOM     19  C   UNL A   1      36.081  23.638  25.693  1.00  0.00     0.007 A 
ATOM     20  C   UNL A   1      34.549  23.556  23.894  1.00  0.00     0.114 A 
ATOM     21  C   UNL A   1      37.109  23.313  24.817  1.00  0.00     0.020 A 
ATOM     22  N   UNL A   1      35.521  23.223  23.016  1.00  0.00    -0.264 NA
ATOM     23  C   UNL A   1      36.780  23.117  23.493  1.00  0.00     0.111 A 
ENDBRANCH  17  18
ENDBRANCH  16  17
ENDBRANCH  14  16
ENDBRANCH   8  12
ENDBRANCH   4   7
ENDBRANCH   2   3
ENDBRANCH   1   2
BRANCH   1  24
ATOM     24  C   UNL A   1      32.472  30.636  26.739  1.00  0.00     0.023 C 
BRANCH  24  25
ATOM     25  C   UNL A   1      33.329  31.755  27.352  1.00  0.00     0.116 C 
BRANCH  25  26
ATOM     26  N   UNL A   1      32.715  33.050  27.559  1.00  0.00    -0.352 N 
ATOM     27  C   UNL A   1      33.179  34.102  28.346  1.00  0.00     0.251 C 
ATOM     28  H   UNL A   1      31.867  33.207  27.084  1.00  0.00     0.163 HD
ATOM     29  O   UNL A   1      32.573  35.158  28.356  1.00  0.00    -0.269 OA
BRANCH  27  30
ATOM     30  C   UNL A   1      34.345  33.898  29.254  1.00  0.00     0.039 A 
ATOM     31  C   UNL A   1      34.123  33.221  30.460  1.00  0.00     0.014 A 
ATOM     32  C   UNL A   1      35.640  34.299  28.919  1.00  0.00     0.014 A 
ATOM     33  C   UNL A   1      35.207  32.825  31.253  1.00  0.00     0.010 A 
ATOM     34  C   UNL A   1      36.727  33.870  29.694  1.00  0.00     0.010 A 
ATOM     35  C   UNL A   1      36.524  33.083  30.841  1.00  0.00    -0.014 A 
BRANCH  35  36
ATOM     36  C   UNL A   1      37.675  32.423  31.524  1.00  0.00     0.031 A 
ATOM     37  C   UNL A   1      38.400  31.260  30.906  1.00  0.00     0.074 A 
ATOM     38  C   UNL A   1      38.035  32.851  32.752  1.00  0.00     0.049 A 
ATOM     39  N   UNL A   1      39.398  30.559  31.384  1.00  0.00    -0.248 NA
ATOM     40  C   UNL A   1      37.929  30.823  29.587  1.00  0.00     0.031 C 
ATOM     41  C   UNL A   1      37.396  33.952  33.478  1.00  0.00     0.029 A 
ATOM     42  N   UNL A   1      39.018  32.421  33.611  1.00  0.00    -0.354 N 
ATOM     43  C   UNL A   1      39.684  29.596  30.421  1.00  0.00     0.074 A 
ATOM     44  C   UNL A   1      38.710  29.775  29.361  1.00  0.00     0.031 C 
ATOM     45  C   UNL A   1      38.018  34.126  34.655  1.00  0.00     0.029 A 
ATOM     46  C   UNL A   1      39.072  33.126  34.792  1.00  0.00     0.049 A 
ATOM     47  H   UNL A   1      39.626  31.676  33.401  1.00  0.00     0.167 HD
ATOM     48  C   UNL A   1      40.676  28.666  30.412  1.00  0.00     0.034 A 
ATOM     49  C   UNL A   1      39.871  32.986  35.868  1.00  0.00     0.034 A 
ATOM     50  C   UNL A   1      41.625  28.482  31.487  1.00  0.00     0.049 A 
ATOM     51  C   UNL A   1      40.925  31.908  35.863  1.00  0.00     0.074 A 
ATOM     52  C   UNL A   1      42.678  27.584  31.568  1.00  0.00     0.029 A 
ATOM     53  N   UNL A   1      41.632  29.198  32.678  1.00  0.00    -0.354 N 
ATOM     54  N   UNL A   1      41.206  31.033  34.927  1.00  0.00    -0.248 NA
ATOM     55  C   UNL A   1      41.774  31.806  37.057  1.00  0.00     0.031 C 
ATOM     56  C   UNL A   1      43.275  27.713  32.829  1.00  0.00     0.029 A 
ATOM     57  C   UNL A   1      42.647  28.742  33.509  1.00  0.00     0.049 A 
ATOM     58  H   UNL A   1      41.007  29.926  32.902  1.00  0.00     0.167 HD
ATOM     59  C   UNL A   1      42.287  30.299  35.406  1.00  0.00     0.074 A 
ATOM     60  C   UNL A   1      42.611  30.841  36.711  1.00  0.00     0.031 C 
ATOM     61  C   UNL A   1      42.956  29.276  34.816  1.00  0.00     0.034 A 
BRANCH  48  62
ATOM     62  C   UNL A   1      40.751  27.756  29.207  1.00  0.00     0.023 A 
ATOM     63  C   UNL A   1      41.697  27.966  28.188  1.00  0.00     0.031 A 
ATOM     64  C   UNL A   1      39.843  26.694  29.047  1.00  0.00     0.131 A 
ATOM     65  C   UNL A   1      41.651  27.195  27.017  1.00  0.00     0.055 A 
ATOM     66  C   UNL A   1      39.860  25.873  27.917  1.00  0.00     0.041 A 
ATOM     67  F   UNL A   1      38.906  26.449  29.976  1.00  0.00    -0.206 F 
ATOM     68  C   UNL A   1      40.755  26.134  26.884  1.00  0.00     0.022 A 
BRANCH  65  69
ATOM     69  S   UNL A   1      42.665  27.714  25.604  1.00  0.00     0.124 S 
ATOM     70  O   UNL A   1      43.943  28.004  26.249  1.00  0.00    -0.237 OA
ATOM     71  O   UNL A   1      42.634  26.536  24.745  1.00  0.00    -0.237 OA
ATOM     72  O   UNL A   1      41.957  28.884  25.086  1.00  0.00    -0.744 OA
ENDBRANCH  65  69
ENDBRANCH  48  62
BRANCH  49  73
ATOM     73  C   UNL A   1      39.713  33.886  37.047  1.00  0.00     0.023 A 
ATOM     74  C   UNL A   1      39.054  33.448  38.206  1.00  0.00     0.031 A 
ATOM     75  C   UNL A   1      40.191  35.208  37.019  1.00  0.00     0.131 A 
ATOM     76  C   UNL A   1      38.858  34.333  39.277  1.00  0.00     0.055 A 
ATOM     77  C   UNL A   1      40.035  36.071  38.105  1.00  0.00     0.041 A 
ATOM     78  F   UNL A   1      40.834  35.676  35.937  1.00  0.00    -0.206 F 
ATOM     79  C   UNL A   1      39.355  35.638  39.240  1.00  0.00     0.022 A 
BRANCH  76  80
ATOM     80  S   UNL A   1      37.881  33.775  40.700  1.00  0.00     0.124 S 
ATOM     81  O   UNL A   1      38.792  32.826  41.332  1.00  0.00    -0.237 OA
ATOM     82  O   UNL A   1      37.655  35.024  41.419  1.00  0.00    -0.237 OA
ATOM     83  O   UNL A   1      36.693  33.187  40.086  1.00  0.00    -0.744 OA
ENDBRANCH  76  80
ENDBRANCH  49  73
BRANCH  61  84
ATOM     84  C   UNL A   1      44.138  28.708  35.566  1.00  0.00     0.023 A 
ATOM     85  C   UNL A   1      43.997  27.657  36.490  1.00  0.00     0.031 A 
ATOM     86  C   UNL A   1      45.423  29.243  35.364  1.00  0.00     0.131 A 
ATOM     87  C   UNL A   1      45.112  27.211  37.217  1.00  0.00     0.055 A 
ATOM     88  C   UNL A   1      46.538  28.756  36.048  1.00  0.00     0.041 A 
ATOM     89  F   UNL A   1      45.615  30.250  34.497  1.00  0.00    -0.206 F 
ATOM     90  C   UNL A   1      46.384  27.742  36.989  1.00  0.00     0.022 A 
BRANCH  87  91
ATOM     91  S   UNL A   1      44.865  25.980  38.528  1.00  0.00     0.124 S 
ATOM     92  O   UNL A   1      44.024  24.991  37.861  1.00  0.00    -0.237 OA
ATOM     93  O   UNL A   1      46.230  25.561  38.824  1.00  0.00    -0.237 OA
ATOM     94  O   UNL A   1      44.206  26.738  39.590  1.00  0.00    -0.744 OA
ENDBRANCH  87  91
ENDBRANCH  61  84
ENDBRANCH  35  36
ENDBRANCH  27  30
ENDBRANCH  25  26
ENDBRANCH  24  25
ENDBRANCH   1  24
TORSDOF 18
ENDMDL
