MODEL 1
REMARK VINA RESULT:     -10.3      0.000      0.000
REMARK SMILES O=C(CC1(CSC[C@H]2C[C@H]3CC[C@@H]2C3)CC1)NCCCCNC(=O)c1ccc(-c2c3nc(c(-c4cc(S(=O)(=O)[O-])ccc4F)c4ccc([nH]4)c(-c4cc(S(=O)(=O)[O-])ccc4F)c4nc(c(-c5cc(S(=O)(=O)[O-])ccc5F)c5ccc2[nH]5)C=C4)C=C3)cc1
REMARK SMILES IDX 18 1 17 2 1 3 2 4 3 6 4 7 15 8 16 9 5 10 6 11 7 12 8 13 9 14
REMARK SMILES IDX 13 15 10 16 12 17 14 18 11 19 19 20 20 21 21 22 22 23 23 24
REMARK SMILES IDX 24 26 25 27 26 28 87 29 27 30 86 31 28 32 29 33 30 34 80 35
REMARK SMILES IDX 31 36 85 37 79 38 81 39 32 40 84 41 78 42 77 43 33 45 65 46
REMARK SMILES IDX 45 47 64 48 46 49 49 50 63 51 82 52 47 53 48 54 62 56 83 57
REMARK SMILES IDX 50 58 34 59 35 60 43 61 36 62 42 63 44 64 41 65 37 66 38 67
REMARK SMILES IDX 39 68 40 69 66 70 67 71 75 72 68 73 74 74 76 75 73 76 69 77
REMARK SMILES IDX 70 78 71 79 72 80 51 81 52 82 60 83 53 84 59 85 61 86 58 87
REMARK SMILES IDX 54 88 55 89 56 90 57 91
REMARK H PARENT 17 5 22 25 81 44 49 55
REMARK Flexibility Score: inf
ROOT
ATOM      1  C   UNL A   1      36.651  22.235  25.221  1.00  0.00     0.116 C 
ENDROOT
BRANCH   1   2
ATOM      2  N   UNL A   1      35.850  22.999  24.289  1.00  0.00    -0.356 N 
ATOM      3  O   UNL A   1      34.327  23.763  25.834  1.00  0.00    -0.275 OA
ATOM      4  C   UNL A   1      34.787  23.774  24.695  1.00  0.00     0.220 C 
ATOM      5  H   UNL A   1      36.073  22.962  23.330  1.00  0.00     0.163 HD
BRANCH   4   6
ATOM      6  C   UNL A   1      34.255  24.709  23.620  1.00  0.00     0.107 C 
BRANCH   6   7
ATOM      7  C   UNL A   1      32.966  24.199  22.978  1.00  0.00    -0.012 C 
ATOM      8  C   UNL A   1      33.127  23.285  21.761  1.00  0.00     0.009 C 
ATOM      9  C   UNL A   1      32.681  22.702  23.058  1.00  0.00     0.009 C 
BRANCH   7  10
ATOM     10  C   UNL A   1      31.848  25.209  22.822  1.00  0.00     0.077 C 
BRANCH  10  11
ATOM     11  S   UNL A   1      30.522  25.213  24.052  1.00  0.00    -0.161 SA
BRANCH  11  12
ATOM     12  C   UNL A   1      31.349  25.866  25.537  1.00  0.00     0.073 C 
BRANCH  12  13
ATOM     13  C   UNL A   1      31.199  27.339  25.953  1.00  0.00     0.002 C 
ATOM     14  C   UNL A   1      31.698  27.805  27.334  1.00  0.00     0.008 C 
ATOM     15  C   UNL A   1      31.917  28.334  24.987  1.00  0.00    -0.007 C 
ATOM     16  C   UNL A   1      32.723  28.897  26.984  1.00  0.00    -0.011 C 
ATOM     17  C   UNL A   1      33.412  28.011  24.853  1.00  0.00     0.004 C 
ATOM     18  C   UNL A   1      32.010  29.607  25.837  1.00  0.00     0.007 C 
ATOM     19  C   UNL A   1      33.932  28.254  26.278  1.00  0.00     0.004 C 
ENDBRANCH  12  13
ENDBRANCH  11  12
ENDBRANCH  10  11
ENDBRANCH   7  10
ENDBRANCH   6   7
ENDBRANCH   4   6
ENDBRANCH   1   2
BRANCH   1  20
ATOM     20  C   UNL A   1      36.483  20.728  25.051  1.00  0.00     0.023 C 
BRANCH  20  21
ATOM     21  C   UNL A   1      37.786  19.933  24.917  1.00  0.00     0.023 C 
BRANCH  21  22
ATOM     22  C   UNL A   1      38.954  20.428  25.771  1.00  0.00     0.116 C 
BRANCH  22  23
ATOM     23  N   UNL A   1      39.995  19.431  25.938  1.00  0.00    -0.352 N 
ATOM     24  C   UNL A   1      41.336  19.592  26.196  1.00  0.00     0.251 C 
ATOM     25  H   UNL A   1      39.695  18.497  25.855  1.00  0.00     0.163 HD
ATOM     26  O   UNL A   1      42.077  18.616  26.136  1.00  0.00    -0.269 OA
BRANCH  24  27
ATOM     27  C   UNL A   1      41.895  20.928  26.514  1.00  0.00     0.039 A 
ATOM     28  C   UNL A   1      42.043  21.854  25.477  1.00  0.00     0.014 A 
ATOM     29  C   UNL A   1      42.305  21.267  27.808  1.00  0.00     0.014 A 
ATOM     30  C   UNL A   1      42.539  23.134  25.746  1.00  0.00     0.010 A 
ATOM     31  C   UNL A   1      42.738  22.566  28.087  1.00  0.00     0.010 A 
ATOM     32  C   UNL A   1      42.857  23.516  27.060  1.00  0.00    -0.014 A 
BRANCH  32  33
ATOM     33  C   UNL A   1      43.300  24.906  27.368  1.00  0.00     0.031 A 
ATOM     34  C   UNL A   1      42.346  25.896  27.982  1.00  0.00     0.074 A 
ATOM     35  C   UNL A   1      44.554  25.291  27.054  1.00  0.00     0.049 A 
ATOM     36  N   UNL A   1      42.533  27.161  28.266  1.00  0.00    -0.248 NA
ATOM     37  C   UNL A   1      40.997  25.405  28.297  1.00  0.00     0.031 C 
ATOM     38  C   UNL A   1      45.570  24.435  26.436  1.00  0.00     0.029 A 
ATOM     39  N   UNL A   1      45.191  26.500  27.205  1.00  0.00    -0.354 N 
ATOM     40  C   UNL A   1      41.326  27.621  28.784  1.00  0.00     0.074 A 
ATOM     41  C   UNL A   1      40.399  26.509  28.722  1.00  0.00     0.031 C 
ATOM     42  C   UNL A   1      46.705  25.135  26.288  1.00  0.00     0.029 A 
ATOM     43  C   UNL A   1      46.489  26.504  26.746  1.00  0.00     0.049 A 
ATOM     44  H   UNL A   1      44.759  27.289  27.604  1.00  0.00     0.167 HD
ATOM     45  C   UNL A   1      41.025  28.847  29.280  1.00  0.00     0.034 A 
ATOM     46  C   UNL A   1      47.399  27.499  26.685  1.00  0.00     0.034 A 
ATOM     47  C   UNL A   1      41.963  29.944  29.343  1.00  0.00     0.049 A 
ATOM     48  C   UNL A   1      47.022  28.868  27.196  1.00  0.00     0.074 A 
ATOM     49  C   UNL A   1      41.774  31.208  29.877  1.00  0.00     0.029 A 
ATOM     50  N   UNL A   1      43.259  29.918  28.846  1.00  0.00    -0.354 N 
ATOM     51  N   UNL A   1      45.890  29.270  27.726  1.00  0.00    -0.248 NA
ATOM     52  C   UNL A   1      48.049  29.914  27.109  1.00  0.00     0.031 C 
ATOM     53  C   UNL A   1      42.921  31.969  29.629  1.00  0.00     0.029 A 
ATOM     54  C   UNL A   1      43.864  31.155  29.023  1.00  0.00     0.049 A 
ATOM     55  H   UNL A   1      43.688  29.136  28.429  1.00  0.00     0.167 HD
ATOM     56  C   UNL A   1      46.086  30.606  28.068  1.00  0.00     0.074 A 
ATOM     57  C   UNL A   1      47.446  30.935  27.699  1.00  0.00     0.031 C 
ATOM     58  C   UNL A   1      45.219  31.480  28.643  1.00  0.00     0.034 A 
BRANCH  45  59
ATOM     59  C   UNL A   1      39.612  29.078  29.764  1.00  0.00     0.023 A 
ATOM     60  C   UNL A   1      38.688  29.834  29.022  1.00  0.00     0.031 A 
ATOM     61  C   UNL A   1      39.183  28.539  30.990  1.00  0.00     0.131 A 
ATOM     62  C   UNL A   1      37.411  30.091  29.546  1.00  0.00     0.055 A 
ATOM     63  C   UNL A   1      37.883  28.727  31.465  1.00  0.00     0.041 A 
ATOM     64  F   UNL A   1      40.025  27.825  31.755  1.00  0.00    -0.206 F 
ATOM     65  C   UNL A   1      36.993  29.519  30.749  1.00  0.00     0.022 A 
BRANCH  62  66
ATOM     66  S   UNL A   1      36.357  31.302  28.702  1.00  0.00     0.124 S 
ATOM     67  O   UNL A   1      37.265  32.439  28.566  1.00  0.00    -0.237 OA
ATOM     68  O   UNL A   1      36.008  30.610  27.467  1.00  0.00    -0.237 OA
ATOM     69  O   UNL A   1      35.253  31.507  29.638  1.00  0.00    -0.744 OA
ENDBRANCH  62  66
ENDBRANCH  45  59
BRANCH  46  70
ATOM     70  C   UNL A   1      48.752  27.256  26.102  1.00  0.00     0.023 A 
ATOM     71  C   UNL A   1      49.016  27.530  24.750  1.00  0.00     0.031 A 
ATOM     72  C   UNL A   1      49.783  26.689  26.873  1.00  0.00     0.131 A 
ATOM     73  C   UNL A   1      50.260  27.187  24.197  1.00  0.00     0.055 A 
ATOM     74  C   UNL A   1      51.039  26.408  26.333  1.00  0.00     0.041 A 
ATOM     75  F   UNL A   1      49.585  26.405  28.170  1.00  0.00    -0.206 F 
ATOM     76  C   UNL A   1      51.279  26.643  24.982  1.00  0.00     0.022 A 
BRANCH  73  77
ATOM     77  S   UNL A   1      50.491  27.365  22.407  1.00  0.00     0.124 S 
ATOM     78  O   UNL A   1      49.328  26.655  21.887  1.00  0.00    -0.237 OA
ATOM     79  O   UNL A   1      50.486  28.815  22.244  1.00  0.00    -0.237 OA
ATOM     80  O   UNL A   1      51.778  26.716  22.165  1.00  0.00    -0.744 OA
ENDBRANCH  73  77
ENDBRANCH  46  70
BRANCH  58  81
ATOM     81  C   UNL A   1      45.740  32.864  28.956  1.00  0.00     0.023 A 
ATOM     82  C   UNL A   1      45.630  33.926  28.041  1.00  0.00     0.031 A 
ATOM     83  C   UNL A   1      46.368  33.119  30.190  1.00  0.00     0.131 A 
ATOM     84  C   UNL A   1      46.191  35.175  28.348  1.00  0.00     0.055 A 
ATOM     85  C   UNL A   1      46.864  34.383  30.517  1.00  0.00     0.041 A 
ATOM     86  F   UNL A   1      46.506  32.143  31.101  1.00  0.00    -0.206 F 
ATOM     87  C   UNL A   1      46.790  35.415  29.588  1.00  0.00     0.022 A 
BRANCH  84  88
ATOM     88  S   UNL A   1      46.219  36.458  27.065  1.00  0.00     0.124 S 
ATOM     89  O   UNL A   1      44.944  37.132  27.282  1.00  0.00    -0.237 OA
ATOM     90  O   UNL A   1      47.412  37.221  27.414  1.00  0.00    -0.237 OA
ATOM     91  O   UNL A   1      46.314  35.697  25.820  1.00  0.00    -0.744 OA
ENDBRANCH  84  88
ENDBRANCH  58  81
ENDBRANCH  32  33
ENDBRANCH  24  27
ENDBRANCH  22  23
ENDBRANCH  21  22
ENDBRANCH  20  21
ENDBRANCH   1  20
TORSDOF 19
ENDMDL
MODEL 2
REMARK VINA RESULT:     -10.2      6.048      9.669
REMARK SMILES O=C(CC1(CSC[C@H]2C[C@H]3CC[C@@H]2C3)CC1)NCCCCNC(=O)c1ccc(-c2c3nc(c(-c4cc(S(=O)(=O)[O-])ccc4F)c4ccc([nH]4)c(-c4cc(S(=O)(=O)[O-])ccc4F)c4nc(c(-c5cc(S(=O)(=O)[O-])ccc5F)c5ccc2[nH]5)C=C4)C=C3)cc1
REMARK SMILES IDX 18 1 17 2 1 3 2 4 3 6 4 7 15 8 16 9 5 10 6 11 7 12 8 13 9 14
REMARK SMILES IDX 13 15 10 16 12 17 14 18 11 19 19 20 20 21 21 22 22 23 23 24
REMARK SMILES IDX 24 26 25 27 26 28 87 29 27 30 86 31 28 32 29 33 30 34 80 35
REMARK SMILES IDX 31 36 85 37 79 38 81 39 32 40 84 41 78 42 77 43 33 45 65 46
REMARK SMILES IDX 45 47 64 48 46 49 49 50 63 51 82 52 47 53 48 54 62 56 83 57
REMARK SMILES IDX 50 58 34 59 35 60 43 61 36 62 42 63 44 64 41 65 37 66 38 67
REMARK SMILES IDX 39 68 40 69 66 70 67 71 75 72 68 73 74 74 76 75 73 76 69 77
REMARK SMILES IDX 70 78 71 79 72 80 51 81 52 82 60 83 53 84 59 85 61 86 58 87
REMARK SMILES IDX 54 88 55 89 56 90 57 91
REMARK H PARENT 17 5 22 25 81 44 49 55
REMARK Flexibility Score: inf
ROOT
ATOM      1  C   UNL A   1      34.487  29.437  27.305  1.00  0.00     0.116 C 
ENDROOT
BRANCH   1   2
ATOM      2  N   UNL A   1      33.203  29.138  26.708  1.00  0.00    -0.356 N 
ATOM      3  O   UNL A   1      33.570  26.883  26.443  1.00  0.00    -0.275 OA
ATOM      4  C   UNL A   1      32.819  27.853  26.397  1.00  0.00     0.220 C 
ATOM      5  H   UNL A   1      32.584  29.879  26.516  1.00  0.00     0.163 HD
BRANCH   4   6
ATOM      6  C   UNL A   1      31.346  27.715  26.045  1.00  0.00     0.107 C 
BRANCH   6   7
ATOM      7  C   UNL A   1      31.110  26.836  24.818  1.00  0.00    -0.012 C 
ATOM      8  C   UNL A   1      30.844  25.353  25.084  1.00  0.00     0.009 C 
ATOM      9  C   UNL A   1      29.722  26.228  24.640  1.00  0.00     0.009 C 
BRANCH   7  10
ATOM     10  C   UNL A   1      32.026  27.074  23.635  1.00  0.00     0.077 C 
BRANCH  10  11
ATOM     11  S   UNL A   1      32.065  28.728  22.905  1.00  0.00    -0.161 SA
BRANCH  11  12
ATOM     12  C   UNL A   1      30.344  28.973  22.362  1.00  0.00     0.073 C 
BRANCH  12  13
ATOM     13  C   UNL A   1      29.307  29.650  23.274  1.00  0.00     0.002 C 
ATOM     14  C   UNL A   1      29.614  31.022  23.904  1.00  0.00     0.008 C 
ATOM     15  C   UNL A   1      27.936  29.907  22.572  1.00  0.00    -0.007 C 
ATOM     16  C   UNL A   1      28.472  31.910  23.382  1.00  0.00    -0.011 C 
ATOM     17  C   UNL A   1      28.100  30.754  21.302  1.00  0.00     0.004 C 
ATOM     18  C   UNL A   1      27.289  30.951  23.489  1.00  0.00     0.007 C 
ATOM     19  C   UNL A   1      28.620  32.087  21.860  1.00  0.00     0.004 C 
ENDBRANCH  12  13
ENDBRANCH  11  12
ENDBRANCH  10  11
ENDBRANCH   7  10
ENDBRANCH   6   7
ENDBRANCH   4   6
ENDBRANCH   1   2
BRANCH   1  20
ATOM     20  C   UNL A   1      34.621  30.901  27.718  1.00  0.00     0.023 C 
BRANCH  20  21
ATOM     21  C   UNL A   1      33.308  31.686  27.788  1.00  0.00     0.023 C 
BRANCH  21  22
ATOM     22  C   UNL A   1      33.352  33.103  27.214  1.00  0.00     0.116 C 
BRANCH  22  23
ATOM     23  N   UNL A   1      32.913  34.111  28.159  1.00  0.00    -0.352 N 
ATOM     24  C   UNL A   1      33.390  34.412  29.413  1.00  0.00     0.251 C 
ATOM     25  H   UNL A   1      32.157  34.665  27.857  1.00  0.00     0.163 HD
ATOM     26  O   UNL A   1      32.765  35.197  30.118  1.00  0.00    -0.269 OA
BRANCH  24  27
ATOM     27  C   UNL A   1      34.628  33.778  29.928  1.00  0.00     0.039 A 
ATOM     28  C   UNL A   1      34.518  32.841  30.960  1.00  0.00     0.014 A 
ATOM     29  C   UNL A   1      35.891  34.118  29.434  1.00  0.00     0.014 A 
ATOM     30  C   UNL A   1      35.662  32.201  31.450  1.00  0.00     0.010 A 
ATOM     31  C   UNL A   1      37.025  33.432  29.878  1.00  0.00     0.010 A 
ATOM     32  C   UNL A   1      36.923  32.462  30.888  1.00  0.00    -0.014 A 
BRANCH  32  33
ATOM     33  C   UNL A   1      38.133  31.719  31.343  1.00  0.00     0.031 A 
ATOM     34  C   UNL A   1      38.790  32.055  32.656  1.00  0.00     0.074 A 
ATOM     35  C   UNL A   1      38.669  30.767  30.551  1.00  0.00     0.049 A 
ATOM     36  N   UNL A   1      39.878  31.559  33.189  1.00  0.00    -0.248 NA
ATOM     37  C   UNL A   1      38.150  33.101  33.466  1.00  0.00     0.031 C 
ATOM     38  C   UNL A   1      38.142  30.362  29.246  1.00  0.00     0.029 A 
ATOM     39  N   UNL A   1      39.776  29.970  30.721  1.00  0.00    -0.354 N 
ATOM     40  C   UNL A   1      40.061  32.238  34.390  1.00  0.00     0.074 A 
ATOM     41  C   UNL A   1      38.998  33.218  34.477  1.00  0.00     0.031 C 
ATOM     42  C   UNL A   1      38.906  29.376  28.749  1.00  0.00     0.029 A 
ATOM     43  C   UNL A   1      40.010  29.114  29.668  1.00  0.00     0.049 A 
ATOM     44  H   UNL A   1      40.348  30.008  31.521  1.00  0.00     0.167 HD
ATOM     45  C   UNL A   1      41.013  32.049  35.338  1.00  0.00     0.034 A 
ATOM     46  C   UNL A   1      41.006  28.230  29.457  1.00  0.00     0.034 A 
ATOM     47  C   UNL A   1      42.062  31.061  35.241  1.00  0.00     0.049 A 
ATOM     48  C   UNL A   1      42.083  28.076  30.504  1.00  0.00     0.074 A 
ATOM     49  C   UNL A   1      43.042  30.753  36.170  1.00  0.00     0.029 A 
ATOM     50  N   UNL A   1      42.282  30.231  34.150  1.00  0.00    -0.354 N 
ATOM     51  N   UNL A   1      42.211  28.694  31.655  1.00  0.00    -0.248 NA
ATOM     52  C   UNL A   1      43.142  27.097  30.225  1.00  0.00     0.031 C 
ATOM     53  C   UNL A   1      43.899  29.801  35.610  1.00  0.00     0.029 A 
ATOM     54  C   UNL A   1      43.404  29.442  34.367  1.00  0.00     0.049 A 
ATOM     55  H   UNL A   1      41.722  30.204  33.340  1.00  0.00     0.167 HD
ATOM     56  C   UNL A   1      43.346  28.150  32.252  1.00  0.00     0.074 A 
ATOM     57  C   UNL A   1      43.854  27.145  31.341  1.00  0.00     0.031 C 
ATOM     58  C   UNL A   1      43.912  28.449  33.449  1.00  0.00     0.034 A 
BRANCH  45  59
ATOM     59  C   UNL A   1      40.984  32.953  36.549  1.00  0.00     0.023 A 
ATOM     60  C   UNL A   1      40.222  32.645  37.688  1.00  0.00     0.031 A 
ATOM     61  C   UNL A   1      41.728  34.147  36.561  1.00  0.00     0.131 A 
ATOM     62  C   UNL A   1      40.161  33.551  38.758  1.00  0.00     0.055 A 
ATOM     63  C   UNL A   1      41.732  35.003  37.665  1.00  0.00     0.041 A 
ATOM     64  F   UNL A   1      42.461  34.508  35.495  1.00  0.00    -0.206 F 
ATOM     65  C   UNL A   1      40.934  34.714  38.766  1.00  0.00     0.022 A 
BRANCH  62  66
ATOM     66  S   UNL A   1      38.948  33.259  40.074  1.00  0.00     0.124 S 
ATOM     67  O   UNL A   1      38.896  34.567  40.724  1.00  0.00    -0.237 OA
ATOM     68  O   UNL A   1      37.759  32.869  39.326  1.00  0.00    -0.237 OA
ATOM     69  O   UNL A   1      39.559  32.200  40.874  1.00  0.00    -0.744 OA
ENDBRANCH  62  66
ENDBRANCH  45  59
BRANCH  46  70
ATOM     70  C   UNL A   1      41.057  27.429  28.197  1.00  0.00     0.023 A 
ATOM     71  C   UNL A   1      40.771  26.055  28.203  1.00  0.00     0.031 A 
ATOM     72  C   UNL A   1      41.450  28.015  26.980  1.00  0.00     0.131 A 
ATOM     73  C   UNL A   1      40.936  25.301  27.030  1.00  0.00     0.055 A 
ATOM     74  C   UNL A   1      41.551  27.273  25.802  1.00  0.00     0.041 A 
ATOM     75  F   UNL A   1      41.737  29.325  26.917  1.00  0.00    -0.206 F 
ATOM     76  C   UNL A   1      41.309  25.903  25.826  1.00  0.00     0.022 A 
BRANCH  73  77
ATOM     77  S   UNL A   1      40.759  23.498  27.126  1.00  0.00     0.124 S 
ATOM     78  O   UNL A   1      41.532  23.063  25.968  1.00  0.00    -0.237 OA
ATOM     79  O   UNL A   1      41.338  23.206  28.433  1.00  0.00    -0.237 OA
ATOM     80  O   UNL A   1      39.315  23.293  27.026  1.00  0.00    -0.744 OA
ENDBRANCH  73  77
ENDBRANCH  46  70
BRANCH  58  81
ATOM     81  C   UNL A   1      45.119  27.640  33.865  1.00  0.00     0.023 A 
ATOM     82  C   UNL A   1      45.001  26.465  34.629  1.00  0.00     0.031 A 
ATOM     83  C   UNL A   1      46.411  28.060  33.498  1.00  0.00     0.131 A 
ATOM     84  C   UNL A   1      46.154  25.785  35.051  1.00  0.00     0.055 A 
ATOM     85  C   UNL A   1      47.551  27.342  33.863  1.00  0.00     0.041 A 
ATOM     86  F   UNL A   1      46.587  29.176  32.773  1.00  0.00    -0.206 F 
ATOM     87  C   UNL A   1      47.428  26.206  34.655  1.00  0.00     0.022 A 
BRANCH  84  88
ATOM     88  S   UNL A   1      45.976  24.400  36.208  1.00  0.00     0.124 S 
ATOM     89  O   UNL A   1      45.339  23.387  35.374  1.00  0.00    -0.237 OA
ATOM     90  O   UNL A   1      47.359  24.133  36.589  1.00  0.00    -0.237 OA
ATOM     91  O   UNL A   1      45.135  24.946  37.272  1.00  0.00    -0.744 OA
ENDBRANCH  84  88
ENDBRANCH  58  81
ENDBRANCH  32  33
ENDBRANCH  24  27
ENDBRANCH  22  23
ENDBRANCH  21  22
ENDBRANCH  20  21
ENDBRANCH   1  20
TORSDOF 19
ENDMDL
MODEL 3
REMARK VINA RESULT:     -10.2      2.368      8.161
REMARK SMILES O=C(CC1(CSC[C@H]2C[C@H]3CC[C@@H]2C3)CC1)NCCCCNC(=O)c1ccc(-c2c3nc(c(-c4cc(S(=O)(=O)[O-])ccc4F)c4ccc([nH]4)c(-c4cc(S(=O)(=O)[O-])ccc4F)c4nc(c(-c5cc(S(=O)(=O)[O-])ccc5F)c5ccc2[nH]5)C=C4)C=C3)cc1
REMARK SMILES IDX 18 1 17 2 1 3 2 4 3 6 4 7 15 8 16 9 5 10 6 11 7 12 8 13 9 14
REMARK SMILES IDX 13 15 10 16 12 17 14 18 11 19 19 20 20 21 21 22 22 23 23 24
REMARK SMILES IDX 24 26 25 27 26 28 87 29 27 30 86 31 28 32 29 33 30 34 80 35
REMARK SMILES IDX 31 36 85 37 79 38 81 39 32 40 84 41 78 42 77 43 33 45 65 46
REMARK SMILES IDX 45 47 64 48 46 49 49 50 63 51 82 52 47 53 48 54 62 56 83 57
REMARK SMILES IDX 50 58 34 59 35 60 43 61 36 62 42 63 44 64 41 65 37 66 38 67
REMARK SMILES IDX 39 68 40 69 66 70 67 71 75 72 68 73 74 74 76 75 73 76 69 77
REMARK SMILES IDX 70 78 71 79 72 80 51 81 52 82 60 83 53 84 59 85 61 86 58 87
REMARK SMILES IDX 54 88 55 89 56 90 57 91
REMARK H PARENT 17 5 22 25 81 44 49 55
REMARK Flexibility Score: inf
ROOT
ATOM      1  C   UNL A   1      34.642  21.789  24.811  1.00  0.00     0.116 C 
ENDROOT
BRANCH   1   2
ATOM      2  N   UNL A   1      33.353  22.428  24.961  1.00  0.00    -0.356 N 
ATOM      3  O   UNL A   1      34.028  23.996  26.503  1.00  0.00    -0.275 OA
ATOM      4  C   UNL A   1      33.173  23.545  25.746  1.00  0.00     0.220 C 
ATOM      5  H   UNL A   1      32.577  22.051  24.486  1.00  0.00     0.163 HD
BRANCH   4   6
ATOM      6  C   UNL A   1      31.827  24.227  25.553  1.00  0.00     0.107 C 
BRANCH   6   7
ATOM      7  C   UNL A   1      31.675  24.855  24.168  1.00  0.00    -0.012 C 
ATOM      8  C   UNL A   1      30.878  24.049  23.140  1.00  0.00     0.009 C 
ATOM      9  C   UNL A   1      30.274  25.275  23.734  1.00  0.00     0.009 C 
BRANCH   7  10
ATOM     10  C   UNL A   1      32.912  25.508  23.587  1.00  0.00     0.077 C 
BRANCH  10  11
ATOM     11  S   UNL A   1      32.725  27.101  22.753  1.00  0.00    -0.161 SA
BRANCH  11  12
ATOM     12  C   UNL A   1      31.874  28.117  24.003  1.00  0.00     0.073 C 
BRANCH  12  13
ATOM     13  C   UNL A   1      32.655  29.063  24.930  1.00  0.00     0.002 C 
ATOM     14  C   UNL A   1      31.900  30.081  25.806  1.00  0.00     0.008 C 
ATOM     15  C   UNL A   1      33.540  28.316  25.978  1.00  0.00    -0.007 C 
ATOM     16  C   UNL A   1      32.337  29.706  27.232  1.00  0.00    -0.011 C 
ATOM     17  C   UNL A   1      32.707  27.358  26.842  1.00  0.00     0.004 C 
ATOM     18  C   UNL A   1      33.819  29.412  27.012  1.00  0.00     0.007 C 
ATOM     19  C   UNL A   1      31.771  28.319  27.590  1.00  0.00     0.004 C 
ENDBRANCH  12  13
ENDBRANCH  11  12
ENDBRANCH  10  11
ENDBRANCH   7  10
ENDBRANCH   6   7
ENDBRANCH   4   6
ENDBRANCH   1   2
BRANCH   1  20
ATOM     20  C   UNL A   1      35.548  22.510  23.816  1.00  0.00     0.023 C 
BRANCH  20  21
ATOM     21  C   UNL A   1      37.004  22.682  24.258  1.00  0.00     0.023 C 
BRANCH  21  22
ATOM     22  C   UNL A   1      37.278  22.437  25.743  1.00  0.00     0.116 C 
BRANCH  22  23
ATOM     23  N   UNL A   1      38.441  21.601  25.975  1.00  0.00    -0.352 N 
ATOM     24  C   UNL A   1      39.701  21.943  26.407  1.00  0.00     0.251 C 
ATOM     25  H   UNL A   1      38.307  20.643  25.794  1.00  0.00     0.163 HD
ATOM     26  O   UNL A   1      40.592  21.100  26.377  1.00  0.00    -0.269 OA
BRANCH  24  27
ATOM     27  C   UNL A   1      39.997  23.318  26.878  1.00  0.00     0.039 A 
ATOM     28  C   UNL A   1      40.809  23.477  28.004  1.00  0.00     0.014 A 
ATOM     29  C   UNL A   1      39.460  24.445  26.247  1.00  0.00     0.014 A 
ATOM     30  C   UNL A   1      41.134  24.760  28.458  1.00  0.00     0.010 A 
ATOM     31  C   UNL A   1      39.837  25.725  26.661  1.00  0.00     0.010 A 
ATOM     32  C   UNL A   1      40.682  25.898  27.769  1.00  0.00    -0.014 A 
BRANCH  32  33
ATOM     33  C   UNL A   1      41.097  27.265  28.193  1.00  0.00     0.031 A 
ATOM     34  C   UNL A   1      42.553  27.649  28.226  1.00  0.00     0.074 A 
ATOM     35  C   UNL A   1      40.163  28.153  28.593  1.00  0.00     0.049 A 
ATOM     36  N   UNL A   1      43.107  28.768  28.620  1.00  0.00    -0.248 NA
ATOM     37  C   UNL A   1      43.514  26.631  27.776  1.00  0.00     0.031 C 
ATOM     38  C   UNL A   1      38.720  27.899  28.629  1.00  0.00     0.029 A 
ATOM     39  N   UNL A   1      40.281  29.444  29.049  1.00  0.00    -0.354 N 
ATOM     40  C   UNL A   1      44.479  28.588  28.477  1.00  0.00     0.074 A 
ATOM     41  C   UNL A   1      44.672  27.230  28.010  1.00  0.00     0.031 C 
ATOM     42  C   UNL A   1      38.089  29.005  29.054  1.00  0.00     0.029 A 
ATOM     43  C   UNL A   1      39.079  30.030  29.374  1.00  0.00     0.049 A 
ATOM     44  H   UNL A   1      41.145  29.907  29.134  1.00  0.00     0.167 HD
ATOM     45  C   UNL A   1      45.481  29.476  28.695  1.00  0.00     0.034 A 
ATOM     46  C   UNL A   1      38.802  31.246  29.888  1.00  0.00     0.034 A 
ATOM     47  C   UNL A   1      45.273  30.830  29.153  1.00  0.00     0.049 A 
ATOM     48  C   UNL A   1      39.939  32.197  30.171  1.00  0.00     0.074 A 
ATOM     49  C   UNL A   1      46.215  31.826  29.353  1.00  0.00     0.029 A 
ATOM     50  N   UNL A   1      44.044  31.379  29.497  1.00  0.00    -0.354 N 
ATOM     51  N   UNL A   1      41.227  32.025  29.984  1.00  0.00    -0.248 NA
ATOM     52  C   UNL A   1      39.582  33.510  30.726  1.00  0.00     0.031 C 
ATOM     53  C   UNL A   1      45.571  32.942  29.894  1.00  0.00     0.029 A 
ATOM     54  C   UNL A   1      44.211  32.682  29.946  1.00  0.00     0.049 A 
ATOM     55  H   UNL A   1      43.180  30.912  29.430  1.00  0.00     0.167 HD
ATOM     56  C   UNL A   1      41.828  33.223  30.364  1.00  0.00     0.074 A 
ATOM     57  C   UNL A   1      40.761  34.111  30.777  1.00  0.00     0.031 C 
ATOM     58  C   UNL A   1      43.144  33.560  30.366  1.00  0.00     0.034 A 
BRANCH  45  59
ATOM     59  C   UNL A   1      46.899  29.001  28.475  1.00  0.00     0.023 A 
ATOM     60  C   UNL A   1      47.437  28.842  27.187  1.00  0.00     0.031 A 
ATOM     61  C   UNL A   1      47.724  28.695  29.572  1.00  0.00     0.131 A 
ATOM     62  C   UNL A   1      48.731  28.322  27.026  1.00  0.00     0.055 A 
ATOM     63  C   UNL A   1      49.041  28.260  29.407  1.00  0.00     0.041 A 
ATOM     64  F   UNL A   1      47.262  28.806  30.828  1.00  0.00    -0.206 F 
ATOM     65  C   UNL A   1      49.547  28.057  28.128  1.00  0.00     0.022 A 
BRANCH  62  66
ATOM     66  S   UNL A   1      49.279  27.861  25.360  1.00  0.00     0.124 S 
ATOM     67  O   UNL A   1      50.399  28.777  25.154  1.00  0.00    -0.237 OA
ATOM     68  O   UNL A   1      49.625  26.453  25.520  1.00  0.00    -0.237 OA
ATOM     69  O   UNL A   1      48.108  28.127  24.528  1.00  0.00    -0.744 OA
ENDBRANCH  62  66
ENDBRANCH  45  59
BRANCH  46  70
ATOM     70  C   UNL A   1      37.394  31.640  30.191  1.00  0.00     0.023 A 
ATOM     71  C   UNL A   1      36.603  32.293  29.231  1.00  0.00     0.031 A 
ATOM     72  C   UNL A   1      36.837  31.424  31.465  1.00  0.00     0.131 A 
ATOM     73  C   UNL A   1      35.323  32.755  29.575  1.00  0.00     0.055 A 
ATOM     74  C   UNL A   1      35.540  31.830  31.783  1.00  0.00     0.041 A 
ATOM     75  F   UNL A   1      37.549  30.806  32.421  1.00  0.00    -0.206 F 
ATOM     76  C   UNL A   1      34.780  32.514  30.839  1.00  0.00     0.022 A 
BRANCH  73  77
ATOM     77  S   UNL A   1      34.417  33.772  28.377  1.00  0.00     0.124 S 
ATOM     78  O   UNL A   1      34.069  34.937  29.183  1.00  0.00    -0.237 OA
ATOM     79  O   UNL A   1      35.421  33.984  27.340  1.00  0.00    -0.237 OA
ATOM     80  O   UNL A   1      33.293  32.921  27.992  1.00  0.00    -0.744 OA
ENDBRANCH  73  77
ENDBRANCH  46  70
BRANCH  58  81
ATOM     81  C   UNL A   1      43.495  34.971  30.779  1.00  0.00     0.023 A 
ATOM     82  C   UNL A   1      43.476  36.040  29.866  1.00  0.00     0.031 A 
ATOM     83  C   UNL A   1      43.867  35.245  32.108  1.00  0.00     0.131 A 
ATOM     84  C   UNL A   1      43.878  37.320  30.279  1.00  0.00     0.055 A 
ATOM     85  C   UNL A   1      44.201  36.533  32.529  1.00  0.00     0.041 A 
ATOM     86  F   UNL A   1      43.909  34.263  33.022  1.00  0.00    -0.206 F 
ATOM     87  C   UNL A   1      44.221  37.577  31.610  1.00  0.00     0.022 A 
BRANCH  84  88
ATOM     88  S   UNL A   1      44.045  38.627  29.032  1.00  0.00     0.124 S 
ATOM     89  O   UNL A   1      45.493  38.781  28.945  1.00  0.00    -0.237 OA
ATOM     90  O   UNL A   1      43.396  38.033  27.869  1.00  0.00    -0.237 OA
ATOM     91  O   UNL A   1      43.336  39.760  29.625  1.00  0.00    -0.744 OA
ENDBRANCH  84  88
ENDBRANCH  58  81
ENDBRANCH  32  33
ENDBRANCH  24  27
ENDBRANCH  22  23
ENDBRANCH  21  22
ENDBRANCH  20  21
ENDBRANCH   1  20
TORSDOF 19
ENDMDL
