MODEL 1
REMARK VINA RESULT:     -13.8      0.000      0.000
REMARK SMILES C[N@H+]1CCO[C@H](c2noc(-c3ccccc3C(=O)NCCCCNC(=O)c3ccc(-c4c5nc(c(-c6cc(S(=O)(=O)[O-])ccc6F)c6ccc([nH]6)c(-c6cc(S(=O)(=O)[O-])ccc6F)c6nc(c(-c7cc(S(=O)(=O)[O-])ccc7F)c7ccc4[nH]7)C=C6)C=C5)cc3)n2)C1
REMARK SMILES IDX 22 1 21 2 20 3 19 4 17 5 18 6 16 8 11 9 12 10 13 11 15 12
REMARK SMILES IDX 14 13 10 14 7 15 8 16 90 17 9 18 6 19 1 20 2 21 3 22 91 23
REMARK SMILES IDX 4 25 5 26 23 27 24 28 25 29 26 31 27 32 28 33 89 34 29 35
REMARK SMILES IDX 88 36 30 37 31 38 32 39 82 40 33 41 87 42 81 43 83 44 34 45
REMARK SMILES IDX 86 46 80 47 79 48 35 50 67 51 47 52 66 53 48 54 51 55 65 56
REMARK SMILES IDX 84 57 49 58 50 59 64 61 85 62 52 63 36 64 37 65 45 66 38 67
REMARK SMILES IDX 44 68 46 69 43 70 39 71 40 72 41 73 42 74 68 75 69 76 77 77
REMARK SMILES IDX 70 78 76 79 78 80 75 81 71 82 72 83 73 84 74 85 53 86 54 87
REMARK SMILES IDX 62 88 55 89 61 90 63 91 60 92 56 93 57 94 58 95 59 96
REMARK H PARENT 19 7 2 24 24 30 83 49 51 60
REMARK Flexibility Score: inf
ROOT
ATOM      1  C   UNL A   1      36.244  22.562  23.642  1.00  0.00     0.023 C 
ENDROOT
BRANCH   1   2
ATOM      2  C   UNL A   1      35.911  23.749  24.557  1.00  0.00     0.023 C 
BRANCH   2   3
ATOM      3  C   UNL A   1      35.451  23.429  25.969  1.00  0.00     0.116 C 
BRANCH   3   4
ATOM      4  N   UNL A   1      34.036  23.106  25.940  1.00  0.00    -0.352 N 
ATOM      5  C   UNL A   1      33.641  21.803  26.104  1.00  0.00     0.252 C 
ATOM      6  O   UNL A   1      33.472  21.354  27.235  1.00  0.00    -0.269 OA
ATOM      7  H   UNL A   1      33.368  23.814  25.803  1.00  0.00     0.163 HD
BRANCH   5   8
ATOM      8  C   UNL A   1      33.133  21.059  24.915  1.00  0.00     0.052 A 
ATOM      9  C   UNL A   1      32.437  21.564  23.799  1.00  0.00     0.053 A 
ATOM     10  C   UNL A   1      32.061  20.652  22.784  1.00  0.00     0.015 A 
ATOM     11  C   UNL A   1      32.340  19.287  22.869  1.00  0.00     0.001 A 
ATOM     12  C   UNL A   1      33.399  19.670  24.986  1.00  0.00     0.014 A 
ATOM     13  C   UNL A   1      33.004  18.793  23.979  1.00  0.00     0.001 A 
BRANCH   9  14
ATOM     14  C   UNL A   1      32.074  22.953  23.551  1.00  0.00     0.258 A 
ATOM     15  C   UNL A   1      31.786  24.966  22.970  1.00  0.00     0.206 A 
ATOM     16  N   UNL A   1      30.563  24.582  23.365  1.00  0.00    -0.059 NA
ATOM     17  N   UNL A   1      32.740  23.957  23.026  1.00  0.00    -0.189 NA
ATOM     18  O   UNL A   1      30.750  23.253  23.750  1.00  0.00    -0.334 OA
BRANCH  15  19
ATOM     19  C   UNL A   1      32.124  26.433  22.700  1.00  0.00     0.245 C 
ATOM     20  C   UNL A   1      32.974  29.452  25.922  1.00  0.00     0.332 C 
ATOM     21  N   UNL A   1      32.097  28.735  25.039  1.00  0.00    -0.333 N 
ATOM     22  C   UNL A   1      30.758  29.622  24.167  1.00  0.00     0.290 C 
ATOM     23  C   UNL A   1      32.879  27.303  24.274  1.00  0.00     0.303 C 
ATOM     24  H   UNL A   1      31.411  28.317  25.668  1.00  0.00     0.348 HD
ATOM     25  C   UNL A   1      30.065  28.963  22.460  1.00  0.00     0.222 C 
ATOM     26  O   UNL A   1      30.718  27.313  21.852  1.00  0.00    -0.358 OA
ENDBRANCH  15  19
ENDBRANCH   9  14
ENDBRANCH   5   8
ENDBRANCH   3   4
ENDBRANCH   2   3
ENDBRANCH   1   2
BRANCH   1  27
ATOM     27  C   UNL A   1      37.155  21.373  24.325  1.00  0.00     0.116 C 
BRANCH  27  28
ATOM     28  N   UNL A   1      38.852  21.474  25.408  1.00  0.00    -0.352 N 
ATOM     29  C   UNL A   1      39.745  21.786  26.487  1.00  0.00     0.251 C 
ATOM     30  H   UNL A   1      39.472  21.004  24.803  1.00  0.00     0.163 HD
ATOM     31  O   UNL A   1      40.716  21.029  26.621  1.00  0.00    -0.269 OA
BRANCH  29  32
ATOM     32  C   UNL A   1      39.875  23.100  27.189  1.00  0.00     0.039 A 
ATOM     33  C   UNL A   1      41.000  23.341  27.989  1.00  0.00     0.014 A 
ATOM     34  C   UNL A   1      38.951  24.124  27.038  1.00  0.00     0.014 A 
ATOM     35  C   UNL A   1      41.306  24.645  28.419  1.00  0.00     0.010 A 
ATOM     36  C   UNL A   1      39.331  25.438  27.329  1.00  0.00     0.010 A 
ATOM     37  C   UNL A   1      40.538  25.737  27.989  1.00  0.00    -0.014 A 
BRANCH  37  38
ATOM     38  C   UNL A   1      40.955  27.171  28.191  1.00  0.00     0.031 A 
ATOM     39  C   UNL A   1      42.311  27.640  27.705  1.00  0.00     0.074 A 
ATOM     40  C   UNL A   1      40.219  28.037  28.926  1.00  0.00     0.049 A 
ATOM     41  N   UNL A   1      43.023  28.673  28.080  1.00  0.00    -0.248 NA
ATOM     42  C   UNL A   1      42.990  26.767  26.740  1.00  0.00     0.031 C 
ATOM     43  C   UNL A   1      38.923  27.760  29.554  1.00  0.00     0.029 A 
ATOM     44  N   UNL A   1      40.473  29.342  29.285  1.00  0.00    -0.354 N 
ATOM     45  C   UNL A   1      44.287  28.486  27.521  1.00  0.00     0.074 A 
ATOM     46  C   UNL A   1      44.229  27.232  26.796  1.00  0.00     0.031 C 
ATOM     47  C   UNL A   1      38.474  28.871  30.161  1.00  0.00     0.029 A 
ATOM     48  C   UNL A   1      39.472  29.926  30.029  1.00  0.00     0.049 A 
ATOM     49  H   UNL A   1      41.297  29.817  29.031  1.00  0.00     0.167 HD
ATOM     50  C   UNL A   1      45.387  29.280  27.603  1.00  0.00     0.034 A 
ATOM     51  C   UNL A   1      39.367  31.163  30.557  1.00  0.00     0.034 A 
ATOM     52  C   UNL A   1      45.380  30.608  28.171  1.00  0.00     0.049 A 
ATOM     53  C   UNL A   1      40.501  32.140  30.397  1.00  0.00     0.074 A 
ATOM     54  C   UNL A   1      46.405  31.539  28.219  1.00  0.00     0.029 A 
ATOM     55  N   UNL A   1      44.269  31.218  28.735  1.00  0.00    -0.354 N 
ATOM     56  N   UNL A   1      41.702  31.930  29.913  1.00  0.00    -0.248 NA
ATOM     57  C   UNL A   1      40.265  33.519  30.848  1.00  0.00     0.031 C 
ATOM     58  C   UNL A   1      45.914  32.711  28.807  1.00  0.00     0.029 A 
ATOM     59  C   UNL A   1      44.573  32.522  29.094  1.00  0.00     0.049 A 
ATOM     60  H   UNL A   1      43.392  30.788  28.861  1.00  0.00     0.167 HD
ATOM     61  C   UNL A   1      42.356  33.156  29.987  1.00  0.00     0.074 A 
ATOM     62  C   UNL A   1      41.416  34.103  30.548  1.00  0.00     0.031 C 
ATOM     63  C   UNL A   1      43.625  33.465  29.628  1.00  0.00     0.034 A 
BRANCH  50  64
ATOM     64  C   UNL A   1      46.692  28.718  27.084  1.00  0.00     0.023 A 
ATOM     65  C   UNL A   1      46.968  28.616  25.713  1.00  0.00     0.031 A 
ATOM     66  C   UNL A   1      47.642  28.198  27.983  1.00  0.00     0.131 A 
ATOM     67  C   UNL A   1      48.082  27.884  25.277  1.00  0.00     0.055 A 
ATOM     68  C   UNL A   1      48.813  27.576  27.542  1.00  0.00     0.041 A 
ATOM     69  F   UNL A   1      47.437  28.258  29.308  1.00  0.00    -0.206 F 
ATOM     70  C   UNL A   1      49.024  27.389  26.180  1.00  0.00     0.022 A 
BRANCH  67  71
ATOM     71  S   UNL A   1      48.161  27.414  23.527  1.00  0.00     0.124 S 
ATOM     72  O   UNL A   1      47.132  28.276  22.951  1.00  0.00    -0.237 OA
ATOM     73  O   UNL A   1      49.537  27.739  23.172  1.00  0.00    -0.237 OA
ATOM     74  O   UNL A   1      47.838  25.988  23.540  1.00  0.00    -0.744 OA
ENDBRANCH  67  71
ENDBRANCH  50  64
BRANCH  51  75
ATOM     75  C   UNL A   1      38.131  31.577  31.276  1.00  0.00     0.023 A 
ATOM     76  C   UNL A   1      37.068  32.168  30.574  1.00  0.00     0.031 A 
ATOM     77  C   UNL A   1      38.011  31.434  32.667  1.00  0.00     0.131 A 
ATOM     78  C   UNL A   1      35.947  32.642  31.271  1.00  0.00     0.055 A 
ATOM     79  C   UNL A   1      36.876  31.874  33.353  1.00  0.00     0.041 A 
ATOM     80  F   UNL A   1      38.995  30.861  33.378  1.00  0.00    -0.206 F 
ATOM     81  C   UNL A   1      35.841  32.492  32.656  1.00  0.00     0.022 A 
BRANCH  78  82
ATOM     82  S   UNL A   1      34.661  33.522  30.345  1.00  0.00     0.124 S 
ATOM     83  O   UNL A   1      33.922  34.184  31.414  1.00  0.00    -0.237 OA
ATOM     84  O   UNL A   1      35.453  34.390  29.480  1.00  0.00    -0.237 OA
ATOM     85  O   UNL A   1      33.943  32.450  29.658  1.00  0.00    -0.744 OA
ENDBRANCH  78  82
ENDBRANCH  51  75
BRANCH  63  86
ATOM     86  C   UNL A   1      44.041  34.905  29.756  1.00  0.00     0.023 A 
ATOM     87  C   UNL A   1      43.820  35.834  28.726  1.00  0.00     0.031 A 
ATOM     88  C   UNL A   1      44.684  35.343  30.927  1.00  0.00     0.131 A 
ATOM     89  C   UNL A   1      44.274  37.154  28.872  1.00  0.00     0.055 A 
ATOM     90  C   UNL A   1      45.105  36.664  31.078  1.00  0.00     0.041 A 
ATOM     91  F   UNL A   1      44.918  34.489  31.936  1.00  0.00    -0.206 F 
ATOM     92  C   UNL A   1      44.907  37.576  30.045  1.00  0.00     0.022 A 
BRANCH  89  93
ATOM     93  S   UNL A   1      44.069  38.308  27.488  1.00  0.00     0.124 S 
ATOM     94  O   UNL A   1      45.411  38.337  26.913  1.00  0.00    -0.237 OA
ATOM     95  O   UNL A   1      43.045  37.651  26.682  1.00  0.00    -0.237 OA
ATOM     96  O   UNL A   1      43.645  39.549  28.133  1.00  0.00    -0.744 OA
ENDBRANCH  89  93
ENDBRANCH  63  86
ENDBRANCH  37  38
ENDBRANCH  29  32
ENDBRANCH  27  28
ENDBRANCH   1  27
TORSDOF 16
ENDMDL
MODEL 2
REMARK VINA RESULT:     -13.7      1.684      2.000
REMARK SMILES C[N@H+]1CCO[C@H](c2noc(-c3ccccc3C(=O)NCCCCNC(=O)c3ccc(-c4c5nc(c(-c6cc(S(=O)(=O)[O-])ccc6F)c6ccc([nH]6)c(-c6cc(S(=O)(=O)[O-])ccc6F)c6nc(c(-c7cc(S(=O)(=O)[O-])ccc7F)c7ccc4[nH]7)C=C6)C=C5)cc3)n2)C1
REMARK SMILES IDX 22 1 21 2 20 3 19 4 17 5 18 6 16 8 11 9 12 10 13 11 15 12
REMARK SMILES IDX 14 13 10 14 7 15 8 16 90 17 9 18 6 19 1 20 2 21 3 22 91 23
REMARK SMILES IDX 4 25 5 26 23 27 24 28 25 29 26 31 27 32 28 33 89 34 29 35
REMARK SMILES IDX 88 36 30 37 31 38 32 39 82 40 33 41 87 42 81 43 83 44 34 45
REMARK SMILES IDX 86 46 80 47 79 48 35 50 67 51 47 52 66 53 48 54 51 55 65 56
REMARK SMILES IDX 84 57 49 58 50 59 64 61 85 62 52 63 36 64 37 65 45 66 38 67
REMARK SMILES IDX 44 68 46 69 43 70 39 71 40 72 41 73 42 74 68 75 69 76 77 77
REMARK SMILES IDX 70 78 76 79 78 80 75 81 71 82 72 83 73 84 74 85 53 86 54 87
REMARK SMILES IDX 62 88 55 89 61 90 63 91 60 92 56 93 57 94 58 95 59 96
REMARK H PARENT 19 7 2 24 24 30 83 49 51 60
REMARK Flexibility Score: inf
ROOT
ATOM      1  C   UNL A   1      36.830  20.151  24.751  1.00  0.00     0.023 C 
ENDROOT
BRANCH   1   2
ATOM      2  C   UNL A   1      37.025  21.660  24.552  1.00  0.00     0.023 C 
BRANCH   2   3
ATOM      3  C   UNL A   1      36.405  22.582  25.588  1.00  0.00     0.116 C 
BRANCH   3   4
ATOM      4  N   UNL A   1      35.166  23.121  25.056  1.00  0.00    -0.352 N 
ATOM      5  C   UNL A   1      33.979  22.509  25.364  1.00  0.00     0.252 C 
ATOM      6  O   UNL A   1      33.385  22.813  26.395  1.00  0.00    -0.269 OA
ATOM      7  H   UNL A   1      35.179  23.918  24.479  1.00  0.00     0.163 HD
BRANCH   5   8
ATOM      8  C   UNL A   1      33.289  21.719  24.302  1.00  0.00     0.052 A 
ATOM      9  C   UNL A   1      32.775  22.171  23.071  1.00  0.00     0.053 A 
ATOM     10  C   UNL A   1      32.163  21.220  22.220  1.00  0.00     0.015 A 
ATOM     11  C   UNL A   1      32.041  19.875  22.571  1.00  0.00     0.001 A 
ATOM     12  C   UNL A   1      33.150  20.352  24.644  1.00  0.00     0.014 A 
ATOM     13  C   UNL A   1      32.528  19.441  23.793  1.00  0.00     0.001 A 
BRANCH   9  14
ATOM     14  C   UNL A   1      32.824  23.531  22.551  1.00  0.00     0.258 A 
ATOM     15  C   UNL A   1      32.981  25.590  22.096  1.00  0.00     0.206 A 
ATOM     16  N   UNL A   1      33.279  24.995  20.932  1.00  0.00    -0.059 NA
ATOM     17  N   UNL A   1      32.742  24.703  23.139  1.00  0.00    -0.189 NA
ATOM     18  O   UNL A   1      33.177  23.634  21.228  1.00  0.00    -0.334 OA
BRANCH  15  19
ATOM     19  C   UNL A   1      32.717  27.094  22.191  1.00  0.00     0.245 C 
ATOM     20  C   UNL A   1      33.601  29.577  25.834  1.00  0.00     0.332 C 
ATOM     21  N   UNL A   1      32.754  28.741  25.029  1.00  0.00    -0.333 N 
ATOM     22  C   UNL A   1      30.989  29.166  24.820  1.00  0.00     0.290 C 
ATOM     23  C   UNL A   1      33.643  27.897  23.708  1.00  0.00     0.303 C 
ATOM     24  H   UNL A   1      32.497  27.981  25.659  1.00  0.00     0.348 HD
ATOM     25  C   UNL A   1      30.005  28.602  23.225  1.00  0.00     0.222 C 
ATOM     26  O   UNL A   1      30.904  27.482  22.017  1.00  0.00    -0.358 OA
ENDBRANCH  15  19
ENDBRANCH   9  14
ENDBRANCH   5   8
ENDBRANCH   3   4
ENDBRANCH   2   3
ENDBRANCH   1   2
BRANCH   1  27
ATOM     27  C   UNL A   1      38.206  19.284  25.007  1.00  0.00     0.116 C 
BRANCH  27  28
ATOM     28  N   UNL A   1      39.926  19.790  25.928  1.00  0.00    -0.352 N 
ATOM     29  C   UNL A   1      40.820  20.376  26.886  1.00  0.00     0.251 C 
ATOM     30  H   UNL A   1      40.576  19.346  25.337  1.00  0.00     0.163 HD
ATOM     31  O   UNL A   1      41.908  19.804  27.031  1.00  0.00    -0.269 OA
BRANCH  29  32
ATOM     32  C   UNL A   1      40.775  21.776  27.411  1.00  0.00     0.039 A 
ATOM     33  C   UNL A   1      41.701  22.172  28.386  1.00  0.00     0.014 A 
ATOM     34  C   UNL A   1      39.884  22.726  26.933  1.00  0.00     0.014 A 
ATOM     35  C   UNL A   1      41.885  23.534  28.684  1.00  0.00     0.010 A 
ATOM     36  C   UNL A   1      40.170  24.084  27.113  1.00  0.00     0.010 A 
ATOM     37  C   UNL A   1      41.205  24.523  27.959  1.00  0.00    -0.014 A 
BRANCH  37  38
ATOM     38  C   UNL A   1      41.544  25.989  28.043  1.00  0.00     0.031 A 
ATOM     39  C   UNL A   1      42.809  26.512  27.394  1.00  0.00     0.074 A 
ATOM     40  C   UNL A   1      40.830  26.849  28.806  1.00  0.00     0.049 A 
ATOM     41  N   UNL A   1      43.484  27.607  27.639  1.00  0.00    -0.248 NA
ATOM     42  C   UNL A   1      43.444  25.628  26.409  1.00  0.00     0.031 C 
ATOM     43  C   UNL A   1      39.625  26.530  29.579  1.00  0.00     0.029 A 
ATOM     44  N   UNL A   1      41.030  28.186  29.069  1.00  0.00    -0.354 N 
ATOM     45  C   UNL A   1      44.695  27.465  26.961  1.00  0.00     0.074 A 
ATOM     46  C   UNL A   1      44.648  26.171  26.311  1.00  0.00     0.031 C 
ATOM     47  C   UNL A   1      39.167  27.645  30.173  1.00  0.00     0.029 A 
ATOM     48  C   UNL A   1      40.073  28.749  29.884  1.00  0.00     0.049 A 
ATOM     49  H   UNL A   1      41.791  28.695  28.706  1.00  0.00     0.167 HD
ATOM     50  C   UNL A   1      45.742  28.329  26.887  1.00  0.00     0.034 A 
ATOM     51  C   UNL A   1      39.940  30.006  30.356  1.00  0.00     0.034 A 
ATOM     52  C   UNL A   1      45.703  29.684  27.384  1.00  0.00     0.049 A 
ATOM     53  C   UNL A   1      40.984  31.040  30.028  1.00  0.00     0.074 A 
ATOM     54  C   UNL A   1      46.664  30.677  27.277  1.00  0.00     0.029 A 
ATOM     55  N   UNL A   1      44.617  30.257  28.030  1.00  0.00    -0.354 N 
ATOM     56  N   UNL A   1      42.140  30.877  29.433  1.00  0.00    -0.248 NA
ATOM     57  C   UNL A   1      40.703  32.426  30.431  1.00  0.00     0.031 C 
ATOM     58  C   UNL A   1      46.157  31.849  27.853  1.00  0.00     0.029 A 
ATOM     59  C   UNL A   1      44.868  31.595  28.289  1.00  0.00     0.049 A 
ATOM     60  H   UNL A   1      43.789  29.782  28.269  1.00  0.00     0.167 HD
ATOM     61  C   UNL A   1      42.716  32.142  29.376  1.00  0.00     0.074 A 
ATOM     62  C   UNL A   1      41.776  33.060  29.983  1.00  0.00     0.031 C 
ATOM     63  C   UNL A   1      43.918  32.507  28.870  1.00  0.00     0.034 A 
BRANCH  50  64
ATOM     64  C   UNL A   1      47.022  27.819  26.264  1.00  0.00     0.023 A 
ATOM     65  C   UNL A   1      47.378  28.117  24.940  1.00  0.00     0.031 A 
ATOM     66  C   UNL A   1      47.860  26.949  26.986  1.00  0.00     0.131 A 
ATOM     67  C   UNL A   1      48.448  27.441  24.335  1.00  0.00     0.055 A 
ATOM     68  C   UNL A   1      48.997  26.372  26.412  1.00  0.00     0.041 A 
ATOM     69  F   UNL A   1      47.574  26.618  28.255  1.00  0.00    -0.206 F 
ATOM     70  C   UNL A   1      49.279  26.594  25.069  1.00  0.00     0.022 A 
BRANCH  67  71
ATOM     71  S   UNL A   1      48.600  27.528  22.530  1.00  0.00     0.124 S 
ATOM     72  O   UNL A   1      47.364  28.219  22.170  1.00  0.00    -0.237 OA
ATOM     73  O   UNL A   1      49.830  28.288  22.350  1.00  0.00    -0.237 OA
ATOM     74  O   UNL A   1      48.665  26.125  22.123  1.00  0.00    -0.744 OA
ENDBRANCH  67  71
ENDBRANCH  50  64
BRANCH  51  75
ATOM     75  C   UNL A   1      38.758  30.384  31.179  1.00  0.00     0.023 A 
ATOM     76  C   UNL A   1      37.682  31.073  30.597  1.00  0.00     0.031 A 
ATOM     77  C   UNL A   1      38.706  30.109  32.554  1.00  0.00     0.131 A 
ATOM     78  C   UNL A   1      36.616  31.509  31.397  1.00  0.00     0.055 A 
ATOM     79  C   UNL A   1      37.624  30.512  33.341  1.00  0.00     0.041 A 
ATOM     80  F   UNL A   1      39.704  29.438  33.151  1.00  0.00    -0.206 F 
ATOM     81  C   UNL A   1      36.577  31.228  32.765  1.00  0.00     0.022 A 
BRANCH  78  82
ATOM     82  S   UNL A   1      35.315  32.515  30.633  1.00  0.00     0.124 S 
ATOM     83  O   UNL A   1      36.039  33.736  30.298  1.00  0.00    -0.237 OA
ATOM     84  O   UNL A   1      34.913  31.680  29.505  1.00  0.00    -0.237 OA
ATOM     85  O   UNL A   1      34.320  32.647  31.694  1.00  0.00    -0.744 OA
ENDBRANCH  78  82
ENDBRANCH  51  75
BRANCH  63  86
ATOM     86  C   UNL A   1      44.248  33.975  28.880  1.00  0.00     0.023 A 
ATOM     87  C   UNL A   1      44.812  34.600  30.005  1.00  0.00     0.031 A 
ATOM     88  C   UNL A   1      43.973  34.758  27.746  1.00  0.00     0.131 A 
ATOM     89  C   UNL A   1      45.053  35.982  29.983  1.00  0.00     0.055 A 
ATOM     90  C   UNL A   1      44.243  36.127  27.721  1.00  0.00     0.041 A 
ATOM     91  F   UNL A   1      43.430  34.204  26.650  1.00  0.00    -0.206 F 
ATOM     92  C   UNL A   1      44.779  36.747  28.846  1.00  0.00     0.022 A 
BRANCH  89  93
ATOM     93  S   UNL A   1      45.686  36.783  31.483  1.00  0.00     0.124 S 
ATOM     94  O   UNL A   1      44.471  36.955  32.274  1.00  0.00    -0.237 OA
ATOM     95  O   UNL A   1      46.639  35.798  31.985  1.00  0.00    -0.237 OA
ATOM     96  O   UNL A   1      46.282  38.022  30.986  1.00  0.00    -0.744 OA
ENDBRANCH  89  93
ENDBRANCH  63  86
ENDBRANCH  37  38
ENDBRANCH  29  32
ENDBRANCH  27  28
ENDBRANCH   1  27
TORSDOF 16
ENDMDL
MODEL 3
REMARK VINA RESULT:     -13.4      2.173      2.483
REMARK SMILES C[N@H+]1CCO[C@H](c2noc(-c3ccccc3C(=O)NCCCCNC(=O)c3ccc(-c4c5nc(c(-c6cc(S(=O)(=O)[O-])ccc6F)c6ccc([nH]6)c(-c6cc(S(=O)(=O)[O-])ccc6F)c6nc(c(-c7cc(S(=O)(=O)[O-])ccc7F)c7ccc4[nH]7)C=C6)C=C5)cc3)n2)C1
REMARK SMILES IDX 22 1 21 2 20 3 19 4 17 5 18 6 16 8 11 9 12 10 13 11 15 12
REMARK SMILES IDX 14 13 10 14 7 15 8 16 90 17 9 18 6 19 1 20 2 21 3 22 91 23
REMARK SMILES IDX 4 25 5 26 23 27 24 28 25 29 26 31 27 32 28 33 89 34 29 35
REMARK SMILES IDX 88 36 30 37 31 38 32 39 82 40 33 41 87 42 81 43 83 44 34 45
REMARK SMILES IDX 86 46 80 47 79 48 35 50 67 51 47 52 66 53 48 54 51 55 65 56
REMARK SMILES IDX 84 57 49 58 50 59 64 61 85 62 52 63 36 64 37 65 45 66 38 67
REMARK SMILES IDX 44 68 46 69 43 70 39 71 40 72 41 73 42 74 68 75 69 76 77 77
REMARK SMILES IDX 70 78 76 79 78 80 75 81 71 82 72 83 73 84 74 85 53 86 54 87
REMARK SMILES IDX 62 88 55 89 61 90 63 91 60 92 56 93 57 94 58 95 59 96
REMARK H PARENT 19 7 2 24 24 30 83 49 51 60
REMARK Flexibility Score: inf
ROOT
ATOM      1  C   UNL A   1      36.383  22.459  23.667  1.00  0.00     0.023 C 
ENDROOT
BRANCH   1   2
ATOM      2  C   UNL A   1      36.023  23.658  24.554  1.00  0.00     0.023 C 
BRANCH   2   3
ATOM      3  C   UNL A   1      35.609  23.363  25.986  1.00  0.00     0.116 C 
BRANCH   3   4
ATOM      4  N   UNL A   1      34.193  23.043  26.009  1.00  0.00    -0.352 N 
ATOM      5  C   UNL A   1      33.802  21.736  26.149  1.00  0.00     0.252 C 
ATOM      6  O   UNL A   1      33.681  21.251  27.271  1.00  0.00    -0.269 OA
ATOM      7  H   UNL A   1      33.522  23.757  25.924  1.00  0.00     0.163 HD
BRANCH   5   8
ATOM      8  C   UNL A   1      33.239  21.032  24.959  1.00  0.00     0.052 A 
ATOM      9  C   UNL A   1      32.496  21.573  23.892  1.00  0.00     0.053 A 
ATOM     10  C   UNL A   1      32.074  20.694  22.866  1.00  0.00     0.015 A 
ATOM     11  C   UNL A   1      32.352  19.328  22.894  1.00  0.00     0.001 A 
ATOM     12  C   UNL A   1      33.506  19.641  24.974  1.00  0.00     0.014 A 
ATOM     13  C   UNL A   1      33.064  18.797  23.958  1.00  0.00     0.001 A 
BRANCH   9  14
ATOM     14  C   UNL A   1      32.127  22.970  23.706  1.00  0.00     0.258 A 
ATOM     15  C   UNL A   1      31.786  24.989  23.177  1.00  0.00     0.206 A 
ATOM     16  N   UNL A   1      30.641  24.630  23.774  1.00  0.00    -0.059 NA
ATOM     17  N   UNL A   1      32.714  23.960  23.072  1.00  0.00    -0.189 NA
ATOM     18  O   UNL A   1      30.862  23.297  24.126  1.00  0.00    -0.334 OA
BRANCH  15  19
ATOM     19  C   UNL A   1      32.105  26.449  22.849  1.00  0.00     0.245 C 
ATOM     20  C   UNL A   1      32.719  29.645  25.952  1.00  0.00     0.332 C 
ATOM     21  N   UNL A   1      31.905  28.863  25.063  1.00  0.00    -0.333 N 
ATOM     22  C   UNL A   1      30.593  29.672  24.081  1.00  0.00     0.290 C 
ATOM     23  C   UNL A   1      32.758  27.415  24.413  1.00  0.00     0.303 C 
ATOM     24  H   UNL A   1      31.198  28.460  25.677  1.00  0.00     0.348 HD
ATOM     25  C   UNL A   1      30.004  28.911  22.376  1.00  0.00     0.222 C 
ATOM     26  O   UNL A   1      30.725  27.250  21.887  1.00  0.00    -0.358 OA
ENDBRANCH  15  19
ENDBRANCH   9  14
ENDBRANCH   5   8
ENDBRANCH   3   4
ENDBRANCH   2   3
ENDBRANCH   1   2
BRANCH   1  27
ATOM     27  C   UNL A   1      37.189  21.236  24.418  1.00  0.00     0.116 C 
BRANCH  27  28
ATOM     28  N   UNL A   1      38.855  21.261  25.553  1.00  0.00    -0.352 N 
ATOM     29  C   UNL A   1      39.744  21.576  26.635  1.00  0.00     0.251 C 
ATOM     30  H   UNL A   1      39.439  20.678  25.015  1.00  0.00     0.163 HD
ATOM     31  O   UNL A   1      40.626  20.740  26.870  1.00  0.00    -0.269 OA
BRANCH  29  32
ATOM     32  C   UNL A   1      39.990  22.928  27.225  1.00  0.00     0.039 A 
ATOM     33  C   UNL A   1      41.112  23.125  28.042  1.00  0.00     0.014 A 
ATOM     34  C   UNL A   1      39.181  24.022  26.953  1.00  0.00     0.014 A 
ATOM     35  C   UNL A   1      41.539  24.425  28.367  1.00  0.00     0.010 A 
ATOM     36  C   UNL A   1      39.687  25.313  27.144  1.00  0.00     0.010 A 
ATOM     37  C   UNL A   1      40.899  25.546  27.818  1.00  0.00    -0.014 A 
BRANCH  37  38
ATOM     38  C   UNL A   1      41.457  26.943  27.911  1.00  0.00     0.031 A 
ATOM     39  C   UNL A   1      42.760  27.285  27.217  1.00  0.00     0.074 A 
ATOM     40  C   UNL A   1      40.911  27.883  28.717  1.00  0.00     0.049 A 
ATOM     41  N   UNL A   1      43.601  28.262  27.451  1.00  0.00    -0.248 NA
ATOM     42  C   UNL A   1      43.215  26.339  26.192  1.00  0.00     0.031 C 
ATOM     43  C   UNL A   1      39.704  27.730  29.536  1.00  0.00     0.029 A 
ATOM     44  N   UNL A   1      41.320  29.169  28.993  1.00  0.00    -0.354 N 
ATOM     45  C   UNL A   1      44.748  27.956  26.720  1.00  0.00     0.074 A 
ATOM     46  C   UNL A   1      44.482  26.698  26.052  1.00  0.00     0.031 C 
ATOM     47  C   UNL A   1      39.442  28.887  30.166  1.00  0.00     0.029 A 
ATOM     48  C   UNL A   1      40.491  29.850  29.857  1.00  0.00     0.049 A 
ATOM     49  H   UNL A   1      42.134  29.567  28.606  1.00  0.00     0.167 HD
ATOM     50  C   UNL A   1      45.910  28.656  26.615  1.00  0.00     0.034 A 
ATOM     51  C   UNL A   1      40.567  31.102  30.354  1.00  0.00     0.034 A 
ATOM     52  C   UNL A   1      46.094  29.990  27.134  1.00  0.00     0.049 A 
ATOM     53  C   UNL A   1      41.740  31.976  29.998  1.00  0.00     0.074 A 
ATOM     54  C   UNL A   1      47.188  30.831  27.003  1.00  0.00     0.029 A 
ATOM     55  N   UNL A   1      45.132  30.704  27.835  1.00  0.00    -0.354 N 
ATOM     56  N   UNL A   1      42.834  31.655  29.352  1.00  0.00    -0.248 NA
ATOM     57  C   UNL A   1      41.686  33.379  30.435  1.00  0.00     0.031 C 
ATOM     58  C   UNL A   1      46.886  32.053  27.618  1.00  0.00     0.029 A 
ATOM     59  C   UNL A   1      45.591  31.984  28.104  1.00  0.00     0.049 A 
ATOM     60  H   UNL A   1      44.252  30.353  28.101  1.00  0.00     0.167 HD
ATOM     61  C   UNL A   1      43.590  32.821  29.290  1.00  0.00     0.074 A 
ATOM     62  C   UNL A   1      42.824  33.856  29.951  1.00  0.00     0.031 C 
ATOM     63  C   UNL A   1      44.813  33.014  28.740  1.00  0.00     0.034 A 
BRANCH  50  64
ATOM     64  C   UNL A   1      47.073  27.975  25.930  1.00  0.00     0.023 A 
ATOM     65  C   UNL A   1      47.419  28.248  24.597  1.00  0.00     0.031 A 
ATOM     66  C   UNL A   1      47.797  26.971  26.601  1.00  0.00     0.131 A 
ATOM     67  C   UNL A   1      48.350  27.433  23.937  1.00  0.00     0.055 A 
ATOM     68  C   UNL A   1      48.811  26.244  25.970  1.00  0.00     0.041 A 
ATOM     69  F   UNL A   1      47.514  26.657  27.874  1.00  0.00    -0.206 F 
ATOM     70  C   UNL A   1      49.072  26.454  24.620  1.00  0.00     0.022 A 
BRANCH  67  71
ATOM     71  S   UNL A   1      48.444  27.540  22.128  1.00  0.00     0.124 S 
ATOM     72  O   UNL A   1      49.604  28.411  21.952  1.00  0.00    -0.237 OA
ATOM     73  O   UNL A   1      48.627  26.148  21.736  1.00  0.00    -0.237 OA
ATOM     74  O   UNL A   1      47.162  28.134  21.753  1.00  0.00    -0.744 OA
ENDBRANCH  67  71
ENDBRANCH  50  64
BRANCH  51  75
ATOM     75  C   UNL A   1      39.488  31.633  31.232  1.00  0.00     0.023 A 
ATOM     76  C   UNL A   1      39.551  31.445  32.622  1.00  0.00     0.031 A 
ATOM     77  C   UNL A   1      38.367  32.289  30.700  1.00  0.00     0.131 A 
ATOM     78  C   UNL A   1      38.487  31.863  33.433  1.00  0.00     0.055 A 
ATOM     79  C   UNL A   1      37.326  32.738  31.516  1.00  0.00     0.041 A 
ATOM     80  F   UNL A   1      38.272  32.506  29.379  1.00  0.00    -0.206 F 
ATOM     81  C   UNL A   1      37.377  32.516  32.890  1.00  0.00     0.022 A 
BRANCH  78  82
ATOM     82  S   UNL A   1      38.544  31.477  35.204  1.00  0.00     0.124 S 
ATOM     83  O   UNL A   1      37.328  32.119  35.690  1.00  0.00    -0.237 OA
ATOM     84  O   UNL A   1      38.538  30.018  35.194  1.00  0.00    -0.237 OA
ATOM     85  O   UNL A   1      39.795  32.090  35.645  1.00  0.00    -0.744 OA
ENDBRANCH  78  82
ENDBRANCH  51  75
BRANCH  63  86
ATOM     86  C   UNL A   1      45.358  34.416  28.759  1.00  0.00     0.023 A 
ATOM     87  C   UNL A   1      46.137  34.893  29.827  1.00  0.00     0.031 A 
ATOM     88  C   UNL A   1      45.075  35.288  27.695  1.00  0.00     0.131 A 
ATOM     89  C   UNL A   1      46.580  36.225  29.823  1.00  0.00     0.055 A 
ATOM     90  C   UNL A   1      45.544  36.602  27.683  1.00  0.00     0.041 A 
ATOM     91  F   UNL A   1      44.332  34.876  26.655  1.00  0.00    -0.206 F 
ATOM     92  C   UNL A   1      46.294  37.079  28.754  1.00  0.00     0.022 A 
BRANCH  89  93
ATOM     93  S   UNL A   1      47.496  36.846  31.260  1.00  0.00     0.124 S 
ATOM     94  O   UNL A   1      46.540  36.641  32.344  1.00  0.00    -0.237 OA
ATOM     95  O   UNL A   1      48.673  35.984  31.277  1.00  0.00    -0.237 OA
ATOM     96  O   UNL A   1      47.758  38.244  30.922  1.00  0.00    -0.744 OA
ENDBRANCH  89  93
ENDBRANCH  63  86
ENDBRANCH  37  38
ENDBRANCH  29  32
ENDBRANCH  27  28
ENDBRANCH   1  27
TORSDOF 16
ENDMDL
