MODEL 1
REMARK VINA RESULT:     -11.3      0.000      0.000
REMARK SMILES Cc1cc(NCc2ccc(C(=O)NCCCCNC(=O)c3ccc(-c4c5nc(c(-c6cc(S(=O)(=O)[O-])ccc6F)c6ccc([nH]6)c(-c6cc(S(=O)(=O)[O-])ccc6F)c6nc(c(-c7cc(S(=O)(=O)[O-])ccc7F)c7ccc4[nH]7)C=C6)C=C5)cc3)o2)ccc1Br
REMARK SMILES IDX 15 1 14 2 13 3 11 4 12 5 10 7 7 8 8 9 84 10 9 11 6 12 5 13
REMARK SMILES IDX 4 15 1 16 2 17 3 18 87 19 86 20 88 21 85 22 16 23 17 24
REMARK SMILES IDX 18 25 19 26 20 28 21 29 22 30 83 31 23 32 82 33 24 34 25 35
REMARK SMILES IDX 26 36 76 37 27 38 81 39 75 40 77 41 28 42 80 43 74 44 73 45
REMARK SMILES IDX 29 47 61 48 41 49 60 50 42 51 45 52 59 53 78 54 43 55 44 56
REMARK SMILES IDX 58 58 79 59 46 60 30 61 31 62 39 63 32 64 38 65 40 66 37 67
REMARK SMILES IDX 33 68 34 69 35 70 36 71 62 72 63 73 71 74 64 75 70 76 72 77
REMARK SMILES IDX 69 78 65 79 66 80 67 81 68 82 47 83 48 84 56 85 49 86 55 87
REMARK SMILES IDX 57 88 54 89 50 90 51 91 52 92 53 93
REMARK H PARENT 13 6 5 14 18 27 77 46 45 57
REMARK Flexibility Score: inf
ROOT
ATOM      1  C   UNL A   1      34.593  30.724  27.962  1.00  0.00     0.023 C 
ENDROOT
BRANCH   1   2
ATOM      2  C   UNL A   1      34.255  29.418  27.245  1.00  0.00     0.116 C 
BRANCH   2   3
ATOM      3  N   UNL A   1      33.107  28.774  27.846  1.00  0.00    -0.349 N 
ATOM      4  C   UNL A   1      31.918  28.342  27.303  1.00  0.00     0.286 C 
ATOM      5  O   UNL A   1      31.168  27.746  28.080  1.00  0.00    -0.266 OA
ATOM      6  H   UNL A   1      33.191  28.618  28.814  1.00  0.00     0.163 HD
BRANCH   4   7
ATOM      7  C   UNL A   1      31.585  28.558  25.905  1.00  0.00     0.191 A 
ATOM      8  C   UNL A   1      31.073  27.800  23.881  1.00  0.00     0.124 A 
ATOM      9  C   UNL A   1      31.085  29.171  23.785  1.00  0.00     0.048 A 
ATOM     10  O   UNL A   1      31.384  27.423  25.152  1.00  0.00    -0.454 OA
ATOM     11  C   UNL A   1      31.381  29.656  25.085  1.00  0.00     0.056 A 
BRANCH   8  12
ATOM     12  C   UNL A   1      30.819  26.699  22.912  1.00  0.00     0.188 C 
BRANCH  12  13
ATOM     13  N   UNL A   1      31.998  25.936  22.540  1.00  0.00    -0.378 N 
ATOM     14  H   UNL A   1      32.549  26.302  21.810  1.00  0.00     0.161 HD
BRANCH  13  15
ATOM     15  C   UNL A   1      32.427  24.752  23.102  1.00  0.00     0.035 A 
ATOM     16  C   UNL A   1      35.817  23.022  23.476  1.00  0.00     0.045 C 
ATOM     17  C   UNL A   1      34.334  23.249  23.547  1.00  0.00    -0.035 A 
ATOM     18  C   UNL A   1      33.803  24.467  23.081  1.00  0.00     0.030 A 
ATOM     19  C   UNL A   1      33.447  22.288  24.043  1.00  0.00     0.021 A 
ATOM     20  C   UNL A   1      32.076  22.546  24.071  1.00  0.00     0.018 A 
ATOM     21  Br  UNL A   1      34.040  20.601  24.681  1.00  0.00    -0.051 Br
ATOM     22  C   UNL A   1      31.574  23.764  23.595  1.00  0.00     0.027 A 
ENDBRANCH  13  15
ENDBRANCH  12  13
ENDBRANCH   8  12
ENDBRANCH   4   7
ENDBRANCH   2   3
ENDBRANCH   1   2
BRANCH   1  23
ATOM     23  C   UNL A   1      34.071  31.979  27.249  1.00  0.00     0.023 C 
BRANCH  23  24
ATOM     24  C   UNL A   1      32.658  32.413  27.637  1.00  0.00     0.116 C 
BRANCH  24  25
ATOM     25  N   UNL A   1      32.528  33.852  27.803  1.00  0.00    -0.352 N 
ATOM     26  C   UNL A   1      33.230  34.696  28.629  1.00  0.00     0.251 C 
ATOM     27  H   UNL A   1      31.840  34.281  27.246  1.00  0.00     0.163 HD
ATOM     28  O   UNL A   1      32.881  35.869  28.728  1.00  0.00    -0.269 OA
BRANCH  26  29
ATOM     29  C   UNL A   1      34.368  34.181  29.420  1.00  0.00     0.039 A 
ATOM     30  C   UNL A   1      34.101  33.396  30.542  1.00  0.00     0.014 A 
ATOM     31  C   UNL A   1      35.689  34.459  29.056  1.00  0.00     0.014 A 
ATOM     32  C   UNL A   1      35.158  32.838  31.263  1.00  0.00     0.010 A 
ATOM     33  C   UNL A   1      36.740  33.838  29.729  1.00  0.00     0.010 A 
ATOM     34  C   UNL A   1      36.487  33.022  30.840  1.00  0.00    -0.014 A 
BRANCH  34  35
ATOM     35  C   UNL A   1      37.605  32.348  31.553  1.00  0.00     0.031 A 
ATOM     36  C   UNL A   1      38.363  31.224  30.900  1.00  0.00     0.074 A 
ATOM     37  C   UNL A   1      37.917  32.739  32.805  1.00  0.00     0.049 A 
ATOM     38  N   UNL A   1      39.373  30.532  31.361  1.00  0.00    -0.248 NA
ATOM     39  C   UNL A   1      37.911  30.806  29.565  1.00  0.00     0.031 C 
ATOM     40  C   UNL A   1      37.218  33.780  33.563  1.00  0.00     0.029 A 
ATOM     41  N   UNL A   1      38.903  32.316  33.661  1.00  0.00    -0.354 N 
ATOM     42  C   UNL A   1      39.677  29.597  30.377  1.00  0.00     0.074 A 
ATOM     43  C   UNL A   1      38.696  29.768  29.325  1.00  0.00     0.031 C 
ATOM     44  C   UNL A   1      37.825  33.945  34.748  1.00  0.00     0.029 A 
ATOM     45  C   UNL A   1      38.924  32.993  34.859  1.00  0.00     0.049 A 
ATOM     46  H   UNL A   1      39.537  31.596  33.439  1.00  0.00     0.167 HD
ATOM     47  C   UNL A   1      40.695  28.701  30.340  1.00  0.00     0.034 A 
ATOM     48  C   UNL A   1      39.735  32.861  35.927  1.00  0.00     0.034 A 
ATOM     49  C   UNL A   1      41.663  28.546  31.399  1.00  0.00     0.049 A 
ATOM     50  C   UNL A   1      40.845  31.842  35.872  1.00  0.00     0.074 A 
ATOM     51  C   UNL A   1      42.762  27.707  31.445  1.00  0.00     0.029 A 
ATOM     52  N   UNL A   1      41.644  29.238  32.605  1.00  0.00    -0.354 N 
ATOM     53  N   UNL A   1      41.159  31.012  34.903  1.00  0.00    -0.248 NA
ATOM     54  C   UNL A   1      41.718  31.754  37.047  1.00  0.00     0.031 C 
ATOM     55  C   UNL A   1      43.358  27.831  32.706  1.00  0.00     0.029 A 
ATOM     56  C   UNL A   1      42.690  28.815  33.415  1.00  0.00     0.049 A 
ATOM     57  H   UNL A   1      40.986  29.927  32.850  1.00  0.00     0.167 HD
ATOM     58  C   UNL A   1      42.287  30.324  35.344  1.00  0.00     0.074 A 
ATOM     59  C   UNL A   1      42.610  30.859  36.652  1.00  0.00     0.031 C 
ATOM     60  C   UNL A   1      42.991  29.341  34.727  1.00  0.00     0.034 A 
BRANCH  47  61
ATOM     61  C   UNL A   1      40.791  27.805  29.127  1.00  0.00     0.023 A 
ATOM     62  C   UNL A   1      41.703  28.061  28.087  1.00  0.00     0.031 A 
ATOM     63  C   UNL A   1      39.949  26.686  28.997  1.00  0.00     0.131 A 
ATOM     64  C   UNL A   1      41.699  27.260  26.935  1.00  0.00     0.055 A 
ATOM     65  C   UNL A   1      40.011  25.840  27.887  1.00  0.00     0.041 A 
ATOM     66  F   UNL A   1      39.041  26.400  29.944  1.00  0.00    -0.206 F 
ATOM     67  C   UNL A   1      40.880  26.134  26.840  1.00  0.00     0.022 A 
BRANCH  64  68
ATOM     68  S   UNL A   1      42.674  27.797  25.502  1.00  0.00     0.124 S 
ATOM     69  O   UNL A   1      42.655  26.597  24.668  1.00  0.00    -0.237 OA
ATOM     70  O   UNL A   1      41.907  28.933  25.006  1.00  0.00    -0.237 OA
ATOM     71  O   UNL A   1      43.977  28.125  26.077  1.00  0.00    -0.744 OA
ENDBRANCH  64  68
ENDBRANCH  47  61
BRANCH  48  72
ATOM     72  C   UNL A   1      39.534  33.706  37.142  1.00  0.00     0.023 A 
ATOM     73  C   UNL A   1      38.861  33.208  38.269  1.00  0.00     0.031 A 
ATOM     74  C   UNL A   1      39.970  35.042  37.174  1.00  0.00     0.131 A 
ATOM     75  C   UNL A   1      38.595  34.054  39.357  1.00  0.00     0.055 A 
ATOM     76  C   UNL A   1      39.758  35.863  38.283  1.00  0.00     0.041 A 
ATOM     77  F   UNL A   1      40.621  35.570  36.125  1.00  0.00    -0.206 F 
ATOM     78  C   UNL A   1      39.052  35.374  39.378  1.00  0.00     0.022 A 
BRANCH  75  79
ATOM     79  S   UNL A   1      37.552  33.435  40.706  1.00  0.00     0.124 S 
ATOM     80  O   UNL A   1      36.440  32.844  39.973  1.00  0.00    -0.237 OA
ATOM     81  O   UNL A   1      38.450  32.500  41.377  1.00  0.00    -0.237 OA
ATOM     82  O   UNL A   1      37.230  34.640  41.467  1.00  0.00    -0.744 OA
ENDBRANCH  75  79
ENDBRANCH  48  72
BRANCH  60  83
ATOM     83  C   UNL A   1      44.206  28.812  35.455  1.00  0.00     0.023 A 
ATOM     84  C   UNL A   1      44.124  27.717  36.335  1.00  0.00     0.031 A 
ATOM     85  C   UNL A   1      45.457  29.436  35.297  1.00  0.00     0.131 A 
ATOM     86  C   UNL A   1      45.246  27.334  37.082  1.00  0.00     0.055 A 
ATOM     87  C   UNL A   1      46.589  29.000  35.986  1.00  0.00     0.041 A 
ATOM     88  F   UNL A   1      45.597  30.489  34.474  1.00  0.00    -0.206 F 
ATOM     89  C   UNL A   1      46.484  27.956  36.899  1.00  0.00     0.022 A 
BRANCH  86  90
ATOM     90  S   UNL A   1      45.034  26.103  38.397  1.00  0.00     0.124 S 
ATOM     91  O   UNL A   1      46.305  26.200  39.110  1.00  0.00    -0.237 OA
ATOM     92  O   UNL A   1      43.864  26.606  39.109  1.00  0.00    -0.237 OA
ATOM     93  O   UNL A   1      44.827  24.853  37.667  1.00  0.00    -0.744 OA
ENDBRANCH  86  90
ENDBRANCH  60  83
ENDBRANCH  34  35
ENDBRANCH  26  29
ENDBRANCH  24  25
ENDBRANCH  23  24
ENDBRANCH   1  23
TORSDOF 17
ENDMDL
MODEL 2
REMARK VINA RESULT:     -11.1      2.656      8.164
REMARK SMILES Cc1cc(NCc2ccc(C(=O)NCCCCNC(=O)c3ccc(-c4c5nc(c(-c6cc(S(=O)(=O)[O-])ccc6F)c6ccc([nH]6)c(-c6cc(S(=O)(=O)[O-])ccc6F)c6nc(c(-c7cc(S(=O)(=O)[O-])ccc7F)c7ccc4[nH]7)C=C6)C=C5)cc3)o2)ccc1Br
REMARK SMILES IDX 15 1 14 2 13 3 11 4 12 5 10 7 7 8 8 9 84 10 9 11 6 12 5 13
REMARK SMILES IDX 4 15 1 16 2 17 3 18 87 19 86 20 88 21 85 22 16 23 17 24
REMARK SMILES IDX 18 25 19 26 20 28 21 29 22 30 83 31 23 32 82 33 24 34 25 35
REMARK SMILES IDX 26 36 76 37 27 38 81 39 75 40 77 41 28 42 80 43 74 44 73 45
REMARK SMILES IDX 29 47 61 48 41 49 60 50 42 51 45 52 59 53 78 54 43 55 44 56
REMARK SMILES IDX 58 58 79 59 46 60 30 61 31 62 39 63 32 64 38 65 40 66 37 67
REMARK SMILES IDX 33 68 34 69 35 70 36 71 62 72 63 73 71 74 64 75 70 76 72 77
REMARK SMILES IDX 69 78 65 79 66 80 67 81 68 82 47 83 48 84 56 85 49 86 55 87
REMARK SMILES IDX 57 88 54 89 50 90 51 91 52 92 53 93
REMARK H PARENT 13 6 5 14 18 27 77 46 45 57
REMARK Flexibility Score: inf
ROOT
ATOM      1  C   UNL A   1      33.460  28.195  24.977  1.00  0.00     0.023 C 
ENDROOT
BRANCH   1   2
ATOM      2  C   UNL A   1      33.658  27.759  23.526  1.00  0.00     0.116 C 
BRANCH   2   3
ATOM      3  N   UNL A   1      32.478  28.025  22.735  1.00  0.00    -0.349 N 
ATOM      4  C   UNL A   1      31.350  27.271  22.498  1.00  0.00     0.286 C 
ATOM      5  O   UNL A   1      30.472  27.827  21.835  1.00  0.00    -0.266 OA
ATOM      6  H   UNL A   1      32.481  28.901  22.285  1.00  0.00     0.163 HD
BRANCH   4   7
ATOM      7  C   UNL A   1      31.203  25.921  23.017  1.00  0.00     0.191 A 
ATOM      8  C   UNL A   1      31.805  23.785  23.097  1.00  0.00     0.124 A 
ATOM      9  C   UNL A   1      30.764  23.923  23.985  1.00  0.00     0.048 A 
ATOM     10  O   UNL A   1      32.068  24.981  22.503  1.00  0.00    -0.454 OA
ATOM     11  C   UNL A   1      30.401  25.294  23.957  1.00  0.00     0.056 A 
BRANCH   8  12
ATOM     12  C   UNL A   1      32.647  22.636  22.664  1.00  0.00     0.188 C 
BRANCH  12  13
ATOM     13  N   UNL A   1      33.454  22.047  23.719  1.00  0.00    -0.378 N 
ATOM     14  H   UNL A   1      33.159  21.173  24.065  1.00  0.00     0.161 HD
BRANCH  13  15
ATOM     15  C   UNL A   1      34.591  22.583  24.287  1.00  0.00     0.035 A 
ATOM     16  C   UNL A   1      38.035  21.212  25.229  1.00  0.00     0.045 C 
ATOM     17  C   UNL A   1      36.888  22.173  25.093  1.00  0.00    -0.035 A 
ATOM     18  C   UNL A   1      35.711  21.750  24.445  1.00  0.00     0.030 A 
ATOM     19  C   UNL A   1      36.930  23.475  25.602  1.00  0.00     0.021 A 
ATOM     20  C   UNL A   1      35.829  24.320  25.462  1.00  0.00     0.018 A 
ATOM     21  Br  UNL A   1      38.452  24.154  26.512  1.00  0.00    -0.051 Br
ATOM     22  C   UNL A   1      34.668  23.871  24.818  1.00  0.00     0.027 A 
ENDBRANCH  13  15
ENDBRANCH  12  13
ENDBRANCH   8  12
ENDBRANCH   4   7
ENDBRANCH   2   3
ENDBRANCH   1   2
BRANCH   1  23
ATOM     23  C   UNL A   1      32.685  29.510  25.131  1.00  0.00     0.023 C 
BRANCH  23  24
ATOM     24  C   UNL A   1      32.428  29.954  26.571  1.00  0.00     0.116 C 
BRANCH  24  25
ATOM     25  N   UNL A   1      32.390  31.400  26.726  1.00  0.00    -0.352 N 
ATOM     26  C   UNL A   1      33.280  32.226  27.369  1.00  0.00     0.251 C 
ATOM     27  H   UNL A   1      31.619  31.849  26.312  1.00  0.00     0.163 HD
ATOM     28  O   UNL A   1      33.004  33.414  27.509  1.00  0.00    -0.269 OA
BRANCH  26  29
ATOM     29  C   UNL A   1      34.537  31.675  27.920  1.00  0.00     0.039 A 
ATOM     30  C   UNL A   1      35.638  32.523  28.048  1.00  0.00     0.014 A 
ATOM     31  C   UNL A   1      34.630  30.338  28.317  1.00  0.00     0.014 A 
ATOM     32  C   UNL A   1      36.813  32.046  28.633  1.00  0.00     0.010 A 
ATOM     33  C   UNL A   1      35.775  29.886  28.971  1.00  0.00     0.010 A 
ATOM     34  C   UNL A   1      36.880  30.735  29.135  1.00  0.00    -0.014 A 
BRANCH  34  35
ATOM     35  C   UNL A   1      38.098  30.259  29.842  1.00  0.00     0.031 A 
ATOM     36  C   UNL A   1      38.407  30.730  31.238  1.00  0.00     0.074 A 
ATOM     37  C   UNL A   1      38.942  29.420  29.208  1.00  0.00     0.049 A 
ATOM     38  N   UNL A   1      39.412  30.412  32.013  1.00  0.00    -0.248 NA
ATOM     39  C   UNL A   1      37.480  31.705  31.829  1.00  0.00     0.031 C 
ATOM     40  C   UNL A   1      38.777  28.937  27.834  1.00  0.00     0.029 A 
ATOM     41  N   UNL A   1      40.099  28.816  29.631  1.00  0.00    -0.354 N 
ATOM     42  C   UNL A   1      39.239  31.146  33.182  1.00  0.00     0.074 A 
ATOM     43  C   UNL A   1      38.072  31.978  32.981  1.00  0.00     0.031 C 
ATOM     44  C   UNL A   1      39.768  28.080  27.546  1.00  0.00     0.029 A 
ATOM     45  C   UNL A   1      40.666  27.984  28.692  1.00  0.00     0.049 A 
ATOM     46  H   UNL A   1      40.488  28.963  30.524  1.00  0.00     0.167 HD
ATOM     47  C   UNL A   1      39.969  31.108  34.325  1.00  0.00     0.034 A 
ATOM     48  C   UNL A   1      41.782  27.232  28.746  1.00  0.00     0.034 A 
ATOM     49  C   UNL A   1      41.131  30.271  34.506  1.00  0.00     0.049 A 
ATOM     50  C   UNL A   1      42.590  27.225  30.019  1.00  0.00     0.074 A 
ATOM     51  C   UNL A   1      41.914  30.117  35.636  1.00  0.00     0.029 A 
ATOM     52  N   UNL A   1      41.686  29.454  33.527  1.00  0.00    -0.354 N 
ATOM     53  N   UNL A   1      42.373  27.875  31.140  1.00  0.00    -0.248 NA
ATOM     54  C   UNL A   1      43.782  26.370  30.039  1.00  0.00     0.031 C 
ATOM     55  C   UNL A   1      42.984  29.272  35.319  1.00  0.00     0.029 A 
ATOM     56  C   UNL A   1      42.821  28.824  34.018  1.00  0.00     0.049 A 
ATOM     57  H   UNL A   1      41.326  29.338  32.619  1.00  0.00     0.167 HD
ATOM     58  C   UNL A   1      43.389  27.483  32.008  1.00  0.00     0.074 A 
ATOM     59  C   UNL A   1      44.197  26.519  31.287  1.00  0.00     0.031 C 
ATOM     60  C   UNL A   1      43.633  27.880  33.283  1.00  0.00     0.034 A 
BRANCH  47  61
ATOM     61  C   UNL A   1      39.544  32.019  35.454  1.00  0.00     0.023 A 
ATOM     62  C   UNL A   1      40.047  33.326  35.581  1.00  0.00     0.031 A 
ATOM     63  C   UNL A   1      38.634  31.571  36.429  1.00  0.00     0.131 A 
ATOM     64  C   UNL A   1      39.700  34.108  36.693  1.00  0.00     0.055 A 
ATOM     65  C   UNL A   1      38.224  32.386  37.486  1.00  0.00     0.041 A 
ATOM     66  F   UNL A   1      38.134  30.326  36.377  1.00  0.00    -0.206 F 
ATOM     67  C   UNL A   1      38.769  33.659  37.631  1.00  0.00     0.022 A 
BRANCH  64  68
ATOM     68  S   UNL A   1      40.594  35.662  36.974  1.00  0.00     0.124 S 
ATOM     69  O   UNL A   1      40.739  35.659  38.428  1.00  0.00    -0.237 OA
ATOM     70  O   UNL A   1      41.820  35.463  36.209  1.00  0.00    -0.237 OA
ATOM     71  O   UNL A   1      39.687  36.680  36.448  1.00  0.00    -0.744 OA
ENDBRANCH  64  68
ENDBRANCH  47  61
BRANCH  48  72
ATOM     72  C   UNL A   1      42.212  26.426  27.565  1.00  0.00     0.023 A 
ATOM     73  C   UNL A   1      42.084  25.028  27.553  1.00  0.00     0.031 A 
ATOM     74  C   UNL A   1      42.805  27.040  26.447  1.00  0.00     0.131 A 
ATOM     75  C   UNL A   1      42.590  24.285  26.475  1.00  0.00     0.055 A 
ATOM     76  C   UNL A   1      43.251  26.304  25.349  1.00  0.00     0.041 A 
ATOM     77  F   UNL A   1      42.952  28.374  26.402  1.00  0.00    -0.206 F 
ATOM     78  C   UNL A   1      43.159  24.915  25.366  1.00  0.00     0.022 A 
BRANCH  75  79
ATOM     79  S   UNL A   1      42.586  22.475  26.588  1.00  0.00     0.124 S 
ATOM     80  O   UNL A   1      42.541  22.268  28.030  1.00  0.00    -0.237 OA
ATOM     81  O   UNL A   1      41.375  22.129  25.850  1.00  0.00    -0.237 OA
ATOM     82  O   UNL A   1      43.838  22.092  25.939  1.00  0.00    -0.744 OA
ENDBRANCH  75  79
ENDBRANCH  48  72
BRANCH  60  83
ATOM     83  C   UNL A   1      44.806  27.236  33.987  1.00  0.00     0.023 A 
ATOM     84  C   UNL A   1      44.656  26.068  34.757  1.00  0.00     0.031 A 
ATOM     85  C   UNL A   1      46.083  27.820  33.920  1.00  0.00     0.131 A 
ATOM     86  C   UNL A   1      45.742  25.571  35.492  1.00  0.00     0.055 A 
ATOM     87  C   UNL A   1      47.178  27.276  34.591  1.00  0.00     0.041 A 
ATOM     88  F   UNL A   1      46.287  28.939  33.204  1.00  0.00    -0.206 F 
ATOM     89  C   UNL A   1      47.007  26.156  35.399  1.00  0.00     0.022 A 
BRANCH  86  90
ATOM     90  S   UNL A   1      45.446  24.231  36.679  1.00  0.00     0.124 S 
ATOM     91  O   UNL A   1      44.566  24.876  37.648  1.00  0.00    -0.237 OA
ATOM     92  O   UNL A   1      44.831  23.205  35.843  1.00  0.00    -0.237 OA
ATOM     93  O   UNL A   1      46.784  23.910  37.173  1.00  0.00    -0.744 OA
ENDBRANCH  86  90
ENDBRANCH  60  83
ENDBRANCH  34  35
ENDBRANCH  26  29
ENDBRANCH  24  25
ENDBRANCH  23  24
ENDBRANCH   1  23
TORSDOF 17
ENDMDL
MODEL 3
REMARK VINA RESULT:     -11.0      2.006      8.271
REMARK SMILES Cc1cc(NCc2ccc(C(=O)NCCCCNC(=O)c3ccc(-c4c5nc(c(-c6cc(S(=O)(=O)[O-])ccc6F)c6ccc([nH]6)c(-c6cc(S(=O)(=O)[O-])ccc6F)c6nc(c(-c7cc(S(=O)(=O)[O-])ccc7F)c7ccc4[nH]7)C=C6)C=C5)cc3)o2)ccc1Br
REMARK SMILES IDX 15 1 14 2 13 3 11 4 12 5 10 7 7 8 8 9 84 10 9 11 6 12 5 13
REMARK SMILES IDX 4 15 1 16 2 17 3 18 87 19 86 20 88 21 85 22 16 23 17 24
REMARK SMILES IDX 18 25 19 26 20 28 21 29 22 30 83 31 23 32 82 33 24 34 25 35
REMARK SMILES IDX 26 36 76 37 27 38 81 39 75 40 77 41 28 42 80 43 74 44 73 45
REMARK SMILES IDX 29 47 61 48 41 49 60 50 42 51 45 52 59 53 78 54 43 55 44 56
REMARK SMILES IDX 58 58 79 59 46 60 30 61 31 62 39 63 32 64 38 65 40 66 37 67
REMARK SMILES IDX 33 68 34 69 35 70 36 71 62 72 63 73 71 74 64 75 70 76 72 77
REMARK SMILES IDX 69 78 65 79 66 80 67 81 68 82 47 83 48 84 56 85 49 86 55 87
REMARK SMILES IDX 57 88 54 89 50 90 51 91 52 92 53 93
REMARK H PARENT 13 6 5 14 18 27 77 46 45 57
REMARK Flexibility Score: inf
ROOT
ATOM      1  C   UNL A   1      35.138  31.181  27.997  1.00  0.00     0.023 C 
ENDROOT
BRANCH   1   2
ATOM      2  C   UNL A   1      34.984  29.716  27.589  1.00  0.00     0.116 C 
BRANCH   2   3
ATOM      3  N   UNL A   1      33.668  29.217  27.919  1.00  0.00    -0.349 N 
ATOM      4  C   UNL A   1      32.871  28.276  27.308  1.00  0.00     0.286 C 
ATOM      5  O   UNL A   1      31.819  28.011  27.896  1.00  0.00    -0.266 OA
ATOM      6  H   UNL A   1      33.271  29.623  28.723  1.00  0.00     0.163 HD
BRANCH   4   7
ATOM      7  C   UNL A   1      33.258  27.627  26.066  1.00  0.00     0.191 A 
ATOM      8  C   UNL A   1      33.495  27.623  23.858  1.00  0.00     0.124 A 
ATOM      9  C   UNL A   1      33.934  26.394  24.293  1.00  0.00     0.048 A 
ATOM     10  O   UNL A   1      33.077  28.366  24.919  1.00  0.00    -0.454 OA
ATOM     11  C   UNL A   1      33.812  26.409  25.706  1.00  0.00     0.056 A 
BRANCH   8  12
ATOM     12  C   UNL A   1      33.376  28.262  22.519  1.00  0.00     0.188 C 
BRANCH  12  13
ATOM     13  N   UNL A   1      32.242  29.159  22.376  1.00  0.00    -0.378 N 
ATOM     14  H   UNL A   1      32.442  30.081  22.092  1.00  0.00     0.161 HD
BRANCH  13  15
ATOM     15  C   UNL A   1      30.915  28.856  22.596  1.00  0.00     0.035 A 
ATOM     16  C   UNL A   1      27.728  30.913  23.089  1.00  0.00     0.045 C 
ATOM     17  C   UNL A   1      28.638  29.720  22.999  1.00  0.00    -0.035 A 
ATOM     18  C   UNL A   1      29.997  29.916  22.688  1.00  0.00     0.030 A 
ATOM     19  C   UNL A   1      28.195  28.414  23.230  1.00  0.00     0.021 A 
ATOM     20  C   UNL A   1      29.087  27.345  23.149  1.00  0.00     0.018 A 
ATOM     21  Br  UNL A   1      26.390  28.025  23.676  1.00  0.00    -0.051 Br
ATOM     22  C   UNL A   1      30.436  27.569  22.844  1.00  0.00     0.027 A 
ENDBRANCH  13  15
ENDBRANCH  12  13
ENDBRANCH   8  12
ENDBRANCH   4   7
ENDBRANCH   2   3
ENDBRANCH   1   2
BRANCH   1  23
ATOM     23  C   UNL A   1      33.815  31.958  28.038  1.00  0.00     0.023 C 
BRANCH  23  24
ATOM     24  C   UNL A   1      33.922  33.450  27.723  1.00  0.00     0.116 C 
BRANCH  24  25
ATOM     25  N   UNL A   1      33.265  34.291  28.712  1.00  0.00    -0.352 N 
ATOM     26  C   UNL A   1      33.587  34.488  30.033  1.00  0.00     0.251 C 
ATOM     27  H   UNL A   1      32.480  34.787  28.389  1.00  0.00     0.163 HD
ATOM     28  O   UNL A   1      32.827  35.135  30.747  1.00  0.00    -0.269 OA
BRANCH  26  29
ATOM     29  C   UNL A   1      34.817  33.888  30.594  1.00  0.00     0.039 A 
ATOM     30  C   UNL A   1      34.694  32.826  31.491  1.00  0.00     0.014 A 
ATOM     31  C   UNL A   1      36.083  34.360  30.233  1.00  0.00     0.014 A 
ATOM     32  C   UNL A   1      35.841  32.197  31.977  1.00  0.00     0.010 A 
ATOM     33  C   UNL A   1      37.223  33.681  30.658  1.00  0.00     0.010 A 
ATOM     34  C   UNL A   1      37.116  32.592  31.536  1.00  0.00    -0.014 A 
BRANCH  34  35
ATOM     35  C   UNL A   1      38.330  31.859  31.981  1.00  0.00     0.031 A 
ATOM     36  C   UNL A   1      39.009  32.216  33.276  1.00  0.00     0.074 A 
ATOM     37  C   UNL A   1      38.834  30.885  31.198  1.00  0.00     0.049 A 
ATOM     38  N   UNL A   1      40.064  31.678  33.830  1.00  0.00    -0.248 NA
ATOM     39  C   UNL A   1      38.443  33.341  34.033  1.00  0.00     0.031 C 
ATOM     40  C   UNL A   1      38.295  30.486  29.895  1.00  0.00     0.029 A 
ATOM     41  N   UNL A   1      39.905  30.046  31.380  1.00  0.00    -0.354 N 
ATOM     42  C   UNL A   1      40.290  32.397  34.999  1.00  0.00     0.074 A 
ATOM     43  C   UNL A   1      39.303  33.455  35.034  1.00  0.00     0.031 C 
ATOM     44  C   UNL A   1      39.009  29.454  29.419  1.00  0.00     0.029 A 
ATOM     45  C   UNL A   1      40.084  29.145  30.355  1.00  0.00     0.049 A 
ATOM     46  H   UNL A   1      40.491  30.084  32.170  1.00  0.00     0.167 HD
ATOM     47  C   UNL A   1      41.216  32.178  35.967  1.00  0.00     0.034 A 
ATOM     48  C   UNL A   1      41.009  28.180  30.186  1.00  0.00     0.034 A 
ATOM     49  C   UNL A   1      42.194  31.117  35.914  1.00  0.00     0.049 A 
ATOM     50  C   UNL A   1      42.043  27.972  31.264  1.00  0.00     0.074 A 
ATOM     51  C   UNL A   1      43.144  30.774  36.859  1.00  0.00     0.029 A 
ATOM     52  N   UNL A   1      42.356  30.234  34.853  1.00  0.00    -0.354 N 
ATOM     53  N   UNL A   1      42.199  28.619  32.397  1.00  0.00    -0.248 NA
ATOM     54  C   UNL A   1      43.012  26.893  31.049  1.00  0.00     0.031 C 
ATOM     55  C   UNL A   1      43.930  29.740  36.338  1.00  0.00     0.029 A 
ATOM     56  C   UNL A   1      43.415  29.372  35.106  1.00  0.00     0.049 A 
ATOM     57  H   UNL A   1      41.800  30.220  34.041  1.00  0.00     0.167 HD
ATOM     58  C   UNL A   1      43.269  28.003  33.041  1.00  0.00     0.074 A 
ATOM     59  C   UNL A   1      43.697  26.917  32.182  1.00  0.00     0.031 C 
ATOM     60  C   UNL A   1      43.847  28.305  34.232  1.00  0.00     0.034 A 
BRANCH  47  61
ATOM     61  C   UNL A   1      41.228  33.123  37.147  1.00  0.00     0.023 A 
ATOM     62  C   UNL A   1      40.561  32.818  38.347  1.00  0.00     0.031 A 
ATOM     63  C   UNL A   1      41.901  34.355  37.068  1.00  0.00     0.131 A 
ATOM     64  C   UNL A   1      40.517  33.759  39.386  1.00  0.00     0.055 A 
ATOM     65  C   UNL A   1      41.928  35.251  38.139  1.00  0.00     0.041 A 
ATOM     66  F   UNL A   1      42.538  34.716  35.943  1.00  0.00    -0.206 F 
ATOM     67  C   UNL A   1      41.220  34.962  39.302  1.00  0.00     0.022 A 
BRANCH  64  68
ATOM     68  S   UNL A   1      39.407  33.452  40.788  1.00  0.00     0.124 S 
ATOM     69  O   UNL A   1      38.123  33.894  40.249  1.00  0.00    -0.237 OA
ATOM     70  O   UNL A   1      39.552  32.016  40.998  1.00  0.00    -0.237 OA
ATOM     71  O   UNL A   1      39.952  34.297  41.849  1.00  0.00    -0.744 OA
ENDBRANCH  64  68
ENDBRANCH  47  61
BRANCH  48  72
ATOM     72  C   UNL A   1      41.013  27.338  28.953  1.00  0.00     0.023 A 
ATOM     73  C   UNL A   1      41.964  27.537  27.940  1.00  0.00     0.031 A 
ATOM     74  C   UNL A   1      40.031  26.353  28.747  1.00  0.00     0.131 A 
ATOM     75  C   UNL A   1      41.883  26.804  26.746  1.00  0.00     0.055 A 
ATOM     76  C   UNL A   1      39.990  25.581  27.585  1.00  0.00     0.041 A 
ATOM     77  F   UNL A   1      39.097  26.118  29.683  1.00  0.00    -0.206 F 
ATOM     78  C   UNL A   1      40.911  25.816  26.568  1.00  0.00     0.022 A 
BRANCH  75  79
ATOM     79  S   UNL A   1      43.005  27.228  25.385  1.00  0.00     0.124 S 
ATOM     80  O   UNL A   1      42.251  28.266  24.693  1.00  0.00    -0.237 OA
ATOM     81  O   UNL A   1      44.196  27.668  26.103  1.00  0.00    -0.237 OA
ATOM     82  O   UNL A   1      43.148  25.968  24.659  1.00  0.00    -0.744 OA
ENDBRANCH  75  79
ENDBRANCH  48  72
BRANCH  60  83
ATOM     83  C   UNL A   1      44.982  27.416  34.686  1.00  0.00     0.023 A 
ATOM     84  C   UNL A   1      44.759  26.285  35.492  1.00  0.00     0.031 A 
ATOM     85  C   UNL A   1      46.310  27.726  34.341  1.00  0.00     0.131 A 
ATOM     86  C   UNL A   1      45.848  25.556  35.992  1.00  0.00     0.055 A 
ATOM     87  C   UNL A   1      47.384  26.951  34.778  1.00  0.00     0.041 A 
ATOM     88  F   UNL A   1      46.586  28.797  33.578  1.00  0.00    -0.206 F 
ATOM     89  C   UNL A   1      47.158  25.870  35.624  1.00  0.00     0.022 A 
BRANCH  86  90
ATOM     90  S   UNL A   1      45.536  24.277  37.239  1.00  0.00     0.124 S 
ATOM     91  O   UNL A   1      46.801  24.251  37.968  1.00  0.00    -0.237 OA
ATOM     92  O   UNL A   1      44.393  24.820  37.965  1.00  0.00    -0.237 OA
ATOM     93  O   UNL A   1      45.255  23.083  36.444  1.00  0.00    -0.744 OA
ENDBRANCH  86  90
ENDBRANCH  60  83
ENDBRANCH  34  35
ENDBRANCH  26  29
ENDBRANCH  24  25
ENDBRANCH  23  24
ENDBRANCH   1  23
TORSDOF 17
ENDMDL
