MODEL 1
REMARK VINA RESULT:      -9.6      0.000      0.000
REMARK SMILES CCOc1cc(OCC)cc(-c2ccc([C@@H](C)C(=O)NCCCCNC(=O)c3ccc(-c4c5nc(c(-c6cc(S(=O)(=O)[O-])ccc6F)c6ccc([nH]6)c(-c6cc(S(=O)(=O)[O-])ccc6F)c6nc(c(-c7cc(S(=O)(=O)[O-])ccc7F)c7ccc4[nH]7)C=C6)C=C5)cc3)cc2F)c1
REMARK SMILES IDX 22 1 21 2 20 3 18 4 19 5 16 7 17 8 15 9 12 10 13 11 92 12
REMARK SMILES IDX 14 13 91 14 93 15 11 16 4 17 5 18 94 19 6 20 10 21 3 22 2 23
REMARK SMILES IDX 1 24 7 25 8 26 9 27 23 28 24 29 25 30 26 31 27 33 28 34
REMARK SMILES IDX 29 35 90 36 30 37 89 38 31 39 32 40 33 41 83 42 34 43 88 44
REMARK SMILES IDX 82 45 84 46 35 47 87 48 81 49 80 50 36 52 68 53 48 54 67 55
REMARK SMILES IDX 49 56 52 57 66 58 85 59 50 60 51 61 65 63 86 64 53 65 37 66
REMARK SMILES IDX 38 67 46 68 39 69 45 70 47 71 44 72 40 73 41 74 42 75 43 76
REMARK SMILES IDX 69 77 70 78 78 79 71 80 77 81 79 82 76 83 72 84 73 85 74 86
REMARK SMILES IDX 75 87 54 88 55 89 63 90 56 91 62 92 64 93 61 94 57 95 58 96
REMARK SMILES IDX 59 97 60 98
REMARK H PARENT 20 6 25 32 84 51 52 62
REMARK Flexibility Score: inf
ROOT
ATOM      1  C   UNL A   1      33.659  35.808  28.899  1.00  0.00     0.023 C 
ENDROOT
BRANCH   1   2
ATOM      2  C   UNL A   1      33.114  35.373  30.261  1.00  0.00     0.116 C 
BRANCH   2   3
ATOM      3  N   UNL A   1      33.589  36.217  31.339  1.00  0.00    -0.356 N 
ATOM      4  C   UNL A   1      34.374  35.956  32.420  1.00  0.00     0.227 C 
ATOM      5  O   UNL A   1      34.561  36.891  33.208  1.00  0.00    -0.274 OA
ATOM      6  H   UNL A   1      33.289  37.153  31.278  1.00  0.00     0.163 HD
BRANCH   4   7
ATOM      7  C   UNL A   1      35.024  34.591  32.701  1.00  0.00     0.105 C 
ATOM      8  C   UNL A   1      34.837  34.087  34.132  1.00  0.00     0.023 C 
BRANCH   7   9
ATOM      9  C   UNL A   1      36.428  34.464  32.136  1.00  0.00    -0.033 A 
ATOM     10  C   UNL A   1      39.045  34.376  30.968  1.00  0.00     0.018 A 
ATOM     11  C   UNL A   1      38.844  34.621  32.340  1.00  0.00     0.012 A 
ATOM     12  C   UNL A   1      37.888  34.156  30.207  1.00  0.00     0.131 A 
ATOM     13  C   UNL A   1      37.572  34.618  32.918  1.00  0.00     0.005 A 
ATOM     14  C   UNL A   1      36.607  34.220  30.766  1.00  0.00     0.044 A 
ATOM     15  F   UNL A   1      37.971  33.863  28.900  1.00  0.00    -0.206 F 
BRANCH  10  16
ATOM     16  C   UNL A   1      40.417  34.377  30.401  1.00  0.00    -0.008 A 
ATOM     17  C   UNL A   1      42.078  35.152  28.792  1.00  0.00     0.123 A 
ATOM     18  C   UNL A   1      43.076  34.425  29.436  1.00  0.00     0.092 A 
ATOM     19  C   UNL A   1      40.763  35.123  29.264  1.00  0.00     0.055 A 
ATOM     20  C   UNL A   1      42.766  33.660  30.558  1.00  0.00     0.123 A 
ATOM     21  C   UNL A   1      41.445  33.630  31.013  1.00  0.00     0.055 A 
BRANCH  17  22
ATOM     22  O   UNL A   1      42.395  35.784  27.621  1.00  0.00    -0.494 OA
BRANCH  22  23
ATOM     23  C   UNL A   1      43.004  37.068  27.805  1.00  0.00     0.226 C 
ATOM     24  C   UNL A   1      42.186  38.177  27.163  1.00  0.00     0.049 C 
ENDBRANCH  22  23
ENDBRANCH  17  22
BRANCH  20  25
ATOM     25  O   UNL A   1      43.817  33.003  31.139  1.00  0.00    -0.494 OA
BRANCH  25  26
ATOM     26  C   UNL A   1      43.720  32.656  32.524  1.00  0.00     0.226 C 
ATOM     27  C   UNL A   1      45.020  32.070  33.055  1.00  0.00     0.049 C 
ENDBRANCH  25  26
ENDBRANCH  20  25
ENDBRANCH  10  16
ENDBRANCH   7   9
ENDBRANCH   4   7
ENDBRANCH   2   3
ENDBRANCH   1   2
BRANCH   1  28
ATOM     28  C   UNL A   1      34.308  34.697  28.075  1.00  0.00     0.023 C 
BRANCH  28  29
ATOM     29  C   UNL A   1      34.097  33.285  28.609  1.00  0.00     0.116 C 
BRANCH  29  30
ATOM     30  N   UNL A   1      33.466  32.378  27.660  1.00  0.00    -0.352 N 
ATOM     31  C   UNL A   1      33.918  31.139  27.254  1.00  0.00     0.251 C 
ATOM     32  H   UNL A   1      32.619  32.684  27.263  1.00  0.00     0.163 HD
ATOM     33  O   UNL A   1      33.324  30.515  26.386  1.00  0.00    -0.269 OA
BRANCH  31  34
ATOM     34  C   UNL A   1      35.165  30.613  27.853  1.00  0.00     0.039 A 
ATOM     35  C   UNL A   1      36.334  31.373  27.762  1.00  0.00     0.014 A 
ATOM     36  C   UNL A   1      35.144  29.425  28.587  1.00  0.00     0.014 A 
ATOM     37  C   UNL A   1      37.464  30.982  28.485  1.00  0.00     0.010 A 
ATOM     38  C   UNL A   1      36.245  29.081  29.361  1.00  0.00     0.010 A 
ATOM     39  C   UNL A   1      37.413  29.861  29.328  1.00  0.00    -0.014 A 
BRANCH  39  40
ATOM     40  C   UNL A   1      38.560  29.467  30.186  1.00  0.00     0.031 A 
ATOM     41  C   UNL A   1      38.696  30.067  31.558  1.00  0.00     0.074 A 
ATOM     42  C   UNL A   1      39.527  28.666  29.695  1.00  0.00     0.049 A 
ATOM     43  N   UNL A   1      39.698  30.008  32.395  1.00  0.00    -0.248 NA
ATOM     44  C   UNL A   1      37.563  30.878  32.028  1.00  0.00     0.031 C 
ATOM     45  C   UNL A   1      39.528  28.054  28.364  1.00  0.00     0.029 A 
ATOM     46  N   UNL A   1      40.709  28.245  30.252  1.00  0.00    -0.354 N 
ATOM     47  C   UNL A   1      39.333  30.802  33.478  1.00  0.00     0.074 A 
ATOM     48  C   UNL A   1      38.039  31.371  33.160  1.00  0.00     0.031 C 
ATOM     49  C   UNL A   1      40.649  27.330  28.214  1.00  0.00     0.029 A 
ATOM     50  C   UNL A   1      41.468  27.462  29.414  1.00  0.00     0.049 A 
ATOM     51  H   UNL A   1      40.988  28.483  31.166  1.00  0.00     0.167 HD
ATOM     52  C   UNL A   1      40.004  31.020  34.635  1.00  0.00     0.034 A 
ATOM     53  C   UNL A   1      42.693  26.926  29.587  1.00  0.00     0.034 A 
ATOM     54  C   UNL A   1      41.279  30.420  34.945  1.00  0.00     0.049 A 
ATOM     55  C   UNL A   1      43.418  27.171  30.886  1.00  0.00     0.074 A 
ATOM     56  C   UNL A   1      42.026  30.527  36.106  1.00  0.00     0.029 A 
ATOM     57  N   UNL A   1      41.996  29.593  34.088  1.00  0.00    -0.354 N 
ATOM     58  N   UNL A   1      43.048  27.901  31.913  1.00  0.00    -0.248 NA
ATOM     59  C   UNL A   1      44.721  26.514  31.053  1.00  0.00     0.031 C 
ATOM     60  C   UNL A   1      43.214  29.808  35.931  1.00  0.00     0.029 A 
ATOM     61  C   UNL A   1      43.181  29.198  34.688  1.00  0.00     0.049 A 
ATOM     62  H   UNL A   1      41.704  29.328  33.186  1.00  0.00     0.167 HD
ATOM     63  C   UNL A   1      44.057  27.762  32.861  1.00  0.00     0.074 A 
ATOM     64  C   UNL A   1      45.047  26.874  32.286  1.00  0.00     0.031 C 
ATOM     65  C   UNL A   1      44.155  28.311  34.098  1.00  0.00     0.034 A 
BRANCH  52  66
ATOM     66  C   UNL A   1      39.376  31.965  35.630  1.00  0.00     0.023 A 
ATOM     67  C   UNL A   1      39.755  33.317  35.702  1.00  0.00     0.031 A 
ATOM     68  C   UNL A   1      38.424  31.499  36.555  1.00  0.00     0.131 A 
ATOM     69  C   UNL A   1      39.257  34.130  36.731  1.00  0.00     0.055 A 
ATOM     70  C   UNL A   1      37.865  32.338  37.521  1.00  0.00     0.041 A 
ATOM     71  F   UNL A   1      38.037  30.213  36.549  1.00  0.00    -0.206 F 
ATOM     72  C   UNL A   1      38.295  33.658  37.625  1.00  0.00     0.022 A 
BRANCH  69  73
ATOM     73  S   UNL A   1      40.007  35.763  36.978  1.00  0.00     0.124 S 
ATOM     74  O   UNL A   1      39.324  36.219  38.186  1.00  0.00    -0.237 OA
ATOM     75  O   UNL A   1      41.421  35.442  37.127  1.00  0.00    -0.237 OA
ATOM     76  O   UNL A   1      39.654  36.490  35.761  1.00  0.00    -0.744 OA
ENDBRANCH  69  73
ENDBRANCH  52  66
BRANCH  53  77
ATOM     77  C   UNL A   1      43.323  26.114  28.508  1.00  0.00     0.023 A 
ATOM     78  C   UNL A   1      44.288  26.674  27.657  1.00  0.00     0.031 A 
ATOM     79  C   UNL A   1      42.942  24.779  28.288  1.00  0.00     0.131 A 
ATOM     80  C   UNL A   1      44.808  25.918  26.595  1.00  0.00     0.055 A 
ATOM     81  C   UNL A   1      43.497  24.015  27.259  1.00  0.00     0.041 A 
ATOM     82  F   UNL A   1      42.030  24.193  29.080  1.00  0.00    -0.206 F 
ATOM     83  C   UNL A   1      44.427  24.589  26.397  1.00  0.00     0.022 A 
BRANCH  80  84
ATOM     84  S   UNL A   1      45.939  26.723  25.428  1.00  0.00     0.124 S 
ATOM     85  O   UNL A   1      46.265  25.625  24.525  1.00  0.00    -0.237 OA
ATOM     86  O   UNL A   1      45.100  27.780  24.875  1.00  0.00    -0.237 OA
ATOM     87  O   UNL A   1      47.036  27.180  26.277  1.00  0.00    -0.744 OA
ENDBRANCH  80  84
ENDBRANCH  53  77
BRANCH  65  88
ATOM     88  C   UNL A   1      45.345  27.911  34.932  1.00  0.00     0.023 A 
ATOM     89  C   UNL A   1      45.298  26.821  35.818  1.00  0.00     0.031 A 
ATOM     90  C   UNL A   1      46.545  28.637  34.834  1.00  0.00     0.131 A 
ATOM     91  C   UNL A   1      46.418  26.516  36.606  1.00  0.00     0.055 A 
ATOM     92  C   UNL A   1      47.671  28.299  35.584  1.00  0.00     0.041 A 
ATOM     93  F   UNL A   1      46.641  29.687  34.002  1.00  0.00    -0.206 F 
ATOM     94  C   UNL A   1      47.608  27.239  36.484  1.00  0.00     0.022 A 
BRANCH  91  95
ATOM     95  S   UNL A   1      46.278  25.203  37.849  1.00  0.00     0.124 S 
ATOM     96  O   UNL A   1      46.569  24.008  37.064  1.00  0.00    -0.237 OA
ATOM     97  O   UNL A   1      47.294  25.588  38.825  1.00  0.00    -0.237 OA
ATOM     98  O   UNL A   1      44.898  25.318  38.317  1.00  0.00    -0.744 OA
ENDBRANCH  91  95
ENDBRANCH  65  88
ENDBRANCH  39  40
ENDBRANCH  31  34
ENDBRANCH  29  30
ENDBRANCH  28  29
ENDBRANCH   1  28
TORSDOF 20
ENDMDL
MODEL 2
REMARK VINA RESULT:      -9.4      2.132      2.449
REMARK SMILES CCOc1cc(OCC)cc(-c2ccc([C@@H](C)C(=O)NCCCCNC(=O)c3ccc(-c4c5nc(c(-c6cc(S(=O)(=O)[O-])ccc6F)c6ccc([nH]6)c(-c6cc(S(=O)(=O)[O-])ccc6F)c6nc(c(-c7cc(S(=O)(=O)[O-])ccc7F)c7ccc4[nH]7)C=C6)C=C5)cc3)cc2F)c1
REMARK SMILES IDX 22 1 21 2 20 3 18 4 19 5 16 7 17 8 15 9 12 10 13 11 92 12
REMARK SMILES IDX 14 13 91 14 93 15 11 16 4 17 5 18 94 19 6 20 10 21 3 22 2 23
REMARK SMILES IDX 1 24 7 25 8 26 9 27 23 28 24 29 25 30 26 31 27 33 28 34
REMARK SMILES IDX 29 35 90 36 30 37 89 38 31 39 32 40 33 41 83 42 34 43 88 44
REMARK SMILES IDX 82 45 84 46 35 47 87 48 81 49 80 50 36 52 68 53 48 54 67 55
REMARK SMILES IDX 49 56 52 57 66 58 85 59 50 60 51 61 65 63 86 64 53 65 37 66
REMARK SMILES IDX 38 67 46 68 39 69 45 70 47 71 44 72 40 73 41 74 42 75 43 76
REMARK SMILES IDX 69 77 70 78 78 79 71 80 77 81 79 82 76 83 72 84 73 85 74 86
REMARK SMILES IDX 75 87 54 88 55 89 63 90 56 91 62 92 64 93 61 94 57 95 58 96
REMARK SMILES IDX 59 97 60 98
REMARK H PARENT 20 6 25 32 84 51 52 62
REMARK Flexibility Score: inf
ROOT
ATOM      1  C   UNL A   1      33.712  35.567  28.864  1.00  0.00     0.023 C 
ENDROOT
BRANCH   1   2
ATOM      2  C   UNL A   1      33.464  35.064  30.287  1.00  0.00     0.116 C 
BRANCH   2   3
ATOM      3  N   UNL A   1      33.916  36.007  31.291  1.00  0.00    -0.356 N 
ATOM      4  C   UNL A   1      34.683  35.852  32.404  1.00  0.00     0.227 C 
ATOM      5  O   UNL A   1      34.851  36.857  33.105  1.00  0.00    -0.274 OA
ATOM      6  H   UNL A   1      33.611  36.931  31.140  1.00  0.00     0.163 HD
BRANCH   4   7
ATOM      7  C   UNL A   1      35.336  34.524  32.820  1.00  0.00     0.105 C 
ATOM      8  C   UNL A   1      35.219  34.203  34.310  1.00  0.00     0.023 C 
BRANCH   7   9
ATOM      9  C   UNL A   1      36.709  34.308  32.206  1.00  0.00    -0.033 A 
ATOM     10  C   UNL A   1      39.259  34.035  30.925  1.00  0.00     0.018 A 
ATOM     11  C   UNL A   1      39.131  34.494  32.250  1.00  0.00     0.012 A 
ATOM     12  C   UNL A   1      38.064  33.697  30.273  1.00  0.00     0.131 A 
ATOM     13  C   UNL A   1      37.891  34.584  32.890  1.00  0.00     0.005 A 
ATOM     14  C   UNL A   1      36.815  33.850  30.885  1.00  0.00     0.044 A 
ATOM     15  F   UNL A   1      38.078  33.200  29.026  1.00  0.00    -0.206 F 
BRANCH  10  16
ATOM     16  C   UNL A   1      40.598  33.945  30.290  1.00  0.00    -0.008 A 
ATOM     17  C   UNL A   1      42.491  34.936  29.115  1.00  0.00     0.123 A 
ATOM     18  C   UNL A   1      43.200  33.741  29.200  1.00  0.00     0.092 A 
ATOM     19  C   UNL A   1      41.203  35.035  29.648  1.00  0.00     0.055 A 
ATOM     20  C   UNL A   1      42.625  32.632  29.817  1.00  0.00     0.123 A 
ATOM     21  C   UNL A   1      41.332  32.741  30.334  1.00  0.00     0.055 A 
BRANCH  17  22
ATOM     22  O   UNL A   1      43.037  35.959  28.389  1.00  0.00    -0.494 OA
BRANCH  22  23
ATOM     23  C   UNL A   1      42.160  36.489  27.388  1.00  0.00     0.226 C 
ATOM     24  C   UNL A   1      41.947  37.985  27.558  1.00  0.00     0.049 C 
ENDBRANCH  22  23
ENDBRANCH  17  22
BRANCH  20  25
ATOM     25  O   UNL A   1      43.409  31.512  29.876  1.00  0.00    -0.494 OA
BRANCH  25  26
ATOM     26  C   UNL A   1      44.227  31.316  31.034  1.00  0.00     0.226 C 
ATOM     27  C   UNL A   1      45.447  30.458  30.729  1.00  0.00     0.049 C 
ENDBRANCH  25  26
ENDBRANCH  20  25
ENDBRANCH  10  16
ENDBRANCH   7   9
ENDBRANCH   4   7
ENDBRANCH   2   3
ENDBRANCH   1   2
BRANCH   1  28
ATOM     28  C   UNL A   1      34.730  34.760  28.059  1.00  0.00     0.023 C 
BRANCH  28  29
ATOM     29  C   UNL A   1      34.827  33.284  28.428  1.00  0.00     0.116 C 
BRANCH  29  30
ATOM     30  N   UNL A   1      33.896  32.428  27.707  1.00  0.00    -0.352 N 
ATOM     31  C   UNL A   1      34.034  31.083  27.428  1.00  0.00     0.251 C 
ATOM     32  H   UNL A   1      33.072  32.858  27.380  1.00  0.00     0.163 HD
ATOM     33  O   UNL A   1      33.205  30.503  26.740  1.00  0.00    -0.269 OA
BRANCH  31  34
ATOM     34  C   UNL A   1      35.233  30.380  27.933  1.00  0.00     0.039 A 
ATOM     35  C   UNL A   1      36.454  30.564  27.279  1.00  0.00     0.014 A 
ATOM     36  C   UNL A   1      35.162  29.626  29.107  1.00  0.00     0.014 A 
ATOM     37  C   UNL A   1      37.624  30.063  27.855  1.00  0.00     0.010 A 
ATOM     38  C   UNL A   1      36.335  29.194  29.713  1.00  0.00     0.010 A 
ATOM     39  C   UNL A   1      37.579  29.417  29.101  1.00  0.00    -0.014 A 
BRANCH  39  40
ATOM     40  C   UNL A   1      38.810  28.954  29.793  1.00  0.00     0.031 A 
ATOM     41  C   UNL A   1      39.205  29.586  31.099  1.00  0.00     0.074 A 
ATOM     42  C   UNL A   1      39.622  28.055  29.200  1.00  0.00     0.049 A 
ATOM     43  N   UNL A   1      40.316  29.470  31.776  1.00  0.00    -0.248 NA
ATOM     44  C   UNL A   1      38.228  30.509  31.696  1.00  0.00     0.031 C 
ATOM     45  C   UNL A   1      39.367  27.400  27.915  1.00  0.00     0.029 A 
ATOM     46  N   UNL A   1      40.838  27.553  29.591  1.00  0.00    -0.354 N 
ATOM     47  C   UNL A   1      40.188  30.329  32.863  1.00  0.00     0.074 A 
ATOM     48  C   UNL A   1      38.912  30.997  32.718  1.00  0.00     0.031 C 
ATOM     49  C   UNL A   1      40.389  26.577  27.631  1.00  0.00     0.029 A 
ATOM     50  C   UNL A   1      41.392  26.678  28.686  1.00  0.00     0.049 A 
ATOM     51  H   UNL A   1      41.273  27.796  30.440  1.00  0.00     0.167 HD
ATOM     52  C   UNL A   1      41.046  30.527  33.894  1.00  0.00     0.034 A 
ATOM     53  C   UNL A   1      42.581  26.043  28.697  1.00  0.00     0.034 A 
ATOM     54  C   UNL A   1      42.300  29.829  34.035  1.00  0.00     0.049 A 
ATOM     55  C   UNL A   1      43.516  26.269  29.858  1.00  0.00     0.074 A 
ATOM     56  C   UNL A   1      43.225  29.911  35.063  1.00  0.00     0.029 A 
ATOM     57  N   UNL A   1      42.807  28.914  33.120  1.00  0.00    -0.354 N 
ATOM     58  N   UNL A   1      43.370  27.063  30.893  1.00  0.00    -0.248 NA
ATOM     59  C   UNL A   1      44.772  25.507  29.857  1.00  0.00     0.031 C 
ATOM     60  C   UNL A   1      44.310  29.085  34.745  1.00  0.00     0.029 A 
ATOM     61  C   UNL A   1      44.035  28.438  33.552  1.00  0.00     0.049 A 
ATOM     62  H   UNL A   1      42.358  28.645  32.286  1.00  0.00     0.167 HD
ATOM     63  C   UNL A   1      44.499  26.869  31.683  1.00  0.00     0.074 A 
ATOM     64  C   UNL A   1      45.313  25.879  31.007  1.00  0.00     0.031 C 
ATOM     65  C   UNL A   1      44.831  27.450  32.864  1.00  0.00     0.034 A 
BRANCH  52  66
ATOM     66  C   UNL A   1      40.658  31.557  34.927  1.00  0.00     0.023 A 
ATOM     67  C   UNL A   1      39.717  31.274  35.932  1.00  0.00     0.031 A 
ATOM     68  C   UNL A   1      41.195  32.856  34.876  1.00  0.00     0.131 A 
ATOM     69  C   UNL A   1      39.274  32.296  36.785  1.00  0.00     0.055 A 
ATOM     70  C   UNL A   1      40.815  33.846  35.785  1.00  0.00     0.041 A 
ATOM     71  F   UNL A   1      42.082  33.192  33.926  1.00  0.00    -0.206 F 
ATOM     72  C   UNL A   1      39.835  33.573  36.736  1.00  0.00     0.022 A 
BRANCH  69  73
ATOM     73  S   UNL A   1      37.841  31.970  37.848  1.00  0.00     0.124 S 
ATOM     74  O   UNL A   1      38.411  32.171  39.178  1.00  0.00    -0.237 OA
ATOM     75  O   UNL A   1      36.884  32.976  37.406  1.00  0.00    -0.237 OA
ATOM     76  O   UNL A   1      37.488  30.587  37.533  1.00  0.00    -0.744 OA
ENDBRANCH  69  73
ENDBRANCH  52  66
BRANCH  53  77
ATOM     77  C   UNL A   1      42.969  25.143  27.575  1.00  0.00     0.023 A 
ATOM     78  C   UNL A   1      42.485  23.827  27.508  1.00  0.00     0.031 A 
ATOM     79  C   UNL A   1      43.859  25.571  26.574  1.00  0.00     0.131 A 
ATOM     80  C   UNL A   1      42.927  22.969  26.490  1.00  0.00     0.055 A 
ATOM     81  C   UNL A   1      44.259  24.728  25.536  1.00  0.00     0.041 A 
ATOM     82  F   UNL A   1      44.343  26.823  26.587  1.00  0.00    -0.206 F 
ATOM     83  C   UNL A   1      43.803  23.413  25.497  1.00  0.00     0.022 A 
BRANCH  80  84
ATOM     84  S   UNL A   1      42.397  21.234  26.524  1.00  0.00     0.124 S 
ATOM     85  O   UNL A   1      42.349  20.966  27.957  1.00  0.00    -0.237 OA
ATOM     86  O   UNL A   1      41.110  21.299  25.840  1.00  0.00    -0.237 OA
ATOM     87  O   UNL A   1      43.455  20.541  25.794  1.00  0.00    -0.744 OA
ENDBRANCH  80  84
ENDBRANCH  53  77
BRANCH  65  88
ATOM     88  C   UNL A   1      46.099  26.976  33.526  1.00  0.00     0.023 A 
ATOM     89  C   UNL A   1      46.107  25.907  34.438  1.00  0.00     0.031 A 
ATOM     90  C   UNL A   1      47.320  27.611  33.235  1.00  0.00     0.131 A 
ATOM     91  C   UNL A   1      47.306  25.533  35.063  1.00  0.00     0.055 A 
ATOM     92  C   UNL A   1      48.518  27.203  33.822  1.00  0.00     0.041 A 
ATOM     93  F   UNL A   1      47.367  28.637  32.371  1.00  0.00    -0.206 F 
ATOM     94  C   UNL A   1      48.513  26.165  34.749  1.00  0.00     0.022 A 
BRANCH  91  95
ATOM     95  S   UNL A   1      47.258  24.254  36.347  1.00  0.00     0.124 S 
ATOM     96  O   UNL A   1      48.589  23.664  36.240  1.00  0.00    -0.237 OA
ATOM     97  O   UNL A   1      47.001  25.033  37.554  1.00  0.00    -0.237 OA
ATOM     98  O   UNL A   1      46.160  23.385  35.927  1.00  0.00    -0.744 OA
ENDBRANCH  91  95
ENDBRANCH  65  88
ENDBRANCH  39  40
ENDBRANCH  31  34
ENDBRANCH  29  30
ENDBRANCH  28  29
ENDBRANCH   1  28
TORSDOF 20
ENDMDL
MODEL 3
REMARK VINA RESULT:      -9.0      2.694      3.298
REMARK SMILES CCOc1cc(OCC)cc(-c2ccc([C@@H](C)C(=O)NCCCCNC(=O)c3ccc(-c4c5nc(c(-c6cc(S(=O)(=O)[O-])ccc6F)c6ccc([nH]6)c(-c6cc(S(=O)(=O)[O-])ccc6F)c6nc(c(-c7cc(S(=O)(=O)[O-])ccc7F)c7ccc4[nH]7)C=C6)C=C5)cc3)cc2F)c1
REMARK SMILES IDX 22 1 21 2 20 3 18 4 19 5 16 7 17 8 15 9 12 10 13 11 92 12
REMARK SMILES IDX 14 13 91 14 93 15 11 16 4 17 5 18 94 19 6 20 10 21 3 22 2 23
REMARK SMILES IDX 1 24 7 25 8 26 9 27 23 28 24 29 25 30 26 31 27 33 28 34
REMARK SMILES IDX 29 35 90 36 30 37 89 38 31 39 32 40 33 41 83 42 34 43 88 44
REMARK SMILES IDX 82 45 84 46 35 47 87 48 81 49 80 50 36 52 68 53 48 54 67 55
REMARK SMILES IDX 49 56 52 57 66 58 85 59 50 60 51 61 65 63 86 64 53 65 37 66
REMARK SMILES IDX 38 67 46 68 39 69 45 70 47 71 44 72 40 73 41 74 42 75 43 76
REMARK SMILES IDX 69 77 70 78 78 79 71 80 77 81 79 82 76 83 72 84 73 85 74 86
REMARK SMILES IDX 75 87 54 88 55 89 63 90 56 91 62 92 64 93 61 94 57 95 58 96
REMARK SMILES IDX 59 97 60 98
REMARK H PARENT 20 6 25 32 84 51 52 62
REMARK Flexibility Score: inf
ROOT
ATOM      1  C   UNL A   1      33.403  34.992  29.291  1.00  0.00     0.023 C 
ENDROOT
BRANCH   1   2
ATOM      2  C   UNL A   1      34.558  34.731  30.260  1.00  0.00     0.116 C 
BRANCH   2   3
ATOM      3  N   UNL A   1      34.481  35.562  31.445  1.00  0.00    -0.356 N 
ATOM      4  C   UNL A   1      34.952  35.387  32.710  1.00  0.00     0.227 C 
ATOM      5  O   UNL A   1      34.671  36.268  33.532  1.00  0.00    -0.274 OA
ATOM      6  H   UNL A   1      34.000  36.410  31.310  1.00  0.00     0.163 HD
BRANCH   4   7
ATOM      7  C   UNL A   1      35.793  34.180  33.155  1.00  0.00     0.105 C 
ATOM      8  C   UNL A   1      35.827  33.958  34.667  1.00  0.00     0.023 C 
BRANCH   7   9
ATOM      9  C   UNL A   1      37.132  34.084  32.445  1.00  0.00    -0.033 A 
ATOM     10  C   UNL A   1      39.597  34.026  30.982  1.00  0.00     0.018 A 
ATOM     11  C   UNL A   1      39.518  34.522  32.298  1.00  0.00     0.012 A 
ATOM     12  C   UNL A   1      38.402  33.539  30.435  1.00  0.00     0.131 A 
ATOM     13  C   UNL A   1      38.326  34.508  33.027  1.00  0.00     0.005 A 
ATOM     14  C   UNL A   1      37.191  33.586  31.135  1.00  0.00     0.044 A 
ATOM     15  F   UNL A   1      38.378  32.997  29.208  1.00  0.00    -0.206 F 
BRANCH  10  16
ATOM     16  C   UNL A   1      40.889  34.051  30.250  1.00  0.00    -0.008 A 
ATOM     17  C   UNL A   1      42.461  35.083  28.697  1.00  0.00     0.123 A 
ATOM     18  C   UNL A   1      43.412  34.104  28.973  1.00  0.00     0.092 A 
ATOM     19  C   UNL A   1      41.212  35.052  29.323  1.00  0.00     0.055 A 
ATOM     20  C   UNL A   1      43.121  33.084  29.876  1.00  0.00     0.123 A 
ATOM     21  C   UNL A   1      41.864  33.059  30.486  1.00  0.00     0.055 A 
BRANCH  17  22
ATOM     22  O   UNL A   1      42.736  35.989  27.711  1.00  0.00    -0.494 OA
BRANCH  22  23
ATOM     23  C   UNL A   1      43.306  37.211  28.192  1.00  0.00     0.226 C 
ATOM     24  C   UNL A   1      42.495  38.422  27.758  1.00  0.00     0.049 C 
ENDBRANCH  22  23
ENDBRANCH  17  22
BRANCH  20  25
ATOM     25  O   UNL A   1      44.128  32.185  30.103  1.00  0.00    -0.494 OA
BRANCH  25  26
ATOM     26  C   UNL A   1      44.660  32.081  31.427  1.00  0.00     0.226 C 
ATOM     27  C   UNL A   1      45.666  33.183  31.724  1.00  0.00     0.049 C 
ENDBRANCH  25  26
ENDBRANCH  20  25
ENDBRANCH  10  16
ENDBRANCH   7   9
ENDBRANCH   4   7
ENDBRANCH   2   3
ENDBRANCH   1   2
BRANCH   1  28
ATOM     28  C   UNL A   1      33.278  33.989  28.145  1.00  0.00     0.023 C 
BRANCH  28  29
ATOM     29  C   UNL A   1      34.071  32.699  28.322  1.00  0.00     0.116 C 
BRANCH  29  30
ATOM     30  N   UNL A   1      33.603  31.595  27.496  1.00  0.00    -0.352 N 
ATOM     31  C   UNL A   1      34.231  30.386  27.272  1.00  0.00     0.251 C 
ATOM     32  H   UNL A   1      32.737  31.725  27.044  1.00  0.00     0.163 HD
ATOM     33  O   UNL A   1      33.758  29.576  26.488  1.00  0.00    -0.269 OA
BRANCH  31  34
ATOM     34  C   UNL A   1      35.514  30.123  27.961  1.00  0.00     0.039 A 
ATOM     35  C   UNL A   1      35.494  29.655  29.278  1.00  0.00     0.014 A 
ATOM     36  C   UNL A   1      36.720  30.243  27.268  1.00  0.00     0.014 A 
ATOM     37  C   UNL A   1      36.682  29.221  29.870  1.00  0.00     0.010 A 
ATOM     38  C   UNL A   1      37.887  29.743  27.834  1.00  0.00     0.010 A 
ATOM     39  C   UNL A   1      37.879  29.217  29.136  1.00  0.00    -0.014 A 
BRANCH  39  40
ATOM     40  C   UNL A   1      39.145  28.676  29.696  1.00  0.00     0.031 A 
ATOM     41  C   UNL A   1      39.745  29.315  30.917  1.00  0.00     0.074 A 
ATOM     42  C   UNL A   1      39.804  27.693  29.049  1.00  0.00     0.049 A 
ATOM     43  N   UNL A   1      40.918  29.128  31.462  1.00  0.00    -0.248 NA
ATOM     44  C   UNL A   1      38.924  30.335  31.587  1.00  0.00     0.031 C 
ATOM     45  C   UNL A   1      39.343  27.020  27.833  1.00  0.00     0.029 A 
ATOM     46  N   UNL A   1      41.015  27.104  29.314  1.00  0.00    -0.354 N 
ATOM     47  C   UNL A   1      40.992  30.030  32.519  1.00  0.00     0.074 A 
ATOM     48  C   UNL A   1      39.764  30.798  32.499  1.00  0.00     0.031 C 
ATOM     49  C   UNL A   1      40.254  26.105  27.464  1.00  0.00     0.029 A 
ATOM     50  C   UNL A   1      41.383  26.156  28.387  1.00  0.00     0.049 A 
ATOM     51  H   UNL A   1      41.568  27.338  30.094  1.00  0.00     0.167 HD
ATOM     52  C   UNL A   1      41.982  30.189  33.431  1.00  0.00     0.034 A 
ATOM     53  C   UNL A   1      42.510  25.425  28.283  1.00  0.00     0.034 A 
ATOM     54  C   UNL A   1      43.185  29.393  33.451  1.00  0.00     0.049 A 
ATOM     55  C   UNL A   1      43.595  25.609  29.314  1.00  0.00     0.074 A 
ATOM     56  C   UNL A   1      44.231  29.431  34.357  1.00  0.00     0.029 A 
ATOM     57  N   UNL A   1      43.502  28.410  32.522  1.00  0.00    -0.354 N 
ATOM     58  N   UNL A   1      43.640  26.447  30.325  1.00  0.00    -0.248 NA
ATOM     59  C   UNL A   1      44.777  24.745  29.196  1.00  0.00     0.031 C 
ATOM     60  C   UNL A   1      45.201  28.507  33.948  1.00  0.00     0.029 A 
ATOM     61  C   UNL A   1      44.732  27.847  32.824  1.00  0.00     0.049 A 
ATOM     62  H   UNL A   1      42.935  28.152  31.759  1.00  0.00     0.167 HD
ATOM     63  C   UNL A   1      44.838  26.185  30.982  1.00  0.00     0.074 A 
ATOM     64  C   UNL A   1      45.483  25.108  30.257  1.00  0.00     0.031 C 
ATOM     65  C   UNL A   1      45.357  26.773  32.089  1.00  0.00     0.034 A 
BRANCH  52  66
ATOM     66  C   UNL A   1      41.806  31.281  34.458  1.00  0.00     0.023 A 
ATOM     67  C   UNL A   1      42.259  32.591  34.224  1.00  0.00     0.031 A 
ATOM     68  C   UNL A   1      41.226  30.999  35.708  1.00  0.00     0.131 A 
ATOM     69  C   UNL A   1      42.209  33.544  35.253  1.00  0.00     0.055 A 
ATOM     70  C   UNL A   1      41.098  31.976  36.697  1.00  0.00     0.041 A 
ATOM     71  F   UNL A   1      40.794  29.761  35.997  1.00  0.00    -0.206 F 
ATOM     72  C   UNL A   1      41.609  33.253  36.479  1.00  0.00     0.022 A 
BRANCH  69  73
ATOM     73  S   UNL A   1      43.085  35.114  35.017  1.00  0.00     0.124 S 
ATOM     74  O   UNL A   1      42.744  35.828  36.245  1.00  0.00    -0.237 OA
ATOM     75  O   UNL A   1      44.473  34.686  34.892  1.00  0.00    -0.237 OA
ATOM     76  O   UNL A   1      42.486  35.661  33.801  1.00  0.00    -0.744 OA
ENDBRANCH  69  73
ENDBRANCH  52  66
BRANCH  53  77
ATOM     77  C   UNL A   1      42.686  24.459  27.163  1.00  0.00     0.023 A 
ATOM     78  C   UNL A   1      42.117  23.177  27.222  1.00  0.00     0.031 A 
ATOM     79  C   UNL A   1      43.456  24.788  26.034  1.00  0.00     0.131 A 
ATOM     80  C   UNL A   1      42.363  22.254  26.194  1.00  0.00     0.055 A 
ATOM     81  C   UNL A   1      43.658  23.882  24.991  1.00  0.00     0.041 A 
ATOM     82  F   UNL A   1      44.013  26.005  25.923  1.00  0.00    -0.206 F 
ATOM     83  C   UNL A   1      43.122  22.601  25.074  1.00  0.00     0.022 A 
BRANCH  80  84
ATOM     84  S   UNL A   1      41.737  20.561  26.379  1.00  0.00     0.124 S 
ATOM     85  O   UNL A   1      42.501  19.849  25.361  1.00  0.00    -0.237 OA
ATOM     86  O   UNL A   1      42.081  20.262  27.765  1.00  0.00    -0.237 OA
ATOM     87  O   UNL A   1      40.308  20.695  26.109  1.00  0.00    -0.744 OA
ENDBRANCH  80  84
ENDBRANCH  53  77
BRANCH  65  88
ATOM     88  C   UNL A   1      46.655  26.217  32.615  1.00  0.00     0.023 A 
ATOM     89  C   UNL A   1      47.900  26.671  32.149  1.00  0.00     0.031 A 
ATOM     90  C   UNL A   1      46.640  25.216  33.603  1.00  0.00     0.131 A 
ATOM     91  C   UNL A   1      49.081  26.090  32.637  1.00  0.00     0.055 A 
ATOM     92  C   UNL A   1      47.817  24.677  34.120  1.00  0.00     0.041 A 
ATOM     93  F   UNL A   1      45.476  24.749  34.082  1.00  0.00    -0.206 F 
ATOM     94  C   UNL A   1      49.047  25.107  33.630  1.00  0.00     0.022 A 
BRANCH  91  95
ATOM     95  S   UNL A   1      50.664  26.587  31.906  1.00  0.00     0.124 S 
ATOM     96  O   UNL A   1      51.413  27.035  33.076  1.00  0.00    -0.237 OA
ATOM     97  O   UNL A   1      51.126  25.346  31.290  1.00  0.00    -0.237 OA
ATOM     98  O   UNL A   1      50.293  27.642  30.966  1.00  0.00    -0.744 OA
ENDBRANCH  91  95
ENDBRANCH  65  88
ENDBRANCH  39  40
ENDBRANCH  31  34
ENDBRANCH  29  30
ENDBRANCH  28  29
ENDBRANCH   1  28
TORSDOF 20
ENDMDL
