MODEL 1
REMARK VINA RESULT:     -12.6      0.000      0.000
REMARK SMILES CC1=C(C(=O)NCCCCNC(=O)c2ccc(-c3c4nc(c(-c5cc(S(=O)(=O)[O-])ccc5F)c5ccc([nH]5)c(-c5cc(S(=O)(=O)[O-])ccc5F)c5nc(c(-c6cc(S(=O)(=O)[O-])ccc6F)c6ccc3[nH]6)C=C5)C=C4)cc2)N2C(=O)[C@H](NC(=O)c3c(Cl)c(C(F)(F)F)nn3C)[C@@H]2SC1
REMARK SMILES IDX 8 1 7 2 6 3 4 4 5 5 3 7 1 8 2 9 97 10 77 11 96 12 78 13
REMARK SMILES IDX 95 14 79 15 80 16 81 17 82 18 83 20 84 21 85 22 93 23 86 24
REMARK SMILES IDX 87 25 92 26 94 27 88 28 89 29 90 30 91 31 9 32 10 33 11 34
REMARK SMILES IDX 12 35 13 37 14 38 15 39 76 40 16 41 75 42 17 43 18 44 19 45
REMARK SMILES IDX 69 46 20 47 74 48 68 49 70 50 21 51 73 52 67 53 66 54 22 56
REMARK SMILES IDX 54 57 34 58 53 59 35 60 38 61 52 62 71 63 36 64 37 65 51 67
REMARK SMILES IDX 72 68 39 69 23 70 24 71 32 72 25 73 31 74 33 75 30 76 26 77
REMARK SMILES IDX 27 78 28 79 29 80 55 81 56 82 64 83 57 84 63 85 65 86 62 87
REMARK SMILES IDX 58 88 59 89 60 90 61 91 40 92 41 93 49 94 42 95 48 96 50 97
REMARK SMILES IDX 47 98 43 99 44 100 45 101 46 102
REMARK H PARENT 6 6 81 19 11 36 70 55 38 66
REMARK Flexibility Score: inf
ROOT
ATOM      1  C   UNL A   1      37.397  22.270  24.674  1.00  0.00     0.023 C 
ENDROOT
BRANCH   1   2
ATOM      2  C   UNL A   1      36.738  23.126  25.768  1.00  0.00     0.116 C 
BRANCH   2   3
ATOM      3  N   UNL A   1      35.905  22.291  26.602  1.00  0.00    -0.351 N 
ATOM      4  C   UNL A   1      34.657  21.784  26.539  1.00  0.00     0.268 C 
ATOM      5  O   UNL A   1      34.227  21.366  27.625  1.00  0.00    -0.268 OA
ATOM      6  H   UNL A   1      36.368  22.022  27.430  1.00  0.00     0.163 HD
BRANCH   4   7
ATOM      7  C   UNL A   1      33.718  21.671  25.336  1.00  0.00     0.110 C 
ATOM      8  C   UNL A   1      33.485  19.151  24.951  1.00  0.00     0.043 C 
ATOM      9  C   UNL A   1      33.255  20.598  24.637  1.00  0.00    -0.034 C 
ATOM     10  C   UNL A   1      32.428  20.682  23.354  1.00  0.00     0.104 C 
ATOM     11  N   UNL A   1      33.442  22.905  24.808  1.00  0.00    -0.290 N 
ATOM     12  S   UNL A   1      31.847  22.305  22.837  1.00  0.00    -0.129 SA
ATOM     13  C   UNL A   1      33.297  24.178  25.241  1.00  0.00     0.253 C 
ATOM     14  C   UNL A   1      33.336  23.165  23.400  1.00  0.00     0.181 C 
ATOM     15  O   UNL A   1      33.184  24.672  26.336  1.00  0.00    -0.272 OA
ATOM     16  C   UNL A   1      33.169  24.680  23.759  1.00  0.00     0.206 C 
BRANCH  16  17
ATOM     17  N   UNL A   1      31.869  25.297  23.394  1.00  0.00    -0.336 N 
ATOM     18  C   UNL A   1      31.423  26.581  23.565  1.00  0.00     0.271 C 
ATOM     19  H   UNL A   1      31.227  24.688  22.963  1.00  0.00     0.164 HD
ATOM     20  O   UNL A   1      30.305  26.868  23.144  1.00  0.00    -0.267 OA
BRANCH  18  21
ATOM     21  C   UNL A   1      32.258  27.534  24.240  1.00  0.00     0.145 A 
ATOM     22  C   UNL A   1      32.184  27.931  25.562  1.00  0.00     0.104 A 
ATOM     23  N   UNL A   1      33.185  28.370  23.679  1.00  0.00    -0.261 N 
ATOM     24  Cl  UNL A   1      31.140  27.339  26.766  1.00  0.00    -0.079 Cl
ATOM     25  C   UNL A   1      33.150  28.951  25.727  1.00  0.00     0.185 A 
ATOM     26  N   UNL A   1      33.795  29.180  24.564  1.00  0.00    -0.166 NA
ATOM     27  C   UNL A   1      33.515  28.531  22.281  1.00  0.00     0.174 C 
BRANCH  25  28
ATOM     28  C   UNL A   1      33.425  29.719  26.987  1.00  0.00     0.436 C 
ATOM     29  F   UNL A   1      34.192  30.819  26.748  1.00  0.00    -0.164 F 
ATOM     30  F   UNL A   1      32.283  30.165  27.577  1.00  0.00    -0.164 F 
ATOM     31  F   UNL A   1      34.083  28.992  27.930  1.00  0.00    -0.164 F 
ENDBRANCH  25  28
ENDBRANCH  18  21
ENDBRANCH  16  17
ENDBRANCH   4   7
ENDBRANCH   2   3
ENDBRANCH   1   2
BRANCH   1  32
ATOM     32  C   UNL A   1      37.958  20.923  25.132  1.00  0.00     0.023 C 
BRANCH  32  33
ATOM     33  C   UNL A   1      39.212  21.013  25.992  1.00  0.00     0.116 C 
BRANCH  33  34
ATOM     34  N   UNL A   1      40.035  19.812  25.956  1.00  0.00    -0.352 N 
ATOM     35  C   UNL A   1      41.396  19.713  26.125  1.00  0.00     0.251 C 
ATOM     36  H   UNL A   1      39.558  18.967  25.790  1.00  0.00     0.163 HD
ATOM     37  O   UNL A   1      41.957  18.631  25.995  1.00  0.00    -0.269 OA
BRANCH  35  38
ATOM     38  C   UNL A   1      42.168  20.942  26.398  1.00  0.00     0.039 A 
ATOM     39  C   UNL A   1      42.483  21.787  25.332  1.00  0.00     0.014 A 
ATOM     40  C   UNL A   1      42.496  21.295  27.709  1.00  0.00     0.014 A 
ATOM     41  C   UNL A   1      43.054  23.032  25.591  1.00  0.00     0.010 A 
ATOM     42  C   UNL A   1      43.003  22.562  27.970  1.00  0.00     0.010 A 
ATOM     43  C   UNL A   1      43.275  23.447  26.914  1.00  0.00    -0.014 A 
BRANCH  43  44
ATOM     44  C   UNL A   1      43.774  24.810  27.223  1.00  0.00     0.031 A 
ATOM     45  C   UNL A   1      42.830  25.844  27.770  1.00  0.00     0.074 A 
ATOM     46  C   UNL A   1      45.045  25.137  26.924  1.00  0.00     0.049 A 
ATOM     47  N   UNL A   1      43.036  27.115  27.994  1.00  0.00    -0.248 NA
ATOM     48  C   UNL A   1      41.463  25.391  28.063  1.00  0.00     0.031 C 
ATOM     49  C   UNL A   1      46.037  24.232  26.335  1.00  0.00     0.029 A 
ATOM     50  N   UNL A   1      45.719  26.323  27.056  1.00  0.00    -0.354 N 
ATOM     51  C   UNL A   1      41.817  27.623  28.431  1.00  0.00     0.074 A 
ATOM     52  C   UNL A   1      40.869  26.529  28.388  1.00  0.00     0.031 C 
ATOM     53  C   UNL A   1      47.194  24.894  26.170  1.00  0.00     0.029 A 
ATOM     54  C   UNL A   1      47.018  26.274  26.608  1.00  0.00     0.049 A 
ATOM     55  H   UNL A   1      45.311  27.134  27.437  1.00  0.00     0.167 HD
ATOM     56  C   UNL A   1      41.522  28.879  28.846  1.00  0.00     0.034 A 
ATOM     57  C   UNL A   1      47.958  27.238  26.548  1.00  0.00     0.034 A 
ATOM     58  C   UNL A   1      42.485  29.949  28.908  1.00  0.00     0.049 A 
ATOM     59  C   UNL A   1      47.617  28.618  27.045  1.00  0.00     0.074 A 
ATOM     60  C   UNL A   1      42.314  31.243  29.371  1.00  0.00     0.029 A 
ATOM     61  N   UNL A   1      43.807  29.851  28.491  1.00  0.00    -0.354 N 
ATOM     62  N   UNL A   1      46.474  29.071  27.501  1.00  0.00    -0.248 NA
ATOM     63  C   UNL A   1      48.699  29.611  27.031  1.00  0.00     0.031 C 
ATOM     64  C   UNL A   1      43.518  31.937  29.194  1.00  0.00     0.029 A 
ATOM     65  C   UNL A   1      44.457  31.062  28.671  1.00  0.00     0.049 A 
ATOM     66  H   UNL A   1      44.222  29.038  28.120  1.00  0.00     0.167 HD
ATOM     67  C   UNL A   1      46.705  30.397  27.851  1.00  0.00     0.074 A 
ATOM     68  C   UNL A   1      48.100  30.666  27.563  1.00  0.00     0.031 C 
ATOM     69  C   UNL A   1      45.845  31.310  28.369  1.00  0.00     0.034 A 
BRANCH  56  70
ATOM     70  C   UNL A   1      40.092  29.153  29.241  1.00  0.00     0.023 A 
ATOM     71  C   UNL A   1      39.702  29.222  30.590  1.00  0.00     0.031 A 
ATOM     72  C   UNL A   1      39.097  29.295  28.260  1.00  0.00     0.131 A 
ATOM     73  C   UNL A   1      38.344  29.337  30.921  1.00  0.00     0.055 A 
ATOM     74  C   UNL A   1      37.756  29.493  28.595  1.00  0.00     0.041 A 
ATOM     75  F   UNL A   1      39.406  29.220  26.955  1.00  0.00    -0.206 F 
ATOM     76  C   UNL A   1      37.370  29.497  29.933  1.00  0.00     0.022 A 
BRANCH  73  77
ATOM     77  S   UNL A   1      37.858  29.121  32.654  1.00  0.00     0.124 S 
ATOM     78  O   UNL A   1      38.991  29.720  33.355  1.00  0.00    -0.237 OA
ATOM     79  O   UNL A   1      36.601  29.858  32.724  1.00  0.00    -0.237 OA
ATOM     80  O   UNL A   1      37.740  27.671  32.799  1.00  0.00    -0.744 OA
ENDBRANCH  73  77
ENDBRANCH  56  70
BRANCH  57  81
ATOM     81  C   UNL A   1      49.308  26.940  25.997  1.00  0.00     0.023 A 
ATOM     82  C   UNL A   1      49.672  27.372  24.713  1.00  0.00     0.031 A 
ATOM     83  C   UNL A   1      50.241  26.193  26.736  1.00  0.00     0.131 A 
ATOM     84  C   UNL A   1      50.923  27.019  24.186  1.00  0.00     0.055 A 
ATOM     85  C   UNL A   1      51.500  25.876  26.223  1.00  0.00     0.041 A 
ATOM     86  F   UNL A   1      49.943  25.770  27.975  1.00  0.00    -0.206 F 
ATOM     87  C   UNL A   1      51.843  26.281  24.936  1.00  0.00     0.022 A 
BRANCH  84  88
ATOM     88  S   UNL A   1      51.309  27.487  22.478  1.00  0.00     0.124 S 
ATOM     89  O   UNL A   1      50.226  26.847  21.741  1.00  0.00    -0.237 OA
ATOM     90  O   UNL A   1      51.264  28.944  22.548  1.00  0.00    -0.237 OA
ATOM     91  O   UNL A   1      52.637  26.917  22.260  1.00  0.00    -0.744 OA
ENDBRANCH  84  88
ENDBRANCH  57  81
BRANCH  69  92
ATOM     92  C   UNL A   1      46.413  32.666  28.692  1.00  0.00     0.023 A 
ATOM     93  C   UNL A   1      46.347  33.731  27.778  1.00  0.00     0.031 A 
ATOM     94  C   UNL A   1      47.043  32.887  29.929  1.00  0.00     0.131 A 
ATOM     95  C   UNL A   1      46.945  34.959  28.096  1.00  0.00     0.055 A 
ATOM     96  C   UNL A   1      47.596  34.125  30.258  1.00  0.00     0.041 A 
ATOM     97  F   UNL A   1      47.133  31.901  30.836  1.00  0.00    -0.206 F 
ATOM     98  C   UNL A   1      47.559  35.167  29.335  1.00  0.00     0.022 A 
BRANCH  95  99
ATOM     99  S   UNL A   1      46.976  36.264  26.837  1.00  0.00     0.124 S 
ATOM    100  O   UNL A   1      48.395  36.595  26.777  1.00  0.00    -0.237 OA
ATOM    101  O   UNL A   1      46.430  35.583  25.668  1.00  0.00    -0.237 OA
ATOM    102  O   UNL A   1      46.119  37.305  27.401  1.00  0.00    -0.744 OA
ENDBRANCH  95  99
ENDBRANCH  69  92
ENDBRANCH  43  44
ENDBRANCH  35  38
ENDBRANCH  33  34
ENDBRANCH  32  33
ENDBRANCH   1  32
TORSDOF 17
ENDMDL
MODEL 2
REMARK VINA RESULT:     -12.5      5.621     11.437
REMARK SMILES CC1=C(C(=O)NCCCCNC(=O)c2ccc(-c3c4nc(c(-c5cc(S(=O)(=O)[O-])ccc5F)c5ccc([nH]5)c(-c5cc(S(=O)(=O)[O-])ccc5F)c5nc(c(-c6cc(S(=O)(=O)[O-])ccc6F)c6ccc3[nH]6)C=C5)C=C4)cc2)N2C(=O)[C@H](NC(=O)c3c(Cl)c(C(F)(F)F)nn3C)[C@@H]2SC1
REMARK SMILES IDX 8 1 7 2 6 3 4 4 5 5 3 7 1 8 2 9 97 10 77 11 96 12 78 13
REMARK SMILES IDX 95 14 79 15 80 16 81 17 82 18 83 20 84 21 85 22 93 23 86 24
REMARK SMILES IDX 87 25 92 26 94 27 88 28 89 29 90 30 91 31 9 32 10 33 11 34
REMARK SMILES IDX 12 35 13 37 14 38 15 39 76 40 16 41 75 42 17 43 18 44 19 45
REMARK SMILES IDX 69 46 20 47 74 48 68 49 70 50 21 51 73 52 67 53 66 54 22 56
REMARK SMILES IDX 54 57 34 58 53 59 35 60 38 61 52 62 71 63 36 64 37 65 51 67
REMARK SMILES IDX 72 68 39 69 23 70 24 71 32 72 25 73 31 74 33 75 30 76 26 77
REMARK SMILES IDX 27 78 28 79 29 80 55 81 56 82 64 83 57 84 63 85 65 86 62 87
REMARK SMILES IDX 58 88 59 89 60 90 61 91 40 92 41 93 49 94 42 95 48 96 50 97
REMARK SMILES IDX 47 98 43 99 44 100 45 101 46 102
REMARK H PARENT 6 6 81 19 11 36 70 55 38 66
REMARK Flexibility Score: inf
ROOT
ATOM      1  C   UNL A   1      32.521  29.705  27.179  1.00  0.00     0.023 C 
ENDROOT
BRANCH   1   2
ATOM      2  C   UNL A   1      33.709  29.045  26.461  1.00  0.00     0.116 C 
BRANCH   2   3
ATOM      3  N   UNL A   1      33.696  29.410  25.063  1.00  0.00    -0.351 N 
ATOM      4  C   UNL A   1      33.019  29.028  23.961  1.00  0.00     0.268 C 
ATOM      5  O   UNL A   1      33.542  29.392  22.896  1.00  0.00    -0.268 OA
ATOM      6  H   UNL A   1      34.349  30.121  24.864  1.00  0.00     0.163 HD
BRANCH   4   7
ATOM      7  C   UNL A   1      31.727  28.215  23.852  1.00  0.00     0.110 C 
ATOM      8  C   UNL A   1      30.025  29.859  22.875  1.00  0.00     0.043 C 
ATOM      9  C   UNL A   1      30.470  28.548  23.448  1.00  0.00    -0.034 C 
ATOM     10  C   UNL A   1      29.250  27.631  23.543  1.00  0.00     0.104 C 
ATOM     11  N   UNL A   1      31.875  26.976  24.419  1.00  0.00    -0.290 N 
ATOM     12  S   UNL A   1      29.524  25.921  24.032  1.00  0.00    -0.129 SA
ATOM     13  C   UNL A   1      32.850  26.055  24.590  1.00  0.00     0.253 C 
ATOM     14  C   UNL A   1      30.855  26.325  25.190  1.00  0.00     0.181 C 
ATOM     15  O   UNL A   1      33.954  25.923  24.122  1.00  0.00    -0.272 OA
ATOM     16  C   UNL A   1      31.891  25.188  25.481  1.00  0.00     0.206 C 
BRANCH  16  17
ATOM     17  N   UNL A   1      31.551  23.845  24.949  1.00  0.00    -0.336 N 
ATOM     18  C   UNL A   1      32.288  22.689  24.933  1.00  0.00     0.271 C 
ATOM     19  H   UNL A   1      30.658  23.772  24.544  1.00  0.00     0.164 HD
ATOM     20  O   UNL A   1      31.774  21.678  24.462  1.00  0.00    -0.267 OA
BRANCH  18  21
ATOM     21  C   UNL A   1      33.630  22.702  25.444  1.00  0.00     0.145 A 
ATOM     22  C   UNL A   1      34.807  22.741  24.719  1.00  0.00     0.104 A 
ATOM     23  N   UNL A   1      34.028  22.506  26.739  1.00  0.00    -0.261 N 
ATOM     24  Cl  UNL A   1      34.983  22.869  23.034  1.00  0.00    -0.079 Cl
ATOM     25  C   UNL A   1      35.859  22.641  25.661  1.00  0.00     0.185 A 
ATOM     26  N   UNL A   1      35.363  22.543  26.912  1.00  0.00    -0.166 NA
ATOM     27  C   UNL A   1      33.210  22.196  27.889  1.00  0.00     0.174 C 
BRANCH  25  28
ATOM     28  C   UNL A   1      37.327  22.607  25.351  1.00  0.00     0.436 C 
ATOM     29  F   UNL A   1      37.565  22.138  24.095  1.00  0.00    -0.164 F 
ATOM     30  F   UNL A   1      37.896  23.840  25.419  1.00  0.00    -0.164 F 
ATOM     31  F   UNL A   1      38.039  21.812  26.196  1.00  0.00    -0.164 F 
ENDBRANCH  25  28
ENDBRANCH  18  21
ENDBRANCH  16  17
ENDBRANCH   4   7
ENDBRANCH   2   3
ENDBRANCH   1   2
BRANCH   1  32
ATOM     32  C   UNL A   1      32.267  31.172  26.832  1.00  0.00     0.023 C 
BRANCH  32  33
ATOM     33  C   UNL A   1      33.304  32.147  27.374  1.00  0.00     0.116 C 
BRANCH  33  34
ATOM     34  N   UNL A   1      32.782  33.484  27.619  1.00  0.00    -0.352 N 
ATOM     35  C   UNL A   1      33.217  34.408  28.539  1.00  0.00     0.251 C 
ATOM     36  H   UNL A   1      32.024  33.760  27.055  1.00  0.00     0.163 HD
ATOM     37  O   UNL A   1      32.624  35.473  28.673  1.00  0.00    -0.269 OA
BRANCH  35  38
ATOM     38  C   UNL A   1      34.365  34.063  29.402  1.00  0.00     0.039 A 
ATOM     39  C   UNL A   1      34.140  33.282  30.537  1.00  0.00     0.014 A 
ATOM     40  C   UNL A   1      35.661  34.436  29.038  1.00  0.00     0.014 A 
ATOM     41  C   UNL A   1      35.228  32.800  31.264  1.00  0.00     0.010 A 
ATOM     42  C   UNL A   1      36.745  33.900  29.723  1.00  0.00     0.010 A 
ATOM     43  C   UNL A   1      36.538  33.068  30.835  1.00  0.00    -0.014 A 
BRANCH  43  44
ATOM     44  C   UNL A   1      37.712  32.474  31.521  1.00  0.00     0.031 A 
ATOM     45  C   UNL A   1      38.460  31.342  30.876  1.00  0.00     0.074 A 
ATOM     46  C   UNL A   1      38.040  32.892  32.759  1.00  0.00     0.049 A 
ATOM     47  N   UNL A   1      39.432  30.612  31.357  1.00  0.00    -0.248 NA
ATOM     48  C   UNL A   1      38.025  30.957  29.525  1.00  0.00     0.031 C 
ATOM     49  C   UNL A   1      37.349  33.943  33.510  1.00  0.00     0.029 A 
ATOM     50  N   UNL A   1      39.027  32.471  33.612  1.00  0.00    -0.354 N 
ATOM     51  C   UNL A   1      39.710  29.663  30.379  1.00  0.00     0.074 A 
ATOM     52  C   UNL A   1      38.766  29.883  29.302  1.00  0.00     0.031 C 
ATOM     53  C   UNL A   1      37.943  34.093  34.705  1.00  0.00     0.029 A 
ATOM     54  C   UNL A   1      39.031  33.129  34.820  1.00  0.00     0.049 A 
ATOM     55  H   UNL A   1      39.672  31.764  33.382  1.00  0.00     0.167 HD
ATOM     56  C   UNL A   1      40.675  28.710  30.373  1.00  0.00     0.034 A 
ATOM     57  C   UNL A   1      39.818  32.964  35.901  1.00  0.00     0.034 A 
ATOM     58  C   UNL A   1      41.623  28.523  31.442  1.00  0.00     0.049 A 
ATOM     59  C   UNL A   1      40.903  31.922  35.859  1.00  0.00     0.074 A 
ATOM     60  C   UNL A   1      42.681  27.633  31.515  1.00  0.00     0.029 A 
ATOM     61  N   UNL A   1      41.628  29.241  32.631  1.00  0.00    -0.354 N 
ATOM     62  N   UNL A   1      41.186  31.064  34.907  1.00  0.00    -0.248 NA
ATOM     63  C   UNL A   1      41.783  31.836  37.031  1.00  0.00     0.031 C 
ATOM     64  C   UNL A   1      43.297  27.783  32.764  1.00  0.00     0.029 A 
ATOM     65  C   UNL A   1      42.658  28.804  33.449  1.00  0.00     0.049 A 
ATOM     66  H   UNL A   1      40.991  29.956  32.861  1.00  0.00     0.167 HD
ATOM     67  C   UNL A   1      42.293  30.351  35.357  1.00  0.00     0.074 A 
ATOM     68  C   UNL A   1      42.631  30.888  36.660  1.00  0.00     0.031 C 
ATOM     69  C   UNL A   1      42.972  29.347  34.748  1.00  0.00     0.034 A 
BRANCH  56  70
ATOM     70  C   UNL A   1      40.724  27.792  29.176  1.00  0.00     0.023 A 
ATOM     71  C   UNL A   1      41.662  27.977  28.145  1.00  0.00     0.031 A 
ATOM     72  C   UNL A   1      39.790  26.751  29.038  1.00  0.00     0.131 A 
ATOM     73  C   UNL A   1      41.589  27.195  26.984  1.00  0.00     0.055 A 
ATOM     74  C   UNL A   1      39.775  25.921  27.916  1.00  0.00     0.041 A 
ATOM     75  F   UNL A   1      38.859  26.538  29.982  1.00  0.00    -0.206 F 
ATOM     76  C   UNL A   1      40.667  26.152  26.872  1.00  0.00     0.022 A 
BRANCH  73  77
ATOM     77  S   UNL A   1      42.616  27.661  25.565  1.00  0.00     0.124 S 
ATOM     78  O   UNL A   1      42.526  26.465  24.730  1.00  0.00    -0.237 OA
ATOM     79  O   UNL A   1      41.936  28.847  25.058  1.00  0.00    -0.237 OA
ATOM     80  O   UNL A   1      43.932  27.900  26.157  1.00  0.00    -0.744 OA
ENDBRANCH  73  77
ENDBRANCH  56  70
BRANCH  57  81
ATOM     81  C   UNL A   1      39.613  33.800  37.115  1.00  0.00     0.023 A 
ATOM     82  C   UNL A   1      38.910  33.300  38.222  1.00  0.00     0.031 A 
ATOM     83  C   UNL A   1      40.092  35.120  37.173  1.00  0.00     0.131 A 
ATOM     84  C   UNL A   1      38.667  34.129  39.327  1.00  0.00     0.055 A 
ATOM     85  C   UNL A   1      39.881  35.929  38.291  1.00  0.00     0.041 A 
ATOM     86  F   UNL A   1      40.783  35.637  36.145  1.00  0.00    -0.206 F 
ATOM     87  C   UNL A   1      39.155  35.438  39.373  1.00  0.00     0.022 A 
BRANCH  84  88
ATOM     88  S   UNL A   1      37.648  33.491  40.683  1.00  0.00     0.124 S 
ATOM     89  O   UNL A   1      38.600  32.653  41.404  1.00  0.00    -0.237 OA
ATOM     90  O   UNL A   1      37.238  34.719  41.356  1.00  0.00    -0.237 OA
ATOM     91  O   UNL A   1      36.577  32.772  39.996  1.00  0.00    -0.744 OA
ENDBRANCH  84  88
ENDBRANCH  57  81
BRANCH  69  92
ATOM     92  C   UNL A   1      44.173  28.805  35.476  1.00  0.00     0.023 A 
ATOM     93  C   UNL A   1      44.082  27.679  36.312  1.00  0.00     0.031 A 
ATOM     94  C   UNL A   1      45.422  29.436  35.341  1.00  0.00     0.131 A 
ATOM     95  C   UNL A   1      45.213  27.245  37.020  1.00  0.00     0.055 A 
ATOM     96  C   UNL A   1      46.553  28.973  36.012  1.00  0.00     0.041 A 
ATOM     97  F   UNL A   1      45.560  30.516  34.554  1.00  0.00    -0.206 F 
ATOM     98  C   UNL A   1      46.450  27.878  36.866  1.00  0.00     0.022 A 
BRANCH  95  99
ATOM     99  S   UNL A   1      45.028  25.886  38.205  1.00  0.00     0.124 S 
ATOM    100  O   UNL A   1      45.055  26.590  39.483  1.00  0.00    -0.237 OA
ATOM    101  O   UNL A   1      43.743  25.309  37.822  1.00  0.00    -0.237 OA
ATOM    102  O   UNL A   1      46.189  25.038  37.939  1.00  0.00    -0.744 OA
ENDBRANCH  95  99
ENDBRANCH  69  92
ENDBRANCH  43  44
ENDBRANCH  35  38
ENDBRANCH  33  34
ENDBRANCH  32  33
ENDBRANCH   1  32
TORSDOF 17
ENDMDL
MODEL 3
REMARK VINA RESULT:     -12.2      0.858      7.440
REMARK SMILES CC1=C(C(=O)NCCCCNC(=O)c2ccc(-c3c4nc(c(-c5cc(S(=O)(=O)[O-])ccc5F)c5ccc([nH]5)c(-c5cc(S(=O)(=O)[O-])ccc5F)c5nc(c(-c6cc(S(=O)(=O)[O-])ccc6F)c6ccc3[nH]6)C=C5)C=C4)cc2)N2C(=O)[C@H](NC(=O)c3c(Cl)c(C(F)(F)F)nn3C)[C@@H]2SC1
REMARK SMILES IDX 8 1 7 2 6 3 4 4 5 5 3 7 1 8 2 9 97 10 77 11 96 12 78 13
REMARK SMILES IDX 95 14 79 15 80 16 81 17 82 18 83 20 84 21 85 22 93 23 86 24
REMARK SMILES IDX 87 25 92 26 94 27 88 28 89 29 90 30 91 31 9 32 10 33 11 34
REMARK SMILES IDX 12 35 13 37 14 38 15 39 76 40 16 41 75 42 17 43 18 44 19 45
REMARK SMILES IDX 69 46 20 47 74 48 68 49 70 50 21 51 73 52 67 53 66 54 22 56
REMARK SMILES IDX 54 57 34 58 53 59 35 60 38 61 52 62 71 63 36 64 37 65 51 67
REMARK SMILES IDX 72 68 39 69 23 70 24 71 32 72 25 73 31 74 33 75 30 76 26 77
REMARK SMILES IDX 27 78 28 79 29 80 55 81 56 82 64 83 57 84 63 85 65 86 62 87
REMARK SMILES IDX 58 88 59 89 60 90 61 91 40 92 41 93 49 94 42 95 48 96 50 97
REMARK SMILES IDX 47 98 43 99 44 100 45 101 46 102
REMARK H PARENT 6 6 81 19 11 36 70 55 38 66
REMARK Flexibility Score: inf
ROOT
ATOM      1  C   UNL A   1      37.102  21.848  24.783  1.00  0.00     0.023 C 
ENDROOT
BRANCH   1   2
ATOM      2  C   UNL A   1      36.675  22.708  25.984  1.00  0.00     0.116 C 
BRANCH   2   3
ATOM      3  N   UNL A   1      35.712  21.983  26.781  1.00  0.00    -0.351 N 
ATOM      4  C   UNL A   1      34.434  21.577  26.637  1.00  0.00     0.268 C 
ATOM      5  O   UNL A   1      33.887  21.247  27.700  1.00  0.00    -0.268 OA
ATOM      6  H   UNL A   1      36.084  21.718  27.654  1.00  0.00     0.163 HD
BRANCH   4   7
ATOM      7  C   UNL A   1      33.586  21.483  25.367  1.00  0.00     0.110 C 
ATOM      8  C   UNL A   1      33.282  18.969  24.995  1.00  0.00     0.043 C 
ATOM      9  C   UNL A   1      33.134  20.419  24.647  1.00  0.00    -0.034 C 
ATOM     10  C   UNL A   1      32.411  20.516  23.304  1.00  0.00     0.104 C 
ATOM     11  N   UNL A   1      33.400  22.719  24.805  1.00  0.00    -0.290 N 
ATOM     12  S   UNL A   1      31.937  22.153  22.725  1.00  0.00    -0.129 SA
ATOM     13  C   UNL A   1      33.274  24.003  25.211  1.00  0.00     0.253 C 
ATOM     14  C   UNL A   1      33.412  22.962  23.391  1.00  0.00     0.181 C 
ATOM     15  O   UNL A   1      33.098  24.517  26.288  1.00  0.00    -0.272 OA
ATOM     16  C   UNL A   1      33.279  24.488  23.718  1.00  0.00     0.206 C 
BRANCH  16  17
ATOM     17  N   UNL A   1      32.037  25.149  23.247  1.00  0.00    -0.336 N 
ATOM     18  C   UNL A   1      31.627  26.450  23.375  1.00  0.00     0.271 C 
ATOM     19  H   UNL A   1      31.408  24.562  22.769  1.00  0.00     0.164 HD
ATOM     20  O   UNL A   1      30.558  26.776  22.865  1.00  0.00    -0.267 OA
BRANCH  18  21
ATOM     21  C   UNL A   1      32.441  27.377  24.109  1.00  0.00     0.145 A 
ATOM     22  C   UNL A   1      32.279  27.785  25.420  1.00  0.00     0.104 A 
ATOM     23  N   UNL A   1      33.439  28.176  23.619  1.00  0.00    -0.261 N 
ATOM     24  Cl  UNL A   1      31.125  27.239  26.542  1.00  0.00    -0.079 Cl
ATOM     25  C   UNL A   1      33.267  28.772  25.656  1.00  0.00     0.185 A 
ATOM     26  N   UNL A   1      34.008  28.970  24.547  1.00  0.00    -0.166 NA
ATOM     27  C   UNL A   1      33.882  28.316  22.251  1.00  0.00     0.174 C 
BRANCH  25  28
ATOM     28  C   UNL A   1      33.470  29.537  26.931  1.00  0.00     0.436 C 
ATOM     29  F   UNL A   1      33.939  28.737  27.928  1.00  0.00    -0.164 F 
ATOM     30  F   UNL A   1      34.372  30.546  26.787  1.00  0.00    -0.164 F 
ATOM     31  F   UNL A   1      32.331  30.110  27.405  1.00  0.00    -0.164 F 
ENDBRANCH  25  28
ENDBRANCH  18  21
ENDBRANCH  16  17
ENDBRANCH   4   7
ENDBRANCH   2   3
ENDBRANCH   1   2
BRANCH   1  32
ATOM     32  C   UNL A   1      37.913  20.596  25.117  1.00  0.00     0.023 C 
BRANCH  32  33
ATOM     33  C   UNL A   1      39.218  20.858  25.858  1.00  0.00     0.116 C 
BRANCH  33  34
ATOM     34  N   UNL A   1      40.129  19.722  25.861  1.00  0.00    -0.352 N 
ATOM     35  C   UNL A   1      41.482  19.722  26.108  1.00  0.00     0.251 C 
ATOM     36  H   UNL A   1      39.727  18.846  25.662  1.00  0.00     0.163 HD
ATOM     37  O   UNL A   1      42.128  18.686  26.004  1.00  0.00    -0.269 OA
BRANCH  35  38
ATOM     38  C   UNL A   1      42.143  21.002  26.433  1.00  0.00     0.039 A 
ATOM     39  C   UNL A   1      42.585  21.813  25.386  1.00  0.00     0.014 A 
ATOM     40  C   UNL A   1      42.242  21.431  27.759  1.00  0.00     0.014 A 
ATOM     41  C   UNL A   1      43.049  23.098  25.665  1.00  0.00     0.010 A 
ATOM     42  C   UNL A   1      42.642  22.734  28.028  1.00  0.00     0.010 A 
ATOM     43  C   UNL A   1      43.038  23.583  26.983  1.00  0.00    -0.014 A 
BRANCH  43  44
ATOM     44  C   UNL A   1      43.417  24.983  27.294  1.00  0.00     0.031 A 
ATOM     45  C   UNL A   1      44.864  25.387  27.273  1.00  0.00     0.074 A 
ATOM     46  C   UNL A   1      42.470  25.858  27.684  1.00  0.00     0.049 A 
ATOM     47  N   UNL A   1      45.412  26.521  27.625  1.00  0.00    -0.248 NA
ATOM     48  C   UNL A   1      45.822  24.362  26.834  1.00  0.00     0.031 C 
ATOM     49  C   UNL A   1      41.040  25.563  27.800  1.00  0.00     0.029 A 
ATOM     50  N   UNL A   1      42.569  27.169  28.074  1.00  0.00    -0.354 N 
ATOM     51  C   UNL A   1      46.783  26.339  27.476  1.00  0.00     0.074 A 
ATOM     52  C   UNL A   1      46.980  24.968  27.051  1.00  0.00     0.031 C 
ATOM     53  C   UNL A   1      40.395  26.664  28.218  1.00  0.00     0.029 A 
ATOM     54  C   UNL A   1      41.367  27.731  28.433  1.00  0.00     0.049 A 
ATOM     55  H   UNL A   1      43.421  27.661  28.095  1.00  0.00     0.167 HD
ATOM     56  C   UNL A   1      47.782  27.237  27.659  1.00  0.00     0.034 A 
ATOM     57  C   UNL A   1      41.082  28.965  28.894  1.00  0.00     0.034 A 
ATOM     58  C   UNL A   1      47.566  28.605  28.056  1.00  0.00     0.049 A 
ATOM     59  C   UNL A   1      42.204  29.956  29.058  1.00  0.00     0.074 A 
ATOM     60  C   UNL A   1      48.496  29.620  28.210  1.00  0.00     0.029 A 
ATOM     61  N   UNL A   1      46.328  29.155  28.365  1.00  0.00    -0.354 N 
ATOM     62  N   UNL A   1      43.490  29.784  28.866  1.00  0.00    -0.248 NA
ATOM     63  C   UNL A   1      41.832  31.310  29.487  1.00  0.00     0.031 C 
ATOM     64  C   UNL A   1      47.827  30.767  28.653  1.00  0.00     0.029 A 
ATOM     65  C   UNL A   1      46.471  30.486  28.723  1.00  0.00     0.049 A 
ATOM     66  H   UNL A   1      45.472  28.669  28.335  1.00  0.00     0.167 HD
ATOM     67  C   UNL A   1      44.079  31.017  29.130  1.00  0.00     0.074 A 
ATOM     68  C   UNL A   1      43.006  31.924  29.482  1.00  0.00     0.031 C 
ATOM     69  C   UNL A   1      45.389  31.370  29.080  1.00  0.00     0.034 A 
BRANCH  56  70
ATOM     70  C   UNL A   1      49.193  26.746  27.449  1.00  0.00     0.023 A 
ATOM     71  C   UNL A   1      49.933  27.102  26.307  1.00  0.00     0.031 A 
ATOM     72  C   UNL A   1      49.787  25.870  28.372  1.00  0.00     0.131 A 
ATOM     73  C   UNL A   1      51.186  26.516  26.075  1.00  0.00     0.055 A 
ATOM     74  C   UNL A   1      51.070  25.354  28.177  1.00  0.00     0.041 A 
ATOM     75  F   UNL A   1      49.122  25.480  29.472  1.00  0.00    -0.206 F 
ATOM     76  C   UNL A   1      51.771  25.662  27.014  1.00  0.00     0.022 A 
BRANCH  73  77
ATOM     77  S   UNL A   1      51.970  26.768  24.460  1.00  0.00     0.124 S 
ATOM     78  O   UNL A   1      52.877  25.626  24.391  1.00  0.00    -0.237 OA
ATOM     79  O   UNL A   1      50.832  26.737  23.549  1.00  0.00    -0.237 OA
ATOM     80  O   UNL A   1      52.625  28.068  24.595  1.00  0.00    -0.744 OA
ENDBRANCH  73  77
ENDBRANCH  56  70
BRANCH  57  81
ATOM     81  C   UNL A   1      39.683  29.337  29.235  1.00  0.00     0.023 A 
ATOM     82  C   UNL A   1      39.268  29.427  30.572  1.00  0.00     0.031 A 
ATOM     83  C   UNL A   1      38.733  29.579  28.227  1.00  0.00     0.131 A 
ATOM     84  C   UNL A   1      37.926  29.710  30.869  1.00  0.00     0.055 A 
ATOM     85  C   UNL A   1      37.408  29.898  28.527  1.00  0.00     0.041 A 
ATOM     86  F   UNL A   1      39.087  29.519  26.933  1.00  0.00    -0.206 F 
ATOM     87  C   UNL A   1      36.995  29.954  29.856  1.00  0.00     0.022 A 
BRANCH  84  88
ATOM     88  S   UNL A   1      37.400  29.693  32.603  1.00  0.00     0.124 S 
ATOM     89  O   UNL A   1      38.440  30.493  33.240  1.00  0.00    -0.237 OA
ATOM     90  O   UNL A   1      36.079  30.307  32.523  1.00  0.00    -0.237 OA
ATOM     91  O   UNL A   1      37.404  28.273  32.947  1.00  0.00    -0.744 OA
ENDBRANCH  84  88
ENDBRANCH  57  81
BRANCH  69  92
ATOM     92  C   UNL A   1      45.712  32.811  29.374  1.00  0.00     0.023 A 
ATOM     93  C   UNL A   1      45.688  33.792  28.368  1.00  0.00     0.031 A 
ATOM     94  C   UNL A   1      46.064  33.200  30.678  1.00  0.00     0.131 A 
ATOM     95  C   UNL A   1      46.058  35.110  28.674  1.00  0.00     0.055 A 
ATOM     96  C   UNL A   1      46.386  34.522  30.985  1.00  0.00     0.041 A 
ATOM     97  F   UNL A   1      46.103  32.299  31.673  1.00  0.00    -0.206 F 
ATOM     98  C   UNL A   1      46.395  35.484  29.978  1.00  0.00     0.022 A 
BRANCH  95  99
ATOM     99  S   UNL A   1      46.164  36.318  27.326  1.00  0.00     0.124 S 
ATOM    100  O   UNL A   1      44.837  36.224  26.728  1.00  0.00    -0.237 OA
ATOM    101  O   UNL A   1      46.455  37.557  28.040  1.00  0.00    -0.237 OA
ATOM    102  O   UNL A   1      47.256  35.812  26.497  1.00  0.00    -0.744 OA
ENDBRANCH  95  99
ENDBRANCH  69  92
ENDBRANCH  43  44
ENDBRANCH  35  38
ENDBRANCH  33  34
ENDBRANCH  32  33
ENDBRANCH   1  32
TORSDOF 17
ENDMDL
