MODEL 1
REMARK VINA RESULT:     -13.1      0.000      0.000
REMARK SMILES C[C@@H]1CC[C@@H](C(=O)NCCCCNC(=O)c2ccc(-c3c4nc(c(-c5cc(S(=O)(=O)[O-])ccc5F)c5ccc([nH]5)c(-c5cc(S(=O)(=O)[O-])ccc5F)c5nc(c(-c6cc(S(=O)(=O)[O-])ccc6F)c6ccc3[nH]6)C=C5)C=C4)cc2)[C@H]2C(=O)N(c3ccccc3)C(=O)[C@@H]21
REMARK SMILES IDX 11 1 10 2 9 3 8 4 6 5 7 6 5 8 1 9 2 10 3 11 91 12 4 13 79 14
REMARK SMILES IDX 89 15 80 16 82 17 90 18 81 19 83 20 84 21 88 22 85 23 87 24
REMARK SMILES IDX 86 25 12 26 13 27 14 28 15 30 16 31 17 32 78 33 18 34 77 35
REMARK SMILES IDX 19 36 20 37 21 38 71 39 22 40 76 41 70 42 72 43 23 44 75 45
REMARK SMILES IDX 69 46 68 47 24 49 56 50 36 51 55 52 37 53 40 54 54 55 73 56
REMARK SMILES IDX 38 57 39 58 53 60 74 61 41 62 25 63 26 64 34 65 27 66 33 67
REMARK SMILES IDX 35 68 32 69 28 70 29 71 30 72 31 73 57 74 58 75 66 76 59 77
REMARK SMILES IDX 65 78 67 79 64 80 60 81 61 82 62 83 63 84 42 85 43 86 51 87
REMARK SMILES IDX 44 88 50 89 52 90 49 91 45 92 46 93 47 94 48 95
REMARK H PARENT 8 7 13 29 72 48 40 59
REMARK Flexibility Score: inf
ROOT
ATOM      1  C   UNL A   1      31.637  29.456  26.609  1.00  0.00     0.023 C 
ENDROOT
BRANCH   1   2
ATOM      2  C   UNL A   1      32.182  28.295  27.433  1.00  0.00     0.023 C 
BRANCH   2   3
ATOM      3  C   UNL A   1      32.188  26.944  26.719  1.00  0.00     0.116 C 
BRANCH   3   4
ATOM      4  N   UNL A   1      30.894  26.304  26.793  1.00  0.00    -0.356 N 
ATOM      5  C   UNL A   1      30.137  25.577  25.950  1.00  0.00     0.223 C 
ATOM      6  O   UNL A   1      29.032  25.263  26.409  1.00  0.00    -0.275 OA
ATOM      7  H   UNL A   1      30.464  26.429  27.670  1.00  0.00     0.163 HD
BRANCH   5   8
ATOM      8  C   UNL A   1      30.489  25.142  24.516  1.00  0.00     0.092 C 
ATOM      9  C   UNL A   1      33.204  26.147  21.803  1.00  0.00     0.008 C 
ATOM     10  C   UNL A   1      33.051  26.316  23.315  1.00  0.00    -0.001 C 
ATOM     11  C   UNL A   1      33.058  24.935  24.011  1.00  0.00     0.005 C 
ATOM     12  C   UNL A   1      31.817  27.109  23.741  1.00  0.00     0.095 C 
ATOM     13  C   UNL A   1      31.691  24.239  24.191  1.00  0.00     0.014 C 
ATOM     14  C   UNL A   1      30.541  26.321  23.549  1.00  0.00     0.104 C 
ATOM     15  C   UNL A   1      31.492  28.408  23.048  1.00  0.00     0.237 C 
ATOM     16  C   UNL A   1      29.483  27.395  23.540  1.00  0.00     0.238 C 
ATOM     17  N   UNL A   1      30.118  28.570  23.160  1.00  0.00    -0.250 N 
ATOM     18  O   UNL A   1      32.332  29.166  22.600  1.00  0.00    -0.274 OA
ATOM     19  O   UNL A   1      28.282  27.163  23.594  1.00  0.00    -0.274 OA
BRANCH  17  20
ATOM     20  C   UNL A   1      29.425  29.762  22.829  1.00  0.00     0.052 A 
ATOM     21  C   UNL A   1      29.329  30.824  23.737  1.00  0.00     0.027 A 
ATOM     22  C   UNL A   1      28.811  29.901  21.576  1.00  0.00     0.027 A 
ATOM     23  C   UNL A   1      28.658  32.001  23.396  1.00  0.00     0.002 A 
ATOM     24  C   UNL A   1      28.108  31.064  21.247  1.00  0.00     0.002 A 
ATOM     25  C   UNL A   1      28.039  32.118  22.154  1.00  0.00     0.000 A 
ENDBRANCH  17  20
ENDBRANCH   5   8
ENDBRANCH   3   4
ENDBRANCH   2   3
ENDBRANCH   1   2
BRANCH   1  26
ATOM     26  C   UNL A   1      32.696  30.437  26.126  1.00  0.00     0.116 C 
BRANCH  26  27
ATOM     27  N   UNL A   1      32.486  31.803  26.588  1.00  0.00    -0.352 N 
ATOM     28  C   UNL A   1      33.296  32.545  27.415  1.00  0.00     0.251 C 
ATOM     29  H   UNL A   1      31.666  32.246  26.272  1.00  0.00     0.163 HD
ATOM     30  O   UNL A   1      32.948  33.657  27.794  1.00  0.00    -0.269 OA
BRANCH  28  31
ATOM     31  C   UNL A   1      34.562  31.944  27.874  1.00  0.00     0.039 A 
ATOM     32  C   UNL A   1      35.690  32.756  27.999  1.00  0.00     0.014 A 
ATOM     33  C   UNL A   1      34.593  30.609  28.284  1.00  0.00     0.014 A 
ATOM     34  C   UNL A   1      36.834  32.245  28.613  1.00  0.00     0.010 A 
ATOM     35  C   UNL A   1      35.700  30.131  28.972  1.00  0.00     0.010 A 
ATOM     36  C   UNL A   1      36.831  30.944  29.144  1.00  0.00    -0.014 A 
BRANCH  36  37
ATOM     37  C   UNL A   1      38.005  30.406  29.876  1.00  0.00     0.031 A 
ATOM     38  C   UNL A   1      38.259  30.838  31.293  1.00  0.00     0.074 A 
ATOM     39  C   UNL A   1      38.873  29.593  29.242  1.00  0.00     0.049 A 
ATOM     40  N   UNL A   1      39.268  30.558  32.077  1.00  0.00    -0.248 NA
ATOM     41  C   UNL A   1      37.264  31.739  31.894  1.00  0.00     0.031 C 
ATOM     42  C   UNL A   1      38.758  29.149  27.851  1.00  0.00     0.029 A 
ATOM     43  N   UNL A   1      40.030  29.000  29.681  1.00  0.00    -0.354 N 
ATOM     44  C   UNL A   1      39.037  31.261  33.255  1.00  0.00     0.074 A 
ATOM     45  C   UNL A   1      37.832  32.035  33.051  1.00  0.00     0.031 C 
ATOM     46  C   UNL A   1      39.784  28.333  27.561  1.00  0.00     0.029 A 
ATOM     47  C   UNL A   1      40.656  28.230  28.727  1.00  0.00     0.049 A 
ATOM     48  H   UNL A   1      40.382  29.116  30.594  1.00  0.00     0.167 HD
ATOM     49  C   UNL A   1      39.747  31.237  34.409  1.00  0.00     0.034 A 
ATOM     50  C   UNL A   1      41.804  27.526  28.786  1.00  0.00     0.034 A 
ATOM     51  C   UNL A   1      40.935  30.442  34.597  1.00  0.00     0.049 A 
ATOM     52  C   UNL A   1      42.583  27.521  30.078  1.00  0.00     0.074 A 
ATOM     53  C   UNL A   1      41.703  30.293  35.738  1.00  0.00     0.029 A 
ATOM     54  N   UNL A   1      41.531  29.660  33.613  1.00  0.00    -0.354 N 
ATOM     55  N   UNL A   1      42.321  28.146  31.203  1.00  0.00    -0.248 NA
ATOM     56  C   UNL A   1      43.803  26.706  30.111  1.00  0.00     0.031 C 
ATOM     57  C   UNL A   1      42.796  29.476  35.428  1.00  0.00     0.029 A 
ATOM     58  C   UNL A   1      42.670  29.051  34.115  1.00  0.00     0.049 A 
ATOM     59  H   UNL A   1      41.192  29.555  32.695  1.00  0.00     0.167 HD
ATOM     60  C   UNL A   1      43.329  27.773  32.088  1.00  0.00     0.074 A 
ATOM     61  C   UNL A   1      44.191  26.857  31.369  1.00  0.00     0.031 C 
ATOM     62  C   UNL A   1      43.522  28.147  33.378  1.00  0.00     0.034 A 
BRANCH  49  63
ATOM     63  C   UNL A   1      39.261  32.113  35.539  1.00  0.00     0.023 A 
ATOM     64  C   UNL A   1      39.653  33.459  35.650  1.00  0.00     0.031 A 
ATOM     65  C   UNL A   1      38.429  31.587  36.544  1.00  0.00     0.131 A 
ATOM     66  C   UNL A   1      39.287  34.206  36.780  1.00  0.00     0.055 A 
ATOM     67  C   UNL A   1      37.994  32.364  37.620  1.00  0.00     0.041 A 
ATOM     68  F   UNL A   1      38.038  30.303  36.505  1.00  0.00    -0.206 F 
ATOM     69  C   UNL A   1      38.438  33.676  37.753  1.00  0.00     0.022 A 
BRANCH  66  70
ATOM     70  S   UNL A   1      40.066  35.824  37.035  1.00  0.00     0.124 S 
ATOM     71  O   UNL A   1      41.474  35.455  37.169  1.00  0.00    -0.237 OA
ATOM     72  O   UNL A   1      39.706  36.542  35.819  1.00  0.00    -0.237 OA
ATOM     73  O   UNL A   1      39.440  36.317  38.260  1.00  0.00    -0.744 OA
ENDBRANCH  66  70
ENDBRANCH  49  63
BRANCH  50  74
ATOM     74  C   UNL A   1      42.293  26.772  27.597  1.00  0.00     0.023 A 
ATOM     75  C   UNL A   1      41.991  25.411  27.429  1.00  0.00     0.031 A 
ATOM     76  C   UNL A   1      43.108  27.388  26.630  1.00  0.00     0.131 A 
ATOM     77  C   UNL A   1      42.536  24.699  26.350  1.00  0.00     0.055 A 
ATOM     78  C   UNL A   1      43.606  26.689  25.529  1.00  0.00     0.041 A 
ATOM     79  F   UNL A   1      43.423  28.689  26.738  1.00  0.00    -0.206 F 
ATOM     80  C   UNL A   1      43.332  25.332  25.393  1.00  0.00     0.022 A 
BRANCH  77  81
ATOM     81  S   UNL A   1      42.261  22.908  26.263  1.00  0.00     0.124 S 
ATOM     82  O   UNL A   1      40.817  22.820  26.443  1.00  0.00    -0.237 OA
ATOM     83  O   UNL A   1      42.763  22.590  24.930  1.00  0.00    -0.237 OA
ATOM     84  O   UNL A   1      43.062  22.387  27.369  1.00  0.00    -0.744 OA
ENDBRANCH  77  81
ENDBRANCH  50  74
BRANCH  62  85
ATOM     85  C   UNL A   1      44.691  27.524  34.103  1.00  0.00     0.023 A 
ATOM     86  C   UNL A   1      44.561  26.327  34.826  1.00  0.00     0.031 A 
ATOM     87  C   UNL A   1      45.951  28.148  34.073  1.00  0.00     0.131 A 
ATOM     88  C   UNL A   1      45.658  25.817  35.536  1.00  0.00     0.055 A 
ATOM     89  C   UNL A   1      47.055  27.603  34.731  1.00  0.00     0.041 A 
ATOM     90  F   UNL A   1      46.132  29.294  33.399  1.00  0.00    -0.206 F 
ATOM     91  C   UNL A   1      46.909  26.439  35.478  1.00  0.00     0.022 A 
BRANCH  88  92
ATOM     92  S   UNL A   1      45.407  24.379  36.611  1.00  0.00     0.124 S 
ATOM     93  O   UNL A   1      46.777  23.940  36.856  1.00  0.00    -0.237 OA
ATOM     94  O   UNL A   1      44.711  24.961  37.754  1.00  0.00    -0.237 OA
ATOM     95  O   UNL A   1      44.604  23.474  35.791  1.00  0.00    -0.744 OA
ENDBRANCH  88  92
ENDBRANCH  62  85
ENDBRANCH  36  37
ENDBRANCH  28  31
ENDBRANCH  26  27
ENDBRANCH   1  26
TORSDOF 15
ENDMDL
MODEL 2
REMARK VINA RESULT:     -13.0      1.537      7.576
REMARK SMILES C[C@@H]1CC[C@@H](C(=O)NCCCCNC(=O)c2ccc(-c3c4nc(c(-c5cc(S(=O)(=O)[O-])ccc5F)c5ccc([nH]5)c(-c5cc(S(=O)(=O)[O-])ccc5F)c5nc(c(-c6cc(S(=O)(=O)[O-])ccc6F)c6ccc3[nH]6)C=C5)C=C4)cc2)[C@H]2C(=O)N(c3ccccc3)C(=O)[C@@H]21
REMARK SMILES IDX 11 1 10 2 9 3 8 4 6 5 7 6 5 8 1 9 2 10 3 11 91 12 4 13 79 14
REMARK SMILES IDX 89 15 80 16 82 17 90 18 81 19 83 20 84 21 88 22 85 23 87 24
REMARK SMILES IDX 86 25 12 26 13 27 14 28 15 30 16 31 17 32 78 33 18 34 77 35
REMARK SMILES IDX 19 36 20 37 21 38 71 39 22 40 76 41 70 42 72 43 23 44 75 45
REMARK SMILES IDX 69 46 68 47 24 49 56 50 36 51 55 52 37 53 40 54 54 55 73 56
REMARK SMILES IDX 38 57 39 58 53 60 74 61 41 62 25 63 26 64 34 65 27 66 33 67
REMARK SMILES IDX 35 68 32 69 28 70 29 71 30 72 31 73 57 74 58 75 66 76 59 77
REMARK SMILES IDX 65 78 67 79 64 80 60 81 61 82 62 83 63 84 42 85 43 86 51 87
REMARK SMILES IDX 44 88 50 89 52 90 49 91 45 92 46 93 47 94 48 95
REMARK H PARENT 8 7 13 29 72 48 40 59
REMARK Flexibility Score: inf
ROOT
ATOM      1  C   UNL A   1      31.702  29.206  26.522  1.00  0.00     0.023 C 
ENDROOT
BRANCH   1   2
ATOM      2  C   UNL A   1      32.443  28.066  27.212  1.00  0.00     0.023 C 
BRANCH   2   3
ATOM      3  C   UNL A   1      32.325  26.708  26.521  1.00  0.00     0.116 C 
BRANCH   3   4
ATOM      4  N   UNL A   1      31.006  26.142  26.694  1.00  0.00    -0.356 N 
ATOM      5  C   UNL A   1      30.144  25.469  25.909  1.00  0.00     0.223 C 
ATOM      6  O   UNL A   1      29.063  25.214  26.453  1.00  0.00    -0.275 OA
ATOM      7  H   UNL A   1      30.655  26.282  27.603  1.00  0.00     0.163 HD
BRANCH   5   8
ATOM      8  C   UNL A   1      30.356  25.031  24.450  1.00  0.00     0.092 C 
ATOM      9  C   UNL A   1      32.916  25.890  21.542  1.00  0.00     0.008 C 
ATOM     10  C   UNL A   1      32.891  26.049  23.063  1.00  0.00    -0.001 C 
ATOM     11  C   UNL A   1      32.859  24.662  23.746  1.00  0.00     0.005 C 
ATOM     12  C   UNL A   1      31.748  26.916  23.589  1.00  0.00     0.095 C 
ATOM     13  C   UNL A   1      31.467  24.055  24.025  1.00  0.00     0.014 C 
ATOM     14  C   UNL A   1      30.412  26.215  23.490  1.00  0.00     0.104 C 
ATOM     15  C   UNL A   1      31.458  28.242  22.934  1.00  0.00     0.237 C 
ATOM     16  C   UNL A   1      29.429  27.357  23.571  1.00  0.00     0.238 C 
ATOM     17  N   UNL A   1      30.110  28.492  23.153  1.00  0.00    -0.250 N 
ATOM     18  O   UNL A   1      32.310  28.949  22.428  1.00  0.00    -0.274 OA
ATOM     19  O   UNL A   1      28.224  27.203  23.716  1.00  0.00    -0.274 OA
BRANCH  17  20
ATOM     20  C   UNL A   1      29.474  29.731  22.885  1.00  0.00     0.052 A 
ATOM     21  C   UNL A   1      28.915  30.004  21.630  1.00  0.00     0.027 A 
ATOM     22  C   UNL A   1      29.395  30.718  23.877  1.00  0.00     0.027 A 
ATOM     23  C   UNL A   1      28.275  31.221  21.379  1.00  0.00     0.002 A 
ATOM     24  C   UNL A   1      28.787  31.950  23.616  1.00  0.00     0.002 A 
ATOM     25  C   UNL A   1      28.219  32.197  22.369  1.00  0.00     0.000 A 
ENDBRANCH  17  20
ENDBRANCH   5   8
ENDBRANCH   3   4
ENDBRANCH   2   3
ENDBRANCH   1   2
BRANCH   1  26
ATOM     26  C   UNL A   1      32.606  30.289  25.950  1.00  0.00     0.116 C 
BRANCH  26  27
ATOM     27  N   UNL A   1      32.269  31.634  26.401  1.00  0.00    -0.352 N 
ATOM     28  C   UNL A   1      32.977  32.431  27.270  1.00  0.00     0.251 C 
ATOM     29  H   UNL A   1      31.436  32.015  26.042  1.00  0.00     0.163 HD
ATOM     30  O   UNL A   1      32.526  33.512  27.631  1.00  0.00    -0.269 OA
BRANCH  28  31
ATOM     31  C   UNL A   1      34.259  31.924  27.794  1.00  0.00     0.039 A 
ATOM     32  C   UNL A   1      35.303  32.824  28.011  1.00  0.00     0.014 A 
ATOM     33  C   UNL A   1      34.378  30.585  28.172  1.00  0.00     0.014 A 
ATOM     34  C   UNL A   1      36.446  32.392  28.684  1.00  0.00     0.010 A 
ATOM     35  C   UNL A   1      35.477  30.181  28.919  1.00  0.00     0.010 A 
ATOM     36  C   UNL A   1      36.522  31.081  29.183  1.00  0.00    -0.014 A 
BRANCH  36  37
ATOM     37  C   UNL A   1      37.690  30.621  29.974  1.00  0.00     0.031 A 
ATOM     38  C   UNL A   1      38.686  29.682  29.353  1.00  0.00     0.074 A 
ATOM     39  C   UNL A   1      37.811  30.990  31.265  1.00  0.00     0.049 A 
ATOM     40  N   UNL A   1      39.722  29.095  29.893  1.00  0.00    -0.248 NA
ATOM     41  C   UNL A   1      38.461  29.325  27.943  1.00  0.00     0.031 C 
ATOM     42  C   UNL A   1      36.876  31.855  31.990  1.00  0.00     0.029 A 
ATOM     43  N   UNL A   1      38.765  30.678  32.201  1.00  0.00    -0.354 N 
ATOM     44  C   UNL A   1      40.261  28.288  28.897  1.00  0.00     0.074 A 
ATOM     45  C   UNL A   1      39.393  28.407  27.746  1.00  0.00     0.031 C 
ATOM     46  C   UNL A   1      37.319  32.026  33.246  1.00  0.00     0.029 A 
ATOM     47  C   UNL A   1      38.541  31.251  33.433  1.00  0.00     0.049 A 
ATOM     48  H   UNL A   1      39.537  30.099  32.010  1.00  0.00     0.167 HD
ATOM     49  C   UNL A   1      41.393  27.542  28.930  1.00  0.00     0.034 A 
ATOM     50  C   UNL A   1      39.240  31.156  34.581  1.00  0.00     0.034 A 
ATOM     51  C   UNL A   1      42.254  27.454  30.083  1.00  0.00     0.049 A 
ATOM     52  C   UNL A   1      40.491  30.312  34.598  1.00  0.00     0.074 A 
ATOM     53  C   UNL A   1      43.454  26.777  30.214  1.00  0.00     0.029 A 
ATOM     54  N   UNL A   1      42.005  28.061  31.309  1.00  0.00    -0.354 N 
ATOM     55  N   UNL A   1      41.020  29.600  33.629  1.00  0.00    -0.248 NA
ATOM     56  C   UNL A   1      41.245  30.273  35.857  1.00  0.00     0.031 C 
ATOM     57  C   UNL A   1      43.897  26.921  31.534  1.00  0.00     0.029 A 
ATOM     58  C   UNL A   1      43.014  27.751  32.207  1.00  0.00     0.049 A 
ATOM     59  H   UNL A   1      41.226  28.628  31.509  1.00  0.00     0.167 HD
ATOM     60  C   UNL A   1      42.187  29.052  34.156  1.00  0.00     0.074 A 
ATOM     61  C   UNL A   1      42.290  29.532  35.519  1.00  0.00     0.031 C 
ATOM     62  C   UNL A   1      43.094  28.233  33.566  1.00  0.00     0.034 A 
BRANCH  49  63
ATOM     63  C   UNL A   1      41.739  26.755  27.689  1.00  0.00     0.023 A 
ATOM     64  C   UNL A   1      41.405  25.394  27.562  1.00  0.00     0.031 A 
ATOM     65  C   UNL A   1      42.450  27.356  26.637  1.00  0.00     0.131 A 
ATOM     66  C   UNL A   1      41.855  24.662  26.453  1.00  0.00     0.055 A 
ATOM     67  C   UNL A   1      42.816  26.643  25.493  1.00  0.00     0.041 A 
ATOM     68  F   UNL A   1      42.817  28.646  26.708  1.00  0.00    -0.206 F 
ATOM     69  C   UNL A   1      42.535  25.283  25.404  1.00  0.00     0.022 A 
BRANCH  66  70
ATOM     70  S   UNL A   1      41.673  22.857  26.478  1.00  0.00     0.124 S 
ATOM     71  O   UNL A   1      42.603  22.453  25.425  1.00  0.00    -0.237 OA
ATOM     72  O   UNL A   1      42.066  22.520  27.841  1.00  0.00    -0.237 OA
ATOM     73  O   UNL A   1      40.261  22.650  26.164  1.00  0.00    -0.744 OA
ENDBRANCH  66  70
ENDBRANCH  49  63
BRANCH  50  74
ATOM     74  C   UNL A   1      38.783  31.867  35.809  1.00  0.00     0.023 A 
ATOM     75  C   UNL A   1      38.134  31.177  36.845  1.00  0.00     0.031 A 
ATOM     76  C   UNL A   1      38.947  33.257  35.947  1.00  0.00     0.131 A 
ATOM     77  C   UNL A   1      37.632  31.882  37.950  1.00  0.00     0.055 A 
ATOM     78  C   UNL A   1      38.493  33.947  37.072  1.00  0.00     0.041 A 
ATOM     79  F   UNL A   1      39.567  33.965  34.989  1.00  0.00    -0.206 F 
ATOM     80  C   UNL A   1      37.818  33.260  38.076  1.00  0.00     0.022 A 
BRANCH  77  81
ATOM     81  S   UNL A   1      36.652  30.981  39.182  1.00  0.00     0.124 S 
ATOM     82  O   UNL A   1      37.587  30.893  40.299  1.00  0.00    -0.237 OA
ATOM     83  O   UNL A   1      35.510  31.870  39.370  1.00  0.00    -0.237 OA
ATOM     84  O   UNL A   1      36.351  29.715  38.518  1.00  0.00    -0.744 OA
ENDBRANCH  77  81
ENDBRANCH  50  74
BRANCH  62  85
ATOM     85  C   UNL A   1      44.300  27.844  34.387  1.00  0.00     0.023 A 
ATOM     86  C   UNL A   1      44.344  26.644  35.116  1.00  0.00     0.031 A 
ATOM     87  C   UNL A   1      45.418  28.696  34.442  1.00  0.00     0.131 A 
ATOM     88  C   UNL A   1      45.461  26.353  35.915  1.00  0.00     0.055 A 
ATOM     89  C   UNL A   1      46.551  28.372  35.189  1.00  0.00     0.041 A 
ATOM     90  F   UNL A   1      45.429  29.855  33.766  1.00  0.00    -0.206 F 
ATOM     91  C   UNL A   1      46.571  27.201  35.942  1.00  0.00     0.022 A 
BRANCH  88  92
ATOM     92  S   UNL A   1      45.405  24.894  36.990  1.00  0.00     0.124 S 
ATOM     93  O   UNL A   1      44.953  23.856  36.069  1.00  0.00    -0.237 OA
ATOM     94  O   UNL A   1      46.788  24.787  37.442  1.00  0.00    -0.237 OA
ATOM     95  O   UNL A   1      44.442  25.267  38.025  1.00  0.00    -0.744 OA
ENDBRANCH  88  92
ENDBRANCH  62  85
ENDBRANCH  36  37
ENDBRANCH  28  31
ENDBRANCH  26  27
ENDBRANCH   1  26
TORSDOF 15
ENDMDL
MODEL 3
REMARK VINA RESULT:     -13.0      5.482     10.770
REMARK SMILES C[C@@H]1CC[C@@H](C(=O)NCCCCNC(=O)c2ccc(-c3c4nc(c(-c5cc(S(=O)(=O)[O-])ccc5F)c5ccc([nH]5)c(-c5cc(S(=O)(=O)[O-])ccc5F)c5nc(c(-c6cc(S(=O)(=O)[O-])ccc6F)c6ccc3[nH]6)C=C5)C=C4)cc2)[C@H]2C(=O)N(c3ccccc3)C(=O)[C@@H]21
REMARK SMILES IDX 11 1 10 2 9 3 8 4 6 5 7 6 5 8 1 9 2 10 3 11 91 12 4 13 79 14
REMARK SMILES IDX 89 15 80 16 82 17 90 18 81 19 83 20 84 21 88 22 85 23 87 24
REMARK SMILES IDX 86 25 12 26 13 27 14 28 15 30 16 31 17 32 78 33 18 34 77 35
REMARK SMILES IDX 19 36 20 37 21 38 71 39 22 40 76 41 70 42 72 43 23 44 75 45
REMARK SMILES IDX 69 46 68 47 24 49 56 50 36 51 55 52 37 53 40 54 54 55 73 56
REMARK SMILES IDX 38 57 39 58 53 60 74 61 41 62 25 63 26 64 34 65 27 66 33 67
REMARK SMILES IDX 35 68 32 69 28 70 29 71 30 72 31 73 57 74 58 75 66 76 59 77
REMARK SMILES IDX 65 78 67 79 64 80 60 81 61 82 62 83 63 84 42 85 43 86 51 87
REMARK SMILES IDX 44 88 50 89 52 90 49 91 45 92 46 93 47 94 48 95
REMARK H PARENT 8 7 13 29 72 48 40 59
REMARK Flexibility Score: inf
ROOT
ATOM      1  C   UNL A   1      36.711  21.584  24.285  1.00  0.00     0.023 C 
ENDROOT
BRANCH   1   2
ATOM      2  C   UNL A   1      36.694  23.004  23.729  1.00  0.00     0.023 C 
BRANCH   2   3
ATOM      3  C   UNL A   1      35.326  23.686  23.746  1.00  0.00     0.116 C 
BRANCH   3   4
ATOM      4  N   UNL A   1      34.614  23.470  22.506  1.00  0.00    -0.356 N 
ATOM      5  C   UNL A   1      33.325  23.287  22.164  1.00  0.00     0.223 C 
ATOM      6  O   UNL A   1      33.152  23.071  20.959  1.00  0.00    -0.275 OA
ATOM      7  H   UNL A   1      35.215  23.453  21.727  1.00  0.00     0.163 HD
BRANCH   5   8
ATOM      8  C   UNL A   1      32.101  23.290  23.096  1.00  0.00     0.092 C 
ATOM      9  C   UNL A   1      31.483  23.284  27.015  1.00  0.00     0.008 C 
ATOM     10  C   UNL A   1      32.655  23.618  26.091  1.00  0.00    -0.001 C 
ATOM     11  C   UNL A   1      32.309  24.838  25.207  1.00  0.00     0.005 C 
ATOM     12  C   UNL A   1      33.121  22.455  25.216  1.00  0.00     0.095 C 
ATOM     13  C   UNL A   1      31.632  24.547  23.850  1.00  0.00     0.014 C 
ATOM     14  C   UNL A   1      32.138  22.150  24.108  1.00  0.00     0.104 C 
ATOM     15  C   UNL A   1      33.330  21.096  25.834  1.00  0.00     0.237 C 
ATOM     16  C   UNL A   1      32.508  20.742  23.712  1.00  0.00     0.238 C 
ATOM     17  N   UNL A   1      33.135  20.175  24.814  1.00  0.00    -0.250 N 
ATOM     18  O   UNL A   1      33.704  20.923  26.980  1.00  0.00    -0.274 OA
ATOM     19  O   UNL A   1      32.073  20.183  22.715  1.00  0.00    -0.274 OA
BRANCH  17  20
ATOM     20  C   UNL A   1      33.441  18.795  24.915  1.00  0.00     0.052 A 
ATOM     21  C   UNL A   1      34.601  18.264  24.337  1.00  0.00     0.027 A 
ATOM     22  C   UNL A   1      32.579  17.924  25.597  1.00  0.00     0.027 A 
ATOM     23  C   UNL A   1      34.905  16.904  24.455  1.00  0.00     0.002 A 
ATOM     24  C   UNL A   1      32.863  16.558  25.685  1.00  0.00     0.002 A 
ATOM     25  C   UNL A   1      34.031  16.050  25.121  1.00  0.00     0.000 A 
ENDBRANCH  17  20
ENDBRANCH   5   8
ENDBRANCH   3   4
ENDBRANCH   2   3
ENDBRANCH   1   2
BRANCH   1  26
ATOM     26  C   UNL A   1      37.279  21.467  25.693  1.00  0.00     0.116 C 
BRANCH  26  27
ATOM     27  N   UNL A   1      38.376  20.514  25.806  1.00  0.00    -0.352 N 
ATOM     28  C   UNL A   1      39.649  20.748  26.271  1.00  0.00     0.251 C 
ATOM     29  H   UNL A   1      38.183  19.595  25.514  1.00  0.00     0.163 HD
ATOM     30  O   UNL A   1      40.500  19.868  26.226  1.00  0.00    -0.269 OA
BRANCH  28  31
ATOM     31  C   UNL A   1      39.972  22.099  26.769  1.00  0.00     0.039 A 
ATOM     32  C   UNL A   1      40.948  22.240  27.757  1.00  0.00     0.014 A 
ATOM     33  C   UNL A   1      39.389  23.220  26.174  1.00  0.00     0.014 A 
ATOM     34  C   UNL A   1      41.397  23.516  28.094  1.00  0.00     0.010 A 
ATOM     35  C   UNL A   1      39.900  24.482  26.449  1.00  0.00     0.010 A 
ATOM     36  C   UNL A   1      40.909  24.643  27.410  1.00  0.00    -0.014 A 
BRANCH  36  37
ATOM     37  C   UNL A   1      41.431  26.003  27.692  1.00  0.00     0.031 A 
ATOM     38  C   UNL A   1      42.808  26.382  27.222  1.00  0.00     0.074 A 
ATOM     39  C   UNL A   1      40.699  26.862  28.428  1.00  0.00     0.049 A 
ATOM     40  N   UNL A   1      43.485  27.480  27.437  1.00  0.00    -0.248 NA
ATOM     41  C   UNL A   1      43.537  25.372  26.439  1.00  0.00     0.031 C 
ATOM     42  C   UNL A   1      39.372  26.584  28.983  1.00  0.00     0.029 A 
ATOM     43  N   UNL A   1      40.969  28.141  28.845  1.00  0.00    -0.354 N 
ATOM     44  C   UNL A   1      44.721  27.287  26.831  1.00  0.00     0.074 A 
ATOM     45  C   UNL A   1      44.725  25.939  26.306  1.00  0.00     0.031 C 
ATOM     46  C   UNL A   1      38.933  27.670  29.641  1.00  0.00     0.029 A 
ATOM     47  C   UNL A   1      39.961  28.704  29.595  1.00  0.00     0.049 A 
ATOM     48  H   UNL A   1      41.805  28.613  28.627  1.00  0.00     0.167 HD
ATOM     49  C   UNL A   1      45.747  28.164  26.698  1.00  0.00     0.034 A 
ATOM     50  C   UNL A   1      39.881  29.914  30.184  1.00  0.00     0.034 A 
ATOM     51  C   UNL A   1      45.714  29.510  27.212  1.00  0.00     0.049 A 
ATOM     52  C   UNL A   1      41.038  30.871  30.031  1.00  0.00     0.074 A 
ATOM     53  C   UNL A   1      46.668  30.505  27.088  1.00  0.00     0.029 A 
ATOM     54  N   UNL A   1      44.670  30.052  27.954  1.00  0.00    -0.354 N 
ATOM     55  N   UNL A   1      42.179  30.693  29.405  1.00  0.00    -0.248 NA
ATOM     56  C   UNL A   1      40.889  32.192  30.650  1.00  0.00     0.031 C 
ATOM     57  C   UNL A   1      46.231  31.623  27.807  1.00  0.00     0.029 A 
ATOM     58  C   UNL A   1      44.970  31.356  28.316  1.00  0.00     0.049 A 
ATOM     59  H   UNL A   1      43.839  29.578  28.187  1.00  0.00     0.167 HD
ATOM     60  C   UNL A   1      42.871  31.895  29.531  1.00  0.00     0.074 A 
ATOM     61  C   UNL A   1      42.010  32.791  30.276  1.00  0.00     0.031 C 
ATOM     62  C   UNL A   1      44.102  32.230  29.069  1.00  0.00     0.034 A 
BRANCH  49  63
ATOM     63  C   UNL A   1      46.987  27.676  25.987  1.00  0.00     0.023 A 
ATOM     64  C   UNL A   1      47.229  27.980  24.635  1.00  0.00     0.031 A 
ATOM     65  C   UNL A   1      47.919  26.862  26.653  1.00  0.00     0.131 A 
ATOM     66  C   UNL A   1      48.324  27.405  23.972  1.00  0.00     0.055 A 
ATOM     67  C   UNL A   1      49.056  26.366  26.011  1.00  0.00     0.041 A 
ATOM     68  F   UNL A   1      47.733  26.519  27.938  1.00  0.00    -0.206 F 
ATOM     69  C   UNL A   1      49.254  26.622  24.657  1.00  0.00     0.022 A 
BRANCH  66  70
ATOM     70  S   UNL A   1      48.423  27.568  22.168  1.00  0.00     0.124 S 
ATOM     71  O   UNL A   1      47.114  28.136  21.851  1.00  0.00    -0.237 OA
ATOM     72  O   UNL A   1      49.564  28.459  21.995  1.00  0.00    -0.237 OA
ATOM     73  O   UNL A   1      48.626  26.196  21.710  1.00  0.00    -0.744 OA
ENDBRANCH  66  70
ENDBRANCH  49  63
BRANCH  50  74
ATOM     74  C   UNL A   1      38.674  30.296  30.972  1.00  0.00     0.023 A 
ATOM     75  C   UNL A   1      37.621  31.011  30.381  1.00  0.00     0.031 A 
ATOM     76  C   UNL A   1      38.574  29.989  32.341  1.00  0.00     0.131 A 
ATOM     77  C   UNL A   1      36.537  31.438  31.163  1.00  0.00     0.055 A 
ATOM     78  C   UNL A   1      37.469  30.369  33.104  1.00  0.00     0.041 A 
ATOM     79  F   UNL A   1      39.549  29.300  32.955  1.00  0.00    -0.206 F 
ATOM     80  C   UNL A   1      36.448  31.111  32.518  1.00  0.00     0.022 A 
BRANCH  77  81
ATOM     81  S   UNL A   1      35.283  32.505  30.401  1.00  0.00     0.124 S 
ATOM     82  O   UNL A   1      36.053  33.709  30.112  1.00  0.00    -0.237 OA
ATOM     83  O   UNL A   1      34.873  31.712  29.247  1.00  0.00    -0.237 OA
ATOM     84  O   UNL A   1      34.274  32.645  31.449  1.00  0.00    -0.744 OA
ENDBRANCH  77  81
ENDBRANCH  50  74
BRANCH  62  85
ATOM     85  C   UNL A   1      44.565  33.645  29.320  1.00  0.00     0.023 A 
ATOM     86  C   UNL A   1      44.230  34.700  28.454  1.00  0.00     0.031 A 
ATOM     87  C   UNL A   1      45.361  33.936  30.443  1.00  0.00     0.131 A 
ATOM     88  C   UNL A   1      44.735  35.986  28.694  1.00  0.00     0.055 A 
ATOM     89  C   UNL A   1      45.808  35.230  30.710  1.00  0.00     0.041 A 
ATOM     90  F   UNL A   1      45.711  32.966  31.303  1.00  0.00    -0.206 F 
ATOM     91  C   UNL A   1      45.507  36.262  29.826  1.00  0.00     0.022 A 
BRANCH  88  92
ATOM     92  S   UNL A   1      44.444  37.279  27.457  1.00  0.00     0.124 S 
ATOM     93  O   UNL A   1      45.715  37.306  26.740  1.00  0.00    -0.237 OA
ATOM     94  O   UNL A   1      43.305  36.750  26.714  1.00  0.00    -0.237 OA
ATOM     95  O   UNL A   1      44.161  38.467  28.261  1.00  0.00    -0.744 OA
ENDBRANCH  88  92
ENDBRANCH  62  85
ENDBRANCH  36  37
ENDBRANCH  28  31
ENDBRANCH  26  27
ENDBRANCH   1  26
TORSDOF 15
ENDMDL
