MODEL 1
REMARK VINA RESULT:     -11.7      0.000      0.000
REMARK SMILES CC[NH2+][C@@]1(C(=O)NCCCCNC(=O)c2ccc(-c3c4nc(c(-c5cc(S(=O)(=O)[O-])ccc5F)c5ccc([nH]5)c(-c5cc(S(=O)(=O)[O-])ccc5F)c5nc(c(-c6cc(S(=O)(=O)[O-])ccc6F)c6ccc3[nH]6)C=C5)C=C4)cc2)CC[C@@H](Oc2cccc(OC)c2)C1
REMARK SMILES IDX 9 1 8 2 7 3 5 4 6 5 4 7 78 8 90 9 79 10 80 11 3 12 2 15 1 16
REMARK SMILES IDX 81 17 82 18 83 19 89 20 84 21 86 22 85 23 87 24 88 25 10 26
REMARK SMILES IDX 11 27 12 28 13 29 14 31 15 32 16 33 77 34 17 35 76 36 18 37
REMARK SMILES IDX 19 38 20 39 70 40 21 41 75 42 69 43 71 44 22 45 74 46 68 47
REMARK SMILES IDX 67 48 23 50 55 51 35 52 54 53 36 54 39 55 53 56 72 57 37 58
REMARK SMILES IDX 38 59 52 61 73 62 40 63 24 64 25 65 33 66 26 67 32 68 34 69
REMARK SMILES IDX 31 70 27 71 28 72 29 73 30 74 56 75 57 76 65 77 58 78 64 79
REMARK SMILES IDX 66 80 63 81 59 82 60 83 61 84 62 85 41 86 42 87 50 88 43 89
REMARK SMILES IDX 49 90 51 91 48 92 44 93 45 94 46 95 47 96
REMARK H PARENT 7 6 3 13 3 14 12 30 71 49 39 60
REMARK Flexibility Score: inf
ROOT
ATOM      1  C   UNL A   1      35.495  22.056  23.852  1.00  0.00     0.023 C 
ENDROOT
BRANCH   1   2
ATOM      2  C   UNL A   1      34.481  23.031  23.262  1.00  0.00     0.116 C 
BRANCH   2   3
ATOM      3  N   UNL A   1      34.299  24.219  24.054  1.00  0.00    -0.351 N 
ATOM      4  C   UNL A   1      33.812  24.376  25.310  1.00  0.00     0.281 C 
ATOM      5  O   UNL A   1      34.263  25.357  25.921  1.00  0.00    -0.268 OA
ATOM      6  H   UNL A   1      34.574  25.054  23.612  1.00  0.00     0.163 HD
BRANCH   4   7
ATOM      7  C   UNL A   1      32.784  23.405  26.017  1.00  0.00     0.179 C 
ATOM      8  C   UNL A   1      33.460  22.664  27.186  1.00  0.00     0.083 C 
ATOM      9  C   UNL A   1      32.119  22.305  25.177  1.00  0.00     0.124 C 
ATOM     10  C   UNL A   1      33.631  21.200  26.795  1.00  0.00     0.052 C 
ATOM     11  C   UNL A   1      32.811  20.978  25.517  1.00  0.00     0.180 C 
BRANCH   7  12
ATOM     12  N   UNL A   1      31.719  24.267  26.641  1.00  0.00    -0.334 N 
ATOM     13  H   UNL A   1      31.262  23.725  27.375  1.00  0.00     0.347 HD
ATOM     14  H   UNL A   1      32.193  25.099  26.990  1.00  0.00     0.347 HD
BRANCH  12  15
ATOM     15  C   UNL A   1      30.684  24.741  25.713  1.00  0.00     0.257 C 
ATOM     16  C   UNL A   1      30.464  26.231  25.943  1.00  0.00     0.071 C 
ENDBRANCH  12  15
ENDBRANCH   7  12
BRANCH  11  17
ATOM     17  O   UNL A   1      31.936  19.841  25.437  1.00  0.00    -0.490 OA
BRANCH  17  18
ATOM     18  C   UNL A   1      32.412  18.784  24.720  1.00  0.00     0.123 A 
ATOM     19  C   UNL A   1      32.502  18.895  23.333  1.00  0.00     0.047 A 
ATOM     20  C   UNL A   1      32.766  17.604  25.366  1.00  0.00     0.092 A 
ATOM     21  C   UNL A   1      33.034  17.841  22.595  1.00  0.00     0.008 A 
ATOM     22  C   UNL A   1      33.306  16.549  24.635  1.00  0.00     0.122 A 
ATOM     23  C   UNL A   1      33.442  16.675  23.248  1.00  0.00     0.046 A 
BRANCH  22  24
ATOM     24  O   UNL A   1      33.732  15.358  25.160  1.00  0.00    -0.497 OA
ATOM     25  C   UNL A   1      32.710  14.492  25.647  1.00  0.00     0.278 C 
ENDBRANCH  22  24
ENDBRANCH  17  18
ENDBRANCH  11  17
ENDBRANCH   4   7
ENDBRANCH   2   3
ENDBRANCH   1   2
BRANCH   1  26
ATOM     26  C   UNL A   1      36.848  22.677  24.198  1.00  0.00     0.023 C 
BRANCH  26  27
ATOM     27  C   UNL A   1      37.309  22.475  25.637  1.00  0.00     0.116 C 
BRANCH  27  28
ATOM     28  N   UNL A   1      38.379  21.498  25.784  1.00  0.00    -0.352 N 
ATOM     29  C   UNL A   1      39.620  21.693  26.353  1.00  0.00     0.251 C 
ATOM     30  H   UNL A   1      38.195  20.594  25.439  1.00  0.00     0.163 HD
ATOM     31  O   UNL A   1      40.458  20.806  26.344  1.00  0.00    -0.269 OA
BRANCH  29  32
ATOM     32  C   UNL A   1      39.917  23.024  26.919  1.00  0.00     0.039 A 
ATOM     33  C   UNL A   1      40.867  23.128  27.936  1.00  0.00     0.014 A 
ATOM     34  C   UNL A   1      39.341  24.166  26.356  1.00  0.00     0.014 A 
ATOM     35  C   UNL A   1      41.300  24.392  28.338  1.00  0.00     0.010 A 
ATOM     36  C   UNL A   1      39.829  25.419  26.705  1.00  0.00     0.010 A 
ATOM     37  C   UNL A   1      40.819  25.544  27.695  1.00  0.00    -0.014 A 
BRANCH  37  38
ATOM     38  C   UNL A   1      41.332  26.893  28.043  1.00  0.00     0.031 A 
ATOM     39  C   UNL A   1      42.759  27.251  27.729  1.00  0.00     0.074 A 
ATOM     40  C   UNL A   1      40.541  27.759  28.706  1.00  0.00     0.049 A 
ATOM     41  N   UNL A   1      43.425  28.335  28.026  1.00  0.00    -0.248 NA
ATOM     42  C   UNL A   1      43.549  26.232  27.021  1.00  0.00     0.031 C 
ATOM     43  C   UNL A   1      39.157  27.501  29.114  1.00  0.00     0.029 A 
ATOM     44  N   UNL A   1      40.788  29.029  29.163  1.00  0.00    -0.354 N 
ATOM     45  C   UNL A   1      44.717  28.123  27.557  1.00  0.00     0.074 A 
ATOM     46  C   UNL A   1      44.754  26.780  27.020  1.00  0.00     0.031 C 
ATOM     47  C   UNL A   1      38.672  28.587  29.737  1.00  0.00     0.029 A 
ATOM     48  C   UNL A   1      39.718  29.603  29.810  1.00  0.00     0.049 A 
ATOM     49  H   UNL A   1      41.651  29.487  29.040  1.00  0.00     0.167 HD
ATOM     50  C   UNL A   1      45.768  28.981  27.550  1.00  0.00     0.034 A 
ATOM     51  C   UNL A   1      39.597  30.809  30.400  1.00  0.00     0.034 A 
ATOM     52  C   UNL A   1      45.704  30.324  28.071  1.00  0.00     0.049 A 
ATOM     53  C   UNL A   1      40.777  31.748  30.377  1.00  0.00     0.074 A 
ATOM     54  C   UNL A   1      46.686  31.300  28.062  1.00  0.00     0.029 A 
ATOM     55  N   UNL A   1      44.596  30.881  28.698  1.00  0.00    -0.354 N 
ATOM     56  N   UNL A   1      41.977  31.555  29.879  1.00  0.00    -0.248 NA
ATOM     57  C   UNL A   1      40.582  33.071  30.984  1.00  0.00     0.031 C 
ATOM     58  C   UNL A   1      46.192  32.424  28.735  1.00  0.00     0.029 A 
ATOM     59  C   UNL A   1      44.878  32.177  29.102  1.00  0.00     0.049 A 
ATOM     60  H   UNL A   1      43.737  30.422  28.836  1.00  0.00     0.167 HD
ATOM     61  C   UNL A   1      42.669  32.745  30.086  1.00  0.00     0.074 A 
ATOM     62  C   UNL A   1      41.747  33.652  30.741  1.00  0.00     0.031 C 
ATOM     63  C   UNL A   1      43.948  33.062  29.762  1.00  0.00     0.034 A 
BRANCH  50  64
ATOM     64  C   UNL A   1      47.069  28.473  26.979  1.00  0.00     0.023 A 
ATOM     65  C   UNL A   1      47.245  28.292  25.594  1.00  0.00     0.031 A 
ATOM     66  C   UNL A   1      48.134  28.123  27.827  1.00  0.00     0.131 A 
ATOM     67  C   UNL A   1      48.417  27.694  25.109  1.00  0.00     0.055 A 
ATOM     68  C   UNL A   1      49.334  27.610  27.329  1.00  0.00     0.041 A 
ATOM     69  F   UNL A   1      48.019  28.255  29.158  1.00  0.00    -0.206 F 
ATOM     70  C   UNL A   1      49.474  27.376  25.964  1.00  0.00     0.022 A 
BRANCH  67  71
ATOM     71  S   UNL A   1      48.475  27.198  23.366  1.00  0.00     0.124 S 
ATOM     72  O   UNL A   1      47.443  28.052  22.782  1.00  0.00    -0.237 OA
ATOM     73  O   UNL A   1      49.849  27.511  22.993  1.00  0.00    -0.237 OA
ATOM     74  O   UNL A   1      48.146  25.774  23.403  1.00  0.00    -0.744 OA
ENDBRANCH  67  71
ENDBRANCH  50  64
BRANCH  51  75
ATOM     75  C   UNL A   1      38.322  31.205  31.061  1.00  0.00     0.023 A 
ATOM     76  C   UNL A   1      37.286  31.809  30.330  1.00  0.00     0.031 A 
ATOM     77  C   UNL A   1      38.133  31.021  32.442  1.00  0.00     0.131 A 
ATOM     78  C   UNL A   1      36.129  32.251  30.990  1.00  0.00     0.055 A 
ATOM     79  C   UNL A   1      36.959  31.420  33.086  1.00  0.00     0.041 A 
ATOM     80  F   UNL A   1      39.087  30.440  33.187  1.00  0.00    -0.206 F 
ATOM     81  C   UNL A   1      35.954  32.051  32.361  1.00  0.00     0.022 A 
BRANCH  78  82
ATOM     82  S   UNL A   1      34.885  33.167  30.039  1.00  0.00     0.124 S 
ATOM     83  O   UNL A   1      34.342  32.125  29.177  1.00  0.00    -0.237 OA
ATOM     84  O   UNL A   1      34.000  33.656  31.092  1.00  0.00    -0.237 OA
ATOM     85  O   UNL A   1      35.668  34.198  29.359  1.00  0.00    -0.744 OA
ENDBRANCH  78  82
ENDBRANCH  51  75
BRANCH  63  86
ATOM     86  C   UNL A   1      44.403  34.466  30.073  1.00  0.00     0.023 A 
ATOM     87  C   UNL A   1      44.275  35.509  29.138  1.00  0.00     0.031 A 
ATOM     88  C   UNL A   1      44.981  34.761  31.320  1.00  0.00     0.131 A 
ATOM     89  C   UNL A   1      44.769  36.785  29.445  1.00  0.00     0.055 A 
ATOM     90  C   UNL A   1      45.418  36.046  31.642  1.00  0.00     0.041 A 
ATOM     91  F   UNL A   1      45.128  33.801  32.249  1.00  0.00    -0.206 F 
ATOM     92  C   UNL A   1      45.325  37.064  30.697  1.00  0.00     0.022 A 
BRANCH  89  93
ATOM     93  S   UNL A   1      44.754  38.058  28.154  1.00  0.00     0.124 S 
ATOM     94  O   UNL A   1      44.568  39.278  28.932  1.00  0.00    -0.237 OA
ATOM     95  O   UNL A   1      46.066  37.891  27.536  1.00  0.00    -0.237 OA
ATOM     96  O   UNL A   1      43.620  37.680  27.312  1.00  0.00    -0.744 OA
ENDBRANCH  89  93
ENDBRANCH  63  86
ENDBRANCH  37  38
ENDBRANCH  29  32
ENDBRANCH  27  28
ENDBRANCH  26  27
ENDBRANCH   1  26
TORSDOF 19
ENDMDL
MODEL 2
REMARK VINA RESULT:     -11.6      1.855      4.031
REMARK SMILES CC[NH2+][C@@]1(C(=O)NCCCCNC(=O)c2ccc(-c3c4nc(c(-c5cc(S(=O)(=O)[O-])ccc5F)c5ccc([nH]5)c(-c5cc(S(=O)(=O)[O-])ccc5F)c5nc(c(-c6cc(S(=O)(=O)[O-])ccc6F)c6ccc3[nH]6)C=C5)C=C4)cc2)CC[C@@H](Oc2cccc(OC)c2)C1
REMARK SMILES IDX 9 1 8 2 7 3 5 4 6 5 4 7 78 8 90 9 79 10 80 11 3 12 2 15 1 16
REMARK SMILES IDX 81 17 82 18 83 19 89 20 84 21 86 22 85 23 87 24 88 25 10 26
REMARK SMILES IDX 11 27 12 28 13 29 14 31 15 32 16 33 77 34 17 35 76 36 18 37
REMARK SMILES IDX 19 38 20 39 70 40 21 41 75 42 69 43 71 44 22 45 74 46 68 47
REMARK SMILES IDX 67 48 23 50 55 51 35 52 54 53 36 54 39 55 53 56 72 57 37 58
REMARK SMILES IDX 38 59 52 61 73 62 40 63 24 64 25 65 33 66 26 67 32 68 34 69
REMARK SMILES IDX 31 70 27 71 28 72 29 73 30 74 56 75 57 76 65 77 58 78 64 79
REMARK SMILES IDX 66 80 63 81 59 82 60 83 61 84 62 85 41 86 42 87 50 88 43 89
REMARK SMILES IDX 49 90 51 91 48 92 44 93 45 94 46 95 47 96
REMARK H PARENT 7 6 3 13 3 14 12 30 71 49 39 60
REMARK Flexibility Score: inf
ROOT
ATOM      1  C   UNL A   1      34.942  21.472  26.383  1.00  0.00     0.023 C 
ENDROOT
BRANCH   1   2
ATOM      2  C   UNL A   1      33.447  21.735  26.237  1.00  0.00     0.116 C 
BRANCH   2   3
ATOM      3  N   UNL A   1      32.934  21.423  24.928  1.00  0.00    -0.351 N 
ATOM      4  C   UNL A   1      32.651  22.231  23.876  1.00  0.00     0.281 C 
ATOM      5  O   UNL A   1      32.758  21.690  22.765  1.00  0.00    -0.268 OA
ATOM      6  H   UNL A   1      32.763  20.466  24.771  1.00  0.00     0.163 HD
BRANCH   4   7
ATOM      7  C   UNL A   1      32.249  23.756  23.981  1.00  0.00     0.179 C 
ATOM      8  C   UNL A   1      33.452  24.599  24.441  1.00  0.00     0.083 C 
ATOM      9  C   UNL A   1      31.101  24.149  24.923  1.00  0.00     0.124 C 
ATOM     10  C   UNL A   1      33.195  25.069  25.869  1.00  0.00     0.052 C 
ATOM     11  C   UNL A   1      31.725  24.762  26.184  1.00  0.00     0.180 C 
BRANCH   7  12
ATOM     12  N   UNL A   1      31.930  24.226  22.586  1.00  0.00    -0.334 N 
ATOM     13  H   UNL A   1      32.319  23.551  21.928  1.00  0.00     0.347 HD
ATOM     14  H   UNL A   1      30.915  24.303  22.535  1.00  0.00     0.347 HD
BRANCH  12  15
ATOM     15  C   UNL A   1      32.461  25.552  22.245  1.00  0.00     0.257 C 
ATOM     16  C   UNL A   1      32.411  25.726  20.732  1.00  0.00     0.071 C 
ENDBRANCH  12  15
ENDBRANCH   7  12
BRANCH  11  17
ATOM     17  O   UNL A   1      30.911  25.782  26.785  1.00  0.00    -0.490 OA
BRANCH  17  18
ATOM     18  C   UNL A   1      31.179  27.057  26.385  1.00  0.00     0.123 A 
ATOM     19  C   UNL A   1      31.683  27.965  27.316  1.00  0.00     0.047 A 
ATOM     20  C   UNL A   1      30.917  27.449  25.076  1.00  0.00     0.092 A 
ATOM     21  C   UNL A   1      32.008  29.256  26.906  1.00  0.00     0.008 A 
ATOM     22  C   UNL A   1      31.247  28.735  24.658  1.00  0.00     0.122 A 
ATOM     23  C   UNL A   1      31.797  29.635  25.578  1.00  0.00     0.046 A 
BRANCH  22  24
ATOM     24  O   UNL A   1      31.079  29.223  23.389  1.00  0.00    -0.497 OA
ATOM     25  C   UNL A   1      29.779  29.062  22.828  1.00  0.00     0.278 C 
ENDBRANCH  22  24
ENDBRANCH  17  18
ENDBRANCH  11  17
ENDBRANCH   4   7
ENDBRANCH   2   3
ENDBRANCH   1   2
BRANCH   1  26
ATOM     26  C   UNL A   1      35.753  21.686  25.105  1.00  0.00     0.023 C 
BRANCH  26  27
ATOM     27  C   UNL A   1      37.165  22.226  25.312  1.00  0.00     0.116 C 
BRANCH  27  28
ATOM     28  N   UNL A   1      38.162  21.194  25.561  1.00  0.00    -0.352 N 
ATOM     29  C   UNL A   1      39.369  21.336  26.212  1.00  0.00     0.251 C 
ATOM     30  H   UNL A   1      37.950  20.293  25.226  1.00  0.00     0.163 HD
ATOM     31  O   UNL A   1      40.152  20.402  26.287  1.00  0.00    -0.269 OA
BRANCH  29  32
ATOM     32  C   UNL A   1      39.703  22.663  26.765  1.00  0.00     0.039 A 
ATOM     33  C   UNL A   1      40.668  22.753  27.769  1.00  0.00     0.014 A 
ATOM     34  C   UNL A   1      39.145  23.814  26.202  1.00  0.00     0.014 A 
ATOM     35  C   UNL A   1      41.134  24.009  28.156  1.00  0.00     0.010 A 
ATOM     36  C   UNL A   1      39.665  25.058  26.536  1.00  0.00     0.010 A 
ATOM     37  C   UNL A   1      40.670  25.168  27.511  1.00  0.00    -0.014 A 
BRANCH  37  38
ATOM     38  C   UNL A   1      41.218  26.507  27.843  1.00  0.00     0.031 A 
ATOM     39  C   UNL A   1      42.636  26.844  27.473  1.00  0.00     0.074 A 
ATOM     40  C   UNL A   1      40.467  27.383  28.539  1.00  0.00     0.049 A 
ATOM     41  N   UNL A   1      43.331  27.917  27.747  1.00  0.00    -0.248 NA
ATOM     42  C   UNL A   1      43.381  25.816  26.731  1.00  0.00     0.031 C 
ATOM     43  C   UNL A   1      39.097  27.145  29.002  1.00  0.00     0.029 A 
ATOM     44  N   UNL A   1      40.752  28.647  28.991  1.00  0.00    -0.354 N 
ATOM     45  C   UNL A   1      44.599  27.688  27.226  1.00  0.00     0.074 A 
ATOM     46  C   UNL A   1      44.594  26.346  26.683  1.00  0.00     0.031 C 
ATOM     47  C   UNL A   1      38.654  28.236  29.648  1.00  0.00     0.029 A 
ATOM     48  C   UNL A   1      39.718  29.235  29.682  1.00  0.00     0.049 A 
ATOM     49  H   UNL A   1      41.616  29.092  28.835  1.00  0.00     0.167 HD
ATOM     50  C   UNL A   1      45.662  28.529  27.179  1.00  0.00     0.034 A 
ATOM     51  C   UNL A   1      39.639  30.440  30.280  1.00  0.00     0.034 A 
ATOM     52  C   UNL A   1      45.640  29.871  27.707  1.00  0.00     0.049 A 
ATOM     53  C   UNL A   1      40.832  31.361  30.213  1.00  0.00     0.074 A 
ATOM     54  C   UNL A   1      46.635  30.832  27.662  1.00  0.00     0.029 A 
ATOM     55  N   UNL A   1      44.567  30.442  28.380  1.00  0.00    -0.354 N 
ATOM     56  N   UNL A   1      42.007  31.152  29.667  1.00  0.00    -0.248 NA
ATOM     57  C   UNL A   1      40.681  32.685  30.832  1.00  0.00     0.031 C 
ATOM     58  C   UNL A   1      46.186  31.961  28.358  1.00  0.00     0.029 A 
ATOM     59  C   UNL A   1      44.884  31.732  28.776  1.00  0.00     0.049 A 
ATOM     60  H   UNL A   1      43.706  29.995  28.551  1.00  0.00     0.167 HD
ATOM     61  C   UNL A   1      42.726  32.330  29.850  1.00  0.00     0.074 A 
ATOM     62  C   UNL A   1      41.845  33.249  30.544  1.00  0.00     0.031 C 
ATOM     63  C   UNL A   1      43.996  32.629  29.476  1.00  0.00     0.034 A 
BRANCH  50  64
ATOM     64  C   UNL A   1      46.932  28.003  26.555  1.00  0.00     0.023 A 
ATOM     65  C   UNL A   1      47.201  28.168  25.184  1.00  0.00     0.031 A 
ATOM     66  C   UNL A   1      47.866  27.290  27.326  1.00  0.00     0.131 A 
ATOM     67  C   UNL A   1      48.324  27.554  24.611  1.00  0.00     0.055 A 
ATOM     68  C   UNL A   1      49.028  26.755  26.766  1.00  0.00     0.041 A 
ATOM     69  F   UNL A   1      47.655  27.083  28.635  1.00  0.00    -0.206 F 
ATOM     70  C   UNL A   1      49.254  26.870  25.397  1.00  0.00     0.022 A 
BRANCH  67  71
ATOM     71  S   UNL A   1      48.467  27.530  22.804  1.00  0.00     0.124 S 
ATOM     72  O   UNL A   1      48.442  26.096  22.525  1.00  0.00    -0.237 OA
ATOM     73  O   UNL A   1      47.291  28.283  22.383  1.00  0.00    -0.237 OA
ATOM     74  O   UNL A   1      49.750  28.184  22.552  1.00  0.00    -0.744 OA
ENDBRANCH  67  71
ENDBRANCH  50  64
BRANCH  51  75
ATOM     75  C   UNL A   1      38.398  30.854  30.993  1.00  0.00     0.023 A 
ATOM     76  C   UNL A   1      37.368  31.529  30.319  1.00  0.00     0.031 A 
ATOM     77  C   UNL A   1      38.238  30.613  32.369  1.00  0.00     0.131 A 
ATOM     78  C   UNL A   1      36.246  31.983  31.029  1.00  0.00     0.055 A 
ATOM     79  C   UNL A   1      37.097  31.025  33.062  1.00  0.00     0.041 A 
ATOM     80  F   UNL A   1      39.187  29.963  33.060  1.00  0.00    -0.206 F 
ATOM     81  C   UNL A   1      36.099  31.727  32.394  1.00  0.00     0.022 A 
BRANCH  78  82
ATOM     82  S   UNL A   1      35.015  32.989  30.155  1.00  0.00     0.124 S 
ATOM     83  O   UNL A   1      35.840  34.055  29.600  1.00  0.00    -0.237 OA
ATOM     84  O   UNL A   1      34.470  32.033  29.196  1.00  0.00    -0.237 OA
ATOM     85  O   UNL A   1      34.094  33.397  31.215  1.00  0.00    -0.744 OA
ENDBRANCH  78  82
ENDBRANCH  51  75
BRANCH  63  86
ATOM     86  C   UNL A   1      44.484  34.025  29.773  1.00  0.00     0.023 A 
ATOM     87  C   UNL A   1      44.178  35.110  28.932  1.00  0.00     0.031 A 
ATOM     88  C   UNL A   1      45.275  34.269  30.909  1.00  0.00     0.131 A 
ATOM     89  C   UNL A   1      44.705  36.378  29.212  1.00  0.00     0.055 A 
ATOM     90  C   UNL A   1      45.750  35.545  31.214  1.00  0.00     0.041 A 
ATOM     91  F   UNL A   1      45.598  33.267  31.744  1.00  0.00    -0.206 F 
ATOM     92  C   UNL A   1      45.476  36.606  30.356  1.00  0.00     0.022 A 
BRANCH  89  93
ATOM     93  S   UNL A   1      44.443  37.714  28.013  1.00  0.00     0.124 S 
ATOM     94  O   UNL A   1      43.705  38.692  28.805  1.00  0.00    -0.237 OA
ATOM     95  O   UNL A   1      45.809  38.084  27.655  1.00  0.00    -0.237 OA
ATOM     96  O   UNL A   1      43.676  37.072  26.947  1.00  0.00    -0.744 OA
ENDBRANCH  89  93
ENDBRANCH  63  86
ENDBRANCH  37  38
ENDBRANCH  29  32
ENDBRANCH  27  28
ENDBRANCH  26  27
ENDBRANCH   1  26
TORSDOF 19
ENDMDL
MODEL 3
REMARK VINA RESULT:     -11.3      1.864      2.184
REMARK SMILES CC[NH2+][C@@]1(C(=O)NCCCCNC(=O)c2ccc(-c3c4nc(c(-c5cc(S(=O)(=O)[O-])ccc5F)c5ccc([nH]5)c(-c5cc(S(=O)(=O)[O-])ccc5F)c5nc(c(-c6cc(S(=O)(=O)[O-])ccc6F)c6ccc3[nH]6)C=C5)C=C4)cc2)CC[C@@H](Oc2cccc(OC)c2)C1
REMARK SMILES IDX 9 1 8 2 7 3 5 4 6 5 4 7 78 8 90 9 79 10 80 11 3 12 2 15 1 16
REMARK SMILES IDX 81 17 82 18 83 19 89 20 84 21 86 22 85 23 87 24 88 25 10 26
REMARK SMILES IDX 11 27 12 28 13 29 14 31 15 32 16 33 77 34 17 35 76 36 18 37
REMARK SMILES IDX 19 38 20 39 70 40 21 41 75 42 69 43 71 44 22 45 74 46 68 47
REMARK SMILES IDX 67 48 23 50 55 51 35 52 54 53 36 54 39 55 53 56 72 57 37 58
REMARK SMILES IDX 38 59 52 61 73 62 40 63 24 64 25 65 33 66 26 67 32 68 34 69
REMARK SMILES IDX 31 70 27 71 28 72 29 73 30 74 56 75 57 76 65 77 58 78 64 79
REMARK SMILES IDX 66 80 63 81 59 82 60 83 61 84 62 85 41 86 42 87 50 88 43 89
REMARK SMILES IDX 49 90 51 91 48 92 44 93 45 94 46 95 47 96
REMARK H PARENT 7 6 3 13 3 14 12 30 71 49 39 60
REMARK Flexibility Score: inf
ROOT
ATOM      1  C   UNL A   1      35.705  22.486  23.953  1.00  0.00     0.023 C 
ENDROOT
BRANCH   1   2
ATOM      2  C   UNL A   1      34.740  23.346  23.143  1.00  0.00     0.116 C 
BRANCH   2   3
ATOM      3  N   UNL A   1      34.389  24.582  23.792  1.00  0.00    -0.351 N 
ATOM      4  C   UNL A   1      33.628  24.816  24.890  1.00  0.00     0.281 C 
ATOM      5  O   UNL A   1      33.933  25.839  25.522  1.00  0.00    -0.268 OA
ATOM      6  H   UNL A   1      34.764  25.389  23.371  1.00  0.00     0.163 HD
BRANCH   4   7
ATOM      7  C   UNL A   1      32.459  23.885  25.404  1.00  0.00     0.179 C 
ATOM      8  C   UNL A   1      32.759  23.381  26.827  1.00  0.00     0.083 C 
ATOM      9  C   UNL A   1      32.117  22.624  24.597  1.00  0.00     0.124 C 
ATOM     10  C   UNL A   1      33.083  21.893  26.755  1.00  0.00     0.052 C 
ATOM     11  C   UNL A   1      32.706  21.421  25.344  1.00  0.00     0.180 C 
BRANCH   7  12
ATOM     12  N   UNL A   1      31.229  24.746  25.527  1.00  0.00    -0.334 N 
ATOM     13  H   UNL A   1      30.529  24.224  26.053  1.00  0.00     0.347 HD
ATOM     14  H   UNL A   1      31.526  25.604  25.990  1.00  0.00     0.347 HD
BRANCH  12  15
ATOM     15  C   UNL A   1      30.630  25.154  24.249  1.00  0.00     0.257 C 
ATOM     16  C   UNL A   1      29.561  26.205  24.522  1.00  0.00     0.071 C 
ENDBRANCH  12  15
ENDBRANCH   7  12
BRANCH  11  17
ATOM     17  O   UNL A   1      31.931  20.220  25.193  1.00  0.00    -0.490 OA
BRANCH  17  18
ATOM     18  C   UNL A   1      32.508  19.239  24.443  1.00  0.00     0.123 A 
ATOM     19  C   UNL A   1      32.018  18.992  23.161  1.00  0.00     0.047 A 
ATOM     20  C   UNL A   1      33.546  18.477  24.971  1.00  0.00     0.092 A 
ATOM     21  C   UNL A   1      32.634  18.027  22.368  1.00  0.00     0.008 A 
ATOM     22  C   UNL A   1      34.170  17.516  24.179  1.00  0.00     0.122 A 
ATOM     23  C   UNL A   1      33.712  17.298  22.876  1.00  0.00     0.046 A 
BRANCH  22  24
ATOM     24  O   UNL A   1      35.226  16.735  24.569  1.00  0.00    -0.497 OA
ATOM     25  C   UNL A   1      34.923  15.687  25.485  1.00  0.00     0.278 C 
ENDBRANCH  22  24
ENDBRANCH  17  18
ENDBRANCH  11  17
ENDBRANCH   4   7
ENDBRANCH   2   3
ENDBRANCH   1   2
BRANCH   1  26
ATOM     26  C   UNL A   1      36.800  23.269  24.677  1.00  0.00     0.023 C 
BRANCH  26  27
ATOM     27  C   UNL A   1      37.167  22.747  26.062  1.00  0.00     0.116 C 
BRANCH  27  28
ATOM     28  N   UNL A   1      38.402  21.977  26.097  1.00  0.00    -0.352 N 
ATOM     29  C   UNL A   1      39.648  22.410  26.498  1.00  0.00     0.251 C 
ATOM     30  H   UNL A   1      38.341  21.040  25.800  1.00  0.00     0.163 HD
ATOM     31  O   UNL A   1      40.623  21.680  26.406  1.00  0.00    -0.269 OA
BRANCH  29  32
ATOM     32  C   UNL A   1      39.772  23.797  26.988  1.00  0.00     0.039 A 
ATOM     33  C   UNL A   1      40.071  24.013  28.333  1.00  0.00     0.014 A 
ATOM     34  C   UNL A   1      39.706  24.863  26.087  1.00  0.00     0.014 A 
ATOM     35  C   UNL A   1      40.386  25.302  28.763  1.00  0.00     0.010 A 
ATOM     36  C   UNL A   1      40.094  26.131  26.503  1.00  0.00     0.010 A 
ATOM     37  C   UNL A   1      40.444  26.363  27.843  1.00  0.00    -0.014 A 
BRANCH  37  38
ATOM     38  C   UNL A   1      40.864  27.723  28.261  1.00  0.00     0.031 A 
ATOM     39  C   UNL A   1      42.323  28.091  28.244  1.00  0.00     0.074 A 
ATOM     40  C   UNL A   1      39.946  28.595  28.723  1.00  0.00     0.049 A 
ATOM     41  N   UNL A   1      42.906  29.188  28.649  1.00  0.00    -0.248 NA
ATOM     42  C   UNL A   1      43.250  27.066  27.740  1.00  0.00     0.031 C 
ATOM     43  C   UNL A   1      38.510  28.331  28.838  1.00  0.00     0.029 A 
ATOM     44  N   UNL A   1      40.084  29.877  29.193  1.00  0.00    -0.354 N 
ATOM     45  C   UNL A   1      44.268  28.981  28.465  1.00  0.00     0.074 A 
ATOM     46  C   UNL A   1      44.425  27.627  27.978  1.00  0.00     0.031 C 
ATOM     47  C   UNL A   1      37.898  29.424  29.322  1.00  0.00     0.029 A 
ATOM     48  C   UNL A   1      38.899  30.453  29.589  1.00  0.00     0.049 A 
ATOM     49  H   UNL A   1      40.951  30.341  29.243  1.00  0.00     0.167 HD
ATOM     50  C   UNL A   1      45.292  29.850  28.659  1.00  0.00     0.034 A 
ATOM     51  C   UNL A   1      38.650  31.669  30.113  1.00  0.00     0.034 A 
ATOM     52  C   UNL A   1      45.112  31.202  29.124  1.00  0.00     0.049 A 
ATOM     53  C   UNL A   1      39.803  32.620  30.316  1.00  0.00     0.074 A 
ATOM     54  C   UNL A   1      46.067  32.189  29.299  1.00  0.00     0.029 A 
ATOM     55  N   UNL A   1      43.894  31.760  29.493  1.00  0.00    -0.354 N 
ATOM     56  N   UNL A   1      41.081  32.430  30.084  1.00  0.00    -0.248 NA
ATOM     57  C   UNL A   1      39.476  33.954  30.838  1.00  0.00     0.031 C 
ATOM     58  C   UNL A   1      45.436  33.321  29.828  1.00  0.00     0.029 A 
ATOM     59  C   UNL A   1      44.076  33.067  29.917  1.00  0.00     0.049 A 
ATOM     60  H   UNL A   1      43.027  31.294  29.458  1.00  0.00     0.167 HD
ATOM     61  C   UNL A   1      41.707  33.632  30.404  1.00  0.00     0.074 A 
ATOM     62  C   UNL A   1      40.663  34.542  30.832  1.00  0.00     0.031 C 
ATOM     63  C   UNL A   1      43.024  33.956  30.348  1.00  0.00     0.034 A 
BRANCH  50  64
ATOM     64  C   UNL A   1      46.687  29.344  28.384  1.00  0.00     0.023 A 
ATOM     65  C   UNL A   1      47.112  29.026  27.080  1.00  0.00     0.031 A 
ATOM     66  C   UNL A   1      47.593  29.135  29.438  1.00  0.00     0.131 A 
ATOM     67  C   UNL A   1      48.367  28.435  26.877  1.00  0.00     0.055 A 
ATOM     68  C   UNL A   1      48.875  28.627  29.218  1.00  0.00     0.041 A 
ATOM     69  F   UNL A   1      47.239  29.400  30.706  1.00  0.00    -0.206 F 
ATOM     70  C   UNL A   1      49.263  28.257  27.933  1.00  0.00     0.022 A 
BRANCH  67  71
ATOM     71  S   UNL A   1      48.748  27.761  25.237  1.00  0.00     0.124 S 
ATOM     72  O   UNL A   1      50.040  28.382  24.956  1.00  0.00    -0.237 OA
ATOM     73  O   UNL A   1      48.770  26.323  25.484  1.00  0.00    -0.237 OA
ATOM     74  O   UNL A   1      47.643  28.234  24.406  1.00  0.00    -0.744 OA
ENDBRANCH  67  71
ENDBRANCH  50  64
BRANCH  51  75
ATOM     75  C   UNL A   1      37.262  32.065  30.483  1.00  0.00     0.023 A 
ATOM     76  C   UNL A   1      36.393  32.628  29.535  1.00  0.00     0.031 A 
ATOM     77  C   UNL A   1      36.795  31.923  31.802  1.00  0.00     0.131 A 
ATOM     78  C   UNL A   1      35.121  33.071  29.927  1.00  0.00     0.055 A 
ATOM     79  C   UNL A   1      35.509  32.321  32.176  1.00  0.00     0.041 A 
ATOM     80  F   UNL A   1      37.580  31.382  32.746  1.00  0.00    -0.206 F 
ATOM     81  C   UNL A   1      34.669  32.912  31.239  1.00  0.00     0.022 A 
BRANCH  78  82
ATOM     82  S   UNL A   1      34.090  33.935  28.709  1.00  0.00     0.124 S 
ATOM     83  O   UNL A   1      35.002  34.964  28.222  1.00  0.00    -0.237 OA
ATOM     84  O   UNL A   1      33.770  32.865  27.770  1.00  0.00    -0.237 OA
ATOM     85  O   UNL A   1      32.963  34.423  29.502  1.00  0.00    -0.744 OA
ENDBRANCH  78  82
ENDBRANCH  51  75
BRANCH  63  86
ATOM     86  C   UNL A   1      43.394  35.371  30.715  1.00  0.00     0.023 A 
ATOM     87  C   UNL A   1      43.603  35.758  32.051  1.00  0.00     0.031 A 
ATOM     88  C   UNL A   1      43.528  36.348  29.713  1.00  0.00     0.131 A 
ATOM     89  C   UNL A   1      43.883  37.099  32.353  1.00  0.00     0.055 A 
ATOM     90  C   UNL A   1      43.864  37.668  30.014  1.00  0.00     0.041 A 
ATOM     91  F   UNL A   1      43.337  36.032  28.421  1.00  0.00    -0.206 F 
ATOM     92  C   UNL A   1      44.030  38.052  31.341  1.00  0.00     0.022 A 
BRANCH  89  93
ATOM     93  S   UNL A   1      43.967  37.600  34.093  1.00  0.00     0.124 S 
ATOM     94  O   UNL A   1      44.987  38.643  34.060  1.00  0.00    -0.237 OA
ATOM     95  O   UNL A   1      42.603  38.051  34.354  1.00  0.00    -0.237 OA
ATOM     96  O   UNL A   1      44.357  36.373  34.785  1.00  0.00    -0.744 OA
ENDBRANCH  89  93
ENDBRANCH  63  86
ENDBRANCH  37  38
ENDBRANCH  29  32
ENDBRANCH  27  28
ENDBRANCH  26  27
ENDBRANCH   1  26
TORSDOF 19
ENDMDL
