MODEL 1
REMARK VINA RESULT:     -12.4      0.000      0.000
REMARK SMILES NS(=O)(=O)c1ccc(/N=C/c2ccc(O)c(C(=O)NCCCCNC(=O)c3ccc(-c4c5nc(c(-c6cc(S(=O)(=O)[O-])ccc6F)c6ccc([nH]6)c(-c6cc(S(=O)(=O)[O-])ccc6F)c6nc(c(-c7cc(S(=O)(=O)[O-])ccc7F)c7ccc4[nH]7)C=C6)C=C5)cc3)c2)cc1
REMARK SMILES IDX 21 1 20 2 19 3 17 4 18 5 16 7 11 8 12 9 90 10 13 11 14 12
REMARK SMILES IDX 10 13 9 14 8 15 5 16 6 17 92 18 7 19 91 20 2 21 3 22 4 23
REMARK SMILES IDX 1 24 15 27 22 29 23 30 24 31 25 32 26 34 27 35 28 36 89 37
REMARK SMILES IDX 29 38 88 39 30 40 31 41 32 42 82 43 33 44 87 45 81 46 83 47
REMARK SMILES IDX 34 48 86 49 80 50 79 51 35 53 67 54 47 55 66 56 48 57 51 58
REMARK SMILES IDX 65 59 84 60 49 61 50 62 64 64 85 65 52 66 36 67 37 68 45 69
REMARK SMILES IDX 38 70 44 71 46 72 43 73 39 74 40 75 41 76 42 77 68 78 69 79
REMARK SMILES IDX 77 80 70 81 76 82 78 83 75 84 71 85 72 86 73 87 74 88 53 89
REMARK SMILES IDX 54 90 62 91 55 92 61 93 63 94 60 95 56 96 57 97 58 98 59 99
REMARK H PARENT 19 6 1 25 1 26 15 28 24 33 83 52 51 63
REMARK Flexibility Score: inf
ROOT
ATOM      1  C   UNL A   1      31.842  30.176  26.643  1.00  0.00     0.023 C 
ENDROOT
BRANCH   1   2
ATOM      2  C   UNL A   1      33.269  29.704  26.400  1.00  0.00     0.116 C 
BRANCH   2   3
ATOM      3  N   UNL A   1      33.667  29.661  24.999  1.00  0.00    -0.352 N 
ATOM      4  C   UNL A   1      33.136  28.984  23.922  1.00  0.00     0.255 C 
ATOM      5  O   UNL A   1      33.690  29.075  22.824  1.00  0.00    -0.269 OA
ATOM      6  H   UNL A   1      34.455  30.211  24.783  1.00  0.00     0.163 HD
BRANCH   4   7
ATOM      7  C   UNL A   1      31.973  28.064  24.035  1.00  0.00     0.082 A 
ATOM      8  C   UNL A   1      31.074  25.822  24.212  1.00  0.00    -0.006 A 
ATOM      9  C   UNL A   1      29.811  26.271  23.827  1.00  0.00     0.013 A 
ATOM     10  C   UNL A   1      32.116  26.732  24.416  1.00  0.00     0.027 A 
ATOM     11  C   UNL A   1      29.612  27.637  23.612  1.00  0.00     0.047 A 
ATOM     12  C   UNL A   1      30.690  28.522  23.696  1.00  0.00     0.128 A 
BRANCH   8  13
ATOM     13  C   UNL A   1      31.375  24.373  24.250  1.00  0.00     0.119 C 
ATOM     14  N   UNL A   1      32.540  23.972  24.646  1.00  0.00    -0.256 NA
BRANCH  14  15
ATOM     15  C   UNL A   1      32.912  22.623  24.588  1.00  0.00     0.063 A 
ATOM     16  C   UNL A   1      33.384  19.856  24.496  1.00  0.00     0.082 A 
ATOM     17  C   UNL A   1      32.461  20.429  23.621  1.00  0.00     0.024 A 
ATOM     18  C   UNL A   1      34.058  20.647  25.431  1.00  0.00     0.024 A 
ATOM     19  C   UNL A   1      32.234  21.808  23.672  1.00  0.00     0.030 A 
ATOM     20  C   UNL A   1      33.815  22.025  25.476  1.00  0.00     0.030 A 
BRANCH  16  21
ATOM     21  S   UNL A   1      33.646  18.108  24.479  1.00  0.00     0.238 S 
ATOM     22  O   UNL A   1      35.057  17.821  24.478  1.00  0.00    -0.207 OA
ATOM     23  O   UNL A   1      32.724  17.501  23.541  1.00  0.00    -0.207 OA
BRANCH  21  24
ATOM     24  N   UNL A   1      33.097  17.662  26.005  1.00  0.00    -0.225 NA
ATOM     25  H   UNL A   1      32.314  17.015  25.909  1.00  0.00     0.137 HD
ATOM     26  H   UNL A   1      32.791  18.492  26.512  1.00  0.00     0.137 HD
ENDBRANCH  21  24
ENDBRANCH  16  21
ENDBRANCH  14  15
ENDBRANCH   8  13
BRANCH  12  27
ATOM     27  O   UNL A   1      30.416  29.835  23.414  1.00  0.00    -0.507 OA
ATOM     28  H   UNL A   1      30.830  30.517  23.906  1.00  0.00     0.293 HD
ENDBRANCH  12  27
ENDBRANCH   4   7
ENDBRANCH   2   3
ENDBRANCH   1   2
BRANCH   1  29
ATOM     29  C   UNL A   1      31.644  31.674  26.832  1.00  0.00     0.023 C 
BRANCH  29  30
ATOM     30  C   UNL A   1      32.877  32.462  27.254  1.00  0.00     0.116 C 
BRANCH  30  31
ATOM     31  N   UNL A   1      32.600  33.849  27.598  1.00  0.00    -0.352 N 
ATOM     32  C   UNL A   1      33.190  34.650  28.548  1.00  0.00     0.251 C 
ATOM     33  H   UNL A   1      31.886  34.276  27.072  1.00  0.00     0.163 HD
ATOM     34  O   UNL A   1      32.744  35.777  28.749  1.00  0.00    -0.269 OA
BRANCH  32  35
ATOM     35  C   UNL A   1      34.326  34.144  29.352  1.00  0.00     0.039 A 
ATOM     36  C   UNL A   1      34.062  33.292  30.427  1.00  0.00     0.014 A 
ATOM     37  C   UNL A   1      35.644  34.484  29.039  1.00  0.00     0.014 A 
ATOM     38  C   UNL A   1      35.123  32.727  31.138  1.00  0.00     0.010 A 
ATOM     39  C   UNL A   1      36.699  33.845  29.686  1.00  0.00     0.010 A 
ATOM     40  C   UNL A   1      36.452  32.964  30.749  1.00  0.00    -0.014 A 
BRANCH  40  41
ATOM     41  C   UNL A   1      37.582  32.292  31.450  1.00  0.00     0.031 A 
ATOM     42  C   UNL A   1      38.333  31.169  30.781  1.00  0.00     0.074 A 
ATOM     43  C   UNL A   1      37.906  32.672  32.704  1.00  0.00     0.049 A 
ATOM     44  N   UNL A   1      39.344  30.470  31.230  1.00  0.00    -0.248 NA
ATOM     45  C   UNL A   1      37.869  30.756  29.447  1.00  0.00     0.031 C 
ATOM     46  C   UNL A   1      37.210  33.702  33.482  1.00  0.00     0.029 A 
ATOM     47  N   UNL A   1      38.899  32.242  33.549  1.00  0.00    -0.354 N 
ATOM     48  C   UNL A   1      39.625  29.528  30.244  1.00  0.00     0.074 A 
ATOM     49  C   UNL A   1      38.640  29.707  29.201  1.00  0.00     0.031 C 
ATOM     50  C   UNL A   1      37.822  33.852  34.666  1.00  0.00     0.029 A 
ATOM     51  C   UNL A   1      38.924  32.900  34.759  1.00  0.00     0.049 A 
ATOM     52  H   UNL A   1      39.536  31.530  33.311  1.00  0.00     0.167 HD
ATOM     53  C   UNL A   1      40.624  28.613  30.205  1.00  0.00     0.034 A 
ATOM     54  C   UNL A   1      39.739  32.752  35.823  1.00  0.00     0.034 A 
ATOM     55  C   UNL A   1      41.614  28.464  31.245  1.00  0.00     0.049 A 
ATOM     56  C   UNL A   1      40.853  31.736  35.742  1.00  0.00     0.074 A 
ATOM     57  C   UNL A   1      42.716  27.627  31.268  1.00  0.00     0.029 A 
ATOM     58  N   UNL A   1      41.617  29.156  32.449  1.00  0.00    -0.354 N 
ATOM     59  N   UNL A   1      41.159  30.917  34.760  1.00  0.00    -0.248 NA
ATOM     60  C   UNL A   1      41.746  31.641  36.902  1.00  0.00     0.031 C 
ATOM     61  C   UNL A   1      43.334  27.751  32.517  1.00  0.00     0.029 A 
ATOM     62  C   UNL A   1      42.678  28.736  33.236  1.00  0.00     0.049 A 
ATOM     63  H   UNL A   1      40.962  29.845  32.706  1.00  0.00     0.167 HD
ATOM     64  C   UNL A   1      42.302  30.239  35.175  1.00  0.00     0.074 A 
ATOM     65  C   UNL A   1      42.646  30.770  36.478  1.00  0.00     0.031 C 
ATOM     66  C   UNL A   1      43.005  29.265  34.540  1.00  0.00     0.034 A 
BRANCH  53  67
ATOM     67  C   UNL A   1      40.685  27.681  29.017  1.00  0.00     0.023 A 
ATOM     68  C   UNL A   1      41.618  27.850  27.979  1.00  0.00     0.031 A 
ATOM     69  C   UNL A   1      39.797  26.593  28.929  1.00  0.00     0.131 A 
ATOM     70  C   UNL A   1      41.606  26.981  26.877  1.00  0.00     0.055 A 
ATOM     71  C   UNL A   1      39.842  25.687  27.869  1.00  0.00     0.041 A 
ATOM     72  F   UNL A   1      38.867  26.394  29.877  1.00  0.00    -0.206 F 
ATOM     73  C   UNL A   1      40.744  25.883  26.829  1.00  0.00     0.022 A 
BRANCH  70  74
ATOM     74  S   UNL A   1      42.654  27.372  25.447  1.00  0.00     0.124 S 
ATOM     75  O   UNL A   1      41.975  28.542  24.896  1.00  0.00    -0.237 OA
ATOM     76  O   UNL A   1      43.951  27.618  26.065  1.00  0.00    -0.237 OA
ATOM     77  O   UNL A   1      42.573  26.168  24.623  1.00  0.00    -0.744 OA
ENDBRANCH  70  74
ENDBRANCH  53  67
BRANCH  54  78
ATOM     78  C   UNL A   1      39.543  33.564  37.063  1.00  0.00     0.023 A 
ATOM     79  C   UNL A   1      38.879  33.035  38.183  1.00  0.00     0.031 A 
ATOM     80  C   UNL A   1      39.943  34.911  37.115  1.00  0.00     0.131 A 
ATOM     81  C   UNL A   1      38.567  33.866  39.270  1.00  0.00     0.055 A 
ATOM     82  C   UNL A   1      39.694  35.714  38.230  1.00  0.00     0.041 A 
ATOM     83  F   UNL A   1      40.585  35.471  36.076  1.00  0.00    -0.206 F 
ATOM     84  C   UNL A   1      38.984  35.198  39.309  1.00  0.00     0.022 A 
BRANCH  81  85
ATOM     85  S   UNL A   1      37.490  33.216  40.579  1.00  0.00     0.124 S 
ATOM     86  O   UNL A   1      36.388  32.657  39.804  1.00  0.00    -0.237 OA
ATOM     87  O   UNL A   1      38.364  32.253  41.239  1.00  0.00    -0.237 OA
ATOM     88  O   UNL A   1      37.161  34.402  41.368  1.00  0.00    -0.744 OA
ENDBRANCH  81  85
ENDBRANCH  54  78
BRANCH  66  89
ATOM     89  C   UNL A   1      44.247  28.755  35.236  1.00  0.00     0.023 A 
ATOM     90  C   UNL A   1      44.193  27.718  36.184  1.00  0.00     0.031 A 
ATOM     91  C   UNL A   1      45.496  29.353  34.985  1.00  0.00     0.131 A 
ATOM     92  C   UNL A   1      45.341  27.376  36.913  1.00  0.00     0.055 A 
ATOM     93  C   UNL A   1      46.652  28.949  35.653  1.00  0.00     0.041 A 
ATOM     94  F   UNL A   1      45.612  30.349  34.093  1.00  0.00    -0.206 F 
ATOM     95  C   UNL A   1      46.575  27.971  36.640  1.00  0.00     0.022 A 
BRANCH  92  96
ATOM     96  S   UNL A   1      45.166  26.254  38.328  1.00  0.00     0.124 S 
ATOM     97  O   UNL A   1      43.876  26.657  38.876  1.00  0.00    -0.237 OA
ATOM     98  O   UNL A   1      45.207  24.942  37.692  1.00  0.00    -0.237 OA
ATOM     99  O   UNL A   1      46.323  26.575  39.163  1.00  0.00    -0.744 OA
ENDBRANCH  92  96
ENDBRANCH  66  89
ENDBRANCH  40  41
ENDBRANCH  32  35
ENDBRANCH  30  31
ENDBRANCH  29  30
ENDBRANCH   1  29
TORSDOF 19
ENDMDL
MODEL 2
REMARK VINA RESULT:     -12.4      5.798     11.936
REMARK SMILES NS(=O)(=O)c1ccc(/N=C/c2ccc(O)c(C(=O)NCCCCNC(=O)c3ccc(-c4c5nc(c(-c6cc(S(=O)(=O)[O-])ccc6F)c6ccc([nH]6)c(-c6cc(S(=O)(=O)[O-])ccc6F)c6nc(c(-c7cc(S(=O)(=O)[O-])ccc7F)c7ccc4[nH]7)C=C6)C=C5)cc3)c2)cc1
REMARK SMILES IDX 21 1 20 2 19 3 17 4 18 5 16 7 11 8 12 9 90 10 13 11 14 12
REMARK SMILES IDX 10 13 9 14 8 15 5 16 6 17 92 18 7 19 91 20 2 21 3 22 4 23
REMARK SMILES IDX 1 24 15 27 22 29 23 30 24 31 25 32 26 34 27 35 28 36 89 37
REMARK SMILES IDX 29 38 88 39 30 40 31 41 32 42 82 43 33 44 87 45 81 46 83 47
REMARK SMILES IDX 34 48 86 49 80 50 79 51 35 53 67 54 47 55 66 56 48 57 51 58
REMARK SMILES IDX 65 59 84 60 49 61 50 62 64 64 85 65 52 66 36 67 37 68 45 69
REMARK SMILES IDX 38 70 44 71 46 72 43 73 39 74 40 75 41 76 42 77 68 78 69 79
REMARK SMILES IDX 77 80 70 81 76 82 78 83 75 84 71 85 72 86 73 87 74 88 53 89
REMARK SMILES IDX 54 90 62 91 55 92 61 93 63 94 60 95 56 96 57 97 58 98 59 99
REMARK H PARENT 19 6 1 25 1 26 15 28 24 33 83 52 51 63
REMARK Flexibility Score: inf
ROOT
ATOM      1  C   UNL A   1      37.341  21.346  24.567  1.00  0.00     0.023 C 
ENDROOT
BRANCH   1   2
ATOM      2  C   UNL A   1      36.980  22.464  25.536  1.00  0.00     0.116 C 
BRANCH   2   3
ATOM      3  N   UNL A   1      36.076  22.074  26.610  1.00  0.00    -0.352 N 
ATOM      4  C   UNL A   1      34.760  21.663  26.588  1.00  0.00     0.255 C 
ATOM      5  O   UNL A   1      34.188  21.427  27.654  1.00  0.00    -0.269 OA
ATOM      6  H   UNL A   1      36.474  22.109  27.509  1.00  0.00     0.163 HD
BRANCH   4   7
ATOM      7  C   UNL A   1      33.956  21.581  25.339  1.00  0.00     0.082 A 
ATOM      8  C   UNL A   1      32.256  22.483  23.870  1.00  0.00    -0.006 A 
ATOM      9  C   UNL A   1      32.129  21.255  23.221  1.00  0.00     0.013 A 
ATOM     10  C   UNL A   1      33.237  22.668  24.848  1.00  0.00     0.027 A 
ATOM     11  C   UNL A   1      32.972  20.203  23.588  1.00  0.00     0.047 A 
ATOM     12  C   UNL A   1      33.864  20.360  24.652  1.00  0.00     0.128 A 
BRANCH   8  13
ATOM     13  C   UNL A   1      31.253  23.551  23.654  1.00  0.00     0.119 C 
ATOM     14  N   UNL A   1      31.638  24.714  23.234  1.00  0.00    -0.256 NA
BRANCH  14  15
ATOM     15  C   UNL A   1      30.747  25.789  23.127  1.00  0.00     0.063 A 
ATOM     16  C   UNL A   1      29.176  28.112  22.992  1.00  0.00     0.082 A 
ATOM     17  C   UNL A   1      30.387  28.057  22.304  1.00  0.00     0.024 A 
ATOM     18  C   UNL A   1      28.750  27.028  23.764  1.00  0.00     0.024 A 
ATOM     19  C   UNL A   1      31.162  26.895  22.375  1.00  0.00     0.030 A 
ATOM     20  C   UNL A   1      29.540  25.874  23.832  1.00  0.00     0.030 A 
BRANCH  16  21
ATOM     21  S   UNL A   1      28.208  29.591  22.954  1.00  0.00     0.238 S 
ATOM     22  O   UNL A   1      28.948  30.679  23.540  1.00  0.00    -0.207 OA
ATOM     23  O   UNL A   1      26.847  29.276  23.336  1.00  0.00    -0.207 OA
BRANCH  21  24
ATOM     24  N   UNL A   1      28.149  29.923  21.306  1.00  0.00    -0.225 NA
ATOM     25  H   UNL A   1      29.093  30.095  20.959  1.00  0.00     0.137 HD
ATOM     26  H   UNL A   1      27.573  30.749  21.146  1.00  0.00     0.137 HD
ENDBRANCH  21  24
ENDBRANCH  16  21
ENDBRANCH  14  15
ENDBRANCH   8  13
BRANCH  12  27
ATOM     27  O   UNL A   1      34.611  19.260  24.982  1.00  0.00    -0.507 OA
ATOM     28  H   UNL A   1      35.333  19.005  24.442  1.00  0.00     0.293 HD
ENDBRANCH  12  27
ENDBRANCH   4   7
ENDBRANCH   2   3
ENDBRANCH   1   2
BRANCH   1  29
ATOM     29  C   UNL A   1      38.081  20.151  25.153  1.00  0.00     0.023 C 
BRANCH  29  30
ATOM     30  C   UNL A   1      39.292  20.475  26.019  1.00  0.00     0.116 C 
BRANCH  30  31
ATOM     31  N   UNL A   1      40.302  19.428  26.032  1.00  0.00    -0.352 N 
ATOM     32  C   UNL A   1      41.666  19.529  26.181  1.00  0.00     0.251 C 
ATOM     33  H   UNL A   1      39.958  18.512  25.919  1.00  0.00     0.163 HD
ATOM     34  O   UNL A   1      42.362  18.524  26.068  1.00  0.00    -0.269 OA
BRANCH  32  35
ATOM     35  C   UNL A   1      42.294  20.846  26.432  1.00  0.00     0.039 A 
ATOM     36  C   UNL A   1      42.572  21.677  25.344  1.00  0.00     0.014 A 
ATOM     37  C   UNL A   1      42.589  21.274  27.729  1.00  0.00     0.014 A 
ATOM     38  C   UNL A   1      43.075  22.961  25.566  1.00  0.00     0.010 A 
ATOM     39  C   UNL A   1      42.999  22.586  27.952  1.00  0.00     0.010 A 
ATOM     40  C   UNL A   1      43.254  23.445  26.872  1.00  0.00    -0.014 A 
BRANCH  40  41
ATOM     41  C   UNL A   1      43.706  24.844  27.112  1.00  0.00     0.031 A 
ATOM     42  C   UNL A   1      42.752  25.867  27.672  1.00  0.00     0.074 A 
ATOM     43  C   UNL A   1      44.967  25.199  26.788  1.00  0.00     0.049 A 
ATOM     44  N   UNL A   1      42.964  27.127  27.953  1.00  0.00    -0.248 NA
ATOM     45  C   UNL A   1      41.370  25.425  27.923  1.00  0.00     0.031 C 
ATOM     46  C   UNL A   1      45.965  24.314  26.177  1.00  0.00     0.029 A 
ATOM     47  N   UNL A   1      45.632  26.393  26.926  1.00  0.00    -0.354 N 
ATOM     48  C   UNL A   1      41.744  27.631  28.395  1.00  0.00     0.074 A 
ATOM     49  C   UNL A   1      40.783  26.555  28.290  1.00  0.00     0.031 C 
ATOM     50  C   UNL A   1      47.120  24.982  26.033  1.00  0.00     0.029 A 
ATOM     51  C   UNL A   1      46.940  26.354  26.495  1.00  0.00     0.049 A 
ATOM     52  H   UNL A   1      45.213  27.201  27.300  1.00  0.00     0.167 HD
ATOM     53  C   UNL A   1      41.457  28.869  28.865  1.00  0.00     0.034 A 
ATOM     54  C   UNL A   1      47.885  27.315  26.471  1.00  0.00     0.034 A 
ATOM     55  C   UNL A   1      42.434  29.925  28.987  1.00  0.00     0.049 A 
ATOM     56  C   UNL A   1      47.541  28.681  27.016  1.00  0.00     0.074 A 
ATOM     57  C   UNL A   1      42.271  31.189  29.526  1.00  0.00     0.029 A 
ATOM     58  N   UNL A   1      43.752  29.847  28.554  1.00  0.00    -0.354 N 
ATOM     59  N   UNL A   1      46.404  29.109  27.517  1.00  0.00    -0.248 NA
ATOM     60  C   UNL A   1      48.613  29.682  27.016  1.00  0.00     0.031 C 
ATOM     61  C   UNL A   1      43.460  31.901  29.343  1.00  0.00     0.029 A 
ATOM     62  C   UNL A   1      44.399  31.052  28.779  1.00  0.00     0.049 A 
ATOM     63  H   UNL A   1      44.166  29.051  28.147  1.00  0.00     0.167 HD
ATOM     64  C   UNL A   1      46.641  30.420  27.924  1.00  0.00     0.074 A 
ATOM     65  C   UNL A   1      48.034  30.694  27.640  1.00  0.00     0.031 C 
ATOM     66  C   UNL A   1      45.786  31.319  28.480  1.00  0.00     0.034 A 
BRANCH  53  67
ATOM     67  C   UNL A   1      40.028  29.165  29.257  1.00  0.00     0.023 A 
ATOM     68  C   UNL A   1      39.610  29.201  30.598  1.00  0.00     0.031 A 
ATOM     69  C   UNL A   1      39.066  29.430  28.263  1.00  0.00     0.131 A 
ATOM     70  C   UNL A   1      38.262  29.440  30.908  1.00  0.00     0.055 A 
ATOM     71  C   UNL A   1      37.744  29.744  28.581  1.00  0.00     0.041 A 
ATOM     72  F   UNL A   1      39.399  29.387  26.963  1.00  0.00    -0.206 F 
ATOM     73  C   UNL A   1      37.332  29.741  29.910  1.00  0.00     0.022 A 
BRANCH  70  74
ATOM     74  S   UNL A   1      37.712  29.237  32.625  1.00  0.00     0.124 S 
ATOM     75  O   UNL A   1      36.372  29.815  32.575  1.00  0.00    -0.237 OA
ATOM     76  O   UNL A   1      37.779  27.792  32.809  1.00  0.00    -0.237 OA
ATOM     77  O   UNL A   1      38.688  30.010  33.392  1.00  0.00    -0.744 OA
ENDBRANCH  70  74
ENDBRANCH  53  67
BRANCH  54  78
ATOM     78  C   UNL A   1      49.244  27.046  25.907  1.00  0.00     0.023 A 
ATOM     79  C   UNL A   1      49.612  27.517  24.635  1.00  0.00     0.031 A 
ATOM     80  C   UNL A   1      50.166  26.240  26.599  1.00  0.00     0.131 A 
ATOM     81  C   UNL A   1      50.830  27.116  24.064  1.00  0.00     0.055 A 
ATOM     82  C   UNL A   1      51.408  25.904  26.055  1.00  0.00     0.041 A 
ATOM     83  F   UNL A   1      49.872  25.763  27.819  1.00  0.00    -0.206 F 
ATOM     84  C   UNL A   1      51.738  26.325  24.772  1.00  0.00     0.022 A 
BRANCH  81  85
ATOM     85  S   UNL A   1      51.153  27.533  22.328  1.00  0.00     0.124 S 
ATOM     86  O   UNL A   1      52.604  27.404  22.258  1.00  0.00    -0.237 OA
ATOM     87  O   UNL A   1      50.383  26.513  21.624  1.00  0.00    -0.237 OA
ATOM     88  O   UNL A   1      50.640  28.896  22.205  1.00  0.00    -0.744 OA
ENDBRANCH  81  85
ENDBRANCH  54  78
BRANCH  66  89
ATOM     89  C   UNL A   1      46.363  32.663  28.862  1.00  0.00     0.023 A 
ATOM     90  C   UNL A   1      46.376  33.746  27.966  1.00  0.00     0.031 A 
ATOM     91  C   UNL A   1      46.956  32.847  30.125  1.00  0.00     0.131 A 
ATOM     92  C   UNL A   1      47.050  34.928  28.306  1.00  0.00     0.055 A 
ATOM     93  C   UNL A   1      47.551  34.055  30.489  1.00  0.00     0.041 A 
ATOM     94  F   UNL A   1      46.977  31.850  31.024  1.00  0.00    -0.206 F 
ATOM     95  C   UNL A   1      47.621  35.097  29.569  1.00  0.00     0.022 A 
BRANCH  92  96
ATOM     96  S   UNL A   1      47.305  36.181  27.019  1.00  0.00     0.124 S 
ATOM     97  O   UNL A   1      46.409  35.718  25.965  1.00  0.00    -0.237 OA
ATOM     98  O   UNL A   1      46.909  37.410  27.698  1.00  0.00    -0.237 OA
ATOM     99  O   UNL A   1      48.731  36.072  26.714  1.00  0.00    -0.744 OA
ENDBRANCH  92  96
ENDBRANCH  66  89
ENDBRANCH  40  41
ENDBRANCH  32  35
ENDBRANCH  30  31
ENDBRANCH  29  30
ENDBRANCH   1  29
TORSDOF 19
ENDMDL
MODEL 3
REMARK VINA RESULT:     -12.3      2.793      8.178
REMARK SMILES NS(=O)(=O)c1ccc(/N=C/c2ccc(O)c(C(=O)NCCCCNC(=O)c3ccc(-c4c5nc(c(-c6cc(S(=O)(=O)[O-])ccc6F)c6ccc([nH]6)c(-c6cc(S(=O)(=O)[O-])ccc6F)c6nc(c(-c7cc(S(=O)(=O)[O-])ccc7F)c7ccc4[nH]7)C=C6)C=C5)cc3)c2)cc1
REMARK SMILES IDX 21 1 20 2 19 3 17 4 18 5 16 7 11 8 12 9 90 10 13 11 14 12
REMARK SMILES IDX 10 13 9 14 8 15 5 16 6 17 92 18 7 19 91 20 2 21 3 22 4 23
REMARK SMILES IDX 1 24 15 27 22 29 23 30 24 31 25 32 26 34 27 35 28 36 89 37
REMARK SMILES IDX 29 38 88 39 30 40 31 41 32 42 82 43 33 44 87 45 81 46 83 47
REMARK SMILES IDX 34 48 86 49 80 50 79 51 35 53 67 54 47 55 66 56 48 57 51 58
REMARK SMILES IDX 65 59 84 60 49 61 50 62 64 64 85 65 52 66 36 67 37 68 45 69
REMARK SMILES IDX 38 70 44 71 46 72 43 73 39 74 40 75 41 76 42 77 68 78 69 79
REMARK SMILES IDX 77 80 70 81 76 82 78 83 75 84 71 85 72 86 73 87 74 88 53 89
REMARK SMILES IDX 54 90 62 91 55 92 61 93 63 94 60 95 56 96 57 97 58 98 59 99
REMARK H PARENT 19 6 1 25 1 26 15 28 24 33 83 52 51 63
REMARK Flexibility Score: inf
ROOT
ATOM      1  C   UNL A   1      31.709  29.315  23.922  1.00  0.00     0.023 C 
ENDROOT
BRANCH   1   2
ATOM      2  C   UNL A   1      30.752  28.146  23.733  1.00  0.00     0.116 C 
BRANCH   2   3
ATOM      3  N   UNL A   1      31.204  27.133  22.787  1.00  0.00    -0.352 N 
ATOM      4  C   UNL A   1      31.698  25.861  22.982  1.00  0.00     0.255 C 
ATOM      5  O   UNL A   1      32.062  25.203  22.005  1.00  0.00    -0.269 OA
ATOM      6  H   UNL A   1      31.146  27.405  21.843  1.00  0.00     0.163 HD
BRANCH   4   7
ATOM      7  C   UNL A   1      31.908  25.270  24.331  1.00  0.00     0.082 A 
ATOM      8  C   UNL A   1      33.317  24.110  25.923  1.00  0.00    -0.006 A 
ATOM      9  C   UNL A   1      32.208  23.777  26.700  1.00  0.00     0.013 A 
ATOM     10  C   UNL A   1      33.174  24.940  24.806  1.00  0.00     0.027 A 
ATOM     11  C   UNL A   1      30.949  24.254  26.326  1.00  0.00     0.047 A 
ATOM     12  C   UNL A   1      30.799  24.977  25.140  1.00  0.00     0.128 A 
BRANCH   8  13
ATOM     13  C   UNL A   1      34.626  23.462  26.167  1.00  0.00     0.119 C 
ATOM     14  N   UNL A   1      35.702  23.988  25.676  1.00  0.00    -0.256 NA
BRANCH  14  15
ATOM     15  C   UNL A   1      36.945  23.351  25.780  1.00  0.00     0.063 A 
ATOM     16  C   UNL A   1      39.299  21.853  26.095  1.00  0.00     0.082 A 
ATOM     17  C   UNL A   1      38.217  21.302  25.410  1.00  0.00     0.024 A 
ATOM     18  C   UNL A   1      39.210  23.136  26.644  1.00  0.00     0.024 A 
ATOM     19  C   UNL A   1      37.049  22.056  25.255  1.00  0.00     0.030 A 
ATOM     20  C   UNL A   1      38.033  23.876  26.488  1.00  0.00     0.030 A 
BRANCH  16  21
ATOM     21  S   UNL A   1      40.763  20.895  26.344  1.00  0.00     0.238 S 
ATOM     22  O   UNL A   1      41.889  21.546  25.725  1.00  0.00    -0.207 OA
ATOM     23  O   UNL A   1      40.455  19.496  26.131  1.00  0.00    -0.207 OA
BRANCH  21  24
ATOM     24  N   UNL A   1      41.005  21.057  28.000  1.00  0.00    -0.225 NA
ATOM     25  H   UNL A   1      41.487  21.936  28.190  1.00  0.00     0.137 HD
ATOM     26  H   UNL A   1      41.571  20.279  28.338  1.00  0.00     0.137 HD
ENDBRANCH  21  24
ENDBRANCH  16  21
ENDBRANCH  14  15
ENDBRANCH   8  13
BRANCH  12  27
ATOM     27  O   UNL A   1      29.521  25.356  24.822  1.00  0.00    -0.507 OA
ATOM     28  H   UNL A   1      29.272  25.458  23.924  1.00  0.00     0.293 HD
ENDBRANCH  12  27
ENDBRANCH   4   7
ENDBRANCH   2   3
ENDBRANCH   1   2
BRANCH   1  29
ATOM     29  C   UNL A   1      33.106  28.976  24.423  1.00  0.00     0.023 C 
BRANCH  29  30
ATOM     30  C   UNL A   1      33.368  29.240  25.900  1.00  0.00     0.116 C 
BRANCH  30  31
ATOM     31  N   UNL A   1      33.038  30.593  26.323  1.00  0.00    -0.352 N 
ATOM     32  C   UNL A   1      33.672  31.405  27.235  1.00  0.00     0.251 C 
ATOM     33  H   UNL A   1      32.244  30.984  25.892  1.00  0.00     0.163 HD
ATOM     34  O   UNL A   1      33.177  32.490  27.525  1.00  0.00    -0.269 OA
BRANCH  32  35
ATOM     35  C   UNL A   1      34.920  30.955  27.894  1.00  0.00     0.039 A 
ATOM     36  C   UNL A   1      35.978  31.858  28.018  1.00  0.00     0.014 A 
ATOM     37  C   UNL A   1      35.043  29.662  28.408  1.00  0.00     0.014 A 
ATOM     38  C   UNL A   1      37.126  31.486  28.720  1.00  0.00     0.010 A 
ATOM     39  C   UNL A   1      36.147  29.326  29.189  1.00  0.00     0.010 A 
ATOM     40  C   UNL A   1      37.206  30.232  29.349  1.00  0.00    -0.014 A 
BRANCH  40  41
ATOM     41  C   UNL A   1      38.392  29.867  30.173  1.00  0.00     0.031 A 
ATOM     42  C   UNL A   1      38.551  30.420  31.566  1.00  0.00     0.074 A 
ATOM     43  C   UNL A   1      39.344  29.065  29.649  1.00  0.00     0.049 A 
ATOM     44  N   UNL A   1      39.510  30.212  32.432  1.00  0.00    -0.248 NA
ATOM     45  C   UNL A   1      37.515  31.352  32.037  1.00  0.00     0.031 C 
ATOM     46  C   UNL A   1      39.334  28.520  28.288  1.00  0.00     0.029 A 
ATOM     47  N   UNL A   1      40.502  28.565  30.192  1.00  0.00    -0.354 N 
ATOM     48  C   UNL A   1      39.201  30.997  33.540  1.00  0.00     0.074 A 
ATOM     49  C   UNL A   1      37.998  31.730  33.211  1.00  0.00     0.031 C 
ATOM     50  C   UNL A   1      40.408  27.733  28.119  1.00  0.00     0.029 A 
ATOM     51  C   UNL A   1      41.209  27.749  29.337  1.00  0.00     0.049 A 
ATOM     52  H   UNL A   1      40.797  28.771  31.108  1.00  0.00     0.167 HD
ATOM     53  C   UNL A   1      39.849  31.082  34.727  1.00  0.00     0.034 A 
ATOM     54  C   UNL A   1      42.374  27.092  29.514  1.00  0.00     0.034 A 
ATOM     55  C   UNL A   1      41.036  30.325  35.047  1.00  0.00     0.049 A 
ATOM     56  C   UNL A   1      43.064  27.193  30.853  1.00  0.00     0.074 A 
ATOM     57  C   UNL A   1      41.724  30.272  36.246  1.00  0.00     0.029 A 
ATOM     58  N   UNL A   1      41.717  29.498  34.163  1.00  0.00    -0.354 N 
ATOM     59  N   UNL A   1      42.704  27.870  31.921  1.00  0.00    -0.248 NA
ATOM     60  C   UNL A   1      44.301  26.423  31.018  1.00  0.00     0.031 C 
ATOM     61  C   UNL A   1      42.865  29.484  36.063  1.00  0.00     0.029 A 
ATOM     62  C   UNL A   1      42.838  28.963  34.780  1.00  0.00     0.049 A 
ATOM     63  H   UNL A   1      41.443  29.316  33.235  1.00  0.00     0.167 HD
ATOM     64  C   UNL A   1      43.656  27.574  32.894  1.00  0.00     0.074 A 
ATOM     65  C   UNL A   1      44.580  26.634  32.294  1.00  0.00     0.031 C 
ATOM     66  C   UNL A   1      43.760  28.036  34.167  1.00  0.00     0.034 A 
BRANCH  53  67
ATOM     67  C   UNL A   1      39.312  32.046  35.759  1.00  0.00     0.023 A 
ATOM     68  C   UNL A   1      39.754  33.378  35.842  1.00  0.00     0.031 A 
ATOM     69  C   UNL A   1      38.327  31.624  36.672  1.00  0.00     0.131 A 
ATOM     70  C   UNL A   1      39.254  34.222  36.846  1.00  0.00     0.055 A 
ATOM     71  C   UNL A   1      37.777  32.490  37.617  1.00  0.00     0.041 A 
ATOM     72  F   UNL A   1      37.883  30.357  36.659  1.00  0.00    -0.206 F 
ATOM     73  C   UNL A   1      38.247  33.796  37.716  1.00  0.00     0.022 A 
BRANCH  70  74
ATOM     74  S   UNL A   1      40.020  35.850  37.078  1.00  0.00     0.124 S 
ATOM     75  O   UNL A   1      39.360  36.315  38.296  1.00  0.00    -0.237 OA
ATOM     76  O   UNL A   1      41.434  35.518  37.203  1.00  0.00    -0.237 OA
ATOM     77  O   UNL A   1      39.655  36.578  35.864  1.00  0.00    -0.744 OA
ENDBRANCH  70  74
ENDBRANCH  53  67
BRANCH  54  78
ATOM     78  C   UNL A   1      42.979  26.287  28.408  1.00  0.00     0.023 A 
ATOM     79  C   UNL A   1      44.039  26.793  27.636  1.00  0.00     0.031 A 
ATOM     80  C   UNL A   1      42.450  25.033  28.054  1.00  0.00     0.131 A 
ATOM     81  C   UNL A   1      44.481  26.087  26.505  1.00  0.00     0.055 A 
ATOM     82  C   UNL A   1      42.944  24.301  26.971  1.00  0.00     0.041 A 
ATOM     83  F   UNL A   1      41.440  24.497  28.757  1.00  0.00    -0.206 F 
ATOM     84  C   UNL A   1      43.952  24.837  26.177  1.00  0.00     0.022 A 
BRANCH  81  85
ATOM     85  S   UNL A   1      45.669  26.889  25.391  1.00  0.00     0.124 S 
ATOM     86  O   UNL A   1      46.599  27.495  26.337  1.00  0.00    -0.237 OA
ATOM     87  O   UNL A   1      46.178  25.756  24.626  1.00  0.00    -0.237 OA
ATOM     88  O   UNL A   1      44.843  27.830  24.636  1.00  0.00    -0.744 OA
ENDBRANCH  81  85
ENDBRANCH  54  78
BRANCH  66  89
ATOM     89  C   UNL A   1      44.891  27.482  35.004  1.00  0.00     0.023 A 
ATOM     90  C   UNL A   1      44.738  26.323  35.784  1.00  0.00     0.031 A 
ATOM     91  C   UNL A   1      46.125  28.156  35.062  1.00  0.00     0.131 A 
ATOM     92  C   UNL A   1      45.761  25.927  36.658  1.00  0.00     0.055 A 
ATOM     93  C   UNL A   1      47.171  27.707  35.869  1.00  0.00     0.041 A 
ATOM     94  F   UNL A   1      46.333  29.270  34.342  1.00  0.00    -0.206 F 
ATOM     95  C   UNL A   1      46.985  26.600  36.691  1.00  0.00     0.022 A 
BRANCH  92  96
ATOM     96  S   UNL A   1      45.413  24.614  37.861  1.00  0.00     0.124 S 
ATOM     97  O   UNL A   1      46.598  24.661  38.711  1.00  0.00    -0.237 OA
ATOM     98  O   UNL A   1      44.171  25.075  38.473  1.00  0.00    -0.237 OA
ATOM     99  O   UNL A   1      45.290  23.416  37.032  1.00  0.00    -0.744 OA
ENDBRANCH  92  96
ENDBRANCH  66  89
ENDBRANCH  40  41
ENDBRANCH  32  35
ENDBRANCH  30  31
ENDBRANCH  29  30
ENDBRANCH   1  29
TORSDOF 19
ENDMDL
