MODEL 1
REMARK VINA RESULT:     -12.0      0.000      0.000
REMARK SMILES Cn1c(SCC(=O)Nc2cccc(C(=O)NCCCCNC(=O)c3ccc(-c4c5nc(c(-c6cc(S(=O)(=O)[O-])ccc6F)c6ccc([nH]6)c(-c6cc(S(=O)(=O)[O-])ccc6F)c6nc(c(-c7cc(S(=O)(=O)[O-])ccc7F)c7ccc4[nH]7)C=C6)C=C5)cc3)c2)nnc1[C@@H]1CCCN1C(=O)c1ccccc1Cl
REMARK SMILES IDX 14 1 15 2 16 3 13 5 9 6 10 7 87 8 11 9 12 10 8 11 6 12 7 13
REMARK SMILES IDX 5 15 4 16 3 17 1 18 2 19 90 20 88 21 89 22 91 23 92 24 95 25
REMARK SMILES IDX 93 26 94 27 96 28 97 29 98 30 99 31 103 32 100 33 102 34
REMARK SMILES IDX 104 35 101 36 17 37 18 38 19 39 20 40 21 41 22 42 23 44
REMARK SMILES IDX 24 45 25 46 86 47 26 48 85 49 27 50 28 51 29 52 79 53 30 54
REMARK SMILES IDX 84 55 78 56 80 57 31 58 83 59 77 60 76 61 32 63 64 64 44 65
REMARK SMILES IDX 63 66 45 67 48 68 62 69 81 70 46 71 47 72 61 74 82 75 49 76
REMARK SMILES IDX 33 77 34 78 42 79 35 80 41 81 43 82 40 83 36 84 37 85 38 86
REMARK SMILES IDX 39 87 65 88 66 89 74 90 67 91 73 92 75 93 72 94 68 95 69 96
REMARK SMILES IDX 70 97 71 98 50 99 51 100 59 101 52 102 58 103 60 104 57 105
REMARK SMILES IDX 53 106 54 107 55 108 56 109
REMARK H PARENT 16 4 8 14 21 43 80 62 48 73
REMARK Flexibility Score: inf
ROOT
ATOM      1  C   UNL A   1      31.770  26.119  26.090  1.00  0.00     0.251 C 
ATOM      2  O   UNL A   1      30.849  25.878  26.880  1.00  0.00    -0.269 OA
ATOM      3  N   UNL A   1      32.299  27.376  26.199  1.00  0.00    -0.352 N 
ATOM      4  H   UNL A   1      31.830  27.925  26.868  1.00  0.00     0.163 HD
ENDROOT
BRANCH   1   5
ATOM      5  C   UNL A   1      32.195  25.012  25.156  1.00  0.00     0.041 A 
ATOM      6  C   UNL A   1      33.195  22.895  24.448  1.00  0.00     0.041 A 
ATOM      7  C   UNL A   1      32.896  23.171  23.115  1.00  0.00     0.026 A 
ATOM      8  C   UNL A   1      32.902  23.838  25.451  1.00  0.00     0.040 A 
ATOM      9  C   UNL A   1      32.217  24.335  22.792  1.00  0.00     0.003 A 
ATOM     10  C   UNL A   1      31.859  25.230  23.801  1.00  0.00     0.014 A 
BRANCH   6  11
ATOM     11  N   UNL A   1      33.922  21.725  24.693  1.00  0.00    -0.325 N 
ATOM     12  C   UNL A   1      35.269  21.519  24.743  1.00  0.00     0.234 C 
ATOM     13  O   UNL A   1      35.649  20.389  25.074  1.00  0.00    -0.274 OA
ATOM     14  H   UNL A   1      33.375  20.923  24.854  1.00  0.00     0.169 HD
BRANCH  12  15
ATOM     15  C   UNL A   1      36.275  22.633  24.615  1.00  0.00     0.178 C 
BRANCH  15  16
ATOM     16  S   UNL A   1      36.841  23.413  26.098  1.00  0.00    -0.076 SA
BRANCH  16  17
ATOM     17  C   UNL A   1      38.560  23.520  26.132  1.00  0.00     0.191 A 
ATOM     18  C   UNL A   1      39.508  21.198  25.828  1.00  0.00     0.154 C 
ATOM     19  N   UNL A   1      39.507  22.547  26.315  1.00  0.00    -0.307 N 
ATOM     20  C   UNL A   1      40.570  23.200  26.907  1.00  0.00     0.156 A 
ATOM     21  N   UNL A   1      39.128  24.686  26.313  1.00  0.00    -0.123 NA
ATOM     22  N   UNL A   1      40.400  24.491  26.727  1.00  0.00    -0.132 NA
BRANCH  20  23
ATOM     23  C   UNL A   1      41.750  22.640  27.606  1.00  0.00     0.154 C 
ATOM     24  C   UNL A   1      42.008  23.321  28.954  1.00  0.00     0.035 C 
ATOM     25  N   UNL A   1      43.039  22.691  26.907  1.00  0.00    -0.328 N 
ATOM     26  C   UNL A   1      43.453  22.971  29.253  1.00  0.00     0.024 C 
ATOM     27  C   UNL A   1      44.108  22.821  27.885  1.00  0.00     0.120 C 
BRANCH  25  28
ATOM     28  C   UNL A   1      43.411  22.203  25.648  1.00  0.00     0.255 C 
ATOM     29  O   UNL A   1      42.892  22.622  24.611  1.00  0.00    -0.269 OA
BRANCH  28  30
ATOM     30  C   UNL A   1      44.368  21.093  25.470  1.00  0.00     0.058 A 
ATOM     31  C   UNL A   1      45.624  21.361  24.915  1.00  0.00     0.015 A 
ATOM     32  C   UNL A   1      43.961  19.761  25.562  1.00  0.00     0.053 A 
ATOM     33  C   UNL A   1      46.521  20.319  24.642  1.00  0.00     0.001 A 
ATOM     34  C   UNL A   1      44.876  18.722  25.338  1.00  0.00     0.021 A 
ATOM     35  Cl  UNL A   1      42.309  19.313  25.802  1.00  0.00    -0.083 Cl
ATOM     36  C   UNL A   1      46.170  19.003  24.914  1.00  0.00     0.002 A 
ENDBRANCH  28  30
ENDBRANCH  25  28
ENDBRANCH  20  23
ENDBRANCH  16  17
ENDBRANCH  15  16
ENDBRANCH  12  15
ENDBRANCH   6  11
ENDBRANCH   1   5
BRANCH   3  37
ATOM     37  C   UNL A   1      33.383  28.089  25.561  1.00  0.00     0.116 C 
BRANCH  37  38
ATOM     38  C   UNL A   1      34.090  29.055  26.517  1.00  0.00     0.023 C 
BRANCH  38  39
ATOM     39  C   UNL A   1      33.296  30.306  26.905  1.00  0.00     0.023 C 
BRANCH  39  40
ATOM     40  C   UNL A   1      34.050  31.443  27.595  1.00  0.00     0.116 C 
BRANCH  40  41
ATOM     41  N   UNL A   1      33.320  32.694  27.665  1.00  0.00    -0.352 N 
ATOM     42  C   UNL A   1      33.336  33.675  28.627  1.00  0.00     0.251 C 
ATOM     43  H   UNL A   1      32.719  32.868  26.905  1.00  0.00     0.163 HD
ATOM     44  O   UNL A   1      32.505  34.587  28.594  1.00  0.00    -0.269 OA
BRANCH  42  45
ATOM     45  C   UNL A   1      34.320  33.660  29.738  1.00  0.00     0.039 A 
ATOM     46  C   UNL A   1      35.045  32.483  29.961  1.00  0.00     0.014 A 
ATOM     47  C   UNL A   1      34.556  34.775  30.546  1.00  0.00     0.014 A 
ATOM     48  C   UNL A   1      36.117  32.488  30.849  1.00  0.00     0.010 A 
ATOM     49  C   UNL A   1      35.675  34.811  31.368  1.00  0.00     0.010 A 
ATOM     50  C   UNL A   1      36.499  33.686  31.469  1.00  0.00    -0.014 A 
BRANCH  50  51
ATOM     51  C   UNL A   1      37.847  33.830  32.061  1.00  0.00     0.031 A 
ATOM     52  C   UNL A   1      38.042  33.813  33.545  1.00  0.00     0.074 A 
ATOM     53  C   UNL A   1      38.869  34.093  31.219  1.00  0.00     0.049 A 
ATOM     54  N   UNL A   1      39.144  33.977  34.226  1.00  0.00    -0.248 NA
ATOM     55  C   UNL A   1      36.842  33.616  34.371  1.00  0.00     0.031 C 
ATOM     56  C   UNL A   1      38.746  34.217  29.760  1.00  0.00     0.029 A 
ATOM     57  N   UNL A   1      40.201  34.316  31.451  1.00  0.00    -0.354 N 
ATOM     58  C   UNL A   1      38.774  33.901  35.564  1.00  0.00     0.074 A 
ATOM     59  C   UNL A   1      37.338  33.733  35.595  1.00  0.00     0.031 C 
ATOM     60  C   UNL A   1      39.954  34.457  29.231  1.00  0.00     0.029 A 
ATOM     61  C   UNL A   1      40.928  34.560  30.308  1.00  0.00     0.049 A 
ATOM     62  H   UNL A   1      40.600  34.303  32.351  1.00  0.00     0.167 HD
ATOM     63  C   UNL A   1      39.575  33.952  36.656  1.00  0.00     0.034 A 
ATOM     64  C   UNL A   1      42.235  34.848  30.149  1.00  0.00     0.034 A 
ATOM     65  C   UNL A   1      41.005  34.133  36.581  1.00  0.00     0.049 A 
ATOM     66  C   UNL A   1      43.095  34.901  31.384  1.00  0.00     0.074 A 
ATOM     67  C   UNL A   1      41.928  34.142  37.611  1.00  0.00     0.029 A 
ATOM     68  N   UNL A   1      41.719  34.354  35.407  1.00  0.00    -0.354 N 
ATOM     69  N   UNL A   1      42.746  34.734  32.640  1.00  0.00    -0.248 NA
ATOM     70  C   UNL A   1      44.525  35.163  31.185  1.00  0.00     0.031 C 
ATOM     71  C   UNL A   1      43.182  34.446  37.072  1.00  0.00     0.029 A 
ATOM     72  C   UNL A   1      43.062  34.536  35.694  1.00  0.00     0.049 A 
ATOM     73  H   UNL A   1      41.326  34.377  34.504  1.00  0.00     0.167 HD
ATOM     74  C   UNL A   1      43.920  34.838  33.376  1.00  0.00     0.074 A 
ATOM     75  C   UNL A   1      44.988  35.058  32.421  1.00  0.00     0.031 C 
ATOM     76  C   UNL A   1      44.105  34.759  34.719  1.00  0.00     0.034 A 
BRANCH  63  77
ATOM     77  C   UNL A   1      38.924  33.836  38.012  1.00  0.00     0.023 A 
ATOM     78  C   UNL A   1      38.265  32.662  38.417  1.00  0.00     0.031 A 
ATOM     79  C   UNL A   1      38.964  34.912  38.916  1.00  0.00     0.131 A 
ATOM     80  C   UNL A   1      37.626  32.610  39.666  1.00  0.00     0.055 A 
ATOM     81  C   UNL A   1      38.392  34.827  40.188  1.00  0.00     0.041 A 
ATOM     82  F   UNL A   1      39.557  36.067  38.578  1.00  0.00    -0.206 F 
ATOM     83  C   UNL A   1      37.709  33.676  40.565  1.00  0.00     0.022 A 
BRANCH  80  84
ATOM     84  S   UNL A   1      36.585  31.176  40.051  1.00  0.00     0.124 S 
ATOM     85  O   UNL A   1      37.156  30.729  41.318  1.00  0.00    -0.237 OA
ATOM     86  O   UNL A   1      35.252  31.763  40.123  1.00  0.00    -0.237 OA
ATOM     87  O   UNL A   1      36.809  30.276  38.922  1.00  0.00    -0.744 OA
ENDBRANCH  80  84
ENDBRANCH  63  77
BRANCH  64  88
ATOM     88  C   UNL A   1      42.804  35.108  28.794  1.00  0.00     0.023 A 
ATOM     89  C   UNL A   1      43.283  34.058  27.996  1.00  0.00     0.031 A 
ATOM     90  C   UNL A   1      42.932  36.419  28.298  1.00  0.00     0.131 A 
ATOM     91  C   UNL A   1      43.928  34.338  26.780  1.00  0.00     0.055 A 
ATOM     92  C   UNL A   1      43.512  36.687  27.057  1.00  0.00     0.041 A 
ATOM     93  F   UNL A   1      42.486  37.464  29.014  1.00  0.00    -0.206 F 
ATOM     94  C   UNL A   1      44.032  35.644  26.298  1.00  0.00     0.022 A 
BRANCH  91  95
ATOM     95  S   UNL A   1      44.744  32.978  25.900  1.00  0.00     0.124 S 
ATOM     96  O   UNL A   1      46.152  33.316  26.073  1.00  0.00    -0.237 OA
ATOM     97  O   UNL A   1      44.268  31.812  26.637  1.00  0.00    -0.237 OA
ATOM     98  O   UNL A   1      44.234  33.102  24.536  1.00  0.00    -0.744 OA
ENDBRANCH  91  95
ENDBRANCH  64  88
BRANCH  76  99
ATOM     99  C   UNL A   1      45.526  34.863  35.215  1.00  0.00     0.023 A 
ATOM    100  C   UNL A   1      46.340  33.729  35.374  1.00  0.00     0.031 A 
ATOM    101  C   UNL A   1      46.066  36.119  35.544  1.00  0.00     0.131 A 
ATOM    102  C   UNL A   1      47.627  33.866  35.910  1.00  0.00     0.055 A 
ATOM    103  C   UNL A   1      47.373  36.257  36.009  1.00  0.00     0.041 A 
ATOM    104  F   UNL A   1      45.330  37.235  35.416  1.00  0.00    -0.206 F 
ATOM    105  C   UNL A   1      48.157  35.125  36.208  1.00  0.00     0.022 A 
BRANCH 102 106
ATOM    106  S   UNL A   1      48.563  32.366  36.314  1.00  0.00     0.124 S 
ATOM    107  O   UNL A   1      49.895  32.699  35.820  1.00  0.00    -0.237 OA
ATOM    108  O   UNL A   1      48.422  32.291  37.764  1.00  0.00    -0.237 OA
ATOM    109  O   UNL A   1      47.868  31.318  35.568  1.00  0.00    -0.744 OA
ENDBRANCH 102 106
ENDBRANCH  76  99
ENDBRANCH  50  51
ENDBRANCH  42  45
ENDBRANCH  40  41
ENDBRANCH  39  40
ENDBRANCH  38  39
ENDBRANCH  37  38
ENDBRANCH   3  37
TORSDOF 21
ENDMDL
MODEL 2
REMARK VINA RESULT:     -11.6      2.978      4.762
REMARK SMILES Cn1c(SCC(=O)Nc2cccc(C(=O)NCCCCNC(=O)c3ccc(-c4c5nc(c(-c6cc(S(=O)(=O)[O-])ccc6F)c6ccc([nH]6)c(-c6cc(S(=O)(=O)[O-])ccc6F)c6nc(c(-c7cc(S(=O)(=O)[O-])ccc7F)c7ccc4[nH]7)C=C6)C=C5)cc3)c2)nnc1[C@@H]1CCCN1C(=O)c1ccccc1Cl
REMARK SMILES IDX 14 1 15 2 16 3 13 5 9 6 10 7 87 8 11 9 12 10 8 11 6 12 7 13
REMARK SMILES IDX 5 15 4 16 3 17 1 18 2 19 90 20 88 21 89 22 91 23 92 24 95 25
REMARK SMILES IDX 93 26 94 27 96 28 97 29 98 30 99 31 103 32 100 33 102 34
REMARK SMILES IDX 104 35 101 36 17 37 18 38 19 39 20 40 21 41 22 42 23 44
REMARK SMILES IDX 24 45 25 46 86 47 26 48 85 49 27 50 28 51 29 52 79 53 30 54
REMARK SMILES IDX 84 55 78 56 80 57 31 58 83 59 77 60 76 61 32 63 64 64 44 65
REMARK SMILES IDX 63 66 45 67 48 68 62 69 81 70 46 71 47 72 61 74 82 75 49 76
REMARK SMILES IDX 33 77 34 78 42 79 35 80 41 81 43 82 40 83 36 84 37 85 38 86
REMARK SMILES IDX 39 87 65 88 66 89 74 90 67 91 73 92 75 93 72 94 68 95 69 96
REMARK SMILES IDX 70 97 71 98 50 99 51 100 59 101 52 102 58 103 60 104 57 105
REMARK SMILES IDX 53 106 54 107 55 108 56 109
REMARK H PARENT 16 4 8 14 21 43 80 62 48 73
REMARK Flexibility Score: inf
ROOT
ATOM      1  C   UNL A   1      32.852  24.956  26.196  1.00  0.00     0.251 C 
ATOM      2  O   UNL A   1      31.943  24.239  26.633  1.00  0.00    -0.269 OA
ATOM      3  N   UNL A   1      32.653  26.298  26.372  1.00  0.00    -0.352 N 
ATOM      4  H   UNL A   1      31.782  26.499  26.785  1.00  0.00     0.163 HD
ENDROOT
BRANCH   1   5
ATOM      5  C   UNL A   1      34.041  24.270  25.569  1.00  0.00     0.041 A 
ATOM      6  C   UNL A   1      36.173  23.079  25.448  1.00  0.00     0.041 A 
ATOM      7  C   UNL A   1      36.146  23.118  24.056  1.00  0.00     0.026 A 
ATOM      8  C   UNL A   1      35.160  23.705  26.197  1.00  0.00     0.040 A 
ATOM      9  C   UNL A   1      35.062  23.690  23.408  1.00  0.00     0.003 A 
ATOM     10  C   UNL A   1      34.021  24.240  24.157  1.00  0.00     0.014 A 
BRANCH   6  11
ATOM     11  N   UNL A   1      37.320  22.527  26.032  1.00  0.00    -0.325 N 
ATOM     12  C   UNL A   1      38.510  23.108  26.355  1.00  0.00     0.234 C 
ATOM     13  O   UNL A   1      39.332  22.402  26.954  1.00  0.00    -0.274 OA
ATOM     14  H   UNL A   1      37.258  21.568  26.242  1.00  0.00     0.169 HD
BRANCH  12  15
ATOM     15  C   UNL A   1      38.773  24.584  26.198  1.00  0.00     0.178 C 
BRANCH  15  16
ATOM     16  S   UNL A   1      40.431  25.158  26.422  1.00  0.00    -0.076 SA
BRANCH  16  17
ATOM     17  C   UNL A   1      40.500  26.430  27.581  1.00  0.00     0.191 A 
ATOM     18  C   UNL A   1      41.479  28.473  26.462  1.00  0.00     0.154 C 
ATOM     19  N   UNL A   1      41.207  27.604  27.570  1.00  0.00    -0.307 N 
ATOM     20  C   UNL A   1      41.440  27.885  28.902  1.00  0.00     0.156 A 
ATOM     21  N   UNL A   1      40.092  26.209  28.805  1.00  0.00    -0.123 NA
ATOM     22  N   UNL A   1      40.616  27.152  29.618  1.00  0.00    -0.132 NA
BRANCH  20  23
ATOM     23  C   UNL A   1      42.391  28.844  29.511  1.00  0.00     0.154 C 
ATOM     24  C   UNL A   1      43.661  28.158  30.027  1.00  0.00     0.035 C 
ATOM     25  N   UNL A   1      41.913  29.647  30.642  1.00  0.00    -0.328 N 
ATOM     26  C   UNL A   1      44.237  29.172  30.997  1.00  0.00     0.024 C 
ATOM     27  C   UNL A   1      43.027  29.927  31.534  1.00  0.00     0.120 C 
BRANCH  25  28
ATOM     28  C   UNL A   1      40.808  30.501  30.747  1.00  0.00     0.255 C 
ATOM     29  O   UNL A   1      40.615  31.414  29.942  1.00  0.00    -0.269 OA
BRANCH  28  30
ATOM     30  C   UNL A   1      39.853  30.440  31.872  1.00  0.00     0.058 A 
ATOM     31  C   UNL A   1      40.322  30.648  33.173  1.00  0.00     0.015 A 
ATOM     32  C   UNL A   1      38.575  29.902  31.712  1.00  0.00     0.053 A 
ATOM     33  C   UNL A   1      39.465  30.503  34.273  1.00  0.00     0.001 A 
ATOM     34  C   UNL A   1      37.703  29.806  32.806  1.00  0.00     0.021 A 
ATOM     35  Cl  UNL A   1      38.050  29.193  30.226  1.00  0.00    -0.083 Cl
ATOM     36  C   UNL A   1      38.137  30.143  34.084  1.00  0.00     0.002 A 
ENDBRANCH  28  30
ENDBRANCH  25  28
ENDBRANCH  20  23
ENDBRANCH  16  17
ENDBRANCH  15  16
ENDBRANCH  12  15
ENDBRANCH   6  11
ENDBRANCH   1   5
BRANCH   3  37
ATOM     37  C   UNL A   1      33.420  27.492  26.093  1.00  0.00     0.116 C 
BRANCH  37  38
ATOM     38  C   UNL A   1      33.172  28.599  27.121  1.00  0.00     0.023 C 
BRANCH  38  39
ATOM     39  C   UNL A   1      33.357  30.032  26.613  1.00  0.00     0.023 C 
BRANCH  39  40
ATOM     40  C   UNL A   1      33.899  31.072  27.593  1.00  0.00     0.116 C 
BRANCH  40  41
ATOM     41  N   UNL A   1      33.219  32.352  27.552  1.00  0.00    -0.352 N 
ATOM     42  C   UNL A   1      33.270  33.410  28.427  1.00  0.00     0.251 C 
ATOM     43  H   UNL A   1      32.628  32.484  26.776  1.00  0.00     0.163 HD
ATOM     44  O   UNL A   1      32.475  34.347  28.310  1.00  0.00    -0.269 OA
BRANCH  42  45
ATOM     45  C   UNL A   1      34.249  33.452  29.542  1.00  0.00     0.039 A 
ATOM     46  C   UNL A   1      35.020  32.309  29.785  1.00  0.00     0.014 A 
ATOM     47  C   UNL A   1      34.434  34.587  30.335  1.00  0.00     0.014 A 
ATOM     48  C   UNL A   1      36.087  32.371  30.678  1.00  0.00     0.010 A 
ATOM     49  C   UNL A   1      35.547  34.681  31.161  1.00  0.00     0.010 A 
ATOM     50  C   UNL A   1      36.416  33.592  31.283  1.00  0.00    -0.014 A 
BRANCH  50  51
ATOM     51  C   UNL A   1      37.754  33.800  31.878  1.00  0.00     0.031 A 
ATOM     52  C   UNL A   1      37.947  33.787  33.362  1.00  0.00     0.074 A 
ATOM     53  C   UNL A   1      38.764  34.118  31.039  1.00  0.00     0.049 A 
ATOM     54  N   UNL A   1      39.038  34.003  34.047  1.00  0.00    -0.248 NA
ATOM     55  C   UNL A   1      36.756  33.527  34.185  1.00  0.00     0.031 C 
ATOM     56  C   UNL A   1      38.638  34.242  29.581  1.00  0.00     0.029 A 
ATOM     57  N   UNL A   1      40.082  34.405  31.276  1.00  0.00    -0.354 N 
ATOM     58  C   UNL A   1      38.669  33.903  35.383  1.00  0.00     0.074 A 
ATOM     59  C   UNL A   1      37.243  33.664  35.410  1.00  0.00     0.031 C 
ATOM     60  C   UNL A   1      39.834  34.542  29.055  1.00  0.00     0.029 A 
ATOM     61  C   UNL A   1      40.799  34.689  30.135  1.00  0.00     0.049 A 
ATOM     62  H   UNL A   1      40.479  34.408  32.176  1.00  0.00     0.167 HD
ATOM     63  C   UNL A   1      39.464  33.989  36.478  1.00  0.00     0.034 A 
ATOM     64  C   UNL A   1      42.090  35.042  29.980  1.00  0.00     0.034 A 
ATOM     65  C   UNL A   1      40.884  34.241  36.406  1.00  0.00     0.049 A 
ATOM     66  C   UNL A   1      42.944  35.133  31.218  1.00  0.00     0.074 A 
ATOM     67  C   UNL A   1      41.803  34.292  37.438  1.00  0.00     0.029 A 
ATOM     68  N   UNL A   1      41.588  34.502  35.235  1.00  0.00    -0.354 N 
ATOM     69  N   UNL A   1      42.601  34.944  32.472  1.00  0.00    -0.248 NA
ATOM     70  C   UNL A   1      44.360  35.466  31.022  1.00  0.00     0.031 C 
ATOM     71  C   UNL A   1      43.041  34.659  36.904  1.00  0.00     0.029 A 
ATOM     72  C   UNL A   1      42.920  34.749  35.525  1.00  0.00     0.049 A 
ATOM     73  H   UNL A   1      41.196  34.509  34.332  1.00  0.00     0.167 HD
ATOM     74  C   UNL A   1      43.767  35.103  33.211  1.00  0.00     0.074 A 
ATOM     75  C   UNL A   1      44.824  35.379  32.260  1.00  0.00     0.031 C 
ATOM     76  C   UNL A   1      43.953  35.027  34.554  1.00  0.00     0.034 A 
BRANCH  63  77
ATOM     77  C   UNL A   1      38.817  33.835  37.831  1.00  0.00     0.023 A 
ATOM     78  C   UNL A   1      38.199  32.635  38.223  1.00  0.00     0.031 A 
ATOM     79  C   UNL A   1      38.818  34.902  38.747  1.00  0.00     0.131 A 
ATOM     80  C   UNL A   1      37.562  32.546  39.471  1.00  0.00     0.055 A 
ATOM     81  C   UNL A   1      38.249  34.784  40.018  1.00  0.00     0.041 A 
ATOM     82  F   UNL A   1      39.370  36.081  38.422  1.00  0.00    -0.206 F 
ATOM     83  C   UNL A   1      37.606  33.605  40.381  1.00  0.00     0.022 A 
BRANCH  80  84
ATOM     84  S   UNL A   1      36.572  31.073  39.839  1.00  0.00     0.124 S 
ATOM     85  O   UNL A   1      36.887  30.850  41.248  1.00  0.00    -0.237 OA
ATOM     86  O   UNL A   1      35.215  31.523  39.552  1.00  0.00    -0.237 OA
ATOM     87  O   UNL A   1      37.101  30.066  38.922  1.00  0.00    -0.744 OA
ENDBRANCH  80  84
ENDBRANCH  63  77
BRANCH  64  88
ATOM     88  C   UNL A   1      42.649  35.336  28.628  1.00  0.00     0.023 A 
ATOM     89  C   UNL A   1      43.342  34.355  27.902  1.00  0.00     0.031 A 
ATOM     90  C   UNL A   1      42.549  36.621  28.063  1.00  0.00     0.131 A 
ATOM     91  C   UNL A   1      43.966  34.689  26.689  1.00  0.00     0.055 A 
ATOM     92  C   UNL A   1      43.112  36.930  26.823  1.00  0.00     0.041 A 
ATOM     93  F   UNL A   1      41.892  37.599  28.707  1.00  0.00    -0.206 F 
ATOM     94  C   UNL A   1      43.843  35.965  26.138  1.00  0.00     0.022 A 
BRANCH  91  95
ATOM     95  S   UNL A   1      45.051  33.463  25.907  1.00  0.00     0.124 S 
ATOM     96  O   UNL A   1      45.712  32.871  27.066  1.00  0.00    -0.237 OA
ATOM     97  O   UNL A   1      44.092  32.612  25.211  1.00  0.00    -0.237 OA
ATOM     98  O   UNL A   1      45.909  34.271  25.044  1.00  0.00    -0.744 OA
ENDBRANCH  91  95
ENDBRANCH  64  88
BRANCH  76  99
ATOM     99  C   UNL A   1      45.366  35.200  35.053  1.00  0.00     0.023 A 
ATOM    100  C   UNL A   1      45.851  36.446  35.486  1.00  0.00     0.031 A 
ATOM    101  C   UNL A   1      46.241  34.100  35.083  1.00  0.00     0.131 A 
ATOM    102  C   UNL A   1      47.193  36.575  35.869  1.00  0.00     0.055 A 
ATOM    103  C   UNL A   1      47.555  34.220  35.536  1.00  0.00     0.041 A 
ATOM    104  F   UNL A   1      45.830  32.887  34.677  1.00  0.00    -0.206 F 
ATOM    105  C   UNL A   1      48.042  35.466  35.917  1.00  0.00     0.022 A 
BRANCH 102 106
ATOM    106  S   UNL A   1      47.843  38.235  36.202  1.00  0.00     0.124 S 
ATOM    107  O   UNL A   1      49.284  38.006  36.170  1.00  0.00    -0.237 OA
ATOM    108  O   UNL A   1      47.297  39.012  35.096  1.00  0.00    -0.237 OA
ATOM    109  O   UNL A   1      47.295  38.559  37.518  1.00  0.00    -0.744 OA
ENDBRANCH 102 106
ENDBRANCH  76  99
ENDBRANCH  50  51
ENDBRANCH  42  45
ENDBRANCH  40  41
ENDBRANCH  39  40
ENDBRANCH  38  39
ENDBRANCH  37  38
ENDBRANCH   3  37
TORSDOF 21
ENDMDL
MODEL 3
REMARK VINA RESULT:     -11.6      5.260     11.274
REMARK SMILES Cn1c(SCC(=O)Nc2cccc(C(=O)NCCCCNC(=O)c3ccc(-c4c5nc(c(-c6cc(S(=O)(=O)[O-])ccc6F)c6ccc([nH]6)c(-c6cc(S(=O)(=O)[O-])ccc6F)c6nc(c(-c7cc(S(=O)(=O)[O-])ccc7F)c7ccc4[nH]7)C=C6)C=C5)cc3)c2)nnc1[C@@H]1CCCN1C(=O)c1ccccc1Cl
REMARK SMILES IDX 14 1 15 2 16 3 13 5 9 6 10 7 87 8 11 9 12 10 8 11 6 12 7 13
REMARK SMILES IDX 5 15 4 16 3 17 1 18 2 19 90 20 88 21 89 22 91 23 92 24 95 25
REMARK SMILES IDX 93 26 94 27 96 28 97 29 98 30 99 31 103 32 100 33 102 34
REMARK SMILES IDX 104 35 101 36 17 37 18 38 19 39 20 40 21 41 22 42 23 44
REMARK SMILES IDX 24 45 25 46 86 47 26 48 85 49 27 50 28 51 29 52 79 53 30 54
REMARK SMILES IDX 84 55 78 56 80 57 31 58 83 59 77 60 76 61 32 63 64 64 44 65
REMARK SMILES IDX 63 66 45 67 48 68 62 69 81 70 46 71 47 72 61 74 82 75 49 76
REMARK SMILES IDX 33 77 34 78 42 79 35 80 41 81 43 82 40 83 36 84 37 85 38 86
REMARK SMILES IDX 39 87 65 88 66 89 74 90 67 91 73 92 75 93 72 94 68 95 69 96
REMARK SMILES IDX 70 97 71 98 50 99 51 100 59 101 52 102 58 103 60 104 57 105
REMARK SMILES IDX 53 106 54 107 55 108 56 109
REMARK H PARENT 16 4 8 14 21 43 80 62 48 73
REMARK Flexibility Score: inf
ROOT
ATOM      1  C   UNL A   1      38.705  34.339  30.042  1.00  0.00     0.251 C 
ATOM      2  O   UNL A   1      38.832  34.530  28.827  1.00  0.00    -0.269 OA
ATOM      3  N   UNL A   1      37.443  34.559  30.525  1.00  0.00    -0.352 N 
ATOM      4  H   UNL A   1      36.826  34.885  29.830  1.00  0.00     0.163 HD
ENDROOT
BRANCH   1   5
ATOM      5  C   UNL A   1      39.921  33.875  30.806  1.00  0.00     0.041 A 
ATOM      6  C   UNL A   1      41.618  33.833  32.567  1.00  0.00     0.041 A 
ATOM      7  C   UNL A   1      42.280  32.780  31.939  1.00  0.00     0.026 A 
ATOM      8  C   UNL A   1      40.484  34.416  31.971  1.00  0.00     0.040 A 
ATOM      9  C   UNL A   1      41.758  32.240  30.774  1.00  0.00     0.003 A 
ATOM     10  C   UNL A   1      40.587  32.771  30.230  1.00  0.00     0.014 A 
BRANCH   6  11
ATOM     11  N   UNL A   1      42.229  34.357  33.712  1.00  0.00    -0.325 N 
ATOM     12  C   UNL A   1      43.054  35.432  33.857  1.00  0.00     0.234 C 
ATOM     13  O   UNL A   1      43.383  35.732  35.012  1.00  0.00    -0.274 OA
ATOM     14  H   UNL A   1      42.032  33.871  34.545  1.00  0.00     0.169 HD
BRANCH  12  15
ATOM     15  C   UNL A   1      43.403  36.358  32.721  1.00  0.00     0.178 C 
BRANCH  15  16
ATOM     16  S   UNL A   1      45.068  36.346  32.124  1.00  0.00    -0.076 SA
BRANCH  16  17
ATOM     17  C   UNL A   1      45.292  37.506  30.871  1.00  0.00     0.191 A 
ATOM     18  C   UNL A   1      43.477  37.172  29.144  1.00  0.00     0.154 C 
ATOM     19  N   UNL A   1      44.785  37.548  29.598  1.00  0.00    -0.307 N 
ATOM     20  C   UNL A   1      45.740  38.221  28.862  1.00  0.00     0.156 A 
ATOM     21  N   UNL A   1      46.297  38.342  30.940  1.00  0.00    -0.123 NA
ATOM     22  N   UNL A   1      46.533  38.843  29.707  1.00  0.00    -0.132 NA
BRANCH  20  23
ATOM     23  C   UNL A   1      45.903  38.319  27.394  1.00  0.00     0.154 C 
ATOM     24  C   UNL A   1      47.140  37.566  26.892  1.00  0.00     0.035 C 
ATOM     25  N   UNL A   1      46.021  39.662  26.813  1.00  0.00    -0.328 N 
ATOM     26  C   UNL A   1      47.388  38.171  25.523  1.00  0.00     0.024 C 
ATOM     27  C   UNL A   1      46.862  39.597  25.628  1.00  0.00     0.120 C 
BRANCH  25  28
ATOM     28  C   UNL A   1      45.170  40.771  26.907  1.00  0.00     0.255 C 
ATOM     29  O   UNL A   1      45.607  41.910  27.082  1.00  0.00    -0.269 OA
BRANCH  28  30
ATOM     30  C   UNL A   1      43.698  40.653  26.903  1.00  0.00     0.058 A 
ATOM     31  C   UNL A   1      43.005  40.836  25.702  1.00  0.00     0.015 A 
ATOM     32  C   UNL A   1      42.966  40.657  28.091  1.00  0.00     0.053 A 
ATOM     33  C   UNL A   1      41.604  40.828  25.678  1.00  0.00     0.001 A 
ATOM     34  C   UNL A   1      41.565  40.597  28.062  1.00  0.00     0.021 A 
ATOM     35  Cl  UNL A   1      43.710  40.885  29.635  1.00  0.00    -0.083 Cl
ATOM     36  C   UNL A   1      40.883  40.645  26.851  1.00  0.00     0.002 A 
ENDBRANCH  28  30
ENDBRANCH  25  28
ENDBRANCH  20  23
ENDBRANCH  16  17
ENDBRANCH  15  16
ENDBRANCH  12  15
ENDBRANCH   6  11
ENDBRANCH   1   5
BRANCH   3  37
ATOM     37  C   UNL A   1      36.803  34.426  31.814  1.00  0.00     0.116 C 
BRANCH  37  38
ATOM     38  C   UNL A   1      35.287  34.240  31.698  1.00  0.00     0.023 C 
BRANCH  38  39
ATOM     39  C   UNL A   1      34.817  33.281  30.600  1.00  0.00     0.023 C 
BRANCH  39  40
ATOM     40  C   UNL A   1      34.448  33.879  29.242  1.00  0.00     0.116 C 
BRANCH  40  41
ATOM     41  N   UNL A   1      33.668  33.002  28.390  1.00  0.00    -0.352 N 
ATOM     42  C   UNL A   1      33.994  31.787  27.836  1.00  0.00     0.251 C 
ATOM     43  H   UNL A   1      32.765  33.328  28.173  1.00  0.00     0.163 HD
ATOM     44  O   UNL A   1      33.256  31.278  26.988  1.00  0.00    -0.269 OA
BRANCH  42  45
ATOM     45  C   UNL A   1      35.237  31.069  28.212  1.00  0.00     0.039 A 
ATOM     46  C   UNL A   1      36.460  31.724  28.023  1.00  0.00     0.014 A 
ATOM     47  C   UNL A   1      35.225  29.783  28.756  1.00  0.00     0.014 A 
ATOM     48  C   UNL A   1      37.627  31.177  28.549  1.00  0.00     0.010 A 
ATOM     49  C   UNL A   1      36.369  29.273  29.357  1.00  0.00     0.010 A 
ATOM     50  C   UNL A   1      37.560  30.003  29.313  1.00  0.00    -0.014 A 
BRANCH  50  51
ATOM     51  C   UNL A   1      38.666  29.635  30.224  1.00  0.00     0.031 A 
ATOM     52  C   UNL A   1      38.769  30.234  31.591  1.00  0.00     0.074 A 
ATOM     53  C   UNL A   1      39.635  28.834  29.731  1.00  0.00     0.049 A 
ATOM     54  N   UNL A   1      39.698  30.060  32.492  1.00  0.00    -0.248 NA
ATOM     55  C   UNL A   1      37.708  31.171  31.988  1.00  0.00     0.031 C 
ATOM     56  C   UNL A   1      39.656  28.279  28.371  1.00  0.00     0.029 A 
ATOM     57  N   UNL A   1      40.788  28.354  30.294  1.00  0.00    -0.354 N 
ATOM     58  C   UNL A   1      39.336  30.864  33.567  1.00  0.00     0.074 A 
ATOM     59  C   UNL A   1      38.133  31.567  33.180  1.00  0.00     0.031 C 
ATOM     60  C   UNL A   1      40.743  27.510  28.221  1.00  0.00     0.029 A 
ATOM     61  C   UNL A   1      41.526  27.558  29.447  1.00  0.00     0.049 A 
ATOM     62  H   UNL A   1      41.062  28.559  31.217  1.00  0.00     0.167 HD
ATOM     63  C   UNL A   1      39.953  30.980  34.768  1.00  0.00     0.034 A 
ATOM     64  C   UNL A   1      42.712  26.946  29.637  1.00  0.00     0.034 A 
ATOM     65  C   UNL A   1      41.162  30.268  35.109  1.00  0.00     0.049 A 
ATOM     66  C   UNL A   1      43.373  27.100  30.982  1.00  0.00     0.074 A 
ATOM     67  C   UNL A   1      41.846  30.259  36.311  1.00  0.00     0.029 A 
ATOM     68  N   UNL A   1      41.876  29.450  34.240  1.00  0.00    -0.354 N 
ATOM     69  N   UNL A   1      42.969  27.792  32.024  1.00  0.00    -0.248 NA
ATOM     70  C   UNL A   1      44.636  26.382  31.185  1.00  0.00     0.031 C 
ATOM     71  C   UNL A   1      43.010  29.503  36.145  1.00  0.00     0.029 A 
ATOM     72  C   UNL A   1      43.010  28.962  34.868  1.00  0.00     0.049 A 
ATOM     73  H   UNL A   1      41.612  29.247  33.313  1.00  0.00     0.167 HD
ATOM     74  C   UNL A   1      43.914  27.563  33.017  1.00  0.00     0.074 A 
ATOM     75  C   UNL A   1      44.891  26.653  32.456  1.00  0.00     0.031 C 
ATOM     76  C   UNL A   1      43.971  28.057  34.280  1.00  0.00     0.034 A 
BRANCH  63  77
ATOM     77  C   UNL A   1      39.350  31.923  35.780  1.00  0.00     0.023 A 
ATOM     78  C   UNL A   1      39.765  33.262  35.881  1.00  0.00     0.031 A 
ATOM     79  C   UNL A   1      38.343  31.480  36.655  1.00  0.00     0.131 A 
ATOM     80  C   UNL A   1      39.217  34.095  36.869  1.00  0.00     0.055 A 
ATOM     81  C   UNL A   1      37.747  32.334  37.586  1.00  0.00     0.041 A 
ATOM     82  F   UNL A   1      37.923  30.206  36.624  1.00  0.00    -0.206 F 
ATOM     83  C   UNL A   1      38.191  33.647  37.704  1.00  0.00     0.022 A 
BRANCH  80  84
ATOM     84  S   UNL A   1      39.947  35.735  37.127  1.00  0.00     0.124 S 
ATOM     85  O   UNL A   1      39.165  36.231  38.256  1.00  0.00    -0.237 OA
ATOM     86  O   UNL A   1      41.343  35.420  37.405  1.00  0.00    -0.237 OA
ATOM     87  O   UNL A   1      39.703  36.422  35.860  1.00  0.00    -0.744 OA
ENDBRANCH  80  84
ENDBRANCH  63  77
BRANCH  64  88
ATOM     88  C   UNL A   1      43.346  26.147  28.547  1.00  0.00     0.023 A 
ATOM     89  C   UNL A   1      44.331  26.706  27.719  1.00  0.00     0.031 A 
ATOM     90  C   UNL A   1      42.938  24.827  28.280  1.00  0.00     0.131 A 
ATOM     91  C   UNL A   1      44.824  25.980  26.623  1.00  0.00     0.055 A 
ATOM     92  C   UNL A   1      43.481  24.083  27.230  1.00  0.00     0.041 A 
ATOM     93  F   UNL A   1      42.004  24.235  29.042  1.00  0.00    -0.206 F 
ATOM     94  C   UNL A   1      44.416  24.666  26.382  1.00  0.00     0.022 A 
BRANCH  91  95
ATOM     95  S   UNL A   1      45.910  26.824  25.441  1.00  0.00     0.124 S 
ATOM     96  O   UNL A   1      45.013  27.829  24.880  1.00  0.00    -0.237 OA
ATOM     97  O   UNL A   1      46.971  27.324  26.309  1.00  0.00    -0.237 OA
ATOM     98  O   UNL A   1      46.306  25.758  24.523  1.00  0.00    -0.744 OA
ENDBRANCH  91  95
ENDBRANCH  64  88
BRANCH  76  99
ATOM     99  C   UNL A   1      45.109  27.576  35.145  1.00  0.00     0.023 A 
ATOM    100  C   UNL A   1      45.033  26.372  35.867  1.00  0.00     0.031 A 
ATOM    101  C   UNL A   1      46.283  28.343  35.256  1.00  0.00     0.131 A 
ATOM    102  C   UNL A   1      46.084  26.003  36.718  1.00  0.00     0.055 A 
ATOM    103  C   UNL A   1      47.355  27.933  36.048  1.00  0.00     0.041 A 
ATOM    104  F   UNL A   1      46.406  29.503  34.592  1.00  0.00    -0.206 F 
ATOM    105  C   UNL A   1      47.253  26.764  36.796  1.00  0.00     0.022 A 
BRANCH 102 106
ATOM    106  S   UNL A   1      45.857  24.568  37.803  1.00  0.00     0.124 S 
ATOM    107  O   UNL A   1      47.206  24.365  38.321  1.00  0.00    -0.237 OA
ATOM    108  O   UNL A   1      44.873  25.055  38.763  1.00  0.00    -0.237 OA
ATOM    109  O   UNL A   1      45.377  23.526  36.897  1.00  0.00    -0.744 OA
ENDBRANCH 102 106
ENDBRANCH  76  99
ENDBRANCH  50  51
ENDBRANCH  42  45
ENDBRANCH  40  41
ENDBRANCH  39  40
ENDBRANCH  38  39
ENDBRANCH  37  38
ENDBRANCH   3  37
TORSDOF 21
ENDMDL
