MODEL 1
REMARK VINA RESULT:     -12.1      0.000      0.000
REMARK SMILES Cc1cc(C(=O)NCCCCNC(=O)c2ccc(-c3c4nc(c(-c5cc(S(=O)(=O)[O-])ccc5F)c5ccc([nH]5)c(-c5cc(S(=O)(=O)[O-])ccc5F)c5nc(c(-c6cc(S(=O)(=O)[O-])ccc6F)c6ccc3[nH]6)C=C5)C=C4)cc2)ccc1NC(=O)c1ccc(=O)n(CCOc2ccccc2)n1
REMARK SMILES IDX 8 1 7 2 5 3 6 4 4 6 1 7 2 8 3 9 80 10 79 11 78 12 81 13
REMARK SMILES IDX 82 14 83 16 84 17 85 18 99 19 86 20 89 21 87 22 88 23 90 24
REMARK SMILES IDX 91 25 92 26 93 27 94 28 98 29 95 30 97 31 96 32 9 33 10 34
REMARK SMILES IDX 11 35 12 36 13 37 14 39 15 40 16 41 77 42 17 43 76 44 18 45
REMARK SMILES IDX 19 46 20 47 70 48 21 49 75 50 69 51 71 52 22 53 74 54 68 55
REMARK SMILES IDX 67 56 23 58 55 59 35 60 54 61 36 62 39 63 53 64 72 65 37 66
REMARK SMILES IDX 38 67 52 69 73 70 40 71 24 72 25 73 33 74 26 75 32 76 34 77
REMARK SMILES IDX 31 78 27 79 28 80 29 81 30 82 56 83 57 84 65 85 58 86 64 87
REMARK SMILES IDX 66 88 63 89 59 90 60 91 61 92 62 93 41 94 42 95 50 96 43 97
REMARK SMILES IDX 49 98 51 99 48 100 44 101 45 102 46 103 47 104
REMARK H PARENT 7 5 81 15 12 38 71 57 39 68
REMARK Flexibility Score: inf
ROOT
ATOM      1  C   UNL A   1      37.265  22.570  24.079  1.00  0.00     0.116 C 
ENDROOT
BRANCH   1   2
ATOM      2  N   UNL A   1      37.125  21.135  24.365  1.00  0.00    -0.352 N 
ATOM      3  C   UNL A   1      36.051  20.375  24.776  1.00  0.00     0.251 C 
ATOM      4  O   UNL A   1      36.136  19.147  24.732  1.00  0.00    -0.269 OA
ATOM      5  H   UNL A   1      37.954  20.620  24.237  1.00  0.00     0.163 HD
BRANCH   3   6
ATOM      6  C   UNL A   1      34.788  20.978  25.275  1.00  0.00     0.040 A 
ATOM      7  C   UNL A   1      33.625  22.956  28.312  1.00  0.00     0.046 C 
ATOM      8  C   UNL A   1      33.535  22.146  27.048  1.00  0.00    -0.027 A 
ATOM      9  C   UNL A   1      34.742  21.607  26.528  1.00  0.00     0.019 A 
ATOM     10  C   UNL A   1      32.351  21.972  26.318  1.00  0.00     0.044 A 
ATOM     11  C   UNL A   1      32.479  21.578  24.990  1.00  0.00     0.027 A 
ATOM     12  C   UNL A   1      33.668  21.073  24.473  1.00  0.00     0.016 A 
BRANCH  10  13
ATOM     13  N   UNL A   1      31.081  22.186  26.905  1.00  0.00    -0.320 N 
ATOM     14  C   UNL A   1      30.242  23.293  26.826  1.00  0.00     0.276 C 
ATOM     15  H   UNL A   1      30.739  21.439  27.449  1.00  0.00     0.170 HD
ATOM     16  O   UNL A   1      29.177  23.342  27.432  1.00  0.00    -0.267 OA
BRANCH  14  17
ATOM     17  C   UNL A   1      30.650  24.480  25.974  1.00  0.00     0.149 A 
ATOM     18  C   UNL A   1      30.550  24.264  24.516  1.00  0.00     0.042 A 
ATOM     19  N   UNL A   1      30.985  25.604  26.538  1.00  0.00    -0.164 NA
ATOM     20  C   UNL A   1      30.306  25.367  23.807  1.00  0.00     0.076 A 
ATOM     21  N   UNL A   1      30.964  26.716  25.689  1.00  0.00    -0.226 N 
ATOM     22  C   UNL A   1      30.235  26.672  24.504  1.00  0.00     0.266 A 
ATOM     23  O   UNL A   1      29.578  27.570  23.996  1.00  0.00    -0.268 OA
BRANCH  21  24
ATOM     24  C   UNL A   1      31.451  27.994  26.224  1.00  0.00     0.190 C 
BRANCH  24  25
ATOM     25  C   UNL A   1      32.910  27.900  26.717  1.00  0.00     0.253 C 
BRANCH  25  26
ATOM     26  O   UNL A   1      33.905  28.022  25.686  1.00  0.00    -0.492 OA
BRANCH  26  27
ATOM     27  C   UNL A   1      33.891  26.987  24.795  1.00  0.00     0.119 A 
ATOM     28  C   UNL A   1      34.254  25.708  25.205  1.00  0.00     0.046 A 
ATOM     29  C   UNL A   1      33.664  27.232  23.446  1.00  0.00     0.046 A 
ATOM     30  C   UNL A   1      34.281  24.662  24.276  1.00  0.00     0.004 A 
ATOM     31  C   UNL A   1      33.638  26.186  22.524  1.00  0.00     0.004 A 
ATOM     32  C   UNL A   1      33.937  24.894  22.943  1.00  0.00     0.000 A 
ENDBRANCH  26  27
ENDBRANCH  25  26
ENDBRANCH  24  25
ENDBRANCH  21  24
ENDBRANCH  14  17
ENDBRANCH  10  13
ENDBRANCH   3   6
ENDBRANCH   1   2
BRANCH   1  33
ATOM     33  C   UNL A   1      37.475  23.436  25.334  1.00  0.00     0.023 C 
BRANCH  33  34
ATOM     34  C   UNL A   1      38.292  22.797  26.456  1.00  0.00     0.023 C 
BRANCH  34  35
ATOM     35  C   UNL A   1      39.799  22.925  26.261  1.00  0.00     0.116 C 
BRANCH  35  36
ATOM     36  N   UNL A   1      40.480  21.666  25.964  1.00  0.00    -0.352 N 
ATOM     37  C   UNL A   1      41.818  21.338  26.157  1.00  0.00     0.251 C 
ATOM     38  H   UNL A   1      39.917  20.957  25.577  1.00  0.00     0.163 HD
ATOM     39  O   UNL A   1      42.300  20.302  25.739  1.00  0.00    -0.269 OA
BRANCH  37  40
ATOM     40  C   UNL A   1      42.639  22.258  26.980  1.00  0.00     0.039 A 
ATOM     41  C   UNL A   1      42.447  22.234  28.366  1.00  0.00     0.014 A 
ATOM     42  C   UNL A   1      43.344  23.292  26.375  1.00  0.00     0.014 A 
ATOM     43  C   UNL A   1      42.743  23.373  29.109  1.00  0.00     0.010 A 
ATOM     44  C   UNL A   1      43.522  24.460  27.085  1.00  0.00     0.010 A 
ATOM     45  C   UNL A   1      43.150  24.523  28.434  1.00  0.00    -0.014 A 
BRANCH  45  46
ATOM     46  C   UNL A   1      43.041  25.863  29.006  1.00  0.00     0.031 A 
ATOM     47  C   UNL A   1      41.822  26.678  28.781  1.00  0.00     0.074 A 
ATOM     48  C   UNL A   1      44.012  26.309  29.838  1.00  0.00     0.049 A 
ATOM     49  N   UNL A   1      41.748  27.956  28.944  1.00  0.00    -0.248 NA
ATOM     50  C   UNL A   1      40.572  26.101  28.299  1.00  0.00     0.031 C 
ATOM     51  C   UNL A   1      43.949  27.475  30.721  1.00  0.00     0.029 A 
ATOM     52  N   UNL A   1      45.340  25.907  29.972  1.00  0.00    -0.354 N 
ATOM     53  C   UNL A   1      40.418  28.315  28.909  1.00  0.00     0.074 A 
ATOM     54  C   UNL A   1      39.742  27.142  28.410  1.00  0.00     0.031 C 
ATOM     55  C   UNL A   1      45.202  27.868  31.005  1.00  0.00     0.029 A 
ATOM     56  C   UNL A   1      46.083  27.079  30.162  1.00  0.00     0.049 A 
ATOM     57  H   UNL A   1      45.686  24.986  29.940  1.00  0.00     0.167 HD
ATOM     58  C   UNL A   1      40.035  29.508  29.452  1.00  0.00     0.034 A 
ATOM     59  C   UNL A   1      46.958  27.608  29.250  1.00  0.00     0.034 A 
ATOM     60  C   UNL A   1      41.199  30.311  29.841  1.00  0.00     0.049 A 
ATOM     61  C   UNL A   1      46.634  29.052  28.881  1.00  0.00     0.074 A 
ATOM     62  C   UNL A   1      41.797  30.580  31.061  1.00  0.00     0.029 A 
ATOM     63  N   UNL A   1      42.095  30.744  28.866  1.00  0.00    -0.354 N 
ATOM     64  N   UNL A   1      45.462  29.604  29.053  1.00  0.00    -0.248 NA
ATOM     65  C   UNL A   1      47.590  29.971  28.268  1.00  0.00     0.031 C 
ATOM     66  C   UNL A   1      43.093  31.106  30.810  1.00  0.00     0.029 A 
ATOM     67  C   UNL A   1      43.269  31.192  29.439  1.00  0.00     0.049 A 
ATOM     68  H   UNL A   1      41.914  30.733  27.897  1.00  0.00     0.167 HD
ATOM     69  C   UNL A   1      45.481  30.895  28.587  1.00  0.00     0.074 A 
ATOM     70  C   UNL A   1      46.845  31.083  28.126  1.00  0.00     0.031 C 
ATOM     71  C   UNL A   1      44.364  31.688  28.612  1.00  0.00     0.034 A 
BRANCH  58  72
ATOM     72  C   UNL A   1      38.622  29.817  29.932  1.00  0.00     0.023 A 
ATOM     73  C   UNL A   1      37.747  30.530  29.083  1.00  0.00     0.031 A 
ATOM     74  C   UNL A   1      38.096  29.524  31.206  1.00  0.00     0.131 A 
ATOM     75  C   UNL A   1      36.503  31.016  29.535  1.00  0.00     0.055 A 
ATOM     76  C   UNL A   1      36.884  30.052  31.677  1.00  0.00     0.041 A 
ATOM     77  F   UNL A   1      38.689  28.665  32.041  1.00  0.00    -0.206 F 
ATOM     78  C   UNL A   1      36.086  30.818  30.846  1.00  0.00     0.022 A 
BRANCH  75  79
ATOM     79  S   UNL A   1      35.430  31.918  28.383  1.00  0.00     0.124 S 
ATOM     80  O   UNL A   1      36.266  33.052  28.002  1.00  0.00    -0.237 OA
ATOM     81  O   UNL A   1      35.180  30.921  27.349  1.00  0.00    -0.237 OA
ATOM     82  O   UNL A   1      34.266  32.259  29.201  1.00  0.00    -0.744 OA
ENDBRANCH  75  79
ENDBRANCH  58  72
BRANCH  59  83
ATOM     83  C   UNL A   1      47.569  26.622  28.312  1.00  0.00     0.023 A 
ATOM     84  C   UNL A   1      47.186  26.679  26.956  1.00  0.00     0.031 A 
ATOM     85  C   UNL A   1      48.731  25.905  28.633  1.00  0.00     0.131 A 
ATOM     86  C   UNL A   1      48.048  26.200  25.961  1.00  0.00     0.055 A 
ATOM     87  C   UNL A   1      49.548  25.355  27.636  1.00  0.00     0.041 A 
ATOM     88  F   UNL A   1      49.162  25.828  29.899  1.00  0.00    -0.206 F 
ATOM     89  C   UNL A   1      49.231  25.541  26.292  1.00  0.00     0.022 A 
BRANCH  86  90
ATOM     90  S   UNL A   1      47.790  26.730  24.241  1.00  0.00     0.124 S 
ATOM     91  O   UNL A   1      48.110  25.518  23.500  1.00  0.00    -0.237 OA
ATOM     92  O   UNL A   1      46.392  27.152  24.248  1.00  0.00    -0.237 OA
ATOM     93  O   UNL A   1      48.741  27.826  24.091  1.00  0.00    -0.744 OA
ENDBRANCH  86  90
ENDBRANCH  59  83
BRANCH  71  94
ATOM     94  C   UNL A   1      44.214  33.036  27.930  1.00  0.00     0.023 A 
ATOM     95  C   UNL A   1      44.349  34.263  28.596  1.00  0.00     0.031 A 
ATOM     96  C   UNL A   1      44.010  33.124  26.529  1.00  0.00     0.131 A 
ATOM     97  C   UNL A   1      44.201  35.487  27.914  1.00  0.00     0.055 A 
ATOM     98  C   UNL A   1      43.945  34.339  25.839  1.00  0.00     0.041 A 
ATOM     99  F   UNL A   1      43.871  32.032  25.763  1.00  0.00    -0.206 F 
ATOM    100  C   UNL A   1      44.023  35.535  26.534  1.00  0.00     0.022 A 
BRANCH  97 101
ATOM    101  S   UNL A   1      44.178  37.016  28.887  1.00  0.00     0.124 S 
ATOM    102  O   UNL A   1      43.527  37.945  27.968  1.00  0.00    -0.237 OA
ATOM    103  O   UNL A   1      43.398  36.632  30.058  1.00  0.00    -0.237 OA
ATOM    104  O   UNL A   1      45.592  37.285  29.142  1.00  0.00    -0.744 OA
ENDBRANCH  97 101
ENDBRANCH  71  94
ENDBRANCH  45  46
ENDBRANCH  37  40
ENDBRANCH  35  36
ENDBRANCH  34  35
ENDBRANCH  33  34
ENDBRANCH   1  33
TORSDOF 20
ENDMDL
MODEL 2
REMARK VINA RESULT:     -12.0      2.577      3.905
REMARK SMILES Cc1cc(C(=O)NCCCCNC(=O)c2ccc(-c3c4nc(c(-c5cc(S(=O)(=O)[O-])ccc5F)c5ccc([nH]5)c(-c5cc(S(=O)(=O)[O-])ccc5F)c5nc(c(-c6cc(S(=O)(=O)[O-])ccc6F)c6ccc3[nH]6)C=C5)C=C4)cc2)ccc1NC(=O)c1ccc(=O)n(CCOc2ccccc2)n1
REMARK SMILES IDX 8 1 7 2 5 3 6 4 4 6 1 7 2 8 3 9 80 10 79 11 78 12 81 13
REMARK SMILES IDX 82 14 83 16 84 17 85 18 99 19 86 20 89 21 87 22 88 23 90 24
REMARK SMILES IDX 91 25 92 26 93 27 94 28 98 29 95 30 97 31 96 32 9 33 10 34
REMARK SMILES IDX 11 35 12 36 13 37 14 39 15 40 16 41 77 42 17 43 76 44 18 45
REMARK SMILES IDX 19 46 20 47 70 48 21 49 75 50 69 51 71 52 22 53 74 54 68 55
REMARK SMILES IDX 67 56 23 58 55 59 35 60 54 61 36 62 39 63 53 64 72 65 37 66
REMARK SMILES IDX 38 67 52 69 73 70 40 71 24 72 25 73 33 74 26 75 32 76 34 77
REMARK SMILES IDX 31 78 27 79 28 80 29 81 30 82 56 83 57 84 65 85 58 86 64 87
REMARK SMILES IDX 66 88 63 89 59 90 60 91 61 92 62 93 41 94 42 95 50 96 43 97
REMARK SMILES IDX 49 98 51 99 48 100 44 101 45 102 46 103 47 104
REMARK H PARENT 7 5 81 15 12 38 71 57 39 68
REMARK Flexibility Score: inf
ROOT
ATOM      1  C   UNL A   1      38.064  21.508  25.508  1.00  0.00     0.116 C 
ENDROOT
BRANCH   1   2
ATOM      2  N   UNL A   1      37.590  22.058  24.230  1.00  0.00    -0.352 N 
ATOM      3  C   UNL A   1      36.382  22.602  23.850  1.00  0.00     0.251 C 
ATOM      4  O   UNL A   1      36.307  23.198  22.774  1.00  0.00    -0.269 OA
ATOM      5  H   UNL A   1      38.263  22.036  23.512  1.00  0.00     0.163 HD
BRANCH   3   6
ATOM      6  C   UNL A   1      35.158  22.497  24.686  1.00  0.00     0.040 A 
ATOM      7  C   UNL A   1      32.132  20.205  24.965  1.00  0.00     0.046 C 
ATOM      8  C   UNL A   1      33.002  21.411  25.187  1.00  0.00    -0.027 A 
ATOM      9  C   UNL A   1      34.204  21.500  24.435  1.00  0.00     0.019 A 
ATOM     10  C   UNL A   1      32.738  22.395  26.151  1.00  0.00     0.044 A 
ATOM     11  C   UNL A   1      33.802  23.202  26.540  1.00  0.00     0.027 A 
ATOM     12  C   UNL A   1      34.989  23.271  25.817  1.00  0.00     0.016 A 
BRANCH  10  13
ATOM     13  N   UNL A   1      31.445  22.562  26.703  1.00  0.00    -0.320 N 
ATOM     14  C   UNL A   1      30.611  23.675  26.688  1.00  0.00     0.276 C 
ATOM     15  H   UNL A   1      31.082  21.773  27.167  1.00  0.00     0.170 HD
ATOM     16  O   UNL A   1      29.522  23.676  27.253  1.00  0.00    -0.267 OA
BRANCH  14  17
ATOM     17  C   UNL A   1      31.053  24.930  25.959  1.00  0.00     0.149 A 
ATOM     18  C   UNL A   1      31.712  25.944  26.810  1.00  0.00     0.042 A 
ATOM     19  N   UNL A   1      30.905  25.024  24.670  1.00  0.00    -0.164 NA
ATOM     20  C   UNL A   1      32.602  26.707  26.175  1.00  0.00     0.076 A 
ATOM     21  N   UNL A   1      31.676  26.021  24.062  1.00  0.00    -0.226 N 
ATOM     22  C   UNL A   1      32.793  26.532  24.716  1.00  0.00     0.266 A 
ATOM     23  O   UNL A   1      33.868  26.850  24.227  1.00  0.00    -0.268 OA
BRANCH  21  24
ATOM     24  C   UNL A   1      31.466  26.268  22.629  1.00  0.00     0.190 C 
BRANCH  24  25
ATOM     25  C   UNL A   1      30.522  27.461  22.376  1.00  0.00     0.253 C 
BRANCH  25  26
ATOM     26  O   UNL A   1      30.839  28.650  23.120  1.00  0.00    -0.492 OA
BRANCH  26  27
ATOM     27  C   UNL A   1      29.819  29.558  23.151  1.00  0.00     0.119 A 
ATOM     28  C   UNL A   1      29.917  30.691  23.952  1.00  0.00     0.046 A 
ATOM     29  C   UNL A   1      28.619  29.279  22.508  1.00  0.00     0.046 A 
ATOM     30  C   UNL A   1      28.849  31.592  24.014  1.00  0.00     0.004 A 
ATOM     31  C   UNL A   1      27.570  30.198  22.523  1.00  0.00     0.004 A 
ATOM     32  C   UNL A   1      27.690  31.364  23.270  1.00  0.00     0.000 A 
ENDBRANCH  26  27
ENDBRANCH  25  26
ENDBRANCH  24  25
ENDBRANCH  21  24
ENDBRANCH  14  17
ENDBRANCH  10  13
ENDBRANCH   3   6
ENDBRANCH   1   2
BRANCH   1  33
ATOM     33  C   UNL A   1      39.189  22.332  26.161  1.00  0.00     0.023 C 
BRANCH  33  34
ATOM     34  C   UNL A   1      40.398  21.536  26.653  1.00  0.00     0.023 C 
BRANCH  34  35
ATOM     35  C   UNL A   1      41.422  22.385  27.400  1.00  0.00     0.116 C 
BRANCH  35  36
ATOM     36  N   UNL A   1      42.413  23.031  26.542  1.00  0.00    -0.352 N 
ATOM     37  C   UNL A   1      42.421  24.336  26.058  1.00  0.00     0.251 C 
ATOM     38  H   UNL A   1      43.176  22.471  26.272  1.00  0.00     0.163 HD
ATOM     39  O   UNL A   1      43.231  24.719  25.234  1.00  0.00    -0.269 OA
BRANCH  37  40
ATOM     40  C   UNL A   1      41.457  25.293  26.649  1.00  0.00     0.039 A 
ATOM     41  C   UNL A   1      41.153  26.445  25.914  1.00  0.00     0.014 A 
ATOM     42  C   UNL A   1      41.106  25.190  27.990  1.00  0.00     0.014 A 
ATOM     43  C   UNL A   1      40.726  27.585  26.589  1.00  0.00     0.010 A 
ATOM     44  C   UNL A   1      40.804  26.349  28.675  1.00  0.00     0.010 A 
ATOM     45  C   UNL A   1      40.688  27.560  27.983  1.00  0.00    -0.014 A 
BRANCH  45  46
ATOM     46  C   UNL A   1      40.718  28.770  28.802  1.00  0.00     0.031 A 
ATOM     47  C   UNL A   1      39.586  29.729  28.766  1.00  0.00     0.074 A 
ATOM     48  C   UNL A   1      41.733  28.952  29.679  1.00  0.00     0.049 A 
ATOM     49  N   UNL A   1      39.642  30.953  29.171  1.00  0.00    -0.248 NA
ATOM     50  C   UNL A   1      38.281  29.380  28.214  1.00  0.00     0.031 C 
ATOM     51  C   UNL A   1      41.792  29.926  30.769  1.00  0.00     0.029 A 
ATOM     52  N   UNL A   1      43.015  28.403  29.702  1.00  0.00    -0.354 N 
ATOM     53  C   UNL A   1      38.355  31.440  29.238  1.00  0.00     0.074 A 
ATOM     54  C   UNL A   1      37.561  30.456  28.542  1.00  0.00     0.031 C 
ATOM     55  C   UNL A   1      43.080  30.133  31.092  1.00  0.00     0.029 A 
ATOM     56  C   UNL A   1      43.873  29.438  30.093  1.00  0.00     0.049 A 
ATOM     57  H   UNL A   1      43.265  27.476  29.486  1.00  0.00     0.167 HD
ATOM     58  C   UNL A   1      38.096  32.538  30.007  1.00  0.00     0.034 A 
ATOM     59  C   UNL A   1      44.791  30.044  29.277  1.00  0.00     0.034 A 
ATOM     60  C   UNL A   1      39.338  33.134  30.513  1.00  0.00     0.049 A 
ATOM     61  C   UNL A   1      44.613  31.557  29.198  1.00  0.00     0.074 A 
ATOM     62  C   UNL A   1      39.966  33.104  31.748  1.00  0.00     0.029 A 
ATOM     63  N   UNL A   1      40.267  33.657  29.616  1.00  0.00    -0.354 N 
ATOM     64  N   UNL A   1      43.503  32.177  29.500  1.00  0.00    -0.248 NA
ATOM     65  C   UNL A   1      45.653  32.479  28.748  1.00  0.00     0.031 C 
ATOM     66  C   UNL A   1      41.307  33.539  31.569  1.00  0.00     0.029 A 
ATOM     67  C   UNL A   1      41.483  33.868  30.236  1.00  0.00     0.049 A 
ATOM     68  H   UNL A   1      40.081  33.849  28.668  1.00  0.00     0.167 HD
ATOM     69  C   UNL A   1      43.649  33.526  29.289  1.00  0.00     0.074 A 
ATOM     70  C   UNL A   1      45.023  33.664  28.838  1.00  0.00     0.031 C 
ATOM     71  C   UNL A   1      42.619  34.405  29.491  1.00  0.00     0.034 A 
BRANCH  58  72
ATOM     72  C   UNL A   1      36.724  32.886  30.572  1.00  0.00     0.023 A 
ATOM     73  C   UNL A   1      35.866  33.725  29.827  1.00  0.00     0.031 A 
ATOM     74  C   UNL A   1      36.227  32.511  31.836  1.00  0.00     0.131 A 
ATOM     75  C   UNL A   1      34.673  34.240  30.372  1.00  0.00     0.055 A 
ATOM     76  C   UNL A   1      35.070  33.065  32.403  1.00  0.00     0.041 A 
ATOM     77  F   UNL A   1      36.795  31.545  32.566  1.00  0.00    -0.206 F 
ATOM     78  C   UNL A   1      34.292  33.949  31.677  1.00  0.00     0.022 A 
BRANCH  75  79
ATOM     79  S   UNL A   1      33.617  35.306  29.351  1.00  0.00     0.124 S 
ATOM     80  O   UNL A   1      34.538  35.752  28.311  1.00  0.00    -0.237 OA
ATOM     81  O   UNL A   1      32.564  34.389  28.933  1.00  0.00    -0.237 OA
ATOM     82  O   UNL A   1      33.188  36.350  30.281  1.00  0.00    -0.744 OA
ENDBRANCH  75  79
ENDBRANCH  58  72
BRANCH  59  83
ATOM     83  C   UNL A   1      45.295  29.202  28.154  1.00  0.00     0.023 A 
ATOM     84  C   UNL A   1      46.326  28.281  28.432  1.00  0.00     0.031 A 
ATOM     85  C   UNL A   1      44.575  29.035  26.962  1.00  0.00     0.131 A 
ATOM     86  C   UNL A   1      46.481  27.137  27.639  1.00  0.00     0.055 A 
ATOM     87  C   UNL A   1      44.791  27.930  26.127  1.00  0.00     0.041 A 
ATOM     88  F   UNL A   1      43.569  29.862  26.646  1.00  0.00    -0.206 F 
ATOM     89  C   UNL A   1      45.716  26.952  26.488  1.00  0.00     0.022 A 
BRANCH  86  90
ATOM     90  S   UNL A   1      47.441  25.737  28.288  1.00  0.00     0.124 S 
ATOM     91  O   UNL A   1      47.398  24.798  27.176  1.00  0.00    -0.237 OA
ATOM     92  O   UNL A   1      48.732  26.352  28.586  1.00  0.00    -0.237 OA
ATOM     93  O   UNL A   1      46.685  25.343  29.472  1.00  0.00    -0.744 OA
ENDBRANCH  86  90
ENDBRANCH  59  83
BRANCH  71  94
ATOM     94  C   UNL A   1      42.601  35.867  29.082  1.00  0.00     0.023 A 
ATOM     95  C   UNL A   1      43.338  36.865  29.736  1.00  0.00     0.031 A 
ATOM     96  C   UNL A   1      41.888  36.293  27.933  1.00  0.00     0.131 A 
ATOM     97  C   UNL A   1      43.286  38.208  29.315  1.00  0.00     0.055 A 
ATOM     98  C   UNL A   1      41.904  37.611  27.466  1.00  0.00     0.041 A 
ATOM     99  F   UNL A   1      41.147  35.445  27.204  1.00  0.00    -0.206 F 
ATOM    100  C   UNL A   1      42.593  38.585  28.168  1.00  0.00     0.022 A 
BRANCH  97 101
ATOM    101  S   UNL A   1      44.095  39.464  30.341  1.00  0.00     0.124 S 
ATOM    102  O   UNL A   1      45.506  39.226  30.048  1.00  0.00    -0.237 OA
ATOM    103  O   UNL A   1      43.540  40.706  29.815  1.00  0.00    -0.237 OA
ATOM    104  O   UNL A   1      43.678  39.122  31.700  1.00  0.00    -0.744 OA
ENDBRANCH  97 101
ENDBRANCH  71  94
ENDBRANCH  45  46
ENDBRANCH  37  40
ENDBRANCH  35  36
ENDBRANCH  34  35
ENDBRANCH  33  34
ENDBRANCH   1  33
TORSDOF 20
ENDMDL
MODEL 3
REMARK VINA RESULT:     -11.6      4.070      9.837
REMARK SMILES Cc1cc(C(=O)NCCCCNC(=O)c2ccc(-c3c4nc(c(-c5cc(S(=O)(=O)[O-])ccc5F)c5ccc([nH]5)c(-c5cc(S(=O)(=O)[O-])ccc5F)c5nc(c(-c6cc(S(=O)(=O)[O-])ccc6F)c6ccc3[nH]6)C=C5)C=C4)cc2)ccc1NC(=O)c1ccc(=O)n(CCOc2ccccc2)n1
REMARK SMILES IDX 8 1 7 2 5 3 6 4 4 6 1 7 2 8 3 9 80 10 79 11 78 12 81 13
REMARK SMILES IDX 82 14 83 16 84 17 85 18 99 19 86 20 89 21 87 22 88 23 90 24
REMARK SMILES IDX 91 25 92 26 93 27 94 28 98 29 95 30 97 31 96 32 9 33 10 34
REMARK SMILES IDX 11 35 12 36 13 37 14 39 15 40 16 41 77 42 17 43 76 44 18 45
REMARK SMILES IDX 19 46 20 47 70 48 21 49 75 50 69 51 71 52 22 53 74 54 68 55
REMARK SMILES IDX 67 56 23 58 55 59 35 60 54 61 36 62 39 63 53 64 72 65 37 66
REMARK SMILES IDX 38 67 52 69 73 70 40 71 24 72 25 73 33 74 26 75 32 76 34 77
REMARK SMILES IDX 31 78 27 79 28 80 29 81 30 82 56 83 57 84 65 85 58 86 64 87
REMARK SMILES IDX 66 88 63 89 59 90 60 91 61 92 62 93 41 94 42 95 50 96 43 97
REMARK SMILES IDX 49 98 51 99 48 100 44 101 45 102 46 103 47 104
REMARK H PARENT 7 5 81 15 12 38 71 57 39 68
REMARK Flexibility Score: inf
ROOT
ATOM      1  C   UNL A   1      31.853  31.450  26.577  1.00  0.00     0.116 C 
ENDROOT
BRANCH   1   2
ATOM      2  N   UNL A   1      31.933  30.153  27.264  1.00  0.00    -0.352 N 
ATOM      3  C   UNL A   1      32.280  28.894  26.823  1.00  0.00     0.251 C 
ATOM      4  O   UNL A   1      32.482  28.005  27.652  1.00  0.00    -0.269 OA
ATOM      5  H   UNL A   1      31.695  30.192  28.218  1.00  0.00     0.163 HD
BRANCH   3   6
ATOM      6  C   UNL A   1      32.420  28.560  25.382  1.00  0.00     0.040 A 
ATOM      7  C   UNL A   1      30.157  28.245  22.337  1.00  0.00     0.046 C 
ATOM      8  C   UNL A   1      31.393  28.120  23.184  1.00  0.00    -0.027 A 
ATOM      9  C   UNL A   1      31.290  28.487  24.552  1.00  0.00     0.019 A 
ATOM     10  C   UNL A   1      32.649  27.751  22.679  1.00  0.00     0.044 A 
ATOM     11  C   UNL A   1      33.761  28.077  23.448  1.00  0.00     0.027 A 
ATOM     12  C   UNL A   1      33.659  28.459  24.781  1.00  0.00     0.016 A 
BRANCH  10  13
ATOM     13  N   UNL A   1      32.779  27.075  21.442  1.00  0.00    -0.320 N 
ATOM     14  C   UNL A   1      32.901  25.714  21.183  1.00  0.00     0.276 C 
ATOM     15  H   UNL A   1      32.783  27.655  20.646  1.00  0.00     0.170 HD
ATOM     16  O   UNL A   1      33.048  25.282  20.044  1.00  0.00    -0.267 OA
BRANCH  14  17
ATOM     17  C   UNL A   1      32.859  24.728  22.335  1.00  0.00     0.149 A 
ATOM     18  C   UNL A   1      31.522  24.521  22.930  1.00  0.00     0.042 A 
ATOM     19  N   UNL A   1      33.935  24.085  22.684  1.00  0.00    -0.164 NA
ATOM     20  C   UNL A   1      31.333  23.315  23.465  1.00  0.00     0.076 A 
ATOM     21  N   UNL A   1      33.711  22.949  23.470  1.00  0.00    -0.226 N 
ATOM     22  C   UNL A   1      32.456  22.349  23.483  1.00  0.00     0.266 A 
ATOM     23  O   UNL A   1      32.197  21.154  23.519  1.00  0.00    -0.268 OA
BRANCH  21  24
ATOM     24  C   UNL A   1      34.885  22.246  24.006  1.00  0.00     0.190 C 
BRANCH  24  25
ATOM     25  C   UNL A   1      35.407  22.893  25.306  1.00  0.00     0.253 C 
BRANCH  25  26
ATOM     26  O   UNL A   1      36.581  23.708  25.145  1.00  0.00    -0.492 OA
BRANCH  26  27
ATOM     27  C   UNL A   1      37.689  23.187  25.751  1.00  0.00     0.119 A 
ATOM     28  C   UNL A   1      38.458  23.979  26.597  1.00  0.00     0.046 A 
ATOM     29  C   UNL A   1      38.139  21.918  25.409  1.00  0.00     0.046 A 
ATOM     30  C   UNL A   1      39.617  23.453  27.178  1.00  0.00     0.004 A 
ATOM     31  C   UNL A   1      39.263  21.369  26.023  1.00  0.00     0.004 A 
ATOM     32  C   UNL A   1      39.998  22.135  26.920  1.00  0.00     0.000 A 
ENDBRANCH  26  27
ENDBRANCH  25  26
ENDBRANCH  24  25
ENDBRANCH  21  24
ENDBRANCH  14  17
ENDBRANCH  10  13
ENDBRANCH   3   6
ENDBRANCH   1   2
BRANCH   1  33
ATOM     33  C   UNL A   1      32.233  32.648  27.465  1.00  0.00     0.023 C 
BRANCH  33  34
ATOM     34  C   UNL A   1      33.731  32.898  27.645  1.00  0.00     0.023 C 
BRANCH  34  35
ATOM     35  C   UNL A   1      34.453  31.771  28.376  1.00  0.00     0.116 C 
BRANCH  35  36
ATOM     36  N   UNL A   1      34.829  32.086  29.752  1.00  0.00    -0.352 N 
ATOM     37  C   UNL A   1      35.839  31.522  30.526  1.00  0.00     0.251 C 
ATOM     38  H   UNL A   1      34.299  32.791  30.190  1.00  0.00     0.163 HD
ATOM     39  O   UNL A   1      35.966  31.769  31.710  1.00  0.00    -0.269 OA
BRANCH  37  40
ATOM     40  C   UNL A   1      36.833  30.664  29.837  1.00  0.00     0.039 A 
ATOM     41  C   UNL A   1      36.928  29.328  30.243  1.00  0.00     0.014 A 
ATOM     42  C   UNL A   1      37.815  31.239  29.039  1.00  0.00     0.014 A 
ATOM     43  C   UNL A   1      38.130  28.650  30.059  1.00  0.00     0.010 A 
ATOM     44  C   UNL A   1      39.042  30.614  28.967  1.00  0.00     0.010 A 
ATOM     45  C   UNL A   1      39.219  29.350  29.543  1.00  0.00    -0.014 A 
BRANCH  45  46
ATOM     46  C   UNL A   1      40.603  28.921  29.731  1.00  0.00     0.031 A 
ATOM     47  C   UNL A   1      41.126  27.735  29.008  1.00  0.00     0.074 A 
ATOM     48  C   UNL A   1      41.437  29.681  30.480  1.00  0.00     0.049 A 
ATOM     49  N   UNL A   1      42.189  27.081  29.335  1.00  0.00    -0.248 NA
ATOM     50  C   UNL A   1      40.443  27.155  27.856  1.00  0.00     0.031 C 
ATOM     51  C   UNL A   1      42.895  29.582  30.549  1.00  0.00     0.029 A 
ATOM     52  N   UNL A   1      41.155  30.620  31.471  1.00  0.00    -0.354 N 
ATOM     53  C   UNL A   1      42.505  26.233  28.296  1.00  0.00     0.074 A 
ATOM     54  C   UNL A   1      41.336  26.250  27.449  1.00  0.00     0.031 C 
ATOM     55  C   UNL A   1      43.309  30.135  31.702  1.00  0.00     0.029 A 
ATOM     56  C   UNL A   1      42.114  30.426  32.473  1.00  0.00     0.049 A 
ATOM     57  H   UNL A   1      40.430  31.285  31.467  1.00  0.00     0.167 HD
ATOM     58  C   UNL A   1      43.775  25.740  28.199  1.00  0.00     0.034 A 
ATOM     59  C   UNL A   1      41.853  29.916  33.717  1.00  0.00     0.034 A 
ATOM     60  C   UNL A   1      44.568  26.087  29.383  1.00  0.00     0.049 A 
ATOM     61  C   UNL A   1      42.700  28.691  34.049  1.00  0.00     0.074 A 
ATOM     62  C   UNL A   1      45.549  27.037  29.619  1.00  0.00     0.029 A 
ATOM     63  N   UNL A   1      44.193  25.598  30.632  1.00  0.00    -0.354 N 
ATOM     64  N   UNL A   1      43.288  27.945  33.151  1.00  0.00    -0.248 NA
ATOM     65  C   UNL A   1      42.924  28.198  35.405  1.00  0.00     0.031 C 
ATOM     66  C   UNL A   1      45.703  27.172  31.024  1.00  0.00     0.029 A 
ATOM     67  C   UNL A   1      44.845  26.278  31.643  1.00  0.00     0.049 A 
ATOM     68  H   UNL A   1      43.550  24.866  30.775  1.00  0.00     0.167 HD
ATOM     69  C   UNL A   1      43.938  26.902  33.763  1.00  0.00     0.074 A 
ATOM     70  C   UNL A   1      43.697  27.120  35.178  1.00  0.00     0.031 C 
ATOM     71  C   UNL A   1      44.605  25.946  33.044  1.00  0.00     0.034 A 
BRANCH  58  72
ATOM     72  C   UNL A   1      44.400  25.229  26.907  1.00  0.00     0.023 A 
ATOM     73  C   UNL A   1      44.285  23.859  26.581  1.00  0.00     0.031 A 
ATOM     74  C   UNL A   1      45.175  25.985  26.004  1.00  0.00     0.131 A 
ATOM     75  C   UNL A   1      45.000  23.287  25.509  1.00  0.00     0.055 A 
ATOM     76  C   UNL A   1      45.931  25.410  24.971  1.00  0.00     0.041 A 
ATOM     77  F   UNL A   1      45.194  27.321  26.029  1.00  0.00    -0.206 F 
ATOM     78  C   UNL A   1      45.860  24.050  24.728  1.00  0.00     0.022 A 
BRANCH  75  79
ATOM     79  S   UNL A   1      44.795  21.522  25.147  1.00  0.00     0.124 S 
ATOM     80  O   UNL A   1      44.563  21.524  23.706  1.00  0.00    -0.237 OA
ATOM     81  O   UNL A   1      46.066  20.964  25.597  1.00  0.00    -0.237 OA
ATOM     82  O   UNL A   1      43.638  21.141  25.956  1.00  0.00    -0.744 OA
ENDBRANCH  75  79
ENDBRANCH  58  72
BRANCH  59  83
ATOM     83  C   UNL A   1      40.462  30.129  34.212  1.00  0.00     0.023 A 
ATOM     84  C   UNL A   1      40.205  31.287  34.973  1.00  0.00     0.031 A 
ATOM     85  C   UNL A   1      39.363  29.443  33.674  1.00  0.00     0.131 A 
ATOM     86  C   UNL A   1      38.913  31.829  35.015  1.00  0.00     0.055 A 
ATOM     87  C   UNL A   1      38.060  29.947  33.791  1.00  0.00     0.041 A 
ATOM     88  F   UNL A   1      39.538  28.347  32.924  1.00  0.00    -0.206 F 
ATOM     89  C   UNL A   1      37.837  31.168  34.424  1.00  0.00     0.022 A 
BRANCH  86  90
ATOM     90  S   UNL A   1      38.697  33.553  35.551  1.00  0.00     0.124 S 
ATOM     91  O   UNL A   1      39.539  34.272  34.604  1.00  0.00    -0.237 OA
ATOM     92  O   UNL A   1      37.254  33.742  35.430  1.00  0.00    -0.237 OA
ATOM     93  O   UNL A   1      39.180  33.530  36.928  1.00  0.00    -0.744 OA
ENDBRANCH  86  90
ENDBRANCH  59  83
BRANCH  71  94
ATOM     94  C   UNL A   1      45.162  24.645  33.594  1.00  0.00     0.023 A 
ATOM     95  C   UNL A   1      46.475  24.500  34.066  1.00  0.00     0.031 A 
ATOM     96  C   UNL A   1      44.333  23.504  33.744  1.00  0.00     0.131 A 
ATOM     97  C   UNL A   1      46.941  23.270  34.568  1.00  0.00     0.055 A 
ATOM     98  C   UNL A   1      44.774  22.308  34.319  1.00  0.00     0.041 A 
ATOM     99  F   UNL A   1      43.053  23.501  33.345  1.00  0.00    -0.206 F 
ATOM    100  C   UNL A   1      46.093  22.177  34.721  1.00  0.00     0.022 A 
BRANCH  97 101
ATOM    101  S   UNL A   1      48.705  23.112  34.955  1.00  0.00     0.124 S 
ATOM    102  O   UNL A   1      49.312  23.964  33.936  1.00  0.00    -0.237 OA
ATOM    103  O   UNL A   1      48.773  23.615  36.323  1.00  0.00    -0.237 OA
ATOM    104  O   UNL A   1      48.966  21.682  34.804  1.00  0.00    -0.744 OA
ENDBRANCH  97 101
ENDBRANCH  71  94
ENDBRANCH  45  46
ENDBRANCH  37  40
ENDBRANCH  35  36
ENDBRANCH  34  35
ENDBRANCH  33  34
ENDBRANCH   1  33
TORSDOF 20
ENDMDL
