MODEL 1
REMARK VINA RESULT:     -10.4      0.000      0.000
REMARK SMILES CC1(C)CC[C@@]2(C(=O)NCCCCNC(=O)c3ccc(-c4c5nc(c(-c6cc(S(=O)(=O)[O-])ccc6F)c6ccc([nH]6)c(-c6cc(S(=O)(=O)[O-])ccc6F)c6nc(c(-c7cc(S(=O)(=O)[O-])ccc7F)c7ccc4[nH]7)C=C6)C=C5)cc3)CC[C@@]3(C)C(=CC[C@H]4[C@@]5(C)CC[C@H](O)C(C)(C)[C@@H]5CC[C@]43C)[C@@H]2C1
REMARK SMILES IDX 12 1 11 2 10 3 9 4 7 5 8 6 6 8 1 9 2 10 3 11 4 12 103 13
REMARK SMILES IDX 5 14 102 15 84 16 80 17 82 18 85 19 81 20 83 21 100 22 86 23
REMARK SMILES IDX 87 24 99 25 101 26 88 27 98 28 89 29 90 30 97 31 91 32 94 33
REMARK SMILES IDX 92 34 95 35 96 36 93 37 13 39 14 40 15 41 16 43 17 44 18 45
REMARK SMILES IDX 79 46 19 47 78 48 20 49 21 50 22 51 72 52 23 53 77 54 71 55
REMARK SMILES IDX 73 56 24 57 76 58 70 59 69 60 25 62 57 63 37 64 56 65 38 66
REMARK SMILES IDX 41 67 55 68 74 69 39 70 40 71 54 73 75 74 42 75 26 76 27 77
REMARK SMILES IDX 35 78 28 79 34 80 36 81 33 82 29 83 30 84 31 85 32 86 58 87
REMARK SMILES IDX 59 88 67 89 60 90 66 91 68 92 65 93 61 94 62 95 63 96 64 97
REMARK SMILES IDX 43 98 44 99 52 100 45 101 51 102 53 103 50 104 46 105 47 106
REMARK SMILES IDX 48 107 49 108
REMARK H PARENT 9 7 93 38 14 42 73 61 41 72
REMARK Flexibility Score: inf
ROOT
ATOM      1  C   UNL A   1      45.231  25.437  37.875  1.00  0.00     0.023 C 
ENDROOT
BRANCH   1   2
ATOM      2  C   UNL A   1      46.196  25.902  36.770  1.00  0.00     0.023 C 
BRANCH   2   3
ATOM      3  C   UNL A   1      47.459  25.105  36.410  1.00  0.00     0.116 C 
BRANCH   3   4
ATOM      4  N   UNL A   1      48.803  25.633  36.398  1.00  0.00    -0.356 N 
ATOM      5  C   UNL A   1      49.997  24.931  36.231  1.00  0.00     0.226 C 
ATOM      6  O   UNL A   1      50.240  23.900  36.858  1.00  0.00    -0.274 OA
ATOM      7  H   UNL A   1      48.887  26.607  36.523  1.00  0.00     0.163 HD
BRANCH   5   8
ATOM      8  C   UNL A   1      50.928  25.401  35.046  1.00  0.00     0.056 C 
ATOM      9  C   UNL A   1      53.481  28.260  36.401  1.00  0.00     0.011 C 
ATOM     10  C   UNL A   1      52.547  27.142  36.913  1.00  0.00    -0.035 C 
ATOM     11  C   UNL A   1      52.576  27.295  38.468  1.00  0.00     0.011 C 
ATOM     12  C   UNL A   1      51.128  27.505  36.438  1.00  0.00     0.007 C 
ATOM     13  C   UNL A   1      53.080  25.697  36.421  1.00  0.00     0.015 C 
ATOM     14  C   UNL A   1      50.826  26.943  35.063  1.00  0.00     0.018 C 
ATOM     15  C   UNL A   1      52.386  24.922  35.197  1.00  0.00     0.031 C 
ATOM     16  C   UNL A   1      52.309  23.319  35.136  1.00  0.00    -0.064 C 
ATOM     17  C   UNL A   1      50.473  24.988  33.630  1.00  0.00     0.018 C 
ATOM     18  C   UNL A   1      51.509  22.612  33.973  1.00  0.00    -0.006 C 
ATOM     19  C   UNL A   1      52.806  22.558  36.126  1.00  0.00    -0.027 C 
ATOM     20  C   UNL A   1      50.347  23.489  33.451  1.00  0.00     0.013 C 
ATOM     21  C   UNL A   1      52.583  22.562  32.826  1.00  0.00     0.017 C 
ATOM     22  C   UNL A   1      50.933  21.057  34.313  1.00  0.00    -0.020 C 
ATOM     23  C   UNL A   1      52.222  21.233  36.536  1.00  0.00     0.032 C 
ATOM     24  C   UNL A   1      50.892  20.771  35.855  1.00  0.00     0.006 C 
ATOM     25  C   UNL A   1      49.559  20.615  33.640  1.00  0.00     0.008 C 
ATOM     26  C   UNL A   1      51.962  19.997  33.748  1.00  0.00     0.012 C 
ATOM     27  C   UNL A   1      49.483  20.803  36.692  1.00  0.00    -0.025 C 
ATOM     28  C   UNL A   1      48.471  19.971  34.555  1.00  0.00     0.005 C 
ATOM     29  C   UNL A   1      49.583  19.570  37.637  1.00  0.00     0.012 C 
ATOM     30  C   UNL A   1      49.244  22.016  37.563  1.00  0.00     0.010 C 
ATOM     31  C   UNL A   1      48.220  20.851  35.769  1.00  0.00     0.003 C 
ATOM     32  C   UNL A   1      47.967  22.103  38.394  1.00  0.00     0.033 C 
ATOM     33  C   UNL A   1      46.802  20.826  36.530  1.00  0.00    -0.006 C 
ATOM     34  C   UNL A   1      46.744  22.045  37.505  1.00  0.00     0.120 C 
ATOM     35  C   UNL A   1      46.485  19.542  37.319  1.00  0.00     0.014 C 
ATOM     36  C   UNL A   1      45.636  21.027  35.535  1.00  0.00     0.014 C 
BRANCH  34  37
ATOM     37  O   UNL A   1      45.576  22.031  38.330  1.00  0.00    -0.393 OA
ATOM     38  H   UNL A   1      45.043  21.248  38.121  1.00  0.00     0.210 HD
ENDBRANCH  34  37
ENDBRANCH   5   8
ENDBRANCH   3   4
ENDBRANCH   2   3
ENDBRANCH   1   2
BRANCH   1  39
ATOM     39  C   UNL A   1      43.895  26.153  37.913  1.00  0.00     0.116 C 
BRANCH  39  40
ATOM     40  N   UNL A   1      42.825  25.212  37.635  1.00  0.00    -0.352 N 
ATOM     41  C   UNL A   1      42.310  24.921  36.396  1.00  0.00     0.251 C 
ATOM     42  H   UNL A   1      42.434  24.738  38.404  1.00  0.00     0.163 HD
ATOM     43  O   UNL A   1      41.122  24.557  36.300  1.00  0.00    -0.269 OA
BRANCH  41  44
ATOM     44  C   UNL A   1      43.148  25.070  35.188  1.00  0.00     0.039 A 
ATOM     45  C   UNL A   1      43.993  24.038  34.767  1.00  0.00     0.014 A 
ATOM     46  C   UNL A   1      43.113  26.270  34.474  1.00  0.00     0.014 A 
ATOM     47  C   UNL A   1      44.785  24.211  33.627  1.00  0.00     0.010 A 
ATOM     48  C   UNL A   1      43.802  26.391  33.275  1.00  0.00     0.010 A 
ATOM     49  C   UNL A   1      44.689  25.387  32.865  1.00  0.00    -0.014 A 
BRANCH  49  50
ATOM     50  C   UNL A   1      45.566  25.651  31.693  1.00  0.00     0.031 A 
ATOM     51  C   UNL A   1      45.269  24.964  30.380  1.00  0.00     0.074 A 
ATOM     52  C   UNL A   1      46.661  26.423  31.824  1.00  0.00     0.049 A 
ATOM     53  N   UNL A   1      45.968  24.937  29.275  1.00  0.00    -0.248 NA
ATOM     54  C   UNL A   1      44.049  24.142  30.332  1.00  0.00     0.031 C 
ATOM     55  C   UNL A   1      47.084  27.086  33.058  1.00  0.00     0.029 A 
ATOM     56  N   UNL A   1      47.628  26.770  30.913  1.00  0.00    -0.354 N 
ATOM     57  C   UNL A   1      45.294  24.064  28.424  1.00  0.00     0.074 A 
ATOM     58  C   UNL A   1      44.190  23.515  29.177  1.00  0.00     0.031 C 
ATOM     59  C   UNL A   1      48.207  27.784  32.820  1.00  0.00     0.029 A 
ATOM     60  C   UNL A   1      48.611  27.579  31.433  1.00  0.00     0.049 A 
ATOM     61  H   UNL A   1      47.618  26.467  29.977  1.00  0.00     0.167 HD
ATOM     62  C   UNL A   1      45.551  23.775  27.124  1.00  0.00     0.034 A 
ATOM     63  C   UNL A   1      49.719  28.087  30.858  1.00  0.00     0.034 A 
ATOM     64  C   UNL A   1      46.637  24.372  26.388  1.00  0.00     0.049 A 
ATOM     65  C   UNL A   1      49.980  27.779  29.406  1.00  0.00     0.074 A 
ATOM     66  C   UNL A   1      46.952  24.237  25.048  1.00  0.00     0.029 A 
ATOM     67  N   UNL A   1      47.594  25.219  26.939  1.00  0.00    -0.354 N 
ATOM     68  N   UNL A   1      49.294  27.011  28.589  1.00  0.00    -0.248 NA
ATOM     69  C   UNL A   1      51.153  28.414  28.795  1.00  0.00     0.031 C 
ATOM     70  C   UNL A   1      48.140  24.936  24.808  1.00  0.00     0.029 A 
ATOM     71  C   UNL A   1      48.522  25.581  25.975  1.00  0.00     0.049 A 
ATOM     72  H   UNL A   1      47.609  25.517  27.876  1.00  0.00     0.167 HD
ATOM     73  C   UNL A   1      49.943  27.086  27.360  1.00  0.00     0.074 A 
ATOM     74  C   UNL A   1      51.062  27.992  27.542  1.00  0.00     0.031 C 
ATOM     75  C   UNL A   1      49.644  26.469  26.187  1.00  0.00     0.034 A 
BRANCH  62  76
ATOM     76  C   UNL A   1      44.658  22.755  26.446  1.00  0.00     0.023 A 
ATOM     77  C   UNL A   1      45.126  21.475  26.090  1.00  0.00     0.031 A 
ATOM     78  C   UNL A   1      43.342  23.088  26.080  1.00  0.00     0.131 A 
ATOM     79  C   UNL A   1      44.337  20.632  25.293  1.00  0.00     0.055 A 
ATOM     80  C   UNL A   1      42.521  22.200  25.379  1.00  0.00     0.041 A 
ATOM     81  F   UNL A   1      42.836  24.298  26.371  1.00  0.00    -0.206 F 
ATOM     82  C   UNL A   1      43.026  20.974  24.958  1.00  0.00     0.022 A 
BRANCH  79  83
ATOM     83  S   UNL A   1      45.120  19.183  24.530  1.00  0.00     0.124 S 
ATOM     84  O   UNL A   1      44.529  19.201  23.193  1.00  0.00    -0.237 OA
ATOM     85  O   UNL A   1      46.539  19.516  24.605  1.00  0.00    -0.237 OA
ATOM     86  O   UNL A   1      44.690  18.074  25.377  1.00  0.00    -0.744 OA
ENDBRANCH  79  83
ENDBRANCH  62  76
BRANCH  63  87
ATOM     87  C   UNL A   1      50.653  28.934  31.656  1.00  0.00     0.023 A 
ATOM     88  C   UNL A   1      50.333  30.259  31.989  1.00  0.00     0.031 A 
ATOM     89  C   UNL A   1      51.880  28.417  32.113  1.00  0.00     0.131 A 
ATOM     90  C   UNL A   1      51.237  31.032  32.735  1.00  0.00     0.055 A 
ATOM     91  C   UNL A   1      52.754  29.174  32.895  1.00  0.00     0.041 A 
ATOM     92  F   UNL A   1      52.231  27.153  31.829  1.00  0.00    -0.206 F 
ATOM     93  C   UNL A   1      52.437  30.493  33.204  1.00  0.00     0.022 A 
BRANCH  90  94
ATOM     94  S   UNL A   1      50.845  32.775  33.048  1.00  0.00     0.124 S 
ATOM     95  O   UNL A   1      51.328  32.948  34.413  1.00  0.00    -0.237 OA
ATOM     96  O   UNL A   1      51.611  33.451  32.006  1.00  0.00    -0.237 OA
ATOM     97  O   UNL A   1      49.394  32.832  32.887  1.00  0.00    -0.744 OA
ENDBRANCH  90  94
ENDBRANCH  63  87
BRANCH  75  98
ATOM     98  C   UNL A   1      50.530  26.778  25.005  1.00  0.00     0.023 A 
ATOM     99  C   UNL A   1      50.100  27.616  23.962  1.00  0.00     0.031 A 
ATOM    100  C   UNL A   1      51.821  26.227  24.923  1.00  0.00     0.131 A 
ATOM    101  C   UNL A   1      50.932  27.831  22.853  1.00  0.00     0.055 A 
ATOM    102  C   UNL A   1      52.670  26.501  23.852  1.00  0.00     0.041 A 
ATOM    103  F   UNL A   1      52.281  25.417  25.890  1.00  0.00    -0.206 F 
ATOM    104  C   UNL A   1      52.222  27.295  22.801  1.00  0.00     0.022 A 
BRANCH 101 105
ATOM    105  S   UNL A   1      50.263  28.732  21.429  1.00  0.00     0.124 S 
ATOM    106  O   UNL A   1      50.817  27.979  20.308  1.00  0.00    -0.237 OA
ATOM    107  O   UNL A   1      48.823  28.612  21.630  1.00  0.00    -0.237 OA
ATOM    108  O   UNL A   1      50.802  30.082  21.595  1.00  0.00    -0.744 OA
ENDBRANCH 101 105
ENDBRANCH  75  98
ENDBRANCH  49  50
ENDBRANCH  41  44
ENDBRANCH  39  40
ENDBRANCH   1  39
TORSDOF 15
ENDMDL
MODEL 2
REMARK VINA RESULT:     -10.3      2.105      7.896
REMARK SMILES CC1(C)CC[C@@]2(C(=O)NCCCCNC(=O)c3ccc(-c4c5nc(c(-c6cc(S(=O)(=O)[O-])ccc6F)c6ccc([nH]6)c(-c6cc(S(=O)(=O)[O-])ccc6F)c6nc(c(-c7cc(S(=O)(=O)[O-])ccc7F)c7ccc4[nH]7)C=C6)C=C5)cc3)CC[C@@]3(C)C(=CC[C@H]4[C@@]5(C)CC[C@H](O)C(C)(C)[C@@H]5CC[C@]43C)[C@@H]2C1
REMARK SMILES IDX 12 1 11 2 10 3 9 4 7 5 8 6 6 8 1 9 2 10 3 11 4 12 103 13
REMARK SMILES IDX 5 14 102 15 84 16 80 17 82 18 85 19 81 20 83 21 100 22 86 23
REMARK SMILES IDX 87 24 99 25 101 26 88 27 98 28 89 29 90 30 97 31 91 32 94 33
REMARK SMILES IDX 92 34 95 35 96 36 93 37 13 39 14 40 15 41 16 43 17 44 18 45
REMARK SMILES IDX 79 46 19 47 78 48 20 49 21 50 22 51 72 52 23 53 77 54 71 55
REMARK SMILES IDX 73 56 24 57 76 58 70 59 69 60 25 62 57 63 37 64 56 65 38 66
REMARK SMILES IDX 41 67 55 68 74 69 39 70 40 71 54 73 75 74 42 75 26 76 27 77
REMARK SMILES IDX 35 78 28 79 34 80 36 81 33 82 29 83 30 84 31 85 32 86 58 87
REMARK SMILES IDX 59 88 67 89 60 90 66 91 68 92 65 93 61 94 62 95 63 96 64 97
REMARK SMILES IDX 43 98 44 99 52 100 45 101 51 102 53 103 50 104 46 105 47 106
REMARK SMILES IDX 48 107 49 108
REMARK H PARENT 9 7 93 38 14 42 73 61 41 72
REMARK Flexibility Score: inf
ROOT
ATOM      1  C   UNL A   1      51.602  29.098  36.612  1.00  0.00     0.023 C 
ENDROOT
BRANCH   1   2
ATOM      2  C   UNL A   1      50.775  27.897  36.120  1.00  0.00     0.023 C 
BRANCH   2   3
ATOM      3  C   UNL A   1      50.105  26.920  37.099  1.00  0.00     0.116 C 
BRANCH   3   4
ATOM      4  N   UNL A   1      49.905  25.510  36.862  1.00  0.00    -0.356 N 
ATOM      5  C   UNL A   1      50.253  24.445  37.693  1.00  0.00     0.226 C 
ATOM      6  O   UNL A   1      51.366  24.360  38.212  1.00  0.00    -0.274 OA
ATOM      7  H   UNL A   1      49.470  25.271  36.011  1.00  0.00     0.163 HD
BRANCH   5   8
ATOM      8  C   UNL A   1      49.085  23.468  38.109  1.00  0.00     0.056 C 
ATOM      9  C   UNL A   1      45.834  25.652  39.196  1.00  0.00     0.011 C 
ATOM     10  C   UNL A   1      47.165  25.781  38.426  1.00  0.00    -0.035 C 
ATOM     11  C   UNL A   1      47.260  27.300  38.069  1.00  0.00     0.011 C 
ATOM     12  C   UNL A   1      48.287  25.470  39.434  1.00  0.00     0.007 C 
ATOM     13  C   UNL A   1      47.148  24.835  37.114  1.00  0.00     0.015 C 
ATOM     14  C   UNL A   1      48.614  23.992  39.485  1.00  0.00     0.018 C 
ATOM     15  C   UNL A   1      47.933  23.434  37.085  1.00  0.00     0.031 C 
ATOM     16  C   UNL A   1      48.586  22.851  35.738  1.00  0.00    -0.064 C 
ATOM     17  C   UNL A   1      49.495  22.000  38.361  1.00  0.00     0.018 C 
ATOM     18  C   UNL A   1      49.452  21.531  35.789  1.00  0.00    -0.006 C 
ATOM     19  C   UNL A   1      48.521  23.529  34.580  1.00  0.00    -0.027 C 
ATOM     20  C   UNL A   1      50.141  21.341  37.160  1.00  0.00     0.013 C 
ATOM     21  C   UNL A   1      48.347  20.417  35.686  1.00  0.00     0.017 C 
ATOM     22  C   UNL A   1      50.593  21.350  34.553  1.00  0.00    -0.020 C 
ATOM     23  C   UNL A   1      49.595  23.489  33.525  1.00  0.00     0.032 C 
ATOM     24  C   UNL A   1      50.914  22.712  33.845  1.00  0.00     0.006 C 
ATOM     25  C   UNL A   1      51.947  20.587  34.905  1.00  0.00     0.008 C 
ATOM     26  C   UNL A   1      49.969  20.454  33.409  1.00  0.00     0.012 C 
ATOM     27  C   UNL A   1      52.298  23.532  34.158  1.00  0.00    -0.025 C 
ATOM     28  C   UNL A   1      53.293  21.254  34.482  1.00  0.00     0.005 C 
ATOM     29  C   UNL A   1      52.768  24.019  32.755  1.00  0.00     0.012 C 
ATOM     30  C   UNL A   1      52.173  24.756  35.037  1.00  0.00     0.010 C 
ATOM     31  C   UNL A   1      53.340  22.693  34.970  1.00  0.00     0.003 C 
ATOM     32  C   UNL A   1      53.415  25.587  35.348  1.00  0.00     0.033 C 
ATOM     33  C   UNL A   1      54.745  23.422  35.260  1.00  0.00    -0.006 C 
ATOM     34  C   UNL A   1      54.463  24.745  36.043  1.00  0.00     0.120 C 
ATOM     35  C   UNL A   1      55.601  23.751  34.022  1.00  0.00     0.014 C 
ATOM     36  C   UNL A   1      55.633  22.565  36.190  1.00  0.00     0.014 C 
BRANCH  34  37
ATOM     37  O   UNL A   1      55.640  25.535  36.226  1.00  0.00    -0.393 OA
ATOM     38  H   UNL A   1      56.282  25.324  35.530  1.00  0.00     0.210 HD
ENDBRANCH  34  37
ENDBRANCH   5   8
ENDBRANCH   3   4
ENDBRANCH   2   3
ENDBRANCH   1   2
BRANCH   1  39
ATOM     39  C   UNL A   1      53.071  29.071  36.237  1.00  0.00     0.116 C 
BRANCH  39  40
ATOM     40  N   UNL A   1      53.414  30.278  35.506  1.00  0.00    -0.352 N 
ATOM     41  C   UNL A   1      53.317  30.451  34.148  1.00  0.00     0.251 C 
ATOM     42  H   UNL A   1      53.745  31.041  36.032  1.00  0.00     0.163 HD
ATOM     43  O   UNL A   1      54.090  31.247  33.579  1.00  0.00    -0.269 OA
BRANCH  41  44
ATOM     44  C   UNL A   1      52.328  29.678  33.367  1.00  0.00     0.039 A 
ATOM     45  C   UNL A   1      51.123  30.258  32.959  1.00  0.00     0.014 A 
ATOM     46  C   UNL A   1      52.594  28.343  33.058  1.00  0.00     0.014 A 
ATOM     47  C   UNL A   1      50.198  29.500  32.232  1.00  0.00     0.010 A 
ATOM     48  C   UNL A   1      51.735  27.633  32.230  1.00  0.00     0.010 A 
ATOM     49  C   UNL A   1      50.502  28.182  31.853  1.00  0.00    -0.014 A 
BRANCH  49  50
ATOM     50  C   UNL A   1      49.523  27.309  31.150  1.00  0.00     0.031 A 
ATOM     51  C   UNL A   1      49.660  27.099  29.661  1.00  0.00     0.074 A 
ATOM     52  C   UNL A   1      48.477  26.786  31.818  1.00  0.00     0.049 A 
ATOM     53  N   UNL A   1      48.853  26.498  28.825  1.00  0.00    -0.248 NA
ATOM     54  C   UNL A   1      50.836  27.707  29.018  1.00  0.00     0.031 C 
ATOM     55  C   UNL A   1      48.206  26.974  33.244  1.00  0.00     0.029 A 
ATOM     56  N   UNL A   1      47.438  26.002  31.384  1.00  0.00    -0.354 N 
ATOM     57  C   UNL A   1      49.403  26.696  27.560  1.00  0.00     0.074 A 
ATOM     58  C   UNL A   1      50.555  27.551  27.736  1.00  0.00     0.031 C 
ATOM     59  C   UNL A   1      47.093  26.299  33.573  1.00  0.00     0.029 A 
ATOM     60  C   UNL A   1      46.544  25.671  32.375  1.00  0.00     0.049 A 
ATOM     61  H   UNL A   1      47.342  25.704  30.451  1.00  0.00     0.167 HD
ATOM     62  C   UNL A   1      49.007  26.184  26.368  1.00  0.00     0.034 A 
ATOM     63  C   UNL A   1      45.405  24.953  32.321  1.00  0.00     0.034 A 
ATOM     64  C   UNL A   1      47.877  25.299  26.234  1.00  0.00     0.049 A 
ATOM     65  C   UNL A   1      44.988  24.368  30.996  1.00  0.00     0.074 A 
ATOM     66  C   UNL A   1      47.424  24.640  25.106  1.00  0.00     0.029 A 
ATOM     67  N   UNL A   1      47.013  24.955  27.269  1.00  0.00    -0.354 N 
ATOM     68  N   UNL A   1      45.558  24.500  29.819  1.00  0.00    -0.248 NA
ATOM     69  C   UNL A   1      43.785  23.528  30.993  1.00  0.00     0.031 C 
ATOM     70  C   UNL A   1      46.246  23.963  25.440  1.00  0.00     0.029 A 
ATOM     71  C   UNL A   1      46.008  24.125  26.797  1.00  0.00     0.049 A 
ATOM     72  H   UNL A   1      47.103  25.258  28.201  1.00  0.00     0.167 HD
ATOM     73  C   UNL A   1      44.792  23.742  28.937  1.00  0.00     0.074 A 
ATOM     74  C   UNL A   1      43.734  23.141  29.726  1.00  0.00     0.031 C 
ATOM     75  C   UNL A   1      44.948  23.556  27.600  1.00  0.00     0.034 A 
BRANCH  62  76
ATOM     76  C   UNL A   1      49.786  26.596  25.136  1.00  0.00     0.023 A 
ATOM     77  C   UNL A   1      49.210  27.378  24.117  1.00  0.00     0.031 A 
ATOM     78  C   UNL A   1      51.102  26.142  24.938  1.00  0.00     0.131 A 
ATOM     79  C   UNL A   1      49.892  27.576  22.908  1.00  0.00     0.055 A 
ATOM     80  C   UNL A   1      51.819  26.434  23.773  1.00  0.00     0.041 A 
ATOM     81  F   UNL A   1      51.708  25.376  25.860  1.00  0.00    -0.206 F 
ATOM     82  C   UNL A   1      51.205  27.133  22.739  1.00  0.00     0.022 A 
BRANCH  79  83
ATOM     83  S   UNL A   1      48.968  28.234  21.491  1.00  0.00     0.124 S 
ATOM     84  O   UNL A   1      49.771  29.402  21.133  1.00  0.00    -0.237 OA
ATOM     85  O   UNL A   1      49.005  27.121  20.547  1.00  0.00    -0.237 OA
ATOM     86  O   UNL A   1      47.654  28.539  22.049  1.00  0.00    -0.744 OA
ENDBRANCH  79  83
ENDBRANCH  62  76
BRANCH  63  87
ATOM     87  C   UNL A   1      44.590  24.751  33.553  1.00  0.00     0.023 A 
ATOM     88  C   UNL A   1      43.656  25.710  33.976  1.00  0.00     0.031 A 
ATOM     89  C   UNL A   1      44.723  23.578  34.320  1.00  0.00     0.131 A 
ATOM     90  C   UNL A   1      42.909  25.492  35.146  1.00  0.00     0.055 A 
ATOM     91  C   UNL A   1      43.945  23.345  35.455  1.00  0.00     0.041 A 
ATOM     92  F   UNL A   1      45.596  22.626  33.956  1.00  0.00    -0.206 F 
ATOM     93  C   UNL A   1      43.035  24.309  35.878  1.00  0.00     0.022 A 
BRANCH  90  94
ATOM     94  S   UNL A   1      41.797  26.802  35.728  1.00  0.00     0.124 S 
ATOM     95  O   UNL A   1      41.279  27.332  34.472  1.00  0.00    -0.237 OA
ATOM     96  O   UNL A   1      40.850  26.054  36.549  1.00  0.00    -0.237 OA
ATOM     97  O   UNL A   1      42.684  27.699  36.466  1.00  0.00    -0.744 OA
ENDBRANCH  90  94
ENDBRANCH  63  87
BRANCH  75  98
ATOM     98  C   UNL A   1      43.961  22.642  26.917  1.00  0.00     0.023 A 
ATOM     99  C   UNL A   1      44.325  21.353  26.489  1.00  0.00     0.031 A 
ATOM    100  C   UNL A   1      42.640  23.067  26.691  1.00  0.00     0.131 A 
ATOM    101  C   UNL A   1      43.393  20.558  25.805  1.00  0.00     0.055 A 
ATOM    102  C   UNL A   1      41.699  22.244  26.074  1.00  0.00     0.041 A 
ATOM    103  F   UNL A   1      42.240  24.289  27.077  1.00  0.00    -0.206 F 
ATOM    104  C   UNL A   1      42.078  20.987  25.613  1.00  0.00     0.022 A 
BRANCH 101 105
ATOM    105  S   UNL A   1      43.958  18.997  25.075  1.00  0.00     0.124 S 
ATOM    106  O   UNL A   1      42.850  18.099  25.388  1.00  0.00    -0.237 OA
ATOM    107  O   UNL A   1      44.116  19.349  23.668  1.00  0.00    -0.237 OA
ATOM    108  O   UNL A   1      45.203  18.717  25.788  1.00  0.00    -0.744 OA
ENDBRANCH 101 105
ENDBRANCH  75  98
ENDBRANCH  49  50
ENDBRANCH  41  44
ENDBRANCH  39  40
ENDBRANCH   1  39
TORSDOF 15
ENDMDL
MODEL 3
REMARK VINA RESULT:     -10.2     10.605     15.863
REMARK SMILES CC1(C)CC[C@@]2(C(=O)NCCCCNC(=O)c3ccc(-c4c5nc(c(-c6cc(S(=O)(=O)[O-])ccc6F)c6ccc([nH]6)c(-c6cc(S(=O)(=O)[O-])ccc6F)c6nc(c(-c7cc(S(=O)(=O)[O-])ccc7F)c7ccc4[nH]7)C=C6)C=C5)cc3)CC[C@@]3(C)C(=CC[C@H]4[C@@]5(C)CC[C@H](O)C(C)(C)[C@@H]5CC[C@]43C)[C@@H]2C1
REMARK SMILES IDX 12 1 11 2 10 3 9 4 7 5 8 6 6 8 1 9 2 10 3 11 4 12 103 13
REMARK SMILES IDX 5 14 102 15 84 16 80 17 82 18 85 19 81 20 83 21 100 22 86 23
REMARK SMILES IDX 87 24 99 25 101 26 88 27 98 28 89 29 90 30 97 31 91 32 94 33
REMARK SMILES IDX 92 34 95 35 96 36 93 37 13 39 14 40 15 41 16 43 17 44 18 45
REMARK SMILES IDX 79 46 19 47 78 48 20 49 21 50 22 51 72 52 23 53 77 54 71 55
REMARK SMILES IDX 73 56 24 57 76 58 70 59 69 60 25 62 57 63 37 64 56 65 38 66
REMARK SMILES IDX 41 67 55 68 74 69 39 70 40 71 54 73 75 74 42 75 26 76 27 77
REMARK SMILES IDX 35 78 28 79 34 80 36 81 33 82 29 83 30 84 31 85 32 86 58 87
REMARK SMILES IDX 59 88 67 89 60 90 66 91 68 92 65 93 61 94 62 95 63 96 64 97
REMARK SMILES IDX 43 98 44 99 52 100 45 101 51 102 53 103 50 104 46 105 47 106
REMARK SMILES IDX 48 107 49 108
REMARK H PARENT 9 7 93 38 14 42 73 61 41 72
REMARK Flexibility Score: inf
ROOT
ATOM      1  C   UNL A   1      43.740  29.318  30.343  1.00  0.00     0.023 C 
ENDROOT
BRANCH   1   2
ATOM      2  C   UNL A   1      42.771  29.630  31.496  1.00  0.00     0.023 C 
BRANCH   2   3
ATOM      3  C   UNL A   1      42.351  31.069  31.834  1.00  0.00     0.116 C 
BRANCH   3   4
ATOM      4  N   UNL A   1      41.153  31.441  32.550  1.00  0.00    -0.356 N 
ATOM      5  C   UNL A   1      40.299  30.611  33.277  1.00  0.00     0.226 C 
ATOM      6  O   UNL A   1      39.886  29.544  32.825  1.00  0.00    -0.274 OA
ATOM      7  H   UNL A   1      40.910  32.395  32.520  1.00  0.00     0.163 HD
BRANCH   5   8
ATOM      8  C   UNL A   1      40.060  31.003  34.788  1.00  0.00     0.056 C 
ATOM      9  C   UNL A   1      43.650  31.511  36.626  1.00  0.00     0.011 C 
ATOM     10  C   UNL A   1      43.019  31.443  35.219  1.00  0.00    -0.035 C 
ATOM     11  C   UNL A   1      44.240  31.495  34.245  1.00  0.00     0.011 C 
ATOM     12  C   UNL A   1      42.383  30.047  35.091  1.00  0.00     0.007 C 
ATOM     13  C   UNL A   1      41.999  32.678  35.001  1.00  0.00     0.015 C 
ATOM     14  C   UNL A   1      40.952  30.025  35.587  1.00  0.00     0.018 C 
ATOM     15  C   UNL A   1      40.407  32.473  35.093  1.00  0.00     0.031 C 
ATOM     16  C   UNL A   1      39.384  33.339  34.207  1.00  0.00    -0.064 C 
ATOM     17  C   UNL A   1      38.631  30.767  35.324  1.00  0.00     0.018 C 
ATOM     18  C   UNL A   1      37.840  33.014  34.245  1.00  0.00    -0.006 C 
ATOM     19  C   UNL A   1      39.823  34.259  33.332  1.00  0.00    -0.027 C 
ATOM     20  C   UNL A   1      37.567  31.523  34.556  1.00  0.00     0.013 C 
ATOM     21  C   UNL A   1      37.369  33.826  35.507  1.00  0.00     0.017 C 
ATOM     22  C   UNL A   1      36.955  33.477  32.879  1.00  0.00    -0.020 C 
ATOM     23  C   UNL A   1      39.122  34.587  32.041  1.00  0.00     0.032 C 
ATOM     24  C   UNL A   1      37.880  33.727  31.637  1.00  0.00     0.006 C 
ATOM     25  C   UNL A   1      35.714  32.570  32.461  1.00  0.00     0.008 C 
ATOM     26  C   UNL A   1      36.287  34.884  33.156  1.00  0.00     0.012 C 
ATOM     27  C   UNL A   1      37.996  32.630  30.425  1.00  0.00    -0.025 C 
ATOM     28  C   UNL A   1      35.600  32.132  30.967  1.00  0.00     0.005 C 
ATOM     29  C   UNL A   1      37.980  33.499  29.133  1.00  0.00     0.012 C 
ATOM     30  C   UNL A   1      39.257  31.796  30.388  1.00  0.00     0.010 C 
ATOM     31  C   UNL A   1      36.906  31.509  30.503  1.00  0.00     0.003 C 
ATOM     32  C   UNL A   1      39.449  30.774  29.271  1.00  0.00     0.033 C 
ATOM     33  C   UNL A   1      36.930  30.432  29.307  1.00  0.00    -0.006 C 
ATOM     34  C   UNL A   1      38.336  29.750  29.285  1.00  0.00     0.120 C 
ATOM     35  C   UNL A   1      36.623  30.981  27.901  1.00  0.00     0.014 C 
ATOM     36  C   UNL A   1      35.915  29.295  29.565  1.00  0.00     0.014 C 
BRANCH  34  37
ATOM     37  O   UNL A   1      38.502  28.874  28.168  1.00  0.00    -0.393 OA
ATOM     38  H   UNL A   1      39.423  28.909  27.865  1.00  0.00     0.210 HD
ENDBRANCH  34  37
ENDBRANCH   5   8
ENDBRANCH   3   4
ENDBRANCH   2   3
ENDBRANCH   1   2
BRANCH   1  39
ATOM     39  C   UNL A   1      43.156  29.454  28.950  1.00  0.00     0.116 C 
BRANCH  39  40
ATOM     40  N   UNL A   1      44.201  29.270  27.959  1.00  0.00    -0.352 N 
ATOM     41  C   UNL A   1      44.796  30.264  27.222  1.00  0.00     0.251 C 
ATOM     42  H   UNL A   1      44.512  28.349  27.801  1.00  0.00     0.163 HD
ATOM     43  O   UNL A   1      45.246  29.997  26.090  1.00  0.00    -0.269 OA
BRANCH  41  44
ATOM     44  C   UNL A   1      44.871  31.641  27.753  1.00  0.00     0.039 A 
ATOM     45  C   UNL A   1      46.083  32.172  28.205  1.00  0.00     0.014 A 
ATOM     46  C   UNL A   1      43.708  32.411  27.827  1.00  0.00     0.014 A 
ATOM     47  C   UNL A   1      46.124  33.474  28.716  1.00  0.00     0.010 A 
ATOM     48  C   UNL A   1      43.774  33.742  28.214  1.00  0.00     0.010 A 
ATOM     49  C   UNL A   1      44.969  34.275  28.715  1.00  0.00    -0.014 A 
BRANCH  49  50
ATOM     50  C   UNL A   1      44.942  35.634  29.319  1.00  0.00     0.031 A 
ATOM     51  C   UNL A   1      44.625  35.781  30.788  1.00  0.00     0.074 A 
ATOM     52  C   UNL A   1      45.110  36.724  28.546  1.00  0.00     0.049 A 
ATOM     53  N   UNL A   1      44.414  36.863  31.492  1.00  0.00    -0.248 NA
ATOM     54  C   UNL A   1      44.461  34.533  31.552  1.00  0.00     0.031 C 
ATOM     55  C   UNL A   1      45.357  36.707  27.104  1.00  0.00     0.029 A 
ATOM     56  N   UNL A   1      45.083  38.059  28.862  1.00  0.00    -0.354 N 
ATOM     57  C   UNL A   1      44.049  36.421  32.763  1.00  0.00     0.074 A 
ATOM     58  C   UNL A   1      43.978  34.979  32.699  1.00  0.00     0.031 C 
ATOM     59  C   UNL A   1      45.490  37.969  26.666  1.00  0.00     0.029 A 
ATOM     60  C   UNL A   1      45.289  38.886  27.783  1.00  0.00     0.049 A 
ATOM     61  H   UNL A   1      44.931  38.393  29.775  1.00  0.00     0.167 HD
ATOM     62  C   UNL A   1      43.831  37.148  33.887  1.00  0.00     0.034 A 
ATOM     63  C   UNL A   1      45.301  40.231  27.703  1.00  0.00     0.034 A 
ATOM     64  C   UNL A   1      43.951  38.584  33.927  1.00  0.00     0.049 A 
ATOM     65  C   UNL A   1      45.082  41.028  28.964  1.00  0.00     0.074 A 
ATOM     66  C   UNL A   1      43.847  39.431  35.015  1.00  0.00     0.029 A 
ATOM     67  N   UNL A   1      44.198  39.388  32.819  1.00  0.00    -0.354 N 
ATOM     68  N   UNL A   1      44.812  40.597  30.175  1.00  0.00    -0.248 NA
ATOM     69  C   UNL A   1      45.180  42.487  28.850  1.00  0.00     0.031 C 
ATOM     70  C   UNL A   1      43.951  40.748  34.554  1.00  0.00     0.029 A 
ATOM     71  C   UNL A   1      44.209  40.724  33.191  1.00  0.00     0.049 A 
ATOM     72  H   UNL A   1      44.343  39.057  31.904  1.00  0.00     0.167 HD
ATOM     73  C   UNL A   1      44.728  41.734  30.975  1.00  0.00     0.074 A 
ATOM     74  C   UNL A   1      44.998  42.865  30.107  1.00  0.00     0.031 C 
ATOM     75  C   UNL A   1      44.457  41.837  32.302  1.00  0.00     0.034 A 
BRANCH  62  76
ATOM     76  C   UNL A   1      43.416  36.396  35.136  1.00  0.00     0.023 A 
ATOM     77  C   UNL A   1      42.072  36.316  35.545  1.00  0.00     0.031 A 
ATOM     78  C   UNL A   1      44.384  35.812  35.971  1.00  0.00     0.131 A 
ATOM     79  C   UNL A   1      41.747  35.783  36.802  1.00  0.00     0.055 A 
ATOM     80  C   UNL A   1      44.042  35.184  37.173  1.00  0.00     0.041 A 
ATOM     81  F   UNL A   1      45.687  35.866  35.653  1.00  0.00    -0.206 F 
ATOM     82  C   UNL A   1      42.721  35.190  37.607  1.00  0.00     0.022 A 
BRANCH  79  83
ATOM     83  S   UNL A   1      40.077  36.062  37.455  1.00  0.00     0.124 S 
ATOM     84  O   UNL A   1      40.315  37.132  38.421  1.00  0.00    -0.237 OA
ATOM     85  O   UNL A   1      39.330  36.439  36.258  1.00  0.00    -0.237 OA
ATOM     86  O   UNL A   1      39.716  34.774  38.038  1.00  0.00    -0.744 OA
ENDBRANCH  79  83
ENDBRANCH  62  76
BRANCH  63  87
ATOM     87  C   UNL A   1      45.530  40.899  26.388  1.00  0.00     0.023 A 
ATOM     88  C   UNL A   1      44.467  41.438  25.648  1.00  0.00     0.031 A 
ATOM     89  C   UNL A   1      46.830  41.023  25.861  1.00  0.00     0.131 A 
ATOM     90  C   UNL A   1      44.716  42.054  24.411  1.00  0.00     0.055 A 
ATOM     91  C   UNL A   1      47.078  41.678  24.654  1.00  0.00     0.041 A 
ATOM     92  F   UNL A   1      47.884  40.532  26.533  1.00  0.00    -0.206 F 
ATOM     93  C   UNL A   1      46.015  42.192  23.918  1.00  0.00     0.022 A 
BRANCH  90  94
ATOM     94  S   UNL A   1      43.308  42.635  23.425  1.00  0.00     0.124 S 
ATOM     95  O   UNL A   1      43.797  42.442  22.065  1.00  0.00    -0.237 OA
ATOM     96  O   UNL A   1      42.243  41.736  23.858  1.00  0.00    -0.237 OA
ATOM     97  O   UNL A   1      43.152  44.027  23.842  1.00  0.00    -0.744 OA
ENDBRANCH  90  94
ENDBRANCH  63  87
BRANCH  75  98
ATOM     98  C   UNL A   1      44.467  43.224  32.896  1.00  0.00     0.023 A 
ATOM     99  C   UNL A   1      45.556  43.695  33.650  1.00  0.00     0.031 A 
ATOM    100  C   UNL A   1      43.372  44.085  32.705  1.00  0.00     0.131 A 
ATOM    101  C   UNL A   1      45.499  44.969  34.235  1.00  0.00     0.055 A 
ATOM    102  C   UNL A   1      43.353  45.376  33.230  1.00  0.00     0.041 A 
ATOM    103  F   UNL A   1      42.304  43.685  31.996  1.00  0.00    -0.206 F 
ATOM    104  C   UNL A   1      44.414  45.820  34.013  1.00  0.00     0.022 A 
BRANCH 101 105
ATOM    105  S   UNL A   1      46.818  45.456  35.380  1.00  0.00     0.124 S 
ATOM    106  O   UNL A   1      46.460  44.714  36.586  1.00  0.00    -0.237 OA
ATOM    107  O   UNL A   1      48.019  45.004  34.685  1.00  0.00    -0.237 OA
ATOM    108  O   UNL A   1      46.667  46.907  35.478  1.00  0.00    -0.744 OA
ENDBRANCH 101 105
ENDBRANCH  75  98
ENDBRANCH  49  50
ENDBRANCH  41  44
ENDBRANCH  39  40
ENDBRANCH   1  39
TORSDOF 15
ENDMDL
