MODEL 1
REMARK VINA RESULT:     -11.8      0.000      0.000
REMARK SMILES COCC[C@@H](C)NC(=O)N1Cc2nc[nH]c2C[C@@H]1C(=O)NCCCCNC(=O)c1ccc(-c2c3nc(c(-c4cc(S(=O)(=O)[O-])ccc4F)c4ccc([nH]4)c(-c4cc(S(=O)(=O)[O-])ccc4F)c4nc(c(-c5cc(S(=O)(=O)[O-])ccc5F)c5ccc2[nH]5)C=C4)C=C3)cc1
REMARK SMILES IDX 22 1 21 2 19 3 20 4 18 6 10 7 11 8 12 9 17 10 13 11 16 12
REMARK SMILES IDX 14 13 15 14 8 16 7 17 9 19 5 20 6 21 4 22 3 23 2 24 1 25
REMARK SMILES IDX 23 26 24 27 25 28 26 29 27 30 28 32 29 33 30 34 91 35 31 36
REMARK SMILES IDX 90 37 32 38 33 39 34 40 84 41 35 42 89 43 83 44 85 45 36 46
REMARK SMILES IDX 88 47 82 48 81 49 37 51 69 52 49 53 68 54 50 55 53 56 67 57
REMARK SMILES IDX 86 58 51 59 52 60 66 62 87 63 54 64 38 65 39 66 47 67 40 68
REMARK SMILES IDX 46 69 48 70 45 71 41 72 42 73 43 74 44 75 70 76 71 77 79 78
REMARK SMILES IDX 72 79 78 80 80 81 77 82 73 83 74 84 75 85 76 86 55 87 56 88
REMARK SMILES IDX 64 89 57 90 63 91 65 92 62 93 58 94 59 95 60 96 61 97
REMARK H PARENT 21 5 15 15 7 18 26 31 85 50 53 61
REMARK Flexibility Score: inf
ROOT
ATOM      1  C   UNL A   1      33.951  26.590  25.892  1.00  0.00     0.116 C 
ENDROOT
BRANCH   1   2
ATOM      2  N   UNL A   1      34.032  26.440  24.444  1.00  0.00    -0.354 N 
ATOM      3  C   UNL A   1      34.006  25.340  23.631  1.00  0.00     0.243 C 
ATOM      4  O   UNL A   1      34.048  25.547  22.414  1.00  0.00    -0.273 OA
ATOM      5  H   UNL A   1      34.124  27.293  23.959  1.00  0.00     0.163 HD
BRANCH   3   6
ATOM      6  C   UNL A   1      33.938  23.902  24.195  1.00  0.00     0.182 C 
ATOM      7  N   UNL A   1      35.214  23.198  24.602  1.00  0.00    -0.306 N 
ATOM      8  C   UNL A   1      35.034  21.854  25.207  1.00  0.00     0.180 C 
ATOM      9  C   UNL A   1      33.941  21.105  24.519  1.00  0.00     0.081 A 
ATOM     10  C   UNL A   1      33.144  23.070  23.136  1.00  0.00     0.091 C 
ATOM     11  N   UNL A   1      33.591  19.801  24.762  1.00  0.00    -0.240 NA
ATOM     12  C   UNL A   1      33.083  21.665  23.603  1.00  0.00     0.042 A 
ATOM     13  C   UNL A   1      32.560  19.572  23.973  1.00  0.00     0.197 A 
ATOM     14  N   UNL A   1      32.214  20.682  23.245  1.00  0.00    -0.348 N 
ATOM     15  H   UNL A   1      31.480  20.752  22.591  1.00  0.00     0.167 HD
BRANCH   7  16
ATOM     16  C   UNL A   1      36.371  23.348  23.871  1.00  0.00     0.318 C 
ATOM     17  N   UNL A   1      37.525  23.551  24.564  1.00  0.00    -0.335 N 
ATOM     18  H   UNL A   1      38.302  23.820  24.021  1.00  0.00     0.165 HD
ATOM     19  O   UNL A   1      36.448  23.148  22.660  1.00  0.00    -0.249 OA
BRANCH  17  20
ATOM     20  C   UNL A   1      37.776  23.425  25.994  1.00  0.00     0.083 C 
ATOM     21  C   UNL A   1      38.653  24.589  26.461  1.00  0.00     0.031 C 
BRANCH  20  22
ATOM     22  C   UNL A   1      38.400  22.054  26.323  1.00  0.00     0.053 C 
BRANCH  22  23
ATOM     23  C   UNL A   1      39.925  22.110  26.475  1.00  0.00     0.162 C 
BRANCH  23  24
ATOM     24  O   UNL A   1      40.724  21.018  26.018  1.00  0.00    -0.385 OA
ATOM     25  C   UNL A   1      41.397  20.215  26.967  1.00  0.00     0.194 C 
ENDBRANCH  23  24
ENDBRANCH  22  23
ENDBRANCH  20  22
ENDBRANCH  17  20
ENDBRANCH   7  16
ENDBRANCH   3   6
ENDBRANCH   1   2
BRANCH   1  26
ATOM     26  C   UNL A   1      32.905  27.618  26.337  1.00  0.00     0.023 C 
BRANCH  26  27
ATOM     27  C   UNL A   1      33.396  28.769  27.224  1.00  0.00     0.023 C 
BRANCH  27  28
ATOM     28  C   UNL A   1      34.905  28.846  27.371  1.00  0.00     0.116 C 
BRANCH  28  29
ATOM     29  N   UNL A   1      35.339  29.801  28.393  1.00  0.00    -0.352 N 
ATOM     30  C   UNL A   1      36.561  29.814  29.046  1.00  0.00     0.251 C 
ATOM     31  H   UNL A   1      34.697  30.506  28.641  1.00  0.00     0.163 HD
ATOM     32  O   UNL A   1      36.728  30.431  30.091  1.00  0.00    -0.269 OA
BRANCH  30  33
ATOM     33  C   UNL A   1      37.642  29.029  28.432  1.00  0.00     0.039 A 
ATOM     34  C   UNL A   1      38.399  29.560  27.390  1.00  0.00     0.014 A 
ATOM     35  C   UNL A   1      38.056  27.896  29.126  1.00  0.00     0.014 A 
ATOM     36  C   UNL A   1      39.667  29.028  27.152  1.00  0.00     0.010 A 
ATOM     37  C   UNL A   1      39.362  27.477  28.978  1.00  0.00     0.010 A 
ATOM     38  C   UNL A   1      40.190  28.030  27.998  1.00  0.00    -0.014 A 
BRANCH  38  39
ATOM     39  C   UNL A   1      41.622  27.685  27.930  1.00  0.00     0.031 A 
ATOM     40  C   UNL A   1      41.986  26.423  27.207  1.00  0.00     0.074 A 
ATOM     41  C   UNL A   1      42.646  28.478  28.320  1.00  0.00     0.049 A 
ATOM     42  N   UNL A   1      42.456  25.334  27.722  1.00  0.00    -0.248 NA
ATOM     43  C   UNL A   1      41.735  26.325  25.761  1.00  0.00     0.031 C 
ATOM     44  C   UNL A   1      42.618  29.853  28.826  1.00  0.00     0.029 A 
ATOM     45  N   UNL A   1      43.985  28.214  28.256  1.00  0.00    -0.354 N 
ATOM     46  C   UNL A   1      42.752  24.479  26.663  1.00  0.00     0.074 A 
ATOM     47  C   UNL A   1      42.164  25.087  25.496  1.00  0.00     0.031 C 
ATOM     48  C   UNL A   1      43.861  30.382  28.792  1.00  0.00     0.029 A 
ATOM     49  C   UNL A   1      44.792  29.319  28.477  1.00  0.00     0.049 A 
ATOM     50  H   UNL A   1      44.345  27.316  28.070  1.00  0.00     0.167 HD
ATOM     51  C   UNL A   1      43.605  23.421  26.809  1.00  0.00     0.034 A 
ATOM     52  C   UNL A   1      46.145  29.382  28.473  1.00  0.00     0.034 A 
ATOM     53  C   UNL A   1      43.823  23.110  28.203  1.00  0.00     0.049 A 
ATOM     54  C   UNL A   1      46.637  28.027  28.804  1.00  0.00     0.074 A 
ATOM     55  C   UNL A   1      42.998  22.777  29.262  1.00  0.00     0.029 A 
ATOM     56  N   UNL A   1      45.009  23.495  28.782  1.00  0.00    -0.354 N 
ATOM     57  N   UNL A   1      46.416  27.450  29.953  1.00  0.00    -0.248 NA
ATOM     58  C   UNL A   1      46.995  27.129  27.720  1.00  0.00     0.031 C 
ATOM     59  C   UNL A   1      43.529  23.499  30.373  1.00  0.00     0.029 A 
ATOM     60  C   UNL A   1      44.680  24.160  29.939  1.00  0.00     0.049 A 
ATOM     61  H   UNL A   1      45.916  23.327  28.438  1.00  0.00     0.167 HD
ATOM     62  C   UNL A   1      46.175  26.121  29.647  1.00  0.00     0.074 A 
ATOM     63  C   UNL A   1      46.662  25.961  28.279  1.00  0.00     0.031 C 
ATOM     64  C   UNL A   1      45.367  25.343  30.428  1.00  0.00     0.034 A 
BRANCH  51  65
ATOM     65  C   UNL A   1      44.473  22.829  25.720  1.00  0.00     0.023 A 
ATOM     66  C   UNL A   1      44.427  21.434  25.507  1.00  0.00     0.031 A 
ATOM     67  C   UNL A   1      45.528  23.511  25.074  1.00  0.00     0.131 A 
ATOM     68  C   UNL A   1      45.418  20.780  24.749  1.00  0.00     0.055 A 
ATOM     69  C   UNL A   1      46.470  22.867  24.266  1.00  0.00     0.041 A 
ATOM     70  F   UNL A   1      45.761  24.816  25.268  1.00  0.00    -0.206 F 
ATOM     71  C   UNL A   1      46.435  21.490  24.119  1.00  0.00     0.022 A 
BRANCH  68  72
ATOM     72  S   UNL A   1      45.461  18.966  24.746  1.00  0.00     0.124 S 
ATOM     73  O   UNL A   1      45.712  18.674  23.340  1.00  0.00    -0.237 OA
ATOM     74  O   UNL A   1      46.558  18.690  25.668  1.00  0.00    -0.237 OA
ATOM     75  O   UNL A   1      44.134  18.594  25.232  1.00  0.00    -0.744 OA
ENDBRANCH  68  72
ENDBRANCH  51  65
BRANCH  52  76
ATOM     76  C   UNL A   1      46.966  30.483  27.920  1.00  0.00     0.023 A 
ATOM     77  C   UNL A   1      46.420  31.530  27.160  1.00  0.00     0.031 A 
ATOM     78  C   UNL A   1      48.309  30.626  28.341  1.00  0.00     0.131 A 
ATOM     79  C   UNL A   1      47.206  32.663  26.852  1.00  0.00     0.055 A 
ATOM     80  C   UNL A   1      49.081  31.745  28.031  1.00  0.00     0.041 A 
ATOM     81  F   UNL A   1      48.887  29.712  29.137  1.00  0.00    -0.206 F 
ATOM     82  C   UNL A   1      48.528  32.776  27.291  1.00  0.00     0.022 A 
BRANCH  79  83
ATOM     83  S   UNL A   1      46.470  34.062  25.948  1.00  0.00     0.124 S 
ATOM     84  O   UNL A   1      46.111  34.971  27.030  1.00  0.00    -0.237 OA
ATOM     85  O   UNL A   1      47.565  34.483  25.082  1.00  0.00    -0.237 OA
ATOM     86  O   UNL A   1      45.336  33.455  25.250  1.00  0.00    -0.744 OA
ENDBRANCH  79  83
ENDBRANCH  52  76
BRANCH  64  87
ATOM     87  C   UNL A   1      44.964  25.853  31.800  1.00  0.00     0.023 A 
ATOM     88  C   UNL A   1      45.724  25.684  32.980  1.00  0.00     0.031 A 
ATOM     89  C   UNL A   1      43.814  26.660  31.880  1.00  0.00     0.131 A 
ATOM     90  C   UNL A   1      45.317  26.302  34.180  1.00  0.00     0.055 A 
ATOM     91  C   UNL A   1      43.424  27.286  33.065  1.00  0.00     0.041 A 
ATOM     92  F   UNL A   1      43.062  26.885  30.790  1.00  0.00    -0.206 F 
ATOM     93  C   UNL A   1      44.171  27.104  34.222  1.00  0.00     0.022 A 
BRANCH  90  94
ATOM     94  S   UNL A   1      46.266  26.062  35.718  1.00  0.00     0.124 S 
ATOM     95  O   UNL A   1      45.470  26.753  36.725  1.00  0.00    -0.237 OA
ATOM     96  O   UNL A   1      46.319  24.607  35.836  1.00  0.00    -0.237 OA
ATOM     97  O   UNL A   1      47.555  26.693  35.424  1.00  0.00    -0.744 OA
ENDBRANCH  90  94
ENDBRANCH  64  87
ENDBRANCH  38  39
ENDBRANCH  30  33
ENDBRANCH  28  29
ENDBRANCH  27  28
ENDBRANCH  26  27
ENDBRANCH   1  26
TORSDOF 19
ENDMDL
MODEL 2
REMARK VINA RESULT:     -11.7      1.742      2.072
REMARK SMILES COCC[C@@H](C)NC(=O)N1Cc2nc[nH]c2C[C@@H]1C(=O)NCCCCNC(=O)c1ccc(-c2c3nc(c(-c4cc(S(=O)(=O)[O-])ccc4F)c4ccc([nH]4)c(-c4cc(S(=O)(=O)[O-])ccc4F)c4nc(c(-c5cc(S(=O)(=O)[O-])ccc5F)c5ccc2[nH]5)C=C4)C=C3)cc1
REMARK SMILES IDX 22 1 21 2 19 3 20 4 18 6 10 7 11 8 12 9 17 10 13 11 16 12
REMARK SMILES IDX 14 13 15 14 8 16 7 17 9 19 5 20 6 21 4 22 3 23 2 24 1 25
REMARK SMILES IDX 23 26 24 27 25 28 26 29 27 30 28 32 29 33 30 34 91 35 31 36
REMARK SMILES IDX 90 37 32 38 33 39 34 40 84 41 35 42 89 43 83 44 85 45 36 46
REMARK SMILES IDX 88 47 82 48 81 49 37 51 69 52 49 53 68 54 50 55 53 56 67 57
REMARK SMILES IDX 86 58 51 59 52 60 66 62 87 63 54 64 38 65 39 66 47 67 40 68
REMARK SMILES IDX 46 69 48 70 45 71 41 72 42 73 43 74 44 75 70 76 71 77 79 78
REMARK SMILES IDX 72 79 78 80 80 81 77 82 73 83 74 84 75 85 76 86 55 87 56 88
REMARK SMILES IDX 64 89 57 90 63 91 65 92 62 93 58 94 59 95 60 96 61 97
REMARK H PARENT 21 5 15 15 7 18 26 31 85 50 53 61
REMARK Flexibility Score: inf
ROOT
ATOM      1  C   UNL A   1      33.890  26.534  26.046  1.00  0.00     0.116 C 
ENDROOT
BRANCH   1   2
ATOM      2  N   UNL A   1      33.973  26.398  24.597  1.00  0.00    -0.354 N 
ATOM      3  C   UNL A   1      33.972  25.303  23.775  1.00  0.00     0.243 C 
ATOM      4  O   UNL A   1      34.009  25.520  22.560  1.00  0.00    -0.273 OA
ATOM      5  H   UNL A   1      34.045  27.256  24.118  1.00  0.00     0.163 HD
BRANCH   3   6
ATOM      6  C   UNL A   1      33.938  23.859  24.328  1.00  0.00     0.182 C 
ATOM      7  N   UNL A   1      35.235  23.158  24.666  1.00  0.00    -0.306 N 
ATOM      8  C   UNL A   1      35.090  21.807  25.267  1.00  0.00     0.180 C 
ATOM      9  C   UNL A   1      33.968  21.060  24.625  1.00  0.00     0.081 A 
ATOM     10  C   UNL A   1      33.097  23.034  23.301  1.00  0.00     0.091 C 
ATOM     11  N   UNL A   1      33.636  19.752  24.872  1.00  0.00    -0.240 NA
ATOM     12  C   UNL A   1      33.064  21.625  23.757  1.00  0.00     0.042 A 
ATOM     13  C   UNL A   1      32.569  19.526  24.132  1.00  0.00     0.197 A 
ATOM     14  N   UNL A   1      32.183  20.640  23.432  1.00  0.00    -0.348 N 
ATOM     15  H   UNL A   1      31.418  20.714  22.815  1.00  0.00     0.167 HD
BRANCH   7  16
ATOM     16  C   UNL A   1      36.354  23.320  23.881  1.00  0.00     0.318 C 
ATOM     17  N   UNL A   1      37.549  23.454  24.520  1.00  0.00    -0.335 N 
ATOM     18  H   UNL A   1      38.303  23.734  23.951  1.00  0.00     0.165 HD
ATOM     19  O   UNL A   1      36.360  23.188  22.660  1.00  0.00    -0.249 OA
BRANCH  17  20
ATOM     20  C   UNL A   1      37.874  23.240  25.925  1.00  0.00     0.083 C 
ATOM     21  C   UNL A   1      38.621  24.461  26.466  1.00  0.00     0.031 C 
BRANCH  20  22
ATOM     22  C   UNL A   1      38.672  21.935  26.111  1.00  0.00     0.053 C 
BRANCH  22  23
ATOM     23  C   UNL A   1      39.988  22.140  26.873  1.00  0.00     0.162 C 
BRANCH  23  24
ATOM     24  O   UNL A   1      40.976  21.110  26.871  1.00  0.00    -0.385 OA
ATOM     25  C   UNL A   1      40.681  19.876  26.247  1.00  0.00     0.194 C 
ENDBRANCH  23  24
ENDBRANCH  22  23
ENDBRANCH  20  22
ENDBRANCH  17  20
ENDBRANCH   7  16
ENDBRANCH   3   6
ENDBRANCH   1   2
BRANCH   1  26
ATOM     26  C   UNL A   1      32.817  27.530  26.499  1.00  0.00     0.023 C 
BRANCH  26  27
ATOM     27  C   UNL A   1      33.308  28.839  27.132  1.00  0.00     0.023 C 
BRANCH  27  28
ATOM     28  C   UNL A   1      34.812  28.916  27.323  1.00  0.00     0.116 C 
BRANCH  28  29
ATOM     29  N   UNL A   1      35.220  29.928  28.300  1.00  0.00    -0.352 N 
ATOM     30  C   UNL A   1      36.416  29.968  28.998  1.00  0.00     0.251 C 
ATOM     31  H   UNL A   1      34.579  30.654  28.479  1.00  0.00     0.163 HD
ATOM     32  O   UNL A   1      36.552  30.647  30.009  1.00  0.00    -0.269 OA
BRANCH  30  33
ATOM     33  C   UNL A   1      37.509  29.135  28.474  1.00  0.00     0.039 A 
ATOM     34  C   UNL A   1      38.299  29.585  27.419  1.00  0.00     0.014 A 
ATOM     35  C   UNL A   1      37.896  28.055  29.262  1.00  0.00     0.014 A 
ATOM     36  C   UNL A   1      39.570  29.031  27.257  1.00  0.00     0.010 A 
ATOM     37  C   UNL A   1      39.203  27.621  29.184  1.00  0.00     0.010 A 
ATOM     38  C   UNL A   1      40.062  28.096  28.189  1.00  0.00    -0.014 A 
BRANCH  38  39
ATOM     39  C   UNL A   1      41.494  27.741  28.189  1.00  0.00     0.031 A 
ATOM     40  C   UNL A   1      41.891  26.515  27.421  1.00  0.00     0.074 A 
ATOM     41  C   UNL A   1      42.498  28.501  28.681  1.00  0.00     0.049 A 
ATOM     42  N   UNL A   1      42.322  25.395  27.904  1.00  0.00    -0.248 NA
ATOM     43  C   UNL A   1      41.727  26.497  25.960  1.00  0.00     0.031 C 
ATOM     44  C   UNL A   1      42.449  29.848  29.259  1.00  0.00     0.029 A 
ATOM     45  N   UNL A   1      43.836  28.228  28.683  1.00  0.00    -0.354 N 
ATOM     46  C   UNL A   1      42.676  24.596  26.820  1.00  0.00     0.074 A 
ATOM     47  C   UNL A   1      42.163  25.271  25.655  1.00  0.00     0.031 C 
ATOM     48  C   UNL A   1      43.695  30.365  29.327  1.00  0.00     0.029 A 
ATOM     49  C   UNL A   1      44.636  29.311  29.011  1.00  0.00     0.049 A 
ATOM     50  H   UNL A   1      44.201  27.337  28.471  1.00  0.00     0.167 HD
ATOM     51  C   UNL A   1      43.511  23.523  26.959  1.00  0.00     0.034 A 
ATOM     52  C   UNL A   1      45.987  29.360  29.092  1.00  0.00     0.034 A 
ATOM     53  C   UNL A   1      43.642  23.136  28.344  1.00  0.00     0.049 A 
ATOM     54  C   UNL A   1      46.449  27.985  29.378  1.00  0.00     0.074 A 
ATOM     55  C   UNL A   1      42.753  22.754  29.333  1.00  0.00     0.029 A 
ATOM     56  N   UNL A   1      44.794  23.477  29.014  1.00  0.00    -0.354 N 
ATOM     57  N   UNL A   1      46.155  27.349  30.479  1.00  0.00    -0.248 NA
ATOM     58  C   UNL A   1      46.865  27.143  28.270  1.00  0.00     0.031 C 
ATOM     59  C   UNL A   1      43.221  23.411  30.511  1.00  0.00     0.029 A 
ATOM     60  C   UNL A   1      44.401  24.083  30.183  1.00  0.00     0.049 A 
ATOM     61  H   UNL A   1      45.719  23.319  28.716  1.00  0.00     0.167 HD
ATOM     62  C   UNL A   1      45.924  26.042  30.087  1.00  0.00     0.074 A 
ATOM     63  C   UNL A   1      46.491  25.950  28.744  1.00  0.00     0.031 C 
ATOM     64  C   UNL A   1      45.065  25.230  30.775  1.00  0.00     0.034 A 
BRANCH  51  65
ATOM     65  C   UNL A   1      44.439  22.982  25.893  1.00  0.00     0.023 A 
ATOM     66  C   UNL A   1      44.427  21.594  25.633  1.00  0.00     0.031 A 
ATOM     67  C   UNL A   1      45.511  23.701  25.321  1.00  0.00     0.131 A 
ATOM     68  C   UNL A   1      45.463  20.981  24.902  1.00  0.00     0.055 A 
ATOM     69  C   UNL A   1      46.501  23.099  24.537  1.00  0.00     0.041 A 
ATOM     70  F   UNL A   1      45.712  25.002  25.568  1.00  0.00    -0.206 F 
ATOM     71  C   UNL A   1      46.496  21.727  24.344  1.00  0.00     0.022 A 
BRANCH  68  72
ATOM     72  S   UNL A   1      45.538  19.169  24.842  1.00  0.00     0.124 S 
ATOM     73  O   UNL A   1      44.248  18.797  25.413  1.00  0.00    -0.237 OA
ATOM     74  O   UNL A   1      45.707  18.922  23.414  1.00  0.00    -0.237 OA
ATOM     75  O   UNL A   1      46.700  18.850  25.670  1.00  0.00    -0.744 OA
ENDBRANCH  68  72
ENDBRANCH  51  65
BRANCH  52  76
ATOM     76  C   UNL A   1      46.848  30.481  28.649  1.00  0.00     0.023 A 
ATOM     77  C   UNL A   1      47.491  31.346  29.549  1.00  0.00     0.031 A 
ATOM     78  C   UNL A   1      47.227  30.569  27.289  1.00  0.00     0.131 A 
ATOM     79  C   UNL A   1      48.472  32.249  29.082  1.00  0.00     0.055 A 
ATOM     80  C   UNL A   1      48.195  31.464  26.832  1.00  0.00     0.041 A 
ATOM     81  F   UNL A   1      46.723  29.727  26.372  1.00  0.00    -0.206 F 
ATOM     82  C   UNL A   1      48.829  32.304  27.731  1.00  0.00     0.022 A 
BRANCH  79  83
ATOM     83  S   UNL A   1      49.373  33.303  30.261  1.00  0.00     0.124 S 
ATOM     84  O   UNL A   1      49.266  34.618  29.640  1.00  0.00    -0.237 OA
ATOM     85  O   UNL A   1      48.621  33.103  31.495  1.00  0.00    -0.237 OA
ATOM     86  O   UNL A   1      50.721  32.732  30.265  1.00  0.00    -0.744 OA
ENDBRANCH  79  83
ENDBRANCH  52  76
BRANCH  64  87
ATOM     87  C   UNL A   1      44.584  25.671  32.147  1.00  0.00     0.023 A 
ATOM     88  C   UNL A   1      43.591  26.651  32.378  1.00  0.00     0.031 A 
ATOM     89  C   UNL A   1      45.070  24.965  33.262  1.00  0.00     0.131 A 
ATOM     90  C   UNL A   1      43.133  26.900  33.688  1.00  0.00     0.055 A 
ATOM     91  C   UNL A   1      44.601  25.200  34.555  1.00  0.00     0.041 A 
ATOM     92  F   UNL A   1      45.993  24.001  33.109  1.00  0.00    -0.206 F 
ATOM     93  C   UNL A   1      43.633  26.173  34.774  1.00  0.00     0.022 A 
BRANCH  90  94
ATOM     94  S   UNL A   1      41.882  28.187  34.006  1.00  0.00     0.124 S 
ATOM     95  O   UNL A   1      41.347  27.831  35.315  1.00  0.00    -0.237 OA
ATOM     96  O   UNL A   1      42.668  29.416  33.951  1.00  0.00    -0.237 OA
ATOM     97  O   UNL A   1      40.936  28.023  32.899  1.00  0.00    -0.744 OA
ENDBRANCH  90  94
ENDBRANCH  64  87
ENDBRANCH  38  39
ENDBRANCH  30  33
ENDBRANCH  28  29
ENDBRANCH  27  28
ENDBRANCH  26  27
ENDBRANCH   1  26
TORSDOF 19
ENDMDL
MODEL 3
REMARK VINA RESULT:     -11.7      2.092      3.970
REMARK SMILES COCC[C@@H](C)NC(=O)N1Cc2nc[nH]c2C[C@@H]1C(=O)NCCCCNC(=O)c1ccc(-c2c3nc(c(-c4cc(S(=O)(=O)[O-])ccc4F)c4ccc([nH]4)c(-c4cc(S(=O)(=O)[O-])ccc4F)c4nc(c(-c5cc(S(=O)(=O)[O-])ccc5F)c5ccc2[nH]5)C=C4)C=C3)cc1
REMARK SMILES IDX 22 1 21 2 19 3 20 4 18 6 10 7 11 8 12 9 17 10 13 11 16 12
REMARK SMILES IDX 14 13 15 14 8 16 7 17 9 19 5 20 6 21 4 22 3 23 2 24 1 25
REMARK SMILES IDX 23 26 24 27 25 28 26 29 27 30 28 32 29 33 30 34 91 35 31 36
REMARK SMILES IDX 90 37 32 38 33 39 34 40 84 41 35 42 89 43 83 44 85 45 36 46
REMARK SMILES IDX 88 47 82 48 81 49 37 51 69 52 49 53 68 54 50 55 53 56 67 57
REMARK SMILES IDX 86 58 51 59 52 60 66 62 87 63 54 64 38 65 39 66 47 67 40 68
REMARK SMILES IDX 46 69 48 70 45 71 41 72 42 73 43 74 44 75 70 76 71 77 79 78
REMARK SMILES IDX 72 79 78 80 80 81 77 82 73 83 74 84 75 85 76 86 55 87 56 88
REMARK SMILES IDX 64 89 57 90 63 91 65 92 62 93 58 94 59 95 60 96 61 97
REMARK H PARENT 21 5 15 15 7 18 26 31 85 50 53 61
REMARK Flexibility Score: inf
ROOT
ATOM      1  C   UNL A   1      31.933  27.921  26.339  1.00  0.00     0.116 C 
ENDROOT
BRANCH   1   2
ATOM      2  N   UNL A   1      31.511  26.618  26.837  1.00  0.00    -0.354 N 
ATOM      3  C   UNL A   1      31.891  25.343  26.514  1.00  0.00     0.243 C 
ATOM      4  O   UNL A   1      31.372  24.427  27.161  1.00  0.00    -0.273 OA
ATOM      5  H   UNL A   1      30.820  26.663  27.539  1.00  0.00     0.163 HD
BRANCH   3   6
ATOM      6  C   UNL A   1      32.910  25.049  25.389  1.00  0.00     0.182 C 
ATOM      7  N   UNL A   1      32.420  24.841  23.973  1.00  0.00    -0.306 N 
ATOM      8  C   UNL A   1      33.483  24.646  22.954  1.00  0.00     0.180 C 
ATOM      9  C   UNL A   1      34.596  23.815  23.503  1.00  0.00     0.081 A 
ATOM     10  C   UNL A   1      33.746  23.825  25.887  1.00  0.00     0.091 C 
ATOM     11  N   UNL A   1      35.680  23.363  22.792  1.00  0.00    -0.240 NA
ATOM     12  C   UNL A   1      34.718  23.467  24.827  1.00  0.00     0.042 A 
ATOM     13  C   UNL A   1      36.420  22.720  23.673  1.00  0.00     0.197 A 
ATOM     14  N   UNL A   1      35.872  22.756  24.929  1.00  0.00    -0.348 N 
ATOM     15  H   UNL A   1      36.242  22.346  25.746  1.00  0.00     0.167 HD
BRANCH   7  16
ATOM     16  C   UNL A   1      31.251  24.159  23.720  1.00  0.00     0.318 C 
ATOM     17  N   UNL A   1      30.092  24.872  23.760  1.00  0.00    -0.335 N 
ATOM     18  H   UNL A   1      29.266  24.335  23.743  1.00  0.00     0.165 HD
ATOM     19  O   UNL A   1      31.208  23.002  23.306  1.00  0.00    -0.249 OA
BRANCH  17  20
ATOM     20  C   UNL A   1      29.899  26.315  23.823  1.00  0.00     0.083 C 
ATOM     21  C   UNL A   1      28.415  26.621  24.033  1.00  0.00     0.031 C 
BRANCH  20  22
ATOM     22  C   UNL A   1      30.465  27.000  22.563  1.00  0.00     0.053 C 
BRANCH  22  23
ATOM     23  C   UNL A   1      30.312  28.526  22.590  1.00  0.00     0.162 C 
BRANCH  23  24
ATOM     24  O   UNL A   1      29.587  29.184  21.551  1.00  0.00    -0.385 OA
ATOM     25  C   UNL A   1      29.205  30.534  21.728  1.00  0.00     0.194 C 
ENDBRANCH  23  24
ENDBRANCH  22  23
ENDBRANCH  20  22
ENDBRANCH  17  20
ENDBRANCH   7  16
ENDBRANCH   3   6
ENDBRANCH   1   2
BRANCH   1  26
ATOM     26  C   UNL A   1      32.715  28.739  27.372  1.00  0.00     0.023 C 
BRANCH  26  27
ATOM     27  C   UNL A   1      34.230  28.500  27.444  1.00  0.00     0.023 C 
BRANCH  27  28
ATOM     28  C   UNL A   1      35.069  29.757  27.299  1.00  0.00     0.116 C 
BRANCH  28  29
ATOM     29  N   UNL A   1      35.431  30.362  28.582  1.00  0.00    -0.352 N 
ATOM     30  C   UNL A   1      36.495  30.003  29.394  1.00  0.00     0.251 C 
ATOM     31  H   UNL A   1      34.861  31.099  28.901  1.00  0.00     0.163 HD
ATOM     32  O   UNL A   1      36.546  30.327  30.574  1.00  0.00    -0.269 OA
BRANCH  30  33
ATOM     33  C   UNL A   1      37.551  29.191  28.770  1.00  0.00     0.039 A 
ATOM     34  C   UNL A   1      38.257  29.671  27.670  1.00  0.00     0.014 A 
ATOM     35  C   UNL A   1      38.003  28.096  29.500  1.00  0.00     0.014 A 
ATOM     36  C   UNL A   1      39.515  29.132  27.400  1.00  0.00     0.010 A 
ATOM     37  C   UNL A   1      39.303  27.674  29.314  1.00  0.00     0.010 A 
ATOM     38  C   UNL A   1      40.082  28.180  28.270  1.00  0.00    -0.014 A 
BRANCH  38  39
ATOM     39  C   UNL A   1      41.511  27.836  28.153  1.00  0.00     0.031 A 
ATOM     40  C   UNL A   1      41.852  26.581  27.406  1.00  0.00     0.074 A 
ATOM     41  C   UNL A   1      42.547  28.625  28.519  1.00  0.00     0.049 A 
ATOM     42  N   UNL A   1      42.338  25.487  27.896  1.00  0.00    -0.248 NA
ATOM     43  C   UNL A   1      41.556  26.497  25.969  1.00  0.00     0.031 C 
ATOM     44  C   UNL A   1      42.535  29.996  29.040  1.00  0.00     0.029 A 
ATOM     45  N   UNL A   1      43.883  28.363  28.410  1.00  0.00    -0.354 N 
ATOM     46  C   UNL A   1      42.602  24.643  26.819  1.00  0.00     0.074 A 
ATOM     47  C   UNL A   1      41.977  25.262  25.678  1.00  0.00     0.031 C 
ATOM     48  C   UNL A   1      43.776  30.525  28.971  1.00  0.00     0.029 A 
ATOM     49  C   UNL A   1      44.697  29.466  28.616  1.00  0.00     0.049 A 
ATOM     50  H   UNL A   1      44.238  27.467  28.204  1.00  0.00     0.167 HD
ATOM     51  C   UNL A   1      43.459  23.585  26.927  1.00  0.00     0.034 A 
ATOM     52  C   UNL A   1      46.048  29.529  28.571  1.00  0.00     0.034 A 
ATOM     53  C   UNL A   1      43.720  23.260  28.310  1.00  0.00     0.049 A 
ATOM     54  C   UNL A   1      46.552  28.172  28.872  1.00  0.00     0.074 A 
ATOM     55  C   UNL A   1      42.930  22.915  29.391  1.00  0.00     0.029 A 
ATOM     56  N   UNL A   1      44.925  23.639  28.857  1.00  0.00    -0.354 N 
ATOM     57  N   UNL A   1      46.367  27.583  30.022  1.00  0.00    -0.248 NA
ATOM     58  C   UNL A   1      46.875  27.285  27.768  1.00  0.00     0.031 C 
ATOM     59  C   UNL A   1      43.495  23.627  30.493  1.00  0.00     0.029 A 
ATOM     60  C   UNL A   1      44.632  24.293  30.030  1.00  0.00     0.049 A 
ATOM     61  H   UNL A   1      45.820  23.475  28.482  1.00  0.00     0.167 HD
ATOM     62  C   UNL A   1      46.117  26.258  29.710  1.00  0.00     0.074 A 
ATOM     63  C   UNL A   1      46.560  26.112  28.326  1.00  0.00     0.031 C 
ATOM     64  C   UNL A   1      45.334  25.471  30.508  1.00  0.00     0.034 A 
BRANCH  51  65
ATOM     65  C   UNL A   1      44.293  23.004  25.805  1.00  0.00     0.023 A 
ATOM     66  C   UNL A   1      44.134  21.638  25.488  1.00  0.00     0.031 A 
ATOM     67  C   UNL A   1      45.411  23.641  25.223  1.00  0.00     0.131 A 
ATOM     68  C   UNL A   1      45.079  20.961  24.693  1.00  0.00     0.055 A 
ATOM     69  C   UNL A   1      46.309  22.982  24.379  1.00  0.00     0.041 A 
ATOM     70  F   UNL A   1      45.748  24.903  25.517  1.00  0.00    -0.206 F 
ATOM     71  C   UNL A   1      46.162  21.627  24.129  1.00  0.00     0.022 A 
BRANCH  68  72
ATOM     72  S   UNL A   1      44.972  19.154  24.554  1.00  0.00     0.124 S 
ATOM     73  O   UNL A   1      45.620  18.913  23.270  1.00  0.00    -0.237 OA
ATOM     74  O   UNL A   1      45.704  18.718  25.738  1.00  0.00    -0.237 OA
ATOM     75  O   UNL A   1      43.533  18.896  24.583  1.00  0.00    -0.744 OA
ENDBRANCH  68  72
ENDBRANCH  51  65
BRANCH  52  76
ATOM     76  C   UNL A   1      46.852  30.636  28.003  1.00  0.00     0.023 A 
ATOM     77  C   UNL A   1      46.294  31.647  27.202  1.00  0.00     0.031 A 
ATOM     78  C   UNL A   1      48.181  30.828  28.447  1.00  0.00     0.131 A 
ATOM     79  C   UNL A   1      47.056  32.792  26.878  1.00  0.00     0.055 A 
ATOM     80  C   UNL A   1      48.930  31.959  28.121  1.00  0.00     0.041 A 
ATOM     81  F   UNL A   1      48.766  29.953  29.281  1.00  0.00    -0.206 F 
ATOM     82  C   UNL A   1      48.365  32.953  27.341  1.00  0.00     0.022 A 
BRANCH  79  83
ATOM     83  S   UNL A   1      46.302  34.144  25.920  1.00  0.00     0.124 S 
ATOM     84  O   UNL A   1      45.282  33.443  25.150  1.00  0.00    -0.237 OA
ATOM     85  O   UNL A   1      45.825  35.039  26.968  1.00  0.00    -0.237 OA
ATOM     86  O   UNL A   1      47.420  34.664  25.131  1.00  0.00    -0.744 OA
ENDBRANCH  79  83
ENDBRANCH  52  76
BRANCH  64  87
ATOM     87  C   UNL A   1      44.974  25.967  31.898  1.00  0.00     0.023 A 
ATOM     88  C   UNL A   1      43.792  26.671  32.223  1.00  0.00     0.031 A 
ATOM     89  C   UNL A   1      45.817  25.591  32.959  1.00  0.00     0.131 A 
ATOM     90  C   UNL A   1      43.500  26.982  33.566  1.00  0.00     0.055 A 
ATOM     91  C   UNL A   1      45.516  25.883  34.290  1.00  0.00     0.041 A 
ATOM     92  F   UNL A   1      46.942  24.896  32.722  1.00  0.00    -0.206 F 
ATOM     93  C   UNL A   1      44.357  26.586  34.599  1.00  0.00     0.022 A 
BRANCH  90  94
ATOM     94  S   UNL A   1      41.998  27.923  33.998  1.00  0.00     0.124 S 
ATOM     95  O   UNL A   1      41.186  26.958  34.729  1.00  0.00    -0.237 OA
ATOM     96  O   UNL A   1      42.532  29.032  34.783  1.00  0.00    -0.237 OA
ATOM     97  O   UNL A   1      41.454  28.310  32.694  1.00  0.00    -0.744 OA
ENDBRANCH  90  94
ENDBRANCH  64  87
ENDBRANCH  38  39
ENDBRANCH  30  33
ENDBRANCH  28  29
ENDBRANCH  27  28
ENDBRANCH  26  27
ENDBRANCH   1  26
TORSDOF 19
ENDMDL
