MODEL 1
REMARK VINA RESULT:     -12.9      0.000      0.000
REMARK SMILES O=C(C[NH+]1CCN(C(=O)c2ccc(F)c(F)c2F)CC1)NCCCCNC(=O)c1ccc(-c2c3nc(c(-c4cc(S(=O)(=O)[O-])ccc4F)c4ccc([nH]4)c(-c4cc(S(=O)(=O)[O-])ccc4F)c4nc(c(-c5cc(S(=O)(=O)[O-])ccc5F)c5ccc2[nH]5)C=C4)C=C3)cc1
REMARK SMILES IDX 24 1 23 2 22 3 21 4 1 5 2 6 3 8 4 9 5 10 20 11 6 13 19 14
REMARK SMILES IDX 7 15 8 16 9 17 10 18 11 19 17 20 12 21 15 22 18 23 13 24
REMARK SMILES IDX 16 25 14 26 25 27 26 28 27 29 28 31 29 32 30 33 91 34 31 35
REMARK SMILES IDX 90 36 32 37 33 38 34 39 84 40 35 41 89 42 83 43 85 44 36 45
REMARK SMILES IDX 88 46 82 47 81 48 37 50 69 51 49 52 68 53 50 54 53 55 67 56
REMARK SMILES IDX 86 57 51 58 52 59 66 61 87 62 54 63 38 64 39 65 47 66 40 67
REMARK SMILES IDX 46 68 48 69 45 70 41 71 42 72 43 73 44 74 70 75 71 76 79 77
REMARK SMILES IDX 72 78 78 79 80 80 77 81 73 82 74 83 75 84 76 85 55 86 56 87
REMARK SMILES IDX 64 88 57 89 63 90 65 91 62 92 58 93 59 94 60 95 61 96
REMARK H PARENT 21 7 4 12 26 30 85 49 53 60
REMARK Flexibility Score: inf
ROOT
ATOM      1  C   UNL A   1      36.213  20.973  25.053  1.00  0.00     0.023 C 
ENDROOT
BRANCH   1   2
ATOM      2  C   UNL A   1      35.263  21.673  26.026  1.00  0.00     0.023 C 
BRANCH   2   3
ATOM      3  C   UNL A   1      33.838  21.125  26.047  1.00  0.00     0.116 C 
BRANCH   3   4
ATOM      4  N   UNL A   1      32.845  22.155  25.822  1.00  0.00    -0.351 N 
ATOM      5  O   UNL A   1      32.460  22.614  28.043  1.00  0.00    -0.269 OA
ATOM      6  C   UNL A   1      32.226  22.824  26.856  1.00  0.00     0.275 C 
ATOM      7  H   UNL A   1      32.602  22.385  24.896  1.00  0.00     0.163 HD
BRANCH   6   8
ATOM      8  C   UNL A   1      31.170  23.840  26.416  1.00  0.00     0.363 C 
BRANCH   8   9
ATOM      9  N   UNL A   1      31.708  25.219  26.320  1.00  0.00    -0.324 N 
ATOM     10  C   UNL A   1      32.474  25.367  25.052  1.00  0.00     0.284 C 
ATOM     11  C   UNL A   1      30.648  26.259  26.359  1.00  0.00     0.284 C 
ATOM     12  H   UNL A   1      32.307  25.358  27.133  1.00  0.00     0.348 HD
ATOM     13  C   UNL A   1      31.611  25.430  23.771  1.00  0.00     0.181 C 
ATOM     14  C   UNL A   1      29.757  26.351  25.101  1.00  0.00     0.181 C 
ATOM     15  N   UNL A   1      30.573  26.458  23.886  1.00  0.00    -0.327 N 
ATOM     16  C   UNL A   1      30.397  27.343  22.830  1.00  0.00     0.257 C 
ATOM     17  O   UNL A   1      31.015  27.256  21.771  1.00  0.00    -0.269 OA
BRANCH  16  18
ATOM     18  C   UNL A   1      29.486  28.492  22.968  1.00  0.00     0.079 A 
ATOM     19  C   UNL A   1      28.108  28.340  22.746  1.00  0.00     0.020 A 
ATOM     20  C   UNL A   1      29.984  29.693  23.476  1.00  0.00     0.174 A 
ATOM     21  C   UNL A   1      27.244  29.407  23.005  1.00  0.00     0.043 A 
ATOM     22  C   UNL A   1      29.119  30.745  23.744  1.00  0.00     0.195 A 
ATOM     23  F   UNL A   1      31.297  29.853  23.704  1.00  0.00    -0.203 F 
ATOM     24  C   UNL A   1      27.756  30.602  23.506  1.00  0.00     0.161 A 
ATOM     25  F   UNL A   1      29.594  31.897  24.238  1.00  0.00    -0.200 F 
ATOM     26  F   UNL A   1      26.919  31.614  23.770  1.00  0.00    -0.204 F 
ENDBRANCH  16  18
ENDBRANCH   8   9
ENDBRANCH   6   8
ENDBRANCH   3   4
ENDBRANCH   2   3
ENDBRANCH   1   2
BRANCH   1  27
ATOM     27  C   UNL A   1      37.649  21.493  25.046  1.00  0.00     0.116 C 
BRANCH  27  28
ATOM     28  N   UNL A   1      38.601  20.549  25.608  1.00  0.00    -0.352 N 
ATOM     29  C   UNL A   1      39.755  20.790  26.317  1.00  0.00     0.251 C 
ATOM     30  H   UNL A   1      38.388  19.599  25.460  1.00  0.00     0.163 HD
ATOM     31  O   UNL A   1      40.502  19.852  26.590  1.00  0.00    -0.269 OA
BRANCH  29  32
ATOM     32  C   UNL A   1      40.116  22.170  26.716  1.00  0.00     0.039 A 
ATOM     33  C   UNL A   1      41.092  22.354  27.699  1.00  0.00     0.014 A 
ATOM     34  C   UNL A   1      39.508  23.279  26.124  1.00  0.00     0.014 A 
ATOM     35  C   UNL A   1      41.510  23.646  28.032  1.00  0.00     0.010 A 
ATOM     36  C   UNL A   1      39.979  24.562  26.401  1.00  0.00     0.010 A 
ATOM     37  C   UNL A   1      40.990  24.760  27.354  1.00  0.00    -0.014 A 
BRANCH  37  38
ATOM     38  C   UNL A   1      41.497  26.134  27.623  1.00  0.00     0.031 A 
ATOM     39  C   UNL A   1      42.885  26.530  27.193  1.00  0.00     0.074 A 
ATOM     40  C   UNL A   1      40.733  27.007  28.310  1.00  0.00     0.049 A 
ATOM     41  N   UNL A   1      43.533  27.646  27.410  1.00  0.00    -0.248 NA
ATOM     42  C   UNL A   1      43.654  25.524  26.445  1.00  0.00     0.031 C 
ATOM     43  C   UNL A   1      39.384  26.733  28.814  1.00  0.00     0.029 A 
ATOM     44  N   UNL A   1      40.978  28.297  28.712  1.00  0.00    -0.354 N 
ATOM     45  C   UNL A   1      44.787  27.476  26.832  1.00  0.00     0.074 A 
ATOM     46  C   UNL A   1      44.827  26.123  26.318  1.00  0.00     0.031 C 
ATOM     47  C   UNL A   1      38.916  27.827  29.436  1.00  0.00     0.029 A 
ATOM     48  C   UNL A   1      39.944  28.862  29.425  1.00  0.00     0.049 A 
ATOM     49  H   UNL A   1      41.816  28.773  28.511  1.00  0.00     0.167 HD
ATOM     50  C   UNL A   1      45.800  28.371  26.719  1.00  0.00     0.034 A 
ATOM     51  C   UNL A   1      39.841  30.069  30.018  1.00  0.00     0.034 A 
ATOM     52  C   UNL A   1      45.743  29.718  27.234  1.00  0.00     0.049 A 
ATOM     53  C   UNL A   1      40.995  31.035  29.915  1.00  0.00     0.074 A 
ATOM     54  C   UNL A   1      46.694  30.721  27.136  1.00  0.00     0.029 A 
ATOM     55  N   UNL A   1      44.681  30.254  27.954  1.00  0.00    -0.354 N 
ATOM     56  N   UNL A   1      42.157  30.873  29.326  1.00  0.00    -0.248 NA
ATOM     57  C   UNL A   1      40.819  32.348  30.546  1.00  0.00     0.031 C 
ATOM     58  C   UNL A   1      46.242  31.830  27.859  1.00  0.00     0.029 A 
ATOM     59  C   UNL A   1      44.970  31.557  28.334  1.00  0.00     0.049 A 
ATOM     60  H   UNL A   1      43.846  29.778  28.163  1.00  0.00     0.167 HD
ATOM     61  C   UNL A   1      42.837  32.078  29.489  1.00  0.00     0.074 A 
ATOM     62  C   UNL A   1      41.947  32.959  30.217  1.00  0.00     0.031 C 
ATOM     63  C   UNL A   1      44.081  32.425  29.071  1.00  0.00     0.034 A 
BRANCH  50  64
ATOM     64  C   UNL A   1      47.063  27.908  26.029  1.00  0.00     0.023 A 
ATOM     65  C   UNL A   1      47.285  28.141  24.661  1.00  0.00     0.031 A 
ATOM     66  C   UNL A   1      48.048  27.200  26.741  1.00  0.00     0.131 A 
ATOM     67  C   UNL A   1      48.416  27.601  24.031  1.00  0.00     0.055 A 
ATOM     68  C   UNL A   1      49.217  26.744  26.127  1.00  0.00     0.041 A 
ATOM     69  F   UNL A   1      47.886  26.926  28.046  1.00  0.00    -0.206 F 
ATOM     70  C   UNL A   1      49.398  26.929  24.761  1.00  0.00     0.022 A 
BRANCH  67  71
ATOM     71  S   UNL A   1      48.504  27.655  22.220  1.00  0.00     0.124 S 
ATOM     72  O   UNL A   1      48.640  26.238  21.890  1.00  0.00    -0.237 OA
ATOM     73  O   UNL A   1      47.236  28.277  21.860  1.00  0.00    -0.237 OA
ATOM     74  O   UNL A   1      49.693  28.463  21.959  1.00  0.00    -0.744 OA
ENDBRANCH  67  71
ENDBRANCH  50  64
BRANCH  51  75
ATOM     75  C   UNL A   1      38.610  30.433  30.779  1.00  0.00     0.023 A 
ATOM     76  C   UNL A   1      37.559  31.136  30.171  1.00  0.00     0.031 A 
ATOM     77  C   UNL A   1      38.486  30.119  32.145  1.00  0.00     0.131 A 
ATOM     78  C   UNL A   1      36.454  31.545  30.933  1.00  0.00     0.055 A 
ATOM     79  C   UNL A   1      37.359  30.476  32.887  1.00  0.00     0.041 A 
ATOM     80  F   UNL A   1      39.461  29.446  32.778  1.00  0.00    -0.206 F 
ATOM     81  C   UNL A   1      36.340  31.207  32.284  1.00  0.00     0.022 A 
BRANCH  78  82
ATOM     82  S   UNL A   1      35.207  32.610  30.158  1.00  0.00     0.124 S 
ATOM     83  O   UNL A   1      34.749  31.775  29.054  1.00  0.00    -0.237 OA
ATOM     84  O   UNL A   1      34.259  32.809  31.249  1.00  0.00    -0.237 OA
ATOM     85  O   UNL A   1      35.967  33.797  29.771  1.00  0.00    -0.744 OA
ENDBRANCH  78  82
ENDBRANCH  51  75
BRANCH  63  86
ATOM     86  C   UNL A   1      44.532  33.839  29.351  1.00  0.00     0.023 A 
ATOM     87  C   UNL A   1      44.249  34.899  28.472  1.00  0.00     0.031 A 
ATOM     88  C   UNL A   1      45.265  34.129  30.517  1.00  0.00     0.131 A 
ATOM     89  C   UNL A   1      44.746  36.184  28.741  1.00  0.00     0.055 A 
ATOM     90  C   UNL A   1      45.698  35.421  30.813  1.00  0.00     0.041 A 
ATOM     91  F   UNL A   1      45.568  33.157  31.393  1.00  0.00    -0.206 F 
ATOM     92  C   UNL A   1      45.452  36.455  29.915  1.00  0.00     0.022 A 
BRANCH  89  93
ATOM     93  S   UNL A   1      44.541  37.478  27.486  1.00  0.00     0.124 S 
ATOM     94  O   UNL A   1      44.507  38.688  28.301  1.00  0.00    -0.237 OA
ATOM     95  O   UNL A   1      45.731  37.300  26.658  1.00  0.00    -0.237 OA
ATOM     96  O   UNL A   1      43.278  37.131  26.837  1.00  0.00    -0.744 OA
ENDBRANCH  89  93
ENDBRANCH  63  86
ENDBRANCH  37  38
ENDBRANCH  29  32
ENDBRANCH  27  28
ENDBRANCH   1  27
TORSDOF 16
ENDMDL
MODEL 2
REMARK VINA RESULT:     -12.8      0.670      7.419
REMARK SMILES O=C(C[NH+]1CCN(C(=O)c2ccc(F)c(F)c2F)CC1)NCCCCNC(=O)c1ccc(-c2c3nc(c(-c4cc(S(=O)(=O)[O-])ccc4F)c4ccc([nH]4)c(-c4cc(S(=O)(=O)[O-])ccc4F)c4nc(c(-c5cc(S(=O)(=O)[O-])ccc5F)c5ccc2[nH]5)C=C4)C=C3)cc1
REMARK SMILES IDX 24 1 23 2 22 3 21 4 1 5 2 6 3 8 4 9 5 10 20 11 6 13 19 14
REMARK SMILES IDX 7 15 8 16 9 17 10 18 11 19 17 20 12 21 15 22 18 23 13 24
REMARK SMILES IDX 16 25 14 26 25 27 26 28 27 29 28 31 29 32 30 33 91 34 31 35
REMARK SMILES IDX 90 36 32 37 33 38 34 39 84 40 35 41 89 42 83 43 85 44 36 45
REMARK SMILES IDX 88 46 82 47 81 48 37 50 69 51 49 52 68 53 50 54 53 55 67 56
REMARK SMILES IDX 86 57 51 58 52 59 66 61 87 62 54 63 38 64 39 65 47 66 40 67
REMARK SMILES IDX 46 68 48 69 45 70 41 71 42 72 43 73 44 74 70 75 71 76 79 77
REMARK SMILES IDX 72 78 78 79 80 80 77 81 73 82 74 83 75 84 76 85 55 86 56 87
REMARK SMILES IDX 64 88 57 89 63 90 65 91 62 92 58 93 59 94 60 95 61 96
REMARK H PARENT 21 7 4 12 26 30 85 49 53 60
REMARK Flexibility Score: inf
ROOT
ATOM      1  C   UNL A   1      35.855  21.448  25.699  1.00  0.00     0.023 C 
ENDROOT
BRANCH   1   2
ATOM      2  C   UNL A   1      34.667  20.990  24.851  1.00  0.00     0.023 C 
BRANCH   2   3
ATOM      3  C   UNL A   1      33.379  20.731  25.628  1.00  0.00     0.116 C 
BRANCH   3   4
ATOM      4  N   UNL A   1      32.466  21.855  25.577  1.00  0.00    -0.351 N 
ATOM      5  O   UNL A   1      33.164  22.829  27.540  1.00  0.00    -0.269 OA
ATOM      6  C   UNL A   1      32.432  22.825  26.553  1.00  0.00     0.275 C 
ATOM      7  H   UNL A   1      31.846  21.927  24.815  1.00  0.00     0.163 HD
BRANCH   6   8
ATOM      8  C   UNL A   1      31.365  23.902  26.346  1.00  0.00     0.363 C 
BRANCH   8   9
ATOM      9  N   UNL A   1      31.944  25.257  26.181  1.00  0.00    -0.324 N 
ATOM     10  C   UNL A   1      32.628  25.348  24.861  1.00  0.00     0.284 C 
ATOM     11  C   UNL A   1      30.927  26.337  26.264  1.00  0.00     0.284 C 
ATOM     12  H   UNL A   1      32.601  25.392  26.949  1.00  0.00     0.348 HD
ATOM     13  C   UNL A   1      31.684  25.415  23.639  1.00  0.00     0.181 C 
ATOM     14  C   UNL A   1      29.958  26.434  25.065  1.00  0.00     0.181 C 
ATOM     15  N   UNL A   1      30.694  26.483  23.797  1.00  0.00    -0.327 N 
ATOM     16  C   UNL A   1      30.480  27.350  22.733  1.00  0.00     0.257 C 
ATOM     17  O   UNL A   1      31.022  27.217  21.638  1.00  0.00    -0.269 OA
BRANCH  16  18
ATOM     18  C   UNL A   1      29.622  28.536  22.902  1.00  0.00     0.079 A 
ATOM     19  C   UNL A   1      28.271  28.499  22.518  1.00  0.00     0.020 A 
ATOM     20  C   UNL A   1      30.122  29.640  23.594  1.00  0.00     0.174 A 
ATOM     21  C   UNL A   1      27.442  29.587  22.802  1.00  0.00     0.043 A 
ATOM     22  C   UNL A   1      29.289  30.712  23.885  1.00  0.00     0.195 A 
ATOM     23  F   UNL A   1      31.407  29.687  23.978  1.00  0.00    -0.203 F 
ATOM     24  C   UNL A   1      27.957  30.685  23.488  1.00  0.00     0.161 A 
ATOM     25  F   UNL A   1      29.766  31.771  24.555  1.00  0.00    -0.200 F 
ATOM     26  F   UNL A   1      27.150  31.716  23.773  1.00  0.00    -0.204 F 
ENDBRANCH  16  18
ENDBRANCH   8   9
ENDBRANCH   6   8
ENDBRANCH   3   4
ENDBRANCH   2   3
ENDBRANCH   1   2
BRANCH   1  27
ATOM     27  C   UNL A   1      37.199  21.499  24.976  1.00  0.00     0.116 C 
BRANCH  27  28
ATOM     28  N   UNL A   1      38.104  20.434  25.376  1.00  0.00    -0.352 N 
ATOM     29  C   UNL A   1      39.325  20.515  26.005  1.00  0.00     0.251 C 
ATOM     30  H   UNL A   1      37.798  19.522  25.167  1.00  0.00     0.163 HD
ATOM     31  O   UNL A   1      40.005  19.500  26.136  1.00  0.00    -0.269 OA
BRANCH  29  32
ATOM     32  C   UNL A   1      39.834  21.820  26.488  1.00  0.00     0.039 A 
ATOM     33  C   UNL A   1      40.936  21.837  27.349  1.00  0.00     0.014 A 
ATOM     34  C   UNL A   1      39.241  23.022  26.094  1.00  0.00     0.014 A 
ATOM     35  C   UNL A   1      41.487  23.057  27.750  1.00  0.00     0.010 A 
ATOM     36  C   UNL A   1      39.838  24.236  26.433  1.00  0.00     0.010 A 
ATOM     37  C   UNL A   1      40.971  24.268  27.260  1.00  0.00    -0.014 A 
BRANCH  37  38
ATOM     38  C   UNL A   1      41.608  25.572  27.595  1.00  0.00     0.031 A 
ATOM     39  C   UNL A   1      40.840  26.619  28.357  1.00  0.00     0.074 A 
ATOM     40  C   UNL A   1      42.855  25.839  27.159  1.00  0.00     0.049 A 
ATOM     41  N   UNL A   1      41.191  27.841  28.669  1.00  0.00    -0.248 NA
ATOM     42  C   UNL A   1      39.488  26.250  28.802  1.00  0.00     0.031 C 
ATOM     43  C   UNL A   1      43.691  24.922  26.379  1.00  0.00     0.029 A 
ATOM     44  N   UNL A   1      43.638  26.958  27.299  1.00  0.00    -0.354 N 
ATOM     45  C   UNL A   1      40.103  28.389  29.340  1.00  0.00     0.074 A 
ATOM     46  C   UNL A   1      39.058  27.387  29.327  1.00  0.00     0.031 C 
ATOM     47  C   UNL A   1      44.873  25.507  26.130  1.00  0.00     0.029 A 
ATOM     48  C   UNL A   1      44.866  26.858  26.683  1.00  0.00     0.049 A 
ATOM     49  H   UNL A   1      43.348  27.759  27.792  1.00  0.00     0.167 HD
ATOM     50  C   UNL A   1      39.993  29.604  29.934  1.00  0.00     0.034 A 
ATOM     51  C   UNL A   1      45.865  27.754  26.562  1.00  0.00     0.034 A 
ATOM     52  C   UNL A   1      41.046  30.592  29.942  1.00  0.00     0.049 A 
ATOM     53  C   UNL A   1      45.707  29.115  27.194  1.00  0.00     0.074 A 
ATOM     54  C   UNL A   1      41.057  31.837  30.550  1.00  0.00     0.029 A 
ATOM     55  N   UNL A   1      42.274  30.456  29.305  1.00  0.00    -0.354 N 
ATOM     56  N   UNL A   1      44.687  29.601  27.863  1.00  0.00    -0.248 NA
ATOM     57  C   UNL A   1      46.838  30.042  27.064  1.00  0.00     0.031 C 
ATOM     58  C   UNL A   1      42.254  32.480  30.218  1.00  0.00     0.029 A 
ATOM     59  C   UNL A   1      43.032  31.605  29.476  1.00  0.00     0.049 A 
ATOM     60  H   UNL A   1      42.563  29.660  28.805  1.00  0.00     0.167 HD
ATOM     61  C   UNL A   1      45.070  30.880  28.262  1.00  0.00     0.074 A 
ATOM     62  C   UNL A   1      46.418  31.081  27.771  1.00  0.00     0.031 C 
ATOM     63  C   UNL A   1      44.371  31.802  28.973  1.00  0.00     0.034 A 
BRANCH  50  64
ATOM     64  C   UNL A   1      38.678  29.936  30.602  1.00  0.00     0.023 A 
ATOM     65  C   UNL A   1      37.686  30.686  29.946  1.00  0.00     0.031 A 
ATOM     66  C   UNL A   1      38.422  29.524  31.922  1.00  0.00     0.131 A 
ATOM     67  C   UNL A   1      36.525  31.068  30.634  1.00  0.00     0.055 A 
ATOM     68  C   UNL A   1      37.224  29.830  32.571  1.00  0.00     0.041 A 
ATOM     69  F   UNL A   1      39.338  28.824  32.611  1.00  0.00    -0.206 F 
ATOM     70  C   UNL A   1      36.274  30.622  31.933  1.00  0.00     0.022 A 
BRANCH  67  71
ATOM     71  S   UNL A   1      35.426  32.288  29.863  1.00  0.00     0.124 S 
ATOM     72  O   UNL A   1      35.029  31.594  28.640  1.00  0.00    -0.237 OA
ATOM     73  O   UNL A   1      34.384  32.455  30.869  1.00  0.00    -0.237 OA
ATOM     74  O   UNL A   1      36.291  33.448  29.659  1.00  0.00    -0.744 OA
ENDBRANCH  67  71
ENDBRANCH  50  64
BRANCH  51  75
ATOM     75  C   UNL A   1      47.099  27.410  25.796  1.00  0.00     0.023 A 
ATOM     76  C   UNL A   1      47.246  27.776  24.450  1.00  0.00     0.031 A 
ATOM     77  C   UNL A   1      48.135  26.667  26.392  1.00  0.00     0.131 A 
ATOM     78  C   UNL A   1      48.376  27.360  23.729  1.00  0.00     0.055 A 
ATOM     79  C   UNL A   1      49.285  26.305  25.688  1.00  0.00     0.041 A 
ATOM     80  F   UNL A   1      48.048  26.290  27.678  1.00  0.00    -0.206 F 
ATOM     81  C   UNL A   1      49.404  26.640  24.343  1.00  0.00     0.022 A 
BRANCH  78  82
ATOM     82  S   UNL A   1      48.442  27.693  21.947  1.00  0.00     0.124 S 
ATOM     83  O   UNL A   1      47.224  28.468  21.744  1.00  0.00    -0.237 OA
ATOM     84  O   UNL A   1      49.699  28.427  21.824  1.00  0.00    -0.237 OA
ATOM     85  O   UNL A   1      48.443  26.359  21.351  1.00  0.00    -0.744 OA
ENDBRANCH  78  82
ENDBRANCH  51  75
BRANCH  63  86
ATOM     86  C   UNL A   1      45.077  33.096  29.303  1.00  0.00     0.023 A 
ATOM     87  C   UNL A   1      44.973  34.232  28.481  1.00  0.00     0.031 A 
ATOM     88  C   UNL A   1      45.875  33.190  30.458  1.00  0.00     0.131 A 
ATOM     89  C   UNL A   1      45.700  35.391  28.792  1.00  0.00     0.055 A 
ATOM     90  C   UNL A   1      46.543  34.366  30.798  1.00  0.00     0.041 A 
ATOM     91  F   UNL A   1      46.016  32.137  31.279  1.00  0.00    -0.206 F 
ATOM     92  C   UNL A   1      46.469  35.472  29.956  1.00  0.00     0.022 A 
BRANCH  89  93
ATOM     93  S   UNL A   1      45.707  36.761  27.604  1.00  0.00     0.124 S 
ATOM     94  O   UNL A   1      46.138  37.881  28.434  1.00  0.00    -0.237 OA
ATOM     95  O   UNL A   1      46.667  36.303  26.604  1.00  0.00    -0.237 OA
ATOM     96  O   UNL A   1      44.320  36.826  27.146  1.00  0.00    -0.744 OA
ENDBRANCH  89  93
ENDBRANCH  63  86
ENDBRANCH  37  38
ENDBRANCH  29  32
ENDBRANCH  27  28
ENDBRANCH   1  27
TORSDOF 16
ENDMDL
MODEL 3
REMARK VINA RESULT:     -12.4      5.784      9.309
REMARK SMILES O=C(C[NH+]1CCN(C(=O)c2ccc(F)c(F)c2F)CC1)NCCCCNC(=O)c1ccc(-c2c3nc(c(-c4cc(S(=O)(=O)[O-])ccc4F)c4ccc([nH]4)c(-c4cc(S(=O)(=O)[O-])ccc4F)c4nc(c(-c5cc(S(=O)(=O)[O-])ccc5F)c5ccc2[nH]5)C=C4)C=C3)cc1
REMARK SMILES IDX 24 1 23 2 22 3 21 4 1 5 2 6 3 8 4 9 5 10 20 11 6 13 19 14
REMARK SMILES IDX 7 15 8 16 9 17 10 18 11 19 17 20 12 21 15 22 18 23 13 24
REMARK SMILES IDX 16 25 14 26 25 27 26 28 27 29 28 31 29 32 30 33 91 34 31 35
REMARK SMILES IDX 90 36 32 37 33 38 34 39 84 40 35 41 89 42 83 43 85 44 36 45
REMARK SMILES IDX 88 46 82 47 81 48 37 50 69 51 49 52 68 53 50 54 53 55 67 56
REMARK SMILES IDX 86 57 51 58 52 59 66 61 87 62 54 63 38 64 39 65 47 66 40 67
REMARK SMILES IDX 46 68 48 69 45 70 41 71 42 72 43 73 44 74 70 75 71 76 79 77
REMARK SMILES IDX 72 78 78 79 80 80 77 81 73 82 74 83 75 84 76 85 55 86 56 87
REMARK SMILES IDX 64 88 57 89 63 90 65 91 62 92 58 93 59 94 60 95 61 96
REMARK H PARENT 21 7 4 12 26 30 85 49 53 60
REMARK Flexibility Score: inf
ROOT
ATOM      1  C   UNL A   1      31.722  31.464  26.598  1.00  0.00     0.023 C 
ENDROOT
BRANCH   1   2
ATOM      2  C   UNL A   1      30.785  32.335  25.759  1.00  0.00     0.023 C 
BRANCH   2   3
ATOM      3  C   UNL A   1      30.050  31.603  24.639  1.00  0.00     0.116 C 
BRANCH   3   4
ATOM      4  N   UNL A   1      30.618  30.299  24.363  1.00  0.00    -0.351 N 
ATOM      5  O   UNL A   1      28.822  29.495  23.172  1.00  0.00    -0.269 OA
ATOM      6  C   UNL A   1      29.945  29.337  23.642  1.00  0.00     0.275 C 
ATOM      7  H   UNL A   1      31.519  30.093  24.703  1.00  0.00     0.163 HD
BRANCH   6   8
ATOM      8  C   UNL A   1      30.691  28.009  23.500  1.00  0.00     0.363 C 
BRANCH   8   9
ATOM      9  N   UNL A   1      31.809  27.874  24.466  1.00  0.00    -0.324 N 
ATOM     10  C   UNL A   1      31.269  27.506  25.803  1.00  0.00     0.284 C 
ATOM     11  C   UNL A   1      32.808  26.853  24.059  1.00  0.00     0.284 C 
ATOM     12  H   UNL A   1      32.283  28.777  24.494  1.00  0.00     0.348 HD
ATOM     13  C   UNL A   1      30.762  26.051  25.925  1.00  0.00     0.181 C 
ATOM     14  C   UNL A   1      32.339  25.385  24.157  1.00  0.00     0.181 C 
ATOM     15  N   UNL A   1      31.785  25.099  25.486  1.00  0.00    -0.327 N 
ATOM     16  C   UNL A   1      32.056  23.999  26.291  1.00  0.00     0.257 C 
ATOM     17  O   UNL A   1      31.423  23.743  27.313  1.00  0.00    -0.269 OA
BRANCH  16  18
ATOM     18  C   UNL A   1      33.188  23.110  25.978  1.00  0.00     0.079 A 
ATOM     19  C   UNL A   1      34.454  23.343  26.538  1.00  0.00     0.020 A 
ATOM     20  C   UNL A   1      32.950  21.943  25.249  1.00  0.00     0.174 A 
ATOM     21  C   UNL A   1      35.482  22.419  26.332  1.00  0.00     0.043 A 
ATOM     22  C   UNL A   1      33.972  21.022  25.060  1.00  0.00     0.195 A 
ATOM     23  F   UNL A   1      31.743  21.698  24.717  1.00  0.00    -0.203 F 
ATOM     24  C   UNL A   1      35.232  21.263  25.597  1.00  0.00     0.161 A 
ATOM     25  F   UNL A   1      33.744  19.898  24.366  1.00  0.00    -0.200 F 
ATOM     26  F   UNL A   1      36.218  20.373  25.421  1.00  0.00    -0.204 F 
ENDBRANCH  16  18
ENDBRANCH   8   9
ENDBRANCH   6   8
ENDBRANCH   3   4
ENDBRANCH   2   3
ENDBRANCH   1   2
BRANCH   1  27
ATOM     27  C   UNL A   1      32.880  32.199  27.268  1.00  0.00     0.116 C 
BRANCH  27  28
ATOM     28  N   UNL A   1      32.576  33.590  27.567  1.00  0.00    -0.352 N 
ATOM     29  C   UNL A   1      33.143  34.426  28.501  1.00  0.00     0.251 C 
ATOM     30  H   UNL A   1      31.861  33.990  27.022  1.00  0.00     0.163 HD
ATOM     31  O   UNL A   1      32.649  35.535  28.696  1.00  0.00    -0.269 OA
BRANCH  29  32
ATOM     32  C   UNL A   1      34.313  33.983  29.294  1.00  0.00     0.039 A 
ATOM     33  C   UNL A   1      34.103  33.167  30.408  1.00  0.00     0.014 A 
ATOM     34  C   UNL A   1      35.612  34.358  28.942  1.00  0.00     0.014 A 
ATOM     35  C   UNL A   1      35.197  32.667  31.121  1.00  0.00     0.010 A 
ATOM     36  C   UNL A   1      36.702  33.798  29.606  1.00  0.00     0.010 A 
ATOM     37  C   UNL A   1      36.508  32.941  30.700  1.00  0.00    -0.014 A 
BRANCH  37  38
ATOM     38  C   UNL A   1      37.683  32.335  31.385  1.00  0.00     0.031 A 
ATOM     39  C   UNL A   1      38.421  31.184  30.753  1.00  0.00     0.074 A 
ATOM     40  C   UNL A   1      38.047  32.776  32.606  1.00  0.00     0.049 A 
ATOM     41  N   UNL A   1      39.410  30.472  31.230  1.00  0.00    -0.248 NA
ATOM     42  C   UNL A   1      37.966  30.764  29.420  1.00  0.00     0.031 C 
ATOM     43  C   UNL A   1      37.390  33.859  33.343  1.00  0.00     0.029 A 
ATOM     44  N   UNL A   1      39.051  32.368  33.449  1.00  0.00    -0.354 N 
ATOM     45  C   UNL A   1      39.692  29.516  30.260  1.00  0.00     0.074 A 
ATOM     46  C   UNL A   1      38.722  29.699  29.201  1.00  0.00     0.031 C 
ATOM     47  C   UNL A   1      38.021  34.042  34.513  1.00  0.00     0.029 A 
ATOM     48  C   UNL A   1      39.092  33.059  34.639  1.00  0.00     0.049 A 
ATOM     49  H   UNL A   1      39.682  31.646  33.224  1.00  0.00     0.167 HD
ATOM     50  C   UNL A   1      40.682  28.587  30.242  1.00  0.00     0.034 A 
ATOM     51  C   UNL A   1      39.889  32.910  35.717  1.00  0.00     0.034 A 
ATOM     52  C   UNL A   1      41.643  28.419  31.306  1.00  0.00     0.049 A 
ATOM     53  C   UNL A   1      40.957  31.845  35.693  1.00  0.00     0.074 A 
ATOM     54  C   UNL A   1      42.712  27.540  31.370  1.00  0.00     0.029 A 
ATOM     55  N   UNL A   1      41.652  29.135  32.497  1.00  0.00    -0.354 N 
ATOM     56  N   UNL A   1      41.238  30.978  34.748  1.00  0.00    -0.248 NA
ATOM     57  C   UNL A   1      41.821  31.746  36.876  1.00  0.00     0.031 C 
ATOM     58  C   UNL A   1      43.316  27.672  32.626  1.00  0.00     0.029 A 
ATOM     59  C   UNL A   1      42.683  28.694  33.314  1.00  0.00     0.049 A 
ATOM     60  H   UNL A   1      41.017  29.851  32.727  1.00  0.00     0.167 HD
ATOM     61  C   UNL A   1      42.334  30.253  35.212  1.00  0.00     0.074 A 
ATOM     62  C   UNL A   1      42.670  30.796  36.512  1.00  0.00     0.031 C 
ATOM     63  C   UNL A   1      43.003  29.234  34.614  1.00  0.00     0.034 A 
BRANCH  50  64
ATOM     64  C   UNL A   1      40.754  27.670  29.043  1.00  0.00     0.023 A 
ATOM     65  C   UNL A   1      41.695  27.869  28.018  1.00  0.00     0.031 A 
ATOM     66  C   UNL A   1      39.852  26.600  28.906  1.00  0.00     0.131 A 
ATOM     67  C   UNL A   1      41.661  27.065  26.868  1.00  0.00     0.055 A 
ATOM     68  C   UNL A   1      39.883  25.747  27.800  1.00  0.00     0.041 A 
ATOM     69  F   UNL A   1      38.914  26.370  29.839  1.00  0.00    -0.206 F 
ATOM     70  C   UNL A   1      40.780  25.988  26.765  1.00  0.00     0.022 A 
BRANCH  67  71
ATOM     71  S   UNL A   1      42.677  27.550  25.446  1.00  0.00     0.124 S 
ATOM     72  O   UNL A   1      42.668  26.327  24.647  1.00  0.00    -0.237 OA
ATOM     73  O   UNL A   1      41.934  28.678  24.896  1.00  0.00    -0.237 OA
ATOM     74  O   UNL A   1      43.967  27.885  26.045  1.00  0.00    -0.744 OA
ENDBRANCH  67  71
ENDBRANCH  50  64
BRANCH  51  75
ATOM     75  C   UNL A   1      39.702  33.773  36.919  1.00  0.00     0.023 A 
ATOM     76  C   UNL A   1      39.054  33.292  38.067  1.00  0.00     0.031 A 
ATOM     77  C   UNL A   1      40.132  35.113  36.921  1.00  0.00     0.131 A 
ATOM     78  C   UNL A   1      38.810  34.152  39.148  1.00  0.00     0.055 A 
ATOM     79  C   UNL A   1      39.940  35.950  38.022  1.00  0.00     0.041 A 
ATOM     80  F   UNL A   1      40.758  35.627  35.850  1.00  0.00    -0.206 F 
ATOM     81  C   UNL A   1      39.262  35.474  39.139  1.00  0.00     0.022 A 
BRANCH  78  82
ATOM     82  S   UNL A   1      37.809  33.546  40.534  1.00  0.00     0.124 S 
ATOM     83  O   UNL A   1      37.623  34.761  41.319  1.00  0.00    -0.237 OA
ATOM     84  O   UNL A   1      36.625  33.036  39.850  1.00  0.00    -0.237 OA
ATOM     85  O   UNL A   1      38.659  32.528  41.148  1.00  0.00    -0.744 OA
ENDBRANCH  78  82
ENDBRANCH  51  75
BRANCH  63  86
ATOM     86  C   UNL A   1      44.201  28.674  35.346  1.00  0.00     0.023 A 
ATOM     87  C   UNL A   1      44.073  27.680  36.332  1.00  0.00     0.031 A 
ATOM     88  C   UNL A   1      45.492  29.151  35.056  1.00  0.00     0.131 A 
ATOM     89  C   UNL A   1      45.206  27.239  37.032  1.00  0.00     0.055 A 
ATOM     90  C   UNL A   1      46.623  28.660  35.708  1.00  0.00     0.041 A 
ATOM     91  F   UNL A   1      45.676  30.103  34.126  1.00  0.00    -0.206 F 
ATOM     92  C   UNL A   1      46.482  27.708  36.714  1.00  0.00     0.022 A 
BRANCH  89  93
ATOM     93  S   UNL A   1      44.979  26.112  38.436  1.00  0.00     0.124 S 
ATOM     94  O   UNL A   1      46.077  26.499  39.317  1.00  0.00    -0.237 OA
ATOM     95  O   UNL A   1      43.638  26.457  38.899  1.00  0.00    -0.237 OA
ATOM     96  O   UNL A   1      45.105  24.785  37.835  1.00  0.00    -0.744 OA
ENDBRANCH  89  93
ENDBRANCH  63  86
ENDBRANCH  37  38
ENDBRANCH  29  32
ENDBRANCH  27  28
ENDBRANCH   1  27
TORSDOF 16
ENDMDL
