MODEL 1
REMARK VINA RESULT:     -12.3      0.000      0.000
REMARK SMILES CC1(C)CCN(C(=O)Nc2ccc(O)c(C(=O)NCCCCNC(=O)c3ccc(-c4c5nc(c(-c6cc(S(=O)(=O)[O-])ccc6F)c6ccc([nH]6)c(-c6cc(S(=O)(=O)[O-])ccc6F)c6nc(c(-c7cc(S(=O)(=O)[O-])ccc7F)c7ccc4[nH]7)C=C6)C=C5)cc3)c2)C1
REMARK SMILES IDX 21 1 20 2 19 3 18 4 16 5 17 6 15 8 10 9 11 10 89 11 12 12
REMARK SMILES IDX 13 13 9 14 7 15 8 16 6 18 1 19 2 20 3 21 4 22 90 23 5 24
REMARK SMILES IDX 14 25 22 27 23 28 24 29 25 31 26 32 27 33 88 34 28 35 87 36
REMARK SMILES IDX 29 37 30 38 31 39 81 40 32 41 86 42 80 43 82 44 33 45 85 46
REMARK SMILES IDX 79 47 78 48 34 50 66 51 46 52 65 53 47 54 50 55 64 56 83 57
REMARK SMILES IDX 48 58 49 59 63 61 84 62 51 63 35 64 36 65 44 66 37 67 43 68
REMARK SMILES IDX 45 69 42 70 38 71 39 72 40 73 41 74 67 75 68 76 76 77 69 78
REMARK SMILES IDX 75 79 77 80 74 81 70 82 71 83 72 84 73 85 52 86 53 87 61 88
REMARK SMILES IDX 54 89 60 90 62 91 59 92 55 93 56 94 57 95 58 96
REMARK H PARENT 18 7 9 17 14 26 23 30 82 49 50 60
REMARK Flexibility Score: inf
ROOT
ATOM      1  C   UNL A   1      31.306  32.256  26.504  1.00  0.00     0.023 C 
ENDROOT
BRANCH   1   2
ATOM      2  C   UNL A   1      31.369  30.814  26.010  1.00  0.00     0.023 C 
BRANCH   2   3
ATOM      3  C   UNL A   1      32.740  30.142  26.119  1.00  0.00     0.116 C 
BRANCH   3   4
ATOM      4  N   UNL A   1      33.250  29.807  24.807  1.00  0.00    -0.352 N 
ATOM      5  C   UNL A   1      32.843  28.902  23.862  1.00  0.00     0.255 C 
ATOM      6  O   UNL A   1      33.519  28.850  22.829  1.00  0.00    -0.269 OA
ATOM      7  H   UNL A   1      34.042  30.329  24.543  1.00  0.00     0.163 HD
BRANCH   5   8
ATOM      8  C   UNL A   1      31.614  28.053  23.932  1.00  0.00     0.083 A 
ATOM      9  C   UNL A   1      30.466  26.401  25.320  1.00  0.00     0.043 A 
ATOM     10  C   UNL A   1      29.395  26.379  24.433  1.00  0.00     0.030 A 
ATOM     11  C   UNL A   1      31.525  27.283  25.112  1.00  0.00     0.044 A 
ATOM     12  C   UNL A   1      29.445  27.148  23.279  1.00  0.00     0.049 A 
ATOM     13  C   UNL A   1      30.557  27.958  23.017  1.00  0.00     0.128 A 
BRANCH   9  14
ATOM     14  N   UNL A   1      30.534  25.524  26.407  1.00  0.00    -0.308 N 
ATOM     15  C   UNL A   1      30.807  24.188  26.431  1.00  0.00     0.321 C 
ATOM     16  O   UNL A   1      30.406  23.525  27.390  1.00  0.00    -0.248 OA
ATOM     17  H   UNL A   1      30.360  25.933  27.285  1.00  0.00     0.171 HD
BRANCH  15  18
ATOM     18  N   UNL A   1      31.628  23.642  25.472  1.00  0.00    -0.324 N 
ATOM     19  C   UNL A   1      32.458  24.663  22.588  1.00  0.00     0.013 C 
ATOM     20  C   UNL A   1      32.504  23.292  23.277  1.00  0.00    -0.016 C 
ATOM     21  C   UNL A   1      32.598  22.190  22.218  1.00  0.00     0.013 C 
ATOM     22  C   UNL A   1      33.640  23.197  24.308  1.00  0.00     0.030 C 
ATOM     23  C   UNL A   1      31.269  23.101  24.163  1.00  0.00     0.127 C 
ATOM     24  C   UNL A   1      33.062  23.855  25.556  1.00  0.00     0.122 C 
ENDBRANCH  15  18
ENDBRANCH   9  14
BRANCH  13  25
ATOM     25  O   UNL A   1      30.523  28.658  21.853  1.00  0.00    -0.507 OA
ATOM     26  H   UNL A   1      31.273  28.672  21.292  1.00  0.00     0.293 HD
ENDBRANCH  13  25
ENDBRANCH   5   8
ENDBRANCH   3   4
ENDBRANCH   2   3
ENDBRANCH   1   2
BRANCH   1  27
ATOM     27  C   UNL A   1      32.646  32.870  26.885  1.00  0.00     0.116 C 
BRANCH  27  28
ATOM     28  N   UNL A   1      32.526  34.049  27.733  1.00  0.00    -0.352 N 
ATOM     29  C   UNL A   1      33.343  34.449  28.767  1.00  0.00     0.251 C 
ATOM     30  H   UNL A   1      31.759  34.637  27.542  1.00  0.00     0.163 HD
ATOM     31  O   UNL A   1      33.057  35.428  29.440  1.00  0.00    -0.269 OA
BRANCH  29  32
ATOM     32  C   UNL A   1      34.541  33.641  29.074  1.00  0.00     0.039 A 
ATOM     33  C   UNL A   1      35.793  34.118  28.678  1.00  0.00     0.014 A 
ATOM     34  C   UNL A   1      34.430  32.475  29.836  1.00  0.00     0.014 A 
ATOM     35  C   UNL A   1      36.946  33.477  29.138  1.00  0.00     0.010 A 
ATOM     36  C   UNL A   1      35.579  31.879  30.346  1.00  0.00     0.010 A 
ATOM     37  C   UNL A   1      36.845  32.391  30.022  1.00  0.00    -0.014 A 
BRANCH  37  38
ATOM     38  C   UNL A   1      38.047  31.809  30.671  1.00  0.00     0.031 A 
ATOM     39  C   UNL A   1      38.830  30.734  29.976  1.00  0.00     0.074 A 
ATOM     40  C   UNL A   1      38.362  32.180  31.928  1.00  0.00     0.049 A 
ATOM     41  N   UNL A   1      39.830  30.019  30.425  1.00  0.00    -0.248 NA
ATOM     42  C   UNL A   1      38.416  30.398  28.606  1.00  0.00     0.031 C 
ATOM     43  C   UNL A   1      37.639  33.181  32.720  1.00  0.00     0.029 A 
ATOM     44  N   UNL A   1      39.352  31.745  32.773  1.00  0.00    -0.354 N 
ATOM     45  C   UNL A   1      40.156  29.139  29.400  1.00  0.00     0.074 A 
ATOM     46  C   UNL A   1      39.214  29.379  28.325  1.00  0.00     0.031 C 
ATOM     47  C   UNL A   1      38.216  33.286  33.928  1.00  0.00     0.029 A 
ATOM     48  C   UNL A   1      39.314  32.330  34.018  1.00  0.00     0.049 A 
ATOM     49  H   UNL A   1      40.026  31.077  32.512  1.00  0.00     0.167 HD
ATOM     50  C   UNL A   1      41.159  28.229  29.356  1.00  0.00     0.034 A 
ATOM     51  C   UNL A   1      40.060  32.102  35.117  1.00  0.00     0.034 A 
ATOM     52  C   UNL A   1      42.096  28.015  30.432  1.00  0.00     0.049 A 
ATOM     53  C   UNL A   1      41.146  31.059  35.054  1.00  0.00     0.074 A 
ATOM     54  C   UNL A   1      43.205  27.189  30.457  1.00  0.00     0.029 A 
ATOM     55  N   UNL A   1      42.022  28.620  31.681  1.00  0.00    -0.354 N 
ATOM     56  N   UNL A   1      41.489  30.287  34.049  1.00  0.00    -0.248 NA
ATOM     57  C   UNL A   1      41.942  30.856  36.271  1.00  0.00     0.031 C 
ATOM     58  C   UNL A   1      43.761  27.240  31.739  1.00  0.00     0.029 A 
ATOM     59  C   UNL A   1      43.039  28.149  32.497  1.00  0.00     0.049 A 
ATOM     60  H   UNL A   1      41.347  29.285  31.947  1.00  0.00     0.167 HD
ATOM     61  C   UNL A   1      42.553  29.518  34.511  1.00  0.00     0.074 A 
ATOM     62  C   UNL A   1      42.807  29.933  35.875  1.00  0.00     0.031 C 
ATOM     63  C   UNL A   1      43.259  28.555  33.865  1.00  0.00     0.034 A 
BRANCH  50  64
ATOM     64  C   UNL A   1      41.275  27.381  28.114  1.00  0.00     0.023 A 
ATOM     65  C   UNL A   1      40.892  26.029  28.105  1.00  0.00     0.031 A 
ATOM     66  C   UNL A   1      41.787  27.930  26.925  1.00  0.00     0.131 A 
ATOM     67  C   UNL A   1      41.091  25.253  26.953  1.00  0.00     0.055 A 
ATOM     68  C   UNL A   1      41.913  27.171  25.760  1.00  0.00     0.041 A 
ATOM     69  F   UNL A   1      42.186  29.211  26.881  1.00  0.00    -0.206 F 
ATOM     70  C   UNL A   1      41.576  25.821  25.773  1.00  0.00     0.022 A 
BRANCH  67  71
ATOM     71  S   UNL A   1      40.821  23.463  27.056  1.00  0.00     0.124 S 
ATOM     72  O   UNL A   1      41.524  22.990  25.866  1.00  0.00    -0.237 OA
ATOM     73  O   UNL A   1      41.434  23.125  28.336  1.00  0.00    -0.237 OA
ATOM     74  O   UNL A   1      39.367  23.331  27.007  1.00  0.00    -0.744 OA
ENDBRANCH  67  71
ENDBRANCH  50  64
BRANCH  51  75
ATOM     75  C   UNL A   1      39.787  32.840  36.384  1.00  0.00     0.023 A 
ATOM     76  C   UNL A   1      38.841  32.370  37.306  1.00  0.00     0.031 A 
ATOM     77  C   UNL A   1      40.442  34.052  36.669  1.00  0.00     0.131 A 
ATOM     78  C   UNL A   1      38.541  33.127  38.450  1.00  0.00     0.055 A 
ATOM     79  C   UNL A   1      40.178  34.777  37.832  1.00  0.00     0.041 A 
ATOM     80  F   UNL A   1      41.360  34.543  35.823  1.00  0.00    -0.206 F 
ATOM     81  C   UNL A   1      39.212  34.322  38.724  1.00  0.00     0.022 A 
BRANCH  78  82
ATOM     82  S   UNL A   1      37.200  32.568  39.535  1.00  0.00     0.124 S 
ATOM     83  O   UNL A   1      37.593  31.192  39.810  1.00  0.00    -0.237 OA
ATOM     84  O   UNL A   1      37.308  33.502  40.652  1.00  0.00    -0.237 OA
ATOM     85  O   UNL A   1      36.006  32.724  38.708  1.00  0.00    -0.744 OA
ENDBRANCH  78  82
ENDBRANCH  51  75
BRANCH  63  86
ATOM     86  C   UNL A   1      44.381  27.903  34.632  1.00  0.00     0.023 A 
ATOM     87  C   UNL A   1      44.181  26.712  35.349  1.00  0.00     0.031 A 
ATOM     88  C   UNL A   1      45.660  28.485  34.650  1.00  0.00     0.131 A 
ATOM     89  C   UNL A   1      45.236  26.161  36.093  1.00  0.00     0.055 A 
ATOM     90  C   UNL A   1      46.719  27.903  35.348  1.00  0.00     0.041 A 
ATOM     91  F   UNL A   1      45.902  29.625  33.984  1.00  0.00    -0.206 F 
ATOM     92  C   UNL A   1      46.508  26.741  36.083  1.00  0.00     0.022 A 
BRANCH  89  93
ATOM     93  S   UNL A   1      44.907  24.709  37.129  1.00  0.00     0.124 S 
ATOM     94  O   UNL A   1      43.802  25.176  37.962  1.00  0.00    -0.237 OA
ATOM     95  O   UNL A   1      44.573  23.688  36.142  1.00  0.00    -0.237 OA
ATOM     96  O   UNL A   1      46.169  24.498  37.835  1.00  0.00    -0.744 OA
ENDBRANCH  89  93
ENDBRANCH  63  86
ENDBRANCH  37  38
ENDBRANCH  29  32
ENDBRANCH  27  28
ENDBRANCH   1  27
TORSDOF 17
ENDMDL
MODEL 2
REMARK VINA RESULT:     -12.2      5.273     10.590
REMARK SMILES CC1(C)CCN(C(=O)Nc2ccc(O)c(C(=O)NCCCCNC(=O)c3ccc(-c4c5nc(c(-c6cc(S(=O)(=O)[O-])ccc6F)c6ccc([nH]6)c(-c6cc(S(=O)(=O)[O-])ccc6F)c6nc(c(-c7cc(S(=O)(=O)[O-])ccc7F)c7ccc4[nH]7)C=C6)C=C5)cc3)c2)C1
REMARK SMILES IDX 21 1 20 2 19 3 18 4 16 5 17 6 15 8 10 9 11 10 89 11 12 12
REMARK SMILES IDX 13 13 9 14 7 15 8 16 6 18 1 19 2 20 3 21 4 22 90 23 5 24
REMARK SMILES IDX 14 25 22 27 23 28 24 29 25 31 26 32 27 33 88 34 28 35 87 36
REMARK SMILES IDX 29 37 30 38 31 39 81 40 32 41 86 42 80 43 82 44 33 45 85 46
REMARK SMILES IDX 79 47 78 48 34 50 66 51 46 52 65 53 47 54 50 55 64 56 83 57
REMARK SMILES IDX 48 58 49 59 63 61 84 62 51 63 35 64 36 65 44 66 37 67 43 68
REMARK SMILES IDX 45 69 42 70 38 71 39 72 40 73 41 74 67 75 68 76 76 77 69 78
REMARK SMILES IDX 75 79 77 80 74 81 70 82 71 83 72 84 73 85 52 86 53 87 61 88
REMARK SMILES IDX 54 89 60 90 62 91 59 92 55 93 56 94 57 95 58 96
REMARK H PARENT 18 7 9 17 14 26 23 30 82 49 50 60
REMARK Flexibility Score: inf
ROOT
ATOM      1  C   UNL A   1      37.002  21.917  23.845  1.00  0.00     0.023 C 
ENDROOT
BRANCH   1   2
ATOM      2  C   UNL A   1      36.106  23.130  23.615  1.00  0.00     0.023 C 
BRANCH   2   3
ATOM      3  C   UNL A   1      34.762  23.102  24.347  1.00  0.00     0.116 C 
BRANCH   3   4
ATOM      4  N   UNL A   1      33.750  22.463  23.533  1.00  0.00    -0.352 N 
ATOM      5  C   UNL A   1      32.382  22.535  23.537  1.00  0.00     0.255 C 
ATOM      6  O   UNL A   1      31.797  21.836  22.704  1.00  0.00    -0.269 OA
ATOM      7  H   UNL A   1      34.115  21.862  22.845  1.00  0.00     0.163 HD
BRANCH   5   8
ATOM      8  C   UNL A   1      31.553  23.444  24.387  1.00  0.00     0.083 A 
ATOM      9  C   UNL A   1      30.220  25.491  24.322  1.00  0.00     0.043 A 
ATOM     10  C   UNL A   1      29.875  25.327  25.659  1.00  0.00     0.030 A 
ATOM     11  C   UNL A   1      30.985  24.521  23.675  1.00  0.00     0.044 A 
ATOM     12  C   UNL A   1      30.399  24.259  26.376  1.00  0.00     0.049 A 
ATOM     13  C   UNL A   1      31.252  23.341  25.752  1.00  0.00     0.128 A 
BRANCH   9  14
ATOM     14  N   UNL A   1      29.852  26.635  23.607  1.00  0.00    -0.308 N 
ATOM     15  C   UNL A   1      30.277  27.923  23.747  1.00  0.00     0.321 C 
ATOM     16  O   UNL A   1      29.547  28.829  23.340  1.00  0.00    -0.248 OA
ATOM     17  H   UNL A   1      29.188  26.488  22.895  1.00  0.00     0.171 HD
BRANCH  15  18
ATOM     18  N   UNL A   1      31.549  28.176  24.207  1.00  0.00    -0.324 N 
ATOM     19  C   UNL A   1      33.589  26.379  25.838  1.00  0.00     0.013 C 
ATOM     20  C   UNL A   1      33.479  27.889  25.587  1.00  0.00    -0.016 C 
ATOM     21  C   UNL A   1      34.276  28.645  26.654  1.00  0.00     0.013 C 
ATOM     22  C   UNL A   1      33.913  28.274  24.164  1.00  0.00     0.030 C 
ATOM     23  C   UNL A   1      32.009  28.322  25.587  1.00  0.00     0.127 C 
ATOM     24  C   UNL A   1      32.679  27.997  23.312  1.00  0.00     0.122 C 
ENDBRANCH  15  18
ENDBRANCH   9  14
BRANCH  13  25
ATOM     25  O   UNL A   1      31.730  22.342  26.541  1.00  0.00    -0.507 OA
ATOM     26  H   UNL A   1      32.546  22.447  26.988  1.00  0.00     0.293 HD
ENDBRANCH  13  25
ENDBRANCH   5   8
ENDBRANCH   3   4
ENDBRANCH   2   3
ENDBRANCH   1   2
BRANCH   1  27
ATOM     27  C   UNL A   1      37.289  21.590  25.304  1.00  0.00     0.116 C 
BRANCH  27  28
ATOM     28  N   UNL A   1      38.314  20.570  25.481  1.00  0.00    -0.352 N 
ATOM     29  C   UNL A   1      39.541  20.683  26.097  1.00  0.00     0.251 C 
ATOM     30  H   UNL A   1      38.101  19.682  25.112  1.00  0.00     0.163 HD
ATOM     31  O   UNL A   1      40.327  19.748  26.090  1.00  0.00    -0.269 OA
BRANCH  29  32
ATOM     32  C   UNL A   1      39.902  21.974  26.718  1.00  0.00     0.039 A 
ATOM     33  C   UNL A   1      40.831  21.981  27.761  1.00  0.00     0.014 A 
ATOM     34  C   UNL A   1      39.402  23.172  26.199  1.00  0.00     0.014 A 
ATOM     35  C   UNL A   1      41.339  23.200  28.217  1.00  0.00     0.010 A 
ATOM     36  C   UNL A   1      39.958  24.379  26.610  1.00  0.00     0.010 A 
ATOM     37  C   UNL A   1      40.949  24.401  27.603  1.00  0.00    -0.014 A 
BRANCH  37  38
ATOM     38  C   UNL A   1      41.605  25.689  27.939  1.00  0.00     0.031 A 
ATOM     39  C   UNL A   1      40.835  26.763  28.651  1.00  0.00     0.074 A 
ATOM     40  C   UNL A   1      42.861  25.921  27.506  1.00  0.00     0.049 A 
ATOM     41  N   UNL A   1      41.191  27.992  28.923  1.00  0.00    -0.248 NA
ATOM     42  C   UNL A   1      39.475  26.417  29.089  1.00  0.00     0.031 C 
ATOM     43  C   UNL A   1      43.687  24.968  26.760  1.00  0.00     0.029 A 
ATOM     44  N   UNL A   1      43.655  27.036  27.606  1.00  0.00    -0.354 N 
ATOM     45  C   UNL A   1      40.095  28.572  29.551  1.00  0.00     0.074 A 
ATOM     46  C   UNL A   1      39.047  27.573  29.575  1.00  0.00     0.031 C 
ATOM     47  C   UNL A   1      44.871  25.536  26.478  1.00  0.00     0.029 A 
ATOM     48  C   UNL A   1      44.872  26.907  26.976  1.00  0.00     0.049 A 
ATOM     49  H   UNL A   1      43.379  27.852  28.083  1.00  0.00     0.167 HD
ATOM     50  C   UNL A   1      39.983  29.818  30.074  1.00  0.00     0.034 A 
ATOM     51  C   UNL A   1      45.865  27.801  26.796  1.00  0.00     0.034 A 
ATOM     52  C   UNL A   1      41.045  30.794  30.053  1.00  0.00     0.049 A 
ATOM     53  C   UNL A   1      45.701  29.191  27.355  1.00  0.00     0.074 A 
ATOM     54  C   UNL A   1      41.073  32.049  30.635  1.00  0.00     0.029 A 
ATOM     55  N   UNL A   1      42.261  30.632  29.401  1.00  0.00    -0.354 N 
ATOM     56  N   UNL A   1      44.686  29.700  28.013  1.00  0.00    -0.248 NA
ATOM     57  C   UNL A   1      46.815  30.125  27.147  1.00  0.00     0.031 C 
ATOM     58  C   UNL A   1      42.273  32.672  30.278  1.00  0.00     0.029 A 
ATOM     59  C   UNL A   1      43.025  31.782  29.527  1.00  0.00     0.049 A 
ATOM     60  H   UNL A   1      42.538  29.820  28.918  1.00  0.00     0.167 HD
ATOM     61  C   UNL A   1      45.047  31.010  28.310  1.00  0.00     0.074 A 
ATOM     62  C   UNL A   1      46.380  31.206  27.778  1.00  0.00     0.031 C 
ATOM     63  C   UNL A   1      44.342  31.968  28.966  1.00  0.00     0.034 A 
BRANCH  50  64
ATOM     64  C   UNL A   1      38.659  30.199  30.687  1.00  0.00     0.023 A 
ATOM     65  C   UNL A   1      37.676  30.885  29.953  1.00  0.00     0.031 A 
ATOM     66  C   UNL A   1      38.381  29.883  32.028  1.00  0.00     0.131 A 
ATOM     67  C   UNL A   1      36.490  31.292  30.583  1.00  0.00     0.055 A 
ATOM     68  C   UNL A   1      37.168  30.226  32.628  1.00  0.00     0.041 A 
ATOM     69  F   UNL A   1      39.290  29.245  32.783  1.00  0.00    -0.206 F 
ATOM     70  C   UNL A   1      36.219  30.946  31.908  1.00  0.00     0.022 A 
BRANCH  67  71
ATOM     71  S   UNL A   1      35.361  32.387  29.680  1.00  0.00     0.124 S 
ATOM     72  O   UNL A   1      34.366  32.694  30.705  1.00  0.00    -0.237 OA
ATOM     73  O   UNL A   1      36.235  33.487  29.288  1.00  0.00    -0.237 OA
ATOM     74  O   UNL A   1      34.878  31.552  28.582  1.00  0.00    -0.744 OA
ENDBRANCH  67  71
ENDBRANCH  50  64
BRANCH  51  75
ATOM     75  C   UNL A   1      47.084  27.431  26.022  1.00  0.00     0.023 A 
ATOM     76  C   UNL A   1      47.206  27.762  24.663  1.00  0.00     0.031 A 
ATOM     77  C   UNL A   1      48.128  26.704  26.621  1.00  0.00     0.131 A 
ATOM     78  C   UNL A   1      48.326  27.329  23.936  1.00  0.00     0.055 A 
ATOM     79  C   UNL A   1      49.263  26.318  25.906  1.00  0.00     0.041 A 
ATOM     80  F   UNL A   1      48.063  26.367  27.918  1.00  0.00    -0.206 F 
ATOM     81  C   UNL A   1      49.360  26.619  24.551  1.00  0.00     0.022 A 
BRANCH  78  82
ATOM     82  S   UNL A   1      48.374  27.637  22.149  1.00  0.00     0.124 S 
ATOM     83  O   UNL A   1      48.555  26.291  21.619  1.00  0.00    -0.237 OA
ATOM     84  O   UNL A   1      47.070  28.249  21.915  1.00  0.00    -0.237 OA
ATOM     85  O   UNL A   1      49.518  28.531  21.989  1.00  0.00    -0.744 OA
ENDBRANCH  78  82
ENDBRANCH  51  75
BRANCH  63  86
ATOM     86  C   UNL A   1      45.016  33.302  29.152  1.00  0.00     0.023 A 
ATOM     87  C   UNL A   1      44.856  34.339  28.217  1.00  0.00     0.031 A 
ATOM     88  C   UNL A   1      45.832  33.536  30.271  1.00  0.00     0.131 A 
ATOM     89  C   UNL A   1      45.539  35.552  28.397  1.00  0.00     0.055 A 
ATOM     90  C   UNL A   1      46.466  34.763  30.472  1.00  0.00     0.041 A 
ATOM     91  F   UNL A   1      46.020  32.578  31.192  1.00  0.00    -0.206 F 
ATOM     92  C   UNL A   1      46.330  35.775  29.527  1.00  0.00     0.022 A 
BRANCH  89  93
ATOM     93  S   UNL A   1      45.433  36.813  27.097  1.00  0.00     0.124 S 
ATOM     94  O   UNL A   1      46.220  36.210  26.026  1.00  0.00    -0.237 OA
ATOM     95  O   UNL A   1      43.996  36.900  26.860  1.00  0.00    -0.237 OA
ATOM     96  O   UNL A   1      46.031  37.994  27.717  1.00  0.00    -0.744 OA
ENDBRANCH  89  93
ENDBRANCH  63  86
ENDBRANCH  37  38
ENDBRANCH  29  32
ENDBRANCH  27  28
ENDBRANCH   1  27
TORSDOF 17
ENDMDL
MODEL 3
REMARK VINA RESULT:     -12.1      5.180      8.664
REMARK SMILES CC1(C)CCN(C(=O)Nc2ccc(O)c(C(=O)NCCCCNC(=O)c3ccc(-c4c5nc(c(-c6cc(S(=O)(=O)[O-])ccc6F)c6ccc([nH]6)c(-c6cc(S(=O)(=O)[O-])ccc6F)c6nc(c(-c7cc(S(=O)(=O)[O-])ccc7F)c7ccc4[nH]7)C=C6)C=C5)cc3)c2)C1
REMARK SMILES IDX 21 1 20 2 19 3 18 4 16 5 17 6 15 8 10 9 11 10 89 11 12 12
REMARK SMILES IDX 13 13 9 14 7 15 8 16 6 18 1 19 2 20 3 21 4 22 90 23 5 24
REMARK SMILES IDX 14 25 22 27 23 28 24 29 25 31 26 32 27 33 88 34 28 35 87 36
REMARK SMILES IDX 29 37 30 38 31 39 81 40 32 41 86 42 80 43 82 44 33 45 85 46
REMARK SMILES IDX 79 47 78 48 34 50 66 51 46 52 65 53 47 54 50 55 64 56 83 57
REMARK SMILES IDX 48 58 49 59 63 61 84 62 51 63 35 64 36 65 44 66 37 67 43 68
REMARK SMILES IDX 45 69 42 70 38 71 39 72 40 73 41 74 67 75 68 76 76 77 69 78
REMARK SMILES IDX 75 79 77 80 74 81 70 82 71 83 72 84 73 85 52 86 53 87 61 88
REMARK SMILES IDX 54 89 60 90 62 91 59 92 55 93 56 94 57 95 58 96
REMARK H PARENT 18 7 9 17 14 26 23 30 82 49 50 60
REMARK Flexibility Score: inf
ROOT
ATOM      1  C   UNL A   1      36.353  20.963  25.382  1.00  0.00     0.023 C 
ENDROOT
BRANCH   1   2
ATOM      2  C   UNL A   1      35.553  22.039  26.109  1.00  0.00     0.023 C 
BRANCH   2   3
ATOM      3  C   UNL A   1      34.396  21.527  26.971  1.00  0.00     0.116 C 
BRANCH   3   4
ATOM      4  N   UNL A   1      33.637  20.521  26.261  1.00  0.00    -0.352 N 
ATOM      5  C   UNL A   1      32.549  20.601  25.432  1.00  0.00     0.255 C 
ATOM      6  O   UNL A   1      32.120  19.530  24.990  1.00  0.00    -0.269 OA
ATOM      7  H   UNL A   1      33.965  19.603  26.400  1.00  0.00     0.163 HD
BRANCH   5   8
ATOM      8  C   UNL A   1      31.904  21.860  24.949  1.00  0.00     0.083 A 
ATOM      9  C   UNL A   1      31.911  23.468  23.109  1.00  0.00     0.043 A 
ATOM     10  C   UNL A   1      30.863  24.168  23.697  1.00  0.00     0.030 A 
ATOM     11  C   UNL A   1      32.372  22.287  23.688  1.00  0.00     0.044 A 
ATOM     12  C   UNL A   1      30.366  23.754  24.925  1.00  0.00     0.049 A 
ATOM     13  C   UNL A   1      30.900  22.625  25.558  1.00  0.00     0.128 A 
BRANCH   9  14
ATOM     14  N   UNL A   1      32.552  23.940  21.959  1.00  0.00    -0.308 N 
ATOM     15  C   UNL A   1      32.900  25.214  21.618  1.00  0.00     0.321 C 
ATOM     16  O   UNL A   1      33.053  25.480  20.424  1.00  0.00    -0.248 OA
ATOM     17  H   UNL A   1      32.788  23.249  21.298  1.00  0.00     0.171 HD
BRANCH  15  18
ATOM     18  N   UNL A   1      33.201  26.126  22.602  1.00  0.00    -0.324 N 
ATOM     19  C   UNL A   1      31.484  27.259  25.014  1.00  0.00     0.013 C 
ATOM     20  C   UNL A   1      32.755  27.744  24.304  1.00  0.00    -0.016 C 
ATOM     21  C   UNL A   1      32.959  29.236  24.580  1.00  0.00     0.013 C 
ATOM     22  C   UNL A   1      33.989  26.913  24.690  1.00  0.00     0.030 C 
ATOM     23  C   UNL A   1      32.660  27.470  22.799  1.00  0.00     0.127 C 
ATOM     24  C   UNL A   1      33.903  25.683  23.794  1.00  0.00     0.122 C 
ENDBRANCH  15  18
ENDBRANCH   9  14
BRANCH  13  25
ATOM     25  O   UNL A   1      30.361  22.310  26.766  1.00  0.00    -0.507 OA
ATOM     26  H   UNL A   1      30.649  22.755  27.538  1.00  0.00     0.293 HD
ENDBRANCH  13  25
ENDBRANCH   5   8
ENDBRANCH   3   4
ENDBRANCH   2   3
ENDBRANCH   1   2
BRANCH   1  27
ATOM     27  C   UNL A   1      37.791  21.337  25.049  1.00  0.00     0.116 C 
BRANCH  27  28
ATOM     28  N   UNL A   1      38.772  20.386  25.553  1.00  0.00    -0.352 N 
ATOM     29  C   UNL A   1      39.863  20.623  26.360  1.00  0.00     0.251 C 
ATOM     30  H   UNL A   1      38.637  19.448  25.283  1.00  0.00     0.163 HD
ATOM     31  O   UNL A   1      40.643  19.722  26.629  1.00  0.00    -0.269 OA
BRANCH  29  32
ATOM     32  C   UNL A   1      40.096  22.000  26.845  1.00  0.00     0.039 A 
ATOM     33  C   UNL A   1      41.068  22.211  27.825  1.00  0.00     0.014 A 
ATOM     34  C   UNL A   1      39.428  23.078  26.258  1.00  0.00     0.014 A 
ATOM     35  C   UNL A   1      41.445  23.517  28.144  1.00  0.00     0.010 A 
ATOM     36  C   UNL A   1      39.852  24.374  26.529  1.00  0.00     0.010 A 
ATOM     37  C   UNL A   1      40.882  24.604  27.455  1.00  0.00    -0.014 A 
BRANCH  37  38
ATOM     38  C   UNL A   1      41.393  25.985  27.639  1.00  0.00     0.031 A 
ATOM     39  C   UNL A   1      42.760  26.354  27.141  1.00  0.00     0.074 A 
ATOM     40  C   UNL A   1      40.662  26.868  28.349  1.00  0.00     0.049 A 
ATOM     41  N   UNL A   1      43.429  27.465  27.312  1.00  0.00    -0.248 NA
ATOM     42  C   UNL A   1      43.480  25.327  26.374  1.00  0.00     0.031 C 
ATOM     43  C   UNL A   1      39.340  26.602  28.925  1.00  0.00     0.029 A 
ATOM     44  N   UNL A   1      40.933  28.158  28.730  1.00  0.00    -0.354 N 
ATOM     45  C   UNL A   1      44.654  27.268  26.688  1.00  0.00     0.074 A 
ATOM     46  C   UNL A   1      44.652  25.912  26.176  1.00  0.00     0.031 C 
ATOM     47  C   UNL A   1      38.916  27.696  29.578  1.00  0.00     0.029 A 
ATOM     48  C   UNL A   1      39.950  28.723  29.511  1.00  0.00     0.049 A 
ATOM     49  H   UNL A   1      41.754  28.635  28.469  1.00  0.00     0.167 HD
ATOM     50  C   UNL A   1      45.678  28.144  26.541  1.00  0.00     0.034 A 
ATOM     51  C   UNL A   1      39.900  29.920  30.128  1.00  0.00     0.034 A 
ATOM     52  C   UNL A   1      45.655  29.495  27.045  1.00  0.00     0.049 A 
ATOM     53  C   UNL A   1      41.066  30.863  29.979  1.00  0.00     0.074 A 
ATOM     54  C   UNL A   1      46.594  30.496  26.871  1.00  0.00     0.029 A 
ATOM     55  N   UNL A   1      44.647  30.030  27.837  1.00  0.00    -0.354 N 
ATOM     56  N   UNL A   1      42.188  30.688  29.321  1.00  0.00    -0.248 NA
ATOM     57  C   UNL A   1      40.960  32.162  30.656  1.00  0.00     0.031 C 
ATOM     58  C   UNL A   1      46.190  31.611  27.613  1.00  0.00     0.029 A 
ATOM     59  C   UNL A   1      44.965  31.331  28.198  1.00  0.00     0.049 A 
ATOM     60  H   UNL A   1      43.827  29.555  28.104  1.00  0.00     0.167 HD
ATOM     61  C   UNL A   1      42.914  31.862  29.493  1.00  0.00     0.074 A 
ATOM     62  C   UNL A   1      42.095  32.744  30.299  1.00  0.00     0.031 C 
ATOM     63  C   UNL A   1      44.147  32.186  29.026  1.00  0.00     0.034 A 
BRANCH  50  64
ATOM     64  C   UNL A   1      46.915  27.657  25.829  1.00  0.00     0.023 A 
ATOM     65  C   UNL A   1      47.151  27.949  24.475  1.00  0.00     0.031 A 
ATOM     66  C   UNL A   1      47.866  26.877  26.511  1.00  0.00     0.131 A 
ATOM     67  C   UNL A   1      48.273  27.410  23.827  1.00  0.00     0.055 A 
ATOM     68  C   UNL A   1      49.018  26.405  25.880  1.00  0.00     0.041 A 
ATOM     69  F   UNL A   1      47.683  26.550  27.800  1.00  0.00    -0.206 F 
ATOM     70  C   UNL A   1      49.220  26.660  24.527  1.00  0.00     0.022 A 
BRANCH  67  71
ATOM     71  S   UNL A   1      48.411  27.600  22.029  1.00  0.00     0.124 S 
ATOM     72  O   UNL A   1      47.116  28.186  21.694  1.00  0.00    -0.237 OA
ATOM     73  O   UNL A   1      49.565  28.482  21.893  1.00  0.00    -0.237 OA
ATOM     74  O   UNL A   1      48.611  26.233  21.554  1.00  0.00    -0.744 OA
ENDBRANCH  67  71
ENDBRANCH  50  64
BRANCH  51  75
ATOM     75  C   UNL A   1      38.729  30.287  30.975  1.00  0.00     0.023 A 
ATOM     76  C   UNL A   1      37.660  31.028  30.448  1.00  0.00     0.031 A 
ATOM     77  C   UNL A   1      38.683  29.937  32.336  1.00  0.00     0.131 A 
ATOM     78  C   UNL A   1      36.610  31.433  31.287  1.00  0.00     0.055 A 
ATOM     79  C   UNL A   1      37.613  30.300  33.155  1.00  0.00     0.041 A 
ATOM     80  F   UNL A   1      39.678  29.224  32.888  1.00  0.00    -0.206 F 
ATOM     81  C   UNL A   1      36.574  31.064  32.634  1.00  0.00     0.022 A 
BRANCH  78  82
ATOM     82  S   UNL A   1      35.328  32.522  30.609  1.00  0.00     0.124 S 
ATOM     83  O   UNL A   1      36.076  33.750  30.367  1.00  0.00    -0.237 OA
ATOM     84  O   UNL A   1      34.902  31.785  29.423  1.00  0.00    -0.237 OA
ATOM     85  O   UNL A   1      34.340  32.594  31.683  1.00  0.00    -0.744 OA
ENDBRANCH  78  82
ENDBRANCH  51  75
BRANCH  63  86
ATOM     86  C   UNL A   1      44.667  33.558  29.368  1.00  0.00     0.023 A 
ATOM     87  C   UNL A   1      44.320  34.684  28.604  1.00  0.00     0.031 A 
ATOM     88  C   UNL A   1      45.524  33.738  30.467  1.00  0.00     0.131 A 
ATOM     89  C   UNL A   1      44.864  35.938  28.922  1.00  0.00     0.055 A 
ATOM     90  C   UNL A   1      46.019  34.997  30.812  1.00  0.00     0.041 A 
ATOM     91  F   UNL A   1      45.889  32.694  31.228  1.00  0.00    -0.206 F 
ATOM     92  C   UNL A   1      45.698  36.103  30.031  1.00  0.00     0.022 A 
BRANCH  89  93
ATOM     93  S   UNL A   1      44.519  37.342  27.827  1.00  0.00     0.124 S 
ATOM     94  O   UNL A   1      45.857  37.705  27.370  1.00  0.00    -0.237 OA
ATOM     95  O   UNL A   1      43.642  36.749  26.822  1.00  0.00    -0.237 OA
ATOM     96  O   UNL A   1      43.879  38.315  28.709  1.00  0.00    -0.744 OA
ENDBRANCH  89  93
ENDBRANCH  63  86
ENDBRANCH  37  38
ENDBRANCH  29  32
ENDBRANCH  27  28
ENDBRANCH   1  27
TORSDOF 17
ENDMDL
