MODEL 1
REMARK VINA RESULT:     -11.9      0.000      0.000
REMARK SMILES CC(C)(C)c1ccccc1[C@@H]1C[NH2+]C[C@@H]1C(=O)NCCCCNC(=O)c1ccc(-c2c3nc(c(-c4cc(S(=O)(=O)[O-])ccc4F)c4ccc([nH]4)c(-c4cc(S(=O)(=O)[O-])ccc4F)c4nc(c(-c5cc(S(=O)(=O)[O-])ccc5F)c5ccc2[nH]5)C=C4)C=C3)cc1
REMARK SMILES IDX 21 1 20 2 19 3 18 4 16 5 17 6 15 8 11 9 12 10 13 11 14 12
REMARK SMILES IDX 10 15 5 16 6 17 7 18 9 19 8 20 2 21 1 22 3 23 4 24 22 25
REMARK SMILES IDX 23 26 24 27 25 29 26 30 27 31 88 32 28 33 87 34 29 35 30 36
REMARK SMILES IDX 31 37 81 38 32 39 86 40 80 41 82 42 33 43 85 44 79 45 78 46
REMARK SMILES IDX 34 48 66 49 46 50 65 51 47 52 50 53 64 54 83 55 48 56 49 57
REMARK SMILES IDX 63 59 84 60 51 61 35 62 36 63 44 64 37 65 43 66 45 67 42 68
REMARK SMILES IDX 38 69 39 70 40 71 41 72 67 73 68 74 76 75 69 76 75 77 77 78
REMARK SMILES IDX 74 79 70 80 71 81 72 82 73 83 52 84 53 85 61 86 54 87 60 88
REMARK SMILES IDX 62 89 59 90 55 91 56 92 57 93 58 94
REMARK H PARENT 18 7 13 13 13 14 23 28 82 47 50 58
REMARK Flexibility Score: inf
ROOT
ATOM      1  C   UNL A   1      34.572  21.724  25.188  1.00  0.00     0.023 C 
ENDROOT
BRANCH   1   2
ATOM      2  C   UNL A   1      33.411  22.039  26.128  1.00  0.00     0.023 C 
BRANCH   2   3
ATOM      3  C   UNL A   1      33.229  23.494  26.548  1.00  0.00     0.116 C 
BRANCH   3   4
ATOM      4  N   UNL A   1      31.980  24.089  26.122  1.00  0.00    -0.356 N 
ATOM      5  C   UNL A   1      31.562  24.412  24.870  1.00  0.00     0.229 C 
ATOM      6  O   UNL A   1      30.344  24.388  24.676  1.00  0.00    -0.275 OA
ATOM      7  H   UNL A   1      31.340  24.287  26.845  1.00  0.00     0.163 HD
BRANCH   5   8
ATOM      8  C   UNL A   1      32.558  24.698  23.755  1.00  0.00     0.146 C 
ATOM      9  C   UNL A   1      32.507  26.022  22.967  1.00  0.00     0.093 C 
ATOM     10  C   UNL A   1      32.467  25.665  21.481  1.00  0.00     0.269 C 
ATOM     11  N   UNL A   1      32.926  24.275  21.385  1.00  0.00    -0.345 N 
ATOM     12  C   UNL A   1      32.519  23.631  22.647  1.00  0.00     0.274 C 
ATOM     13  H   UNL A   1      33.940  24.243  21.281  1.00  0.00     0.346 HD
ATOM     14  H   UNL A   1      32.525  23.802  20.575  1.00  0.00     0.346 HD
BRANCH   9  15
ATOM     15  C   UNL A   1      31.721  27.269  23.359  1.00  0.00    -0.035 A 
ATOM     16  C   UNL A   1      31.857  28.144  24.470  1.00  0.00    -0.039 A 
ATOM     17  C   UNL A   1      31.020  29.310  24.457  1.00  0.00     0.004 A 
ATOM     18  C   UNL A   1      30.039  29.571  23.502  1.00  0.00     0.000 A 
ATOM     19  C   UNL A   1      30.666  27.547  22.423  1.00  0.00     0.004 A 
ATOM     20  C   UNL A   1      29.837  28.663  22.492  1.00  0.00     0.000 A 
BRANCH  16  21
ATOM     21  C   UNL A   1      32.744  28.048  25.751  1.00  0.00    -0.013 C 
ATOM     22  C   UNL A   1      33.989  27.154  25.776  1.00  0.00     0.016 C 
ATOM     23  C   UNL A   1      31.872  27.466  26.905  1.00  0.00     0.016 C 
ATOM     24  C   UNL A   1      33.221  29.470  26.154  1.00  0.00     0.016 C 
ENDBRANCH  16  21
ENDBRANCH   9  15
ENDBRANCH   5   8
ENDBRANCH   3   4
ENDBRANCH   2   3
ENDBRANCH   1   2
BRANCH   1  25
ATOM     25  C   UNL A   1      35.950  22.130  25.689  1.00  0.00     0.116 C 
BRANCH  25  26
ATOM     26  N   UNL A   1      36.931  21.066  25.550  1.00  0.00    -0.352 N 
ATOM     27  C   UNL A   1      38.296  21.107  25.695  1.00  0.00     0.251 C 
ATOM     28  H   UNL A   1      36.562  20.184  25.318  1.00  0.00     0.163 HD
ATOM     29  O   UNL A   1      38.967  20.129  25.370  1.00  0.00    -0.269 OA
BRANCH  27  30
ATOM     30  C   UNL A   1      38.956  22.329  26.204  1.00  0.00     0.039 A 
ATOM     31  C   UNL A   1      40.053  22.198  27.058  1.00  0.00     0.014 A 
ATOM     32  C   UNL A   1      38.501  23.598  25.839  1.00  0.00     0.014 A 
ATOM     33  C   UNL A   1      40.741  23.338  27.483  1.00  0.00     0.010 A 
ATOM     34  C   UNL A   1      39.233  24.727  26.198  1.00  0.00     0.010 A 
ATOM     35  C   UNL A   1      40.364  24.609  27.021  1.00  0.00    -0.014 A 
BRANCH  35  36
ATOM     36  C   UNL A   1      41.134  25.830  27.383  1.00  0.00     0.031 A 
ATOM     37  C   UNL A   1      40.485  26.911  28.205  1.00  0.00     0.074 A 
ATOM     38  C   UNL A   1      42.385  25.998  26.907  1.00  0.00     0.049 A 
ATOM     39  N   UNL A   1      40.945  28.092  28.531  1.00  0.00    -0.248 NA
ATOM     40  C   UNL A   1      39.128  26.637  28.703  1.00  0.00     0.031 C 
ATOM     41  C   UNL A   1      43.111  25.032  26.078  1.00  0.00     0.029 A 
ATOM     42  N   UNL A   1      43.265  27.045  27.038  1.00  0.00    -0.354 N 
ATOM     43  C   UNL A   1      39.927  28.711  29.249  1.00  0.00     0.074 A 
ATOM     44  C   UNL A   1      38.810  27.792  29.270  1.00  0.00     0.031 C 
ATOM     45  C   UNL A   1      44.328  25.523  25.792  1.00  0.00     0.029 A 
ATOM     46  C   UNL A   1      44.452  26.859  26.364  1.00  0.00     0.049 A 
ATOM     47  H   UNL A   1      43.066  27.852  27.564  1.00  0.00     0.167 HD
ATOM     48  C   UNL A   1      39.932  29.928  29.846  1.00  0.00     0.034 A 
ATOM     49  C   UNL A   1      45.510  27.682  26.205  1.00  0.00     0.034 A 
ATOM     50  C   UNL A   1      41.063  30.823  29.833  1.00  0.00     0.049 A 
ATOM     51  C   UNL A   1      45.473  29.047  26.850  1.00  0.00     0.074 A 
ATOM     52  C   UNL A   1      41.200  32.044  30.468  1.00  0.00     0.029 A 
ATOM     53  N   UNL A   1      42.245  30.604  29.136  1.00  0.00    -0.354 N 
ATOM     54  N   UNL A   1      44.525  29.592  27.578  1.00  0.00    -0.248 NA
ATOM     55  C   UNL A   1      46.648  29.906  26.657  1.00  0.00     0.031 C 
ATOM     56  C   UNL A   1      42.426  32.600  30.090  1.00  0.00     0.029 A 
ATOM     57  C   UNL A   1      43.097  31.686  29.293  1.00  0.00     0.049 A 
ATOM     58  H   UNL A   1      42.448  29.797  28.610  1.00  0.00     0.167 HD
ATOM     59  C   UNL A   1      45.011  30.839  27.962  1.00  0.00     0.074 A 
ATOM     60  C   UNL A   1      46.337  30.961  27.395  1.00  0.00     0.031 C 
ATOM     61  C   UNL A   1      44.418  31.795  28.721  1.00  0.00     0.034 A 
BRANCH  48  62
ATOM     62  C   UNL A   1      38.665  30.379  30.535  1.00  0.00     0.023 A 
ATOM     63  C   UNL A   1      37.663  31.095  29.858  1.00  0.00     0.031 A 
ATOM     64  C   UNL A   1      38.458  30.084  31.894  1.00  0.00     0.131 A 
ATOM     65  C   UNL A   1      36.532  31.547  30.555  1.00  0.00     0.055 A 
ATOM     66  C   UNL A   1      37.293  30.467  32.563  1.00  0.00     0.041 A 
ATOM     67  F   UNL A   1      39.388  29.422  32.600  1.00  0.00    -0.206 F 
ATOM     68  C   UNL A   1      36.327  31.215  31.896  1.00  0.00     0.022 A 
BRANCH  65  69
ATOM     69  S   UNL A   1      35.399  32.691  29.720  1.00  0.00     0.124 S 
ATOM     70  O   UNL A   1      36.264  33.843  29.481  1.00  0.00    -0.237 OA
ATOM     71  O   UNL A   1      35.001  31.934  28.539  1.00  0.00    -0.237 OA
ATOM     72  O   UNL A   1      34.343  32.908  30.707  1.00  0.00    -0.744 OA
ENDBRANCH  65  69
ENDBRANCH  48  62
BRANCH  49  73
ATOM     73  C   UNL A   1      46.686  27.265  25.386  1.00  0.00     0.023 A 
ATOM     74  C   UNL A   1      46.921  27.827  24.120  1.00  0.00     0.031 A 
ATOM     75  C   UNL A   1      47.554  26.248  25.823  1.00  0.00     0.131 A 
ATOM     76  C   UNL A   1      47.952  27.326  23.311  1.00  0.00     0.055 A 
ATOM     77  C   UNL A   1      48.621  25.799  25.042  1.00  0.00     0.041 A 
ATOM     78  F   UNL A   1      47.380  25.674  27.024  1.00  0.00    -0.206 F 
ATOM     79  C   UNL A   1      48.814  26.327  23.768  1.00  0.00     0.022 A 
BRANCH  76  80
ATOM     80  S   UNL A   1      48.075  27.917  21.601  1.00  0.00     0.124 S 
ATOM     81  O   UNL A   1      48.271  26.670  20.871  1.00  0.00    -0.237 OA
ATOM     82  O   UNL A   1      46.785  28.574  21.414  1.00  0.00    -0.237 OA
ATOM     83  O   UNL A   1      49.230  28.811  21.633  1.00  0.00    -0.744 OA
ENDBRANCH  76  80
ENDBRANCH  49  73
BRANCH  61  84
ATOM     84  C   UNL A   1      45.227  33.031  29.035  1.00  0.00     0.023 A 
ATOM     85  C   UNL A   1      45.192  34.174  28.215  1.00  0.00     0.031 A 
ATOM     86  C   UNL A   1      46.040  33.066  30.182  1.00  0.00     0.131 A 
ATOM     87  C   UNL A   1      45.993  35.282  28.528  1.00  0.00     0.055 A 
ATOM     88  C   UNL A   1      46.785  34.196  30.523  1.00  0.00     0.041 A 
ATOM     89  F   UNL A   1      46.116  32.002  30.999  1.00  0.00    -0.206 F 
ATOM     90  C   UNL A   1      46.773  35.308  29.687  1.00  0.00     0.022 A 
BRANCH  87  91
ATOM     91  S   UNL A   1      46.069  36.663  27.355  1.00  0.00     0.124 S 
ATOM     92  O   UNL A   1      44.737  37.244  27.484  1.00  0.00    -0.237 OA
ATOM     93  O   UNL A   1      47.168  37.464  27.885  1.00  0.00    -0.237 OA
ATOM     94  O   UNL A   1      46.341  36.011  26.075  1.00  0.00    -0.744 OA
ENDBRANCH  87  91
ENDBRANCH  61  84
ENDBRANCH  35  36
ENDBRANCH  27  30
ENDBRANCH  25  26
ENDBRANCH   1  25
TORSDOF 16
ENDMDL
MODEL 2
REMARK VINA RESULT:     -11.9      5.714     10.853
REMARK SMILES CC(C)(C)c1ccccc1[C@@H]1C[NH2+]C[C@@H]1C(=O)NCCCCNC(=O)c1ccc(-c2c3nc(c(-c4cc(S(=O)(=O)[O-])ccc4F)c4ccc([nH]4)c(-c4cc(S(=O)(=O)[O-])ccc4F)c4nc(c(-c5cc(S(=O)(=O)[O-])ccc5F)c5ccc2[nH]5)C=C4)C=C3)cc1
REMARK SMILES IDX 21 1 20 2 19 3 18 4 16 5 17 6 15 8 11 9 12 10 13 11 14 12
REMARK SMILES IDX 10 15 5 16 6 17 7 18 9 19 8 20 2 21 1 22 3 23 4 24 22 25
REMARK SMILES IDX 23 26 24 27 25 29 26 30 27 31 88 32 28 33 87 34 29 35 30 36
REMARK SMILES IDX 31 37 81 38 32 39 86 40 80 41 82 42 33 43 85 44 79 45 78 46
REMARK SMILES IDX 34 48 66 49 46 50 65 51 47 52 50 53 64 54 83 55 48 56 49 57
REMARK SMILES IDX 63 59 84 60 51 61 35 62 36 63 44 64 37 65 43 66 45 67 42 68
REMARK SMILES IDX 38 69 39 70 40 71 41 72 67 73 68 74 76 75 69 76 75 77 77 78
REMARK SMILES IDX 74 79 70 80 71 81 72 82 73 83 52 84 53 85 61 86 54 87 60 88
REMARK SMILES IDX 62 89 59 90 55 91 56 92 57 93 58 94
REMARK H PARENT 18 7 13 13 13 14 23 28 82 47 50 58
REMARK Flexibility Score: inf
ROOT
ATOM      1  C   UNL A   1      31.835  31.424  26.729  1.00  0.00     0.023 C 
ENDROOT
BRANCH   1   2
ATOM      2  C   UNL A   1      32.150  30.132  25.979  1.00  0.00     0.023 C 
BRANCH   2   3
ATOM      3  C   UNL A   1      33.553  29.554  26.142  1.00  0.00     0.116 C 
BRANCH   3   4
ATOM      4  N   UNL A   1      33.958  28.656  25.083  1.00  0.00    -0.356 N 
ATOM      5  C   UNL A   1      33.626  27.353  24.885  1.00  0.00     0.229 C 
ATOM      6  O   UNL A   1      33.622  26.961  23.715  1.00  0.00    -0.275 OA
ATOM      7  H   UNL A   1      34.560  29.046  24.408  1.00  0.00     0.163 HD
BRANCH   5   8
ATOM      8  C   UNL A   1      33.201  26.462  26.042  1.00  0.00     0.146 C 
ATOM      9  C   UNL A   1      33.491  24.948  26.026  1.00  0.00     0.093 C 
ATOM     10  C   UNL A   1      32.169  24.227  26.295  1.00  0.00     0.269 C 
ATOM     11  N   UNL A   1      31.273  25.231  26.881  1.00  0.00    -0.345 N 
ATOM     12  C   UNL A   1      31.685  26.523  26.302  1.00  0.00     0.274 C 
ATOM     13  H   UNL A   1      31.375  25.248  27.895  1.00  0.00     0.346 HD
ATOM     14  H   UNL A   1      30.295  25.023  26.679  1.00  0.00     0.346 HD
BRANCH   9  15
ATOM     15  C   UNL A   1      34.444  24.227  25.077  1.00  0.00    -0.035 A 
ATOM     16  C   UNL A   1      34.220  23.633  23.806  1.00  0.00    -0.039 A 
ATOM     17  C   UNL A   1      35.388  23.150  23.125  1.00  0.00     0.004 A 
ATOM     18  C   UNL A   1      36.672  23.135  23.666  1.00  0.00     0.000 A 
ATOM     19  C   UNL A   1      35.773  24.149  25.620  1.00  0.00     0.004 A 
ATOM     20  C   UNL A   1      36.862  23.609  24.941  1.00  0.00     0.000 A 
BRANCH  16  21
ATOM     21  C   UNL A   1      32.902  23.369  23.013  1.00  0.00    -0.013 C 
ATOM     22  C   UNL A   1      31.771  24.405  23.008  1.00  0.00     0.016 C 
ATOM     23  C   UNL A   1      32.216  22.105  23.614  1.00  0.00     0.016 C 
ATOM     24  C   UNL A   1      33.244  23.092  21.524  1.00  0.00     0.016 C 
ENDBRANCH  16  21
ENDBRANCH   9  15
ENDBRANCH   5   8
ENDBRANCH   3   4
ENDBRANCH   2   3
ENDBRANCH   1   2
BRANCH   1  25
ATOM     25  C   UNL A   1      33.041  32.186  27.258  1.00  0.00     0.116 C 
BRANCH  25  26
ATOM     26  N   UNL A   1      32.731  33.569  27.581  1.00  0.00    -0.352 N 
ATOM     27  C   UNL A   1      33.272  34.389  28.541  1.00  0.00     0.251 C 
ATOM     28  H   UNL A   1      32.029  33.980  27.028  1.00  0.00     0.163 HD
ATOM     29  O   UNL A   1      32.753  35.480  28.764  1.00  0.00    -0.269 OA
BRANCH  27  30
ATOM     30  C   UNL A   1      34.447  33.946  29.323  1.00  0.00     0.039 A 
ATOM     31  C   UNL A   1      34.258  33.047  30.374  1.00  0.00     0.014 A 
ATOM     32  C   UNL A   1      35.730  34.409  29.020  1.00  0.00     0.014 A 
ATOM     33  C   UNL A   1      35.364  32.552  31.071  1.00  0.00     0.010 A 
ATOM     34  C   UNL A   1      36.835  33.856  29.661  1.00  0.00     0.010 A 
ATOM     35  C   UNL A   1      36.665  32.918  30.692  1.00  0.00    -0.014 A 
BRANCH  35  36
ATOM     36  C   UNL A   1      37.863  32.336  31.355  1.00  0.00     0.031 A 
ATOM     37  C   UNL A   1      38.617  31.214  30.692  1.00  0.00     0.074 A 
ATOM     38  C   UNL A   1      38.222  32.763  32.583  1.00  0.00     0.049 A 
ATOM     39  N   UNL A   1      39.613  30.501  31.153  1.00  0.00    -0.248 NA
ATOM     40  C   UNL A   1      38.174  30.826  29.345  1.00  0.00     0.031 C 
ATOM     41  C   UNL A   1      37.552  33.825  33.338  1.00  0.00     0.029 A 
ATOM     42  N   UNL A   1      39.229  32.349  33.421  1.00  0.00    -0.354 N 
ATOM     43  C   UNL A   1      39.898  29.566  30.164  1.00  0.00     0.074 A 
ATOM     44  C   UNL A   1      38.940  29.772  29.101  1.00  0.00     0.031 C 
ATOM     45  C   UNL A   1      38.178  33.991  34.515  1.00  0.00     0.029 A 
ATOM     46  C   UNL A   1      39.254  33.012  34.628  1.00  0.00     0.049 A 
ATOM     47  H   UNL A   1      39.873  31.644  33.181  1.00  0.00     0.167 HD
ATOM     48  C   UNL A   1      40.880  28.630  30.142  1.00  0.00     0.034 A 
ATOM     49  C   UNL A   1      40.037  32.835  35.712  1.00  0.00     0.034 A 
ATOM     50  C   UNL A   1      41.841  28.452  31.203  1.00  0.00     0.049 A 
ATOM     51  C   UNL A   1      41.098  31.760  35.675  1.00  0.00     0.074 A 
ATOM     52  C   UNL A   1      42.919  27.587  31.248  1.00  0.00     0.029 A 
ATOM     53  N   UNL A   1      41.831  29.137  32.411  1.00  0.00    -0.354 N 
ATOM     54  N   UNL A   1      41.394  30.924  34.705  1.00  0.00    -0.248 NA
ATOM     55  C   UNL A   1      41.933  31.607  36.873  1.00  0.00     0.031 C 
ATOM     56  C   UNL A   1      43.509  27.688  32.512  1.00  0.00     0.029 A 
ATOM     57  C   UNL A   1      42.859  28.682  33.224  1.00  0.00     0.049 A 
ATOM     58  H   UNL A   1      41.190  29.843  32.654  1.00  0.00     0.167 HD
ATOM     59  C   UNL A   1      42.476  30.178  35.165  1.00  0.00     0.074 A 
ATOM     60  C   UNL A   1      42.786  30.668  36.491  1.00  0.00     0.031 C 
ATOM     61  C   UNL A   1      43.157  29.181  34.546  1.00  0.00     0.034 A 
BRANCH  48  62
ATOM     62  C   UNL A   1      40.943  27.704  28.950  1.00  0.00     0.023 A 
ATOM     63  C   UNL A   1      41.939  27.822  27.966  1.00  0.00     0.031 A 
ATOM     64  C   UNL A   1      39.988  26.683  28.799  1.00  0.00     0.131 A 
ATOM     65  C   UNL A   1      41.919  26.979  26.844  1.00  0.00     0.055 A 
ATOM     66  C   UNL A   1      40.021  25.794  27.722  1.00  0.00     0.041 A 
ATOM     67  F   UNL A   1      38.999  26.533  29.695  1.00  0.00    -0.206 F 
ATOM     68  C   UNL A   1      40.984  25.948  26.729  1.00  0.00     0.022 A 
BRANCH  65  69
ATOM     69  S   UNL A   1      43.051  27.334  25.472  1.00  0.00     0.124 S 
ATOM     70  O   UNL A   1      44.146  28.012  26.160  1.00  0.00    -0.237 OA
ATOM     71  O   UNL A   1      43.347  26.003  24.955  1.00  0.00    -0.237 OA
ATOM     72  O   UNL A   1      42.259  28.186  24.587  1.00  0.00    -0.744 OA
ENDBRANCH  65  69
ENDBRANCH  48  62
BRANCH  49  73
ATOM     73  C   UNL A   1      39.847  33.666  36.938  1.00  0.00     0.023 A 
ATOM     74  C   UNL A   1      39.163  33.159  38.054  1.00  0.00     0.031 A 
ATOM     75  C   UNL A   1      40.283  35.002  36.986  1.00  0.00     0.131 A 
ATOM     76  C   UNL A   1      38.877  33.999  39.142  1.00  0.00     0.055 A 
ATOM     77  C   UNL A   1      40.056  35.815  38.099  1.00  0.00     0.041 A 
ATOM     78  F   UNL A   1      40.943  35.541  35.948  1.00  0.00    -0.206 F 
ATOM     79  C   UNL A   1      39.332  35.319  39.180  1.00  0.00     0.022 A 
BRANCH  76  80
ATOM     80  S   UNL A   1      37.795  33.375  40.458  1.00  0.00     0.124 S 
ATOM     81  O   UNL A   1      38.636  32.354  41.072  1.00  0.00    -0.237 OA
ATOM     82  O   UNL A   1      37.561  34.577  41.252  1.00  0.00    -0.237 OA
ATOM     83  O   UNL A   1      36.632  32.873  39.730  1.00  0.00    -0.744 OA
ENDBRANCH  76  80
ENDBRANCH  49  73
BRANCH  61  84
ATOM     84  C   UNL A   1      44.346  28.598  35.271  1.00  0.00     0.023 A 
ATOM     85  C   UNL A   1      44.245  27.436  36.057  1.00  0.00     0.031 A 
ATOM     86  C   UNL A   1      45.605  29.216  35.165  1.00  0.00     0.131 A 
ATOM     87  C   UNL A   1      45.370  26.958  36.744  1.00  0.00     0.055 A 
ATOM     88  C   UNL A   1      46.735  28.698  35.799  1.00  0.00     0.041 A 
ATOM     89  F   UNL A   1      45.761  30.331  34.432  1.00  0.00    -0.206 F 
ATOM     90  C   UNL A   1      46.619  27.569  36.604  1.00  0.00     0.022 A 
BRANCH  87  91
ATOM     91  S   UNL A   1      45.166  25.571  37.895  1.00  0.00     0.124 S 
ATOM     92  O   UNL A   1      45.635  24.444  37.097  1.00  0.00    -0.237 OA
ATOM     93  O   UNL A   1      46.021  25.962  39.011  1.00  0.00    -0.237 OA
ATOM     94  O   UNL A   1      43.733  25.573  38.185  1.00  0.00    -0.744 OA
ENDBRANCH  87  91
ENDBRANCH  61  84
ENDBRANCH  35  36
ENDBRANCH  27  30
ENDBRANCH  25  26
ENDBRANCH   1  25
TORSDOF 16
ENDMDL
MODEL 3
REMARK VINA RESULT:     -11.8      5.052      9.948
REMARK SMILES CC(C)(C)c1ccccc1[C@@H]1C[NH2+]C[C@@H]1C(=O)NCCCCNC(=O)c1ccc(-c2c3nc(c(-c4cc(S(=O)(=O)[O-])ccc4F)c4ccc([nH]4)c(-c4cc(S(=O)(=O)[O-])ccc4F)c4nc(c(-c5cc(S(=O)(=O)[O-])ccc5F)c5ccc2[nH]5)C=C4)C=C3)cc1
REMARK SMILES IDX 21 1 20 2 19 3 18 4 16 5 17 6 15 8 11 9 12 10 13 11 14 12
REMARK SMILES IDX 10 15 5 16 6 17 7 18 9 19 8 20 2 21 1 22 3 23 4 24 22 25
REMARK SMILES IDX 23 26 24 27 25 29 26 30 27 31 88 32 28 33 87 34 29 35 30 36
REMARK SMILES IDX 31 37 81 38 32 39 86 40 80 41 82 42 33 43 85 44 79 45 78 46
REMARK SMILES IDX 34 48 66 49 46 50 65 51 47 52 50 53 64 54 83 55 48 56 49 57
REMARK SMILES IDX 63 59 84 60 51 61 35 62 36 63 44 64 37 65 43 66 45 67 42 68
REMARK SMILES IDX 38 69 39 70 40 71 41 72 67 73 68 74 76 75 69 76 75 77 77 78
REMARK SMILES IDX 74 79 70 80 71 81 72 82 73 83 52 84 53 85 61 86 54 87 60 88
REMARK SMILES IDX 62 89 59 90 55 91 56 92 57 93 58 94
REMARK H PARENT 18 7 13 13 13 14 23 28 82 47 50 58
REMARK Flexibility Score: inf
ROOT
ATOM      1  C   UNL A   1      31.593  28.508  25.419  1.00  0.00     0.023 C 
ENDROOT
BRANCH   1   2
ATOM      2  C   UNL A   1      31.221  27.498  26.503  1.00  0.00     0.023 C 
BRANCH   2   3
ATOM      3  C   UNL A   1      32.111  26.269  26.647  1.00  0.00     0.116 C 
BRANCH   3   4
ATOM      4  N   UNL A   1      31.416  25.007  26.515  1.00  0.00    -0.356 N 
ATOM      5  C   UNL A   1      31.869  23.745  26.741  1.00  0.00     0.229 C 
ATOM      6  O   UNL A   1      31.025  22.914  27.087  1.00  0.00    -0.275 OA
ATOM      7  H   UNL A   1      30.479  25.072  26.218  1.00  0.00     0.163 HD
BRANCH   5   8
ATOM      8  C   UNL A   1      33.351  23.412  26.655  1.00  0.00     0.146 C 
ATOM      9  C   UNL A   1      33.899  22.519  25.524  1.00  0.00     0.093 C 
ATOM     10  C   UNL A   1      34.708  21.399  26.179  1.00  0.00     0.269 C 
ATOM     11  N   UNL A   1      35.001  21.855  27.542  1.00  0.00    -0.345 N 
ATOM     12  C   UNL A   1      33.871  22.720  27.927  1.00  0.00     0.274 C 
ATOM     13  H   UNL A   1      35.874  22.383  27.560  1.00  0.00     0.346 HD
ATOM     14  H   UNL A   1      35.110  21.071  28.185  1.00  0.00     0.346 HD
BRANCH   9  15
ATOM     15  C   UNL A   1      33.155  22.127  24.251  1.00  0.00    -0.035 A 
ATOM     16  C   UNL A   1      32.771  22.900  23.122  1.00  0.00    -0.039 A 
ATOM     17  C   UNL A   1      32.190  22.170  22.031  1.00  0.00     0.004 A 
ATOM     18  C   UNL A   1      31.894  20.808  22.056  1.00  0.00     0.000 A 
ATOM     19  C   UNL A   1      32.790  20.737  24.258  1.00  0.00     0.004 A 
ATOM     20  C   UNL A   1      32.166  20.090  23.194  1.00  0.00     0.000 A 
BRANCH  16  21
ATOM     21  C   UNL A   1      32.831  24.438  22.860  1.00  0.00    -0.013 C 
ATOM     22  C   UNL A   1      33.804  25.327  23.643  1.00  0.00     0.016 C 
ATOM     23  C   UNL A   1      31.440  25.047  23.211  1.00  0.00     0.016 C 
ATOM     24  C   UNL A   1      33.123  24.692  21.356  1.00  0.00     0.016 C 
ENDBRANCH  16  21
ENDBRANCH   9  15
ENDBRANCH   5   8
ENDBRANCH   3   4
ENDBRANCH   2   3
ENDBRANCH   1   2
BRANCH   1  25
ATOM     25  C   UNL A   1      32.787  29.396  25.733  1.00  0.00     0.116 C 
BRANCH  25  26
ATOM     26  N   UNL A   1      32.395  30.733  26.148  1.00  0.00    -0.352 N 
ATOM     27  C   UNL A   1      32.986  31.580  27.054  1.00  0.00     0.251 C 
ATOM     28  H   UNL A   1      31.585  31.085  25.714  1.00  0.00     0.163 HD
ATOM     29  O   UNL A   1      32.402  32.608  27.388  1.00  0.00    -0.269 OA
BRANCH  27  30
ATOM     30  C   UNL A   1      34.297  31.238  27.647  1.00  0.00     0.039 A 
ATOM     31  C   UNL A   1      35.244  32.250  27.820  1.00  0.00     0.014 A 
ATOM     32  C   UNL A   1      34.593  29.930  28.038  1.00  0.00     0.014 A 
ATOM     33  C   UNL A   1      36.456  31.965  28.455  1.00  0.00     0.010 A 
ATOM     34  C   UNL A   1      35.765  29.664  28.741  1.00  0.00     0.010 A 
ATOM     35  C   UNL A   1      36.709  30.680  28.961  1.00  0.00    -0.014 A 
BRANCH  35  36
ATOM     36  C   UNL A   1      37.950  30.372  29.722  1.00  0.00     0.031 A 
ATOM     37  C   UNL A   1      38.958  29.408  29.156  1.00  0.00     0.074 A 
ATOM     38  C   UNL A   1      38.129  30.897  30.951  1.00  0.00     0.049 A 
ATOM     39  N   UNL A   1      40.041  28.925  29.707  1.00  0.00    -0.248 NA
ATOM     40  C   UNL A   1      38.697  28.900  27.800  1.00  0.00     0.031 C 
ATOM     41  C   UNL A   1      37.208  31.822  31.617  1.00  0.00     0.029 A 
ATOM     42  N   UNL A   1      39.136  30.720  31.868  1.00  0.00    -0.354 N 
ATOM     43  C   UNL A   1      40.577  28.038  28.779  1.00  0.00     0.074 A 
ATOM     44  C   UNL A   1      39.673  28.017  27.649  1.00  0.00     0.031 C 
ATOM     45  C   UNL A   1      37.704  32.144  32.824  1.00  0.00     0.029 A 
ATOM     46  C   UNL A   1      38.943  31.407  33.045  1.00  0.00     0.049 A 
ATOM     47  H   UNL A   1      39.923  30.153  31.699  1.00  0.00     0.167 HD
ATOM     48  C   UNL A   1      41.725  27.321  28.858  1.00  0.00     0.034 A 
ATOM     49  C   UNL A   1      39.668  31.423  34.183  1.00  0.00     0.034 A 
ATOM     50  C   UNL A   1      42.625  27.371  29.984  1.00  0.00     0.049 A 
ATOM     51  C   UNL A   1      40.922  30.585  34.258  1.00  0.00     0.074 A 
ATOM     52  C   UNL A   1      43.849  26.743  30.134  1.00  0.00     0.029 A 
ATOM     53  N   UNL A   1      42.393  28.074  31.160  1.00  0.00    -0.354 N 
ATOM     54  N   UNL A   1      41.447  29.799  33.345  1.00  0.00    -0.248 NA
ATOM     55  C   UNL A   1      41.684  30.638  35.512  1.00  0.00     0.031 C 
ATOM     56  C   UNL A   1      44.316  26.997  31.427  1.00  0.00     0.029 A 
ATOM     57  C   UNL A   1      43.431  27.859  32.054  1.00  0.00     0.049 A 
ATOM     58  H   UNL A   1      41.608  28.641  31.332  1.00  0.00     0.167 HD
ATOM     59  C   UNL A   1      42.621  29.301  33.903  1.00  0.00     0.074 A 
ATOM     60  C   UNL A   1      42.732  29.881  35.224  1.00  0.00     0.031 C 
ATOM     61  C   UNL A   1      43.530  28.445  33.370  1.00  0.00     0.034 A 
BRANCH  48  62
ATOM     62  C   UNL A   1      42.055  26.393  27.712  1.00  0.00     0.023 A 
ATOM     63  C   UNL A   1      41.625  25.056  27.687  1.00  0.00     0.031 A 
ATOM     64  C   UNL A   1      42.815  26.859  26.624  1.00  0.00     0.131 A 
ATOM     65  C   UNL A   1      42.010  24.215  26.632  1.00  0.00     0.055 A 
ATOM     66  C   UNL A   1      43.126  26.040  25.537  1.00  0.00     0.041 A 
ATOM     67  F   UNL A   1      43.273  28.122  26.600  1.00  0.00    -0.206 F 
ATOM     68  C   UNL A   1      42.735  24.705  25.543  1.00  0.00     0.022 A 
BRANCH  65  69
ATOM     69  S   UNL A   1      41.666  22.440  26.768  1.00  0.00     0.124 S 
ATOM     70  O   UNL A   1      40.224  22.435  27.001  1.00  0.00    -0.237 OA
ATOM     71  O   UNL A   1      42.106  21.933  25.473  1.00  0.00    -0.237 OA
ATOM     72  O   UNL A   1      42.475  22.020  27.910  1.00  0.00    -0.744 OA
ENDBRANCH  65  69
ENDBRANCH  48  62
BRANCH  49  73
ATOM     73  C   UNL A   1      39.230  32.233  35.358  1.00  0.00     0.023 A 
ATOM     74  C   UNL A   1      39.660  33.560  35.521  1.00  0.00     0.031 A 
ATOM     75  C   UNL A   1      38.434  31.672  36.373  1.00  0.00     0.131 A 
ATOM     76  C   UNL A   1      39.347  34.258  36.698  1.00  0.00     0.055 A 
ATOM     77  C   UNL A   1      38.069  32.394  37.511  1.00  0.00     0.041 A 
ATOM     78  F   UNL A   1      37.992  30.408  36.272  1.00  0.00    -0.206 F 
ATOM     79  C   UNL A   1      38.542  33.691  37.687  1.00  0.00     0.022 A 
BRANCH  76  80
ATOM     80  S   UNL A   1      40.112  35.880  36.971  1.00  0.00     0.124 S 
ATOM     81  O   UNL A   1      39.530  36.270  38.249  1.00  0.00    -0.237 OA
ATOM     82  O   UNL A   1      41.532  35.546  36.988  1.00  0.00    -0.237 OA
ATOM     83  O   UNL A   1      39.670  36.662  35.818  1.00  0.00    -0.744 OA
ENDBRANCH  76  80
ENDBRANCH  49  73
BRANCH  61  84
ATOM     84  C   UNL A   1      44.757  28.136  34.193  1.00  0.00     0.023 A 
ATOM     85  C   UNL A   1      44.816  27.029  35.058  1.00  0.00     0.031 A 
ATOM     86  C   UNL A   1      45.891  28.963  34.101  1.00  0.00     0.131 A 
ATOM     87  C   UNL A   1      45.965  26.808  35.832  1.00  0.00     0.055 A 
ATOM     88  C   UNL A   1      47.055  28.701  34.825  1.00  0.00     0.041 A 
ATOM     89  F   UNL A   1      45.890  30.037  33.294  1.00  0.00    -0.206 F 
ATOM     90  C   UNL A   1      47.092  27.625  35.706  1.00  0.00     0.022 A 
BRANCH  87  91
ATOM     91  S   UNL A   1      45.941  25.485  37.073  1.00  0.00     0.124 S 
ATOM     92  O   UNL A   1      46.065  26.236  38.318  1.00  0.00    -0.237 OA
ATOM     93  O   UNL A   1      44.646  24.857  36.835  1.00  0.00    -0.237 OA
ATOM     94  O   UNL A   1      47.100  24.666  36.724  1.00  0.00    -0.744 OA
ENDBRANCH  87  91
ENDBRANCH  61  84
ENDBRANCH  35  36
ENDBRANCH  27  30
ENDBRANCH  25  26
ENDBRANCH   1  25
TORSDOF 16
ENDMDL
