MODEL 1
REMARK VINA RESULT:     -13.7      0.000      0.000
REMARK SMILES O=C(NCCCCNC(=O)[C@H]1CC2(CCN(C(=O)c3cccc(O)c3)CC2)CN1C(=O)C1CC1)c1ccc(-c2c3nc(c(-c4cc(S(=O)(=O)[O-])ccc4F)c4ccc([nH]4)c(-c4cc(S(=O)(=O)[O-])ccc4F)c4nc(c(-c5cc(S(=O)(=O)[O-])ccc5F)c5ccc2[nH]5)C=C4)C=C3)cc1
REMARK SMILES IDX 5 1 4 2 3 3 1 4 2 5 35 7 36 8 97 9 37 10 96 11 38 12 39 13
REMARK SMILES IDX 40 14 90 15 41 16 95 17 89 18 91 19 42 20 94 21 88 22 87 23
REMARK SMILES IDX 43 25 75 26 55 27 74 28 56 29 59 30 73 31 92 32 57 33 58 34
REMARK SMILES IDX 72 36 93 37 60 38 44 39 45 40 53 41 46 42 52 43 54 44 51 45
REMARK SMILES IDX 47 46 48 47 49 48 50 49 76 50 77 51 85 52 78 53 84 54 86 55
REMARK SMILES IDX 83 56 79 57 80 58 81 59 82 60 61 61 62 62 70 63 63 64 69 65
REMARK SMILES IDX 71 66 68 67 64 68 65 69 66 70 67 71 6 72 7 73 8 74 9 75
REMARK SMILES IDX 10 77 11 78 12 79 29 80 13 81 28 82 14 83 27 84 15 85 26 86
REMARK SMILES IDX 16 87 17 88 18 89 30 90 31 91 32 92 33 93 34 94 19 95 20 96
REMARK SMILES IDX 25 97 21 98 23 99 22 100 24 101
REMARK H PARENT 3 6 91 24 59 35 8 76 24 102
REMARK Flexibility Score: inf
ROOT
ATOM      1  C   UNL A   1      31.574  31.741  26.738  1.00  0.00     0.023 C 
ENDROOT
BRANCH   1   2
ATOM      2  C   UNL A   1      32.782  32.451  27.322  1.00  0.00     0.116 C 
BRANCH   2   3
ATOM      3  N   UNL A   1      32.505  33.845  27.624  1.00  0.00    -0.352 N 
ATOM      4  O   UNL A   1      32.692  35.745  28.824  1.00  0.00    -0.269 OA
ATOM      5  C   UNL A   1      33.126  34.637  28.559  1.00  0.00     0.251 C 
ATOM      6  H   UNL A   1      31.789  34.270  27.097  1.00  0.00     0.163 HD
BRANCH   5   7
ATOM      7  C   UNL A   1      34.319  34.099  29.243  1.00  0.00     0.039 A 
ATOM      8  C   UNL A   1      34.169  33.332  30.403  1.00  0.00     0.014 A 
ATOM      9  C   UNL A   1      35.586  34.386  28.733  1.00  0.00     0.014 A 
ATOM     10  C   UNL A   1      35.292  32.925  31.106  1.00  0.00     0.010 A 
ATOM     11  C   UNL A   1      36.715  33.908  29.400  1.00  0.00     0.010 A 
ATOM     12  C   UNL A   1      36.573  33.175  30.589  1.00  0.00    -0.014 A 
BRANCH  12  13
ATOM     13  C   UNL A   1      37.743  32.533  31.232  1.00  0.00     0.031 A 
ATOM     14  C   UNL A   1      38.470  31.397  30.577  1.00  0.00     0.074 A 
ATOM     15  C   UNL A   1      38.126  33.003  32.436  1.00  0.00     0.049 A 
ATOM     16  N   UNL A   1      39.487  30.710  31.027  1.00  0.00    -0.248 NA
ATOM     17  C   UNL A   1      37.997  30.973  29.251  1.00  0.00     0.031 C 
ATOM     18  C   UNL A   1      37.468  34.101  33.156  1.00  0.00     0.029 A 
ATOM     19  N   UNL A   1      39.148  32.632  33.267  1.00  0.00    -0.354 N 
ATOM     20  C   UNL A   1      39.765  29.756  30.055  1.00  0.00     0.074 A 
ATOM     21  C   UNL A   1      38.801  29.949  28.991  1.00  0.00     0.031 C 
ATOM     22  C   UNL A   1      38.120  34.329  34.303  1.00  0.00     0.029 A 
ATOM     23  C   UNL A   1      39.187  33.349  34.441  1.00  0.00     0.049 A 
ATOM     24  H   UNL A   1      39.794  31.921  33.047  1.00  0.00     0.167 HD
ATOM     25  C   UNL A   1      40.737  28.811  30.062  1.00  0.00     0.034 A 
ATOM     26  C   UNL A   1      39.968  33.206  35.528  1.00  0.00     0.034 A 
ATOM     27  C   UNL A   1      41.691  28.652  31.135  1.00  0.00     0.049 A 
ATOM     28  C   UNL A   1      41.008  32.120  35.518  1.00  0.00     0.074 A 
ATOM     29  C   UNL A   1      42.762  27.778  31.211  1.00  0.00     0.029 A 
ATOM     30  N   UNL A   1      41.678  29.367  32.326  1.00  0.00    -0.354 N 
ATOM     31  N   UNL A   1      41.291  31.261  34.565  1.00  0.00    -0.248 NA
ATOM     32  C   UNL A   1      41.831  31.982  36.723  1.00  0.00     0.031 C 
ATOM     33  C   UNL A   1      43.350  27.913  32.472  1.00  0.00     0.029 A 
ATOM     34  C   UNL A   1      42.692  28.920  33.160  1.00  0.00     0.049 A 
ATOM     35  H   UNL A   1      41.043  30.085  32.546  1.00  0.00     0.167 HD
ATOM     36  C   UNL A   1      42.331  30.484  35.058  1.00  0.00     0.074 A 
ATOM     37  C   UNL A   1      42.648  31.001  36.375  1.00  0.00     0.031 C 
ATOM     38  C   UNL A   1      42.968  29.433  34.481  1.00  0.00     0.034 A 
BRANCH  25  39
ATOM     39  C   UNL A   1      40.795  27.843  28.908  1.00  0.00     0.023 A 
ATOM     40  C   UNL A   1      41.749  27.958  27.883  1.00  0.00     0.031 A 
ATOM     41  C   UNL A   1      39.898  26.760  28.857  1.00  0.00     0.131 A 
ATOM     42  C   UNL A   1      41.763  27.026  26.833  1.00  0.00     0.055 A 
ATOM     43  C   UNL A   1      39.955  25.802  27.843  1.00  0.00     0.041 A 
ATOM     44  F   UNL A   1      38.955  26.611  29.801  1.00  0.00    -0.206 F 
ATOM     45  C   UNL A   1      40.887  25.936  26.819  1.00  0.00     0.022 A 
BRANCH  42  46
ATOM     46  S   UNL A   1      42.892  27.296  25.440  1.00  0.00     0.124 S 
ATOM     47  O   UNL A   1      42.985  25.954  24.871  1.00  0.00    -0.237 OA
ATOM     48  O   UNL A   1      42.176  28.281  24.638  1.00  0.00    -0.237 OA
ATOM     49  O   UNL A   1      44.114  27.782  26.077  1.00  0.00    -0.744 OA
ENDBRANCH  42  46
ENDBRANCH  25  39
BRANCH  26  50
ATOM     50  C   UNL A   1      39.755  34.061  36.729  1.00  0.00     0.023 A 
ATOM     51  C   UNL A   1      39.209  33.534  37.908  1.00  0.00     0.031 A 
ATOM     52  C   UNL A   1      40.056  35.436  36.699  1.00  0.00     0.131 A 
ATOM     53  C   UNL A   1      38.934  34.383  38.990  1.00  0.00     0.055 A 
ATOM     54  C   UNL A   1      39.838  36.265  37.799  1.00  0.00     0.041 A 
ATOM     55  F   UNL A   1      40.583  35.993  35.596  1.00  0.00    -0.206 F 
ATOM     56  C   UNL A   1      39.258  35.742  38.949  1.00  0.00     0.022 A 
BRANCH  53  57
ATOM     57  S   UNL A   1      38.041  33.706  40.415  1.00  0.00     0.124 S 
ATOM     58  O   UNL A   1      38.989  32.718  40.919  1.00  0.00    -0.237 OA
ATOM     59  O   UNL A   1      37.850  34.893  41.242  1.00  0.00    -0.237 OA
ATOM     60  O   UNL A   1      36.823  33.156  39.823  1.00  0.00    -0.744 OA
ENDBRANCH  53  57
ENDBRANCH  26  50
BRANCH  38  61
ATOM     61  C   UNL A   1      44.072  28.797  35.283  1.00  0.00     0.023 A 
ATOM     62  C   UNL A   1      43.793  27.858  36.291  1.00  0.00     0.031 A 
ATOM     63  C   UNL A   1      45.411  29.161  35.064  1.00  0.00     0.131 A 
ATOM     64  C   UNL A   1      44.835  27.359  37.085  1.00  0.00     0.055 A 
ATOM     65  C   UNL A   1      46.451  28.614  35.818  1.00  0.00     0.041 A 
ATOM     66  F   UNL A   1      45.731  30.057  34.116  1.00  0.00    -0.206 F 
ATOM     67  C   UNL A   1      46.163  27.718  36.843  1.00  0.00     0.022 A 
BRANCH  64  68
ATOM     68  S   UNL A   1      44.419  26.302  38.499  1.00  0.00     0.124 S 
ATOM     69  O   UNL A   1      42.968  26.188  38.375  1.00  0.00    -0.237 OA
ATOM     70  O   UNL A   1      45.179  25.089  38.218  1.00  0.00    -0.237 OA
ATOM     71  O   UNL A   1      44.885  27.072  39.651  1.00  0.00    -0.744 OA
ENDBRANCH  64  68
ENDBRANCH  38  61
ENDBRANCH  12  13
ENDBRANCH   5   7
ENDBRANCH   2   3
ENDBRANCH   1   2
BRANCH   1  72
ATOM     72  C   UNL A   1      31.877  30.340  26.201  1.00  0.00     0.023 C 
BRANCH  72  73
ATOM     73  C   UNL A   1      32.619  29.434  27.192  1.00  0.00     0.116 C 
BRANCH  73  74
ATOM     74  N   UNL A   1      31.876  28.215  27.398  1.00  0.00    -0.354 N 
ATOM     75  C   UNL A   1      31.861  27.092  26.634  1.00  0.00     0.242 C 
ATOM     76  H   UNL A   1      31.307  28.193  28.200  1.00  0.00     0.163 HD
ATOM     77  O   UNL A   1      30.839  26.399  26.675  1.00  0.00    -0.273 OA
BRANCH  75  78
ATOM     78  C   UNL A   1      32.992  26.730  25.654  1.00  0.00     0.175 C 
ATOM     79  C   UNL A   1      33.521  25.309  25.926  1.00  0.00     0.044 C 
ATOM     80  N   UNL A   1      32.793  26.774  24.211  1.00  0.00    -0.330 N 
ATOM     81  C   UNL A   1      33.872  24.668  24.557  1.00  0.00    -0.006 C 
ATOM     82  C   UNL A   1      33.653  25.807  23.556  1.00  0.00     0.127 C 
ATOM     83  C   UNL A   1      32.969  23.465  24.175  1.00  0.00     0.030 C 
ATOM     84  C   UNL A   1      35.335  24.177  24.552  1.00  0.00     0.030 C 
ATOM     85  C   UNL A   1      33.205  22.232  25.042  1.00  0.00     0.120 C 
ATOM     86  C   UNL A   1      35.533  22.949  25.445  1.00  0.00     0.120 C 
ATOM     87  N   UNL A   1      34.622  21.875  25.063  1.00  0.00    -0.339 N 
ATOM     88  C   UNL A   1      35.124  20.579  24.971  1.00  0.00     0.253 C 
ATOM     89  O   UNL A   1      36.273  20.270  25.280  1.00  0.00    -0.269 OA
BRANCH  80  90
ATOM     90  C   UNL A   1      32.396  27.877  23.467  1.00  0.00     0.226 C 
ATOM     91  O   UNL A   1      33.157  28.816  23.244  1.00  0.00    -0.275 OA
BRANCH  90  92
ATOM     92  C   UNL A   1      31.066  27.886  22.803  1.00  0.00     0.079 C 
ATOM     93  C   UNL A   1      29.776  27.334  23.351  1.00  0.00     0.014 C 
ATOM     94  C   UNL A   1      30.002  28.807  23.383  1.00  0.00     0.014 C 
ENDBRANCH  90  92
ENDBRANCH  80  90
BRANCH  88  95
ATOM     95  C   UNL A   1      34.256  19.504  24.445  1.00  0.00     0.043 A 
ATOM     96  C   UNL A   1      33.041  19.822  23.822  1.00  0.00     0.014 A 
ATOM     97  C   UNL A   1      34.701  18.182  24.496  1.00  0.00     0.060 A 
ATOM     98  C   UNL A   1      32.252  18.803  23.287  1.00  0.00     0.005 A 
ATOM     99  C   UNL A   1      33.903  17.178  23.958  1.00  0.00     0.116 A 
ATOM    100  C   UNL A   1      32.681  17.476  23.359  1.00  0.00     0.046 A 
BRANCH  99 101
ATOM    101  O   UNL A   1      34.361  15.896  24.033  1.00  0.00    -0.508 OA
ATOM    102  H   UNL A   1      34.914  15.557  23.356  1.00  0.00     0.293 HD
ENDBRANCH  99 101
ENDBRANCH  88  95
ENDBRANCH  75  78
ENDBRANCH  73  74
ENDBRANCH  72  73
ENDBRANCH   1  72
TORSDOF 18
ENDMDL
MODEL 2
REMARK VINA RESULT:     -13.6      5.402     11.824
REMARK SMILES O=C(NCCCCNC(=O)[C@H]1CC2(CCN(C(=O)c3cccc(O)c3)CC2)CN1C(=O)C1CC1)c1ccc(-c2c3nc(c(-c4cc(S(=O)(=O)[O-])ccc4F)c4ccc([nH]4)c(-c4cc(S(=O)(=O)[O-])ccc4F)c4nc(c(-c5cc(S(=O)(=O)[O-])ccc5F)c5ccc2[nH]5)C=C4)C=C3)cc1
REMARK SMILES IDX 5 1 4 2 3 3 1 4 2 5 35 7 36 8 97 9 37 10 96 11 38 12 39 13
REMARK SMILES IDX 40 14 90 15 41 16 95 17 89 18 91 19 42 20 94 21 88 22 87 23
REMARK SMILES IDX 43 25 75 26 55 27 74 28 56 29 59 30 73 31 92 32 57 33 58 34
REMARK SMILES IDX 72 36 93 37 60 38 44 39 45 40 53 41 46 42 52 43 54 44 51 45
REMARK SMILES IDX 47 46 48 47 49 48 50 49 76 50 77 51 85 52 78 53 84 54 86 55
REMARK SMILES IDX 83 56 79 57 80 58 81 59 82 60 61 61 62 62 70 63 63 64 69 65
REMARK SMILES IDX 71 66 68 67 64 68 65 69 66 70 67 71 6 72 7 73 8 74 9 75
REMARK SMILES IDX 10 77 11 78 12 79 29 80 13 81 28 82 14 83 27 84 15 85 26 86
REMARK SMILES IDX 16 87 17 88 18 89 30 90 31 91 32 92 33 93 34 94 19 95 20 96
REMARK SMILES IDX 25 97 21 98 23 99 22 100 24 101
REMARK H PARENT 3 6 91 24 59 35 8 76 24 102
REMARK Flexibility Score: inf
ROOT
ATOM      1  C   UNL A   1      38.176  19.928  24.983  1.00  0.00     0.023 C 
ENDROOT
BRANCH   1   2
ATOM      2  C   UNL A   1      39.318  20.251  25.929  1.00  0.00     0.116 C 
BRANCH   2   3
ATOM      3  N   UNL A   1      40.323  19.203  25.951  1.00  0.00    -0.352 N 
ATOM      4  O   UNL A   1      42.432  18.403  25.930  1.00  0.00    -0.269 OA
ATOM      5  C   UNL A   1      41.683  19.352  26.087  1.00  0.00     0.251 C 
ATOM      6  H   UNL A   1      39.993  18.280  25.858  1.00  0.00     0.163 HD
BRANCH   5   7
ATOM      7  C   UNL A   1      42.205  20.695  26.409  1.00  0.00     0.039 A 
ATOM      8  C   UNL A   1      42.494  21.594  25.378  1.00  0.00     0.014 A 
ATOM      9  C   UNL A   1      42.428  21.040  27.742  1.00  0.00     0.014 A 
ATOM     10  C   UNL A   1      43.091  22.810  25.675  1.00  0.00     0.010 A 
ATOM     11  C   UNL A   1      42.956  22.295  28.045  1.00  0.00     0.010 A 
ATOM     12  C   UNL A   1      43.290  23.187  27.013  1.00  0.00    -0.014 A 
BRANCH  12  13
ATOM     13  C   UNL A   1      43.710  24.575  27.311  1.00  0.00     0.031 A 
ATOM     14  C   UNL A   1      42.737  25.595  27.822  1.00  0.00     0.074 A 
ATOM     15  C   UNL A   1      45.003  24.893  27.097  1.00  0.00     0.049 A 
ATOM     16  N   UNL A   1      42.944  26.856  28.096  1.00  0.00    -0.248 NA
ATOM     17  C   UNL A   1      41.356  25.147  28.052  1.00  0.00     0.031 C 
ATOM     18  C   UNL A   1      46.021  23.965  26.588  1.00  0.00     0.029 A 
ATOM     19  N   UNL A   1      45.688  26.064  27.275  1.00  0.00    -0.354 N 
ATOM     20  C   UNL A   1      41.718  27.364  28.510  1.00  0.00     0.074 A 
ATOM     21  C   UNL A   1      40.768  26.273  28.441  1.00  0.00     0.031 C 
ATOM     22  C   UNL A   1      47.200  24.596  26.523  1.00  0.00     0.029 A 
ATOM     23  C   UNL A   1      47.010  25.988  26.905  1.00  0.00     0.049 A 
ATOM     24  H   UNL A   1      45.273  26.883  27.633  1.00  0.00     0.167 HD
ATOM     25  C   UNL A   1      41.425  28.627  28.905  1.00  0.00     0.034 A 
ATOM     26  C   UNL A   1      47.957  26.942  26.840  1.00  0.00     0.034 A 
ATOM     27  C   UNL A   1      42.399  29.691  28.972  1.00  0.00     0.049 A 
ATOM     28  C   UNL A   1      47.586  28.341  27.247  1.00  0.00     0.074 A 
ATOM     29  C   UNL A   1      42.227  30.986  29.430  1.00  0.00     0.029 A 
ATOM     30  N   UNL A   1      43.720  29.592  28.554  1.00  0.00    -0.354 N 
ATOM     31  N   UNL A   1      46.432  28.791  27.686  1.00  0.00    -0.248 NA
ATOM     32  C   UNL A   1      48.636  29.359  27.149  1.00  0.00     0.031 C 
ATOM     33  C   UNL A   1      43.419  31.687  29.220  1.00  0.00     0.029 A 
ATOM     34  C   UNL A   1      44.358  30.814  28.697  1.00  0.00     0.049 A 
ATOM     35  H   UNL A   1      44.140  28.772  28.206  1.00  0.00     0.167 HD
ATOM     36  C   UNL A   1      46.623  30.146  27.923  1.00  0.00     0.074 A 
ATOM     37  C   UNL A   1      48.011  30.429  27.612  1.00  0.00     0.031 C 
ATOM     38  C   UNL A   1      45.735  31.078  28.353  1.00  0.00     0.034 A 
BRANCH  25  39
ATOM     39  C   UNL A   1      39.993  28.949  29.248  1.00  0.00     0.023 A 
ATOM     40  C   UNL A   1      39.553  29.077  30.577  1.00  0.00     0.031 A 
ATOM     41  C   UNL A   1      39.059  29.171  28.220  1.00  0.00     0.131 A 
ATOM     42  C   UNL A   1      38.208  29.384  30.842  1.00  0.00     0.055 A 
ATOM     43  C   UNL A   1      37.738  29.534  28.488  1.00  0.00     0.041 A 
ATOM     44  F   UNL A   1      39.420  29.044  26.932  1.00  0.00    -0.206 F 
ATOM     45  C   UNL A   1      37.305  29.636  29.806  1.00  0.00     0.022 A 
BRANCH  42  46
ATOM     46  S   UNL A   1      37.633  29.376  32.562  1.00  0.00     0.124 S 
ATOM     47  O   UNL A   1      37.667  27.950  32.877  1.00  0.00    -0.237 OA
ATOM     48  O   UNL A   1      38.631  30.202  33.233  1.00  0.00    -0.237 OA
ATOM     49  O   UNL A   1      36.296  29.959  32.480  1.00  0.00    -0.744 OA
ENDBRANCH  42  46
ENDBRANCH  25  39
BRANCH  26  50
ATOM     50  C   UNL A   1      49.314  26.625  26.314  1.00  0.00     0.023 A 
ATOM     51  C   UNL A   1      49.735  27.093  25.061  1.00  0.00     0.031 A 
ATOM     52  C   UNL A   1      50.199  25.808  27.043  1.00  0.00     0.131 A 
ATOM     53  C   UNL A   1      50.982  26.700  24.552  1.00  0.00     0.055 A 
ATOM     54  C   UNL A   1      51.464  25.471  26.560  1.00  0.00     0.041 A 
ATOM     55  F   UNL A   1      49.849  25.335  28.250  1.00  0.00    -0.206 F 
ATOM     56  C   UNL A   1      51.855  25.905  25.299  1.00  0.00     0.022 A 
BRANCH  53  57
ATOM     57  S   UNL A   1      51.402  27.155  22.848  1.00  0.00     0.124 S 
ATOM     58  O   UNL A   1      51.675  28.582  22.978  1.00  0.00    -0.237 OA
ATOM     59  O   UNL A   1      52.557  26.302  22.585  1.00  0.00    -0.237 OA
ATOM     60  O   UNL A   1      50.194  26.816  22.098  1.00  0.00    -0.744 OA
ENDBRANCH  53  57
ENDBRANCH  26  50
BRANCH  38  61
ATOM     61  C   UNL A   1      46.262  32.479  28.515  1.00  0.00     0.023 A 
ATOM     62  C   UNL A   1      46.399  33.339  27.412  1.00  0.00     0.031 A 
ATOM     63  C   UNL A   1      46.664  32.946  29.778  1.00  0.00     0.131 A 
ATOM     64  C   UNL A   1      46.984  34.601  27.582  1.00  0.00     0.055 A 
ATOM     65  C   UNL A   1      47.188  34.228  29.951  1.00  0.00     0.041 A 
ATOM     66  F   UNL A   1      46.557  32.163  30.863  1.00  0.00    -0.206 F 
ATOM     67  C   UNL A   1      47.363  35.057  28.847  1.00  0.00     0.022 A 
BRANCH  64  68
ATOM     68  S   UNL A   1      47.325  35.605  26.111  1.00  0.00     0.124 S 
ATOM     69  O   UNL A   1      48.512  36.349  26.521  1.00  0.00    -0.237 OA
ATOM     70  O   UNL A   1      47.532  34.592  25.081  1.00  0.00    -0.237 OA
ATOM     71  O   UNL A   1      46.113  36.407  25.954  1.00  0.00    -0.744 OA
ENDBRANCH  64  68
ENDBRANCH  38  61
ENDBRANCH  12  13
ENDBRANCH   5   7
ENDBRANCH   2   3
ENDBRANCH   1   2
BRANCH   1  72
ATOM     72  C   UNL A   1      36.917  20.766  25.220  1.00  0.00     0.023 C 
BRANCH  72  73
ATOM     73  C   UNL A   1      37.173  22.275  25.301  1.00  0.00     0.116 C 
BRANCH  73  74
ATOM     74  N   UNL A   1      36.681  22.926  24.111  1.00  0.00    -0.354 N 
ATOM     75  C   UNL A   1      35.483  23.532  23.910  1.00  0.00     0.242 C 
ATOM     76  H   UNL A   1      37.296  22.931  23.343  1.00  0.00     0.163 HD
ATOM     77  O   UNL A   1      35.059  23.569  22.751  1.00  0.00    -0.273 OA
BRANCH  75  78
ATOM     78  C   UNL A   1      34.604  24.053  25.063  1.00  0.00     0.175 C 
ATOM     79  C   UNL A   1      34.136  25.495  24.789  1.00  0.00     0.044 C 
ATOM     80  N   UNL A   1      33.396  23.352  25.477  1.00  0.00    -0.330 N 
ATOM     81  C   UNL A   1      32.690  25.632  25.334  1.00  0.00    -0.006 C 
ATOM     82  C   UNL A   1      32.434  24.288  26.026  1.00  0.00     0.127 C 
ATOM     83  C   UNL A   1      31.620  25.858  24.234  1.00  0.00     0.030 C 
ATOM     84  C   UNL A   1      32.598  26.810  26.327  1.00  0.00     0.030 C 
ATOM     85  C   UNL A   1      31.716  27.227  23.569  1.00  0.00     0.120 C 
ATOM     86  C   UNL A   1      32.713  28.165  25.623  1.00  0.00     0.120 C 
ATOM     87  N   UNL A   1      31.712  28.292  24.570  1.00  0.00    -0.339 N 
ATOM     88  C   UNL A   1      31.002  29.487  24.468  1.00  0.00     0.253 C 
ATOM     89  O   UNL A   1      31.234  30.477  25.158  1.00  0.00    -0.269 OA
BRANCH  80  90
ATOM     90  C   UNL A   1      33.315  22.034  25.907  1.00  0.00     0.226 C 
ATOM     91  O   UNL A   1      33.777  21.676  26.988  1.00  0.00    -0.275 OA
BRANCH  90  92
ATOM     92  C   UNL A   1      32.540  21.040  25.117  1.00  0.00     0.079 C 
ATOM     93  C   UNL A   1      32.360  21.013  23.622  1.00  0.00     0.014 C 
ATOM     94  C   UNL A   1      33.328  20.069  24.251  1.00  0.00     0.014 C 
ENDBRANCH  90  92
ENDBRANCH  80  90
BRANCH  88  95
ATOM     95  C   UNL A   1      29.884  29.582  23.505  1.00  0.00     0.043 A 
ATOM     96  C   UNL A   1      28.824  28.669  23.565  1.00  0.00     0.014 A 
ATOM     97  C   UNL A   1      29.856  30.643  22.598  1.00  0.00     0.060 A 
ATOM     98  C   UNL A   1      27.750  28.797  22.682  1.00  0.00     0.005 A 
ATOM     99  C   UNL A   1      28.780  30.757  21.725  1.00  0.00     0.116 A 
ATOM    100  C   UNL A   1      27.730  29.841  21.755  1.00  0.00     0.046 A 
BRANCH  99 101
ATOM    101  O   UNL A   1      28.786  31.799  20.844  1.00  0.00    -0.508 OA
ATOM    102  H   UNL A   1      28.703  31.634  19.925  1.00  0.00     0.293 HD
ENDBRANCH  99 101
ENDBRANCH  88  95
ENDBRANCH  75  78
ENDBRANCH  73  74
ENDBRANCH  72  73
ENDBRANCH   1  72
TORSDOF 18
ENDMDL
MODEL 3
REMARK VINA RESULT:     -13.4      1.727      2.019
REMARK SMILES O=C(NCCCCNC(=O)[C@H]1CC2(CCN(C(=O)c3cccc(O)c3)CC2)CN1C(=O)C1CC1)c1ccc(-c2c3nc(c(-c4cc(S(=O)(=O)[O-])ccc4F)c4ccc([nH]4)c(-c4cc(S(=O)(=O)[O-])ccc4F)c4nc(c(-c5cc(S(=O)(=O)[O-])ccc5F)c5ccc2[nH]5)C=C4)C=C3)cc1
REMARK SMILES IDX 5 1 4 2 3 3 1 4 2 5 35 7 36 8 97 9 37 10 96 11 38 12 39 13
REMARK SMILES IDX 40 14 90 15 41 16 95 17 89 18 91 19 42 20 94 21 88 22 87 23
REMARK SMILES IDX 43 25 75 26 55 27 74 28 56 29 59 30 73 31 92 32 57 33 58 34
REMARK SMILES IDX 72 36 93 37 60 38 44 39 45 40 53 41 46 42 52 43 54 44 51 45
REMARK SMILES IDX 47 46 48 47 49 48 50 49 76 50 77 51 85 52 78 53 84 54 86 55
REMARK SMILES IDX 83 56 79 57 80 58 81 59 82 60 61 61 62 62 70 63 63 64 69 65
REMARK SMILES IDX 71 66 68 67 64 68 65 69 66 70 67 71 6 72 7 73 8 74 9 75
REMARK SMILES IDX 10 77 11 78 12 79 29 80 13 81 28 82 14 83 27 84 15 85 26 86
REMARK SMILES IDX 16 87 17 88 18 89 30 90 31 91 32 92 33 93 34 94 19 95 20 96
REMARK SMILES IDX 25 97 21 98 23 99 22 100 24 101
REMARK H PARENT 3 6 91 24 59 35 8 76 24 102
REMARK Flexibility Score: inf
ROOT
ATOM      1  C   UNL A   1      31.398  32.158  26.715  1.00  0.00     0.023 C 
ENDROOT
BRANCH   1   2
ATOM      2  C   UNL A   1      32.696  32.733  27.253  1.00  0.00     0.116 C 
BRANCH   2   3
ATOM      3  N   UNL A   1      32.532  34.092  27.739  1.00  0.00    -0.352 N 
ATOM      4  O   UNL A   1      32.863  35.792  29.184  1.00  0.00    -0.269 OA
ATOM      5  C   UNL A   1      33.207  34.697  28.773  1.00  0.00     0.251 C 
ATOM      6  H   UNL A   1      31.861  34.643  27.275  1.00  0.00     0.163 HD
BRANCH   5   7
ATOM      7  C   UNL A   1      34.343  33.973  29.378  1.00  0.00     0.039 A 
ATOM      8  C   UNL A   1      35.644  34.220  28.929  1.00  0.00     0.014 A 
ATOM      9  C   UNL A   1      34.097  33.029  30.375  1.00  0.00     0.014 A 
ATOM     10  C   UNL A   1      36.695  33.459  29.417  1.00  0.00     0.010 A 
ATOM     11  C   UNL A   1      35.166  32.318  30.921  1.00  0.00     0.010 A 
ATOM     12  C   UNL A   1      36.470  32.529  30.445  1.00  0.00    -0.014 A 
BRANCH  12  13
ATOM     13  C   UNL A   1      37.635  31.899  31.108  1.00  0.00     0.031 A 
ATOM     14  C   UNL A   1      38.416  30.806  30.443  1.00  0.00     0.074 A 
ATOM     15  C   UNL A   1      37.964  32.340  32.339  1.00  0.00     0.049 A 
ATOM     16  N   UNL A   1      39.436  30.132  30.906  1.00  0.00    -0.248 NA
ATOM     17  C   UNL A   1      38.000  30.412  29.089  1.00  0.00     0.031 C 
ATOM     18  C   UNL A   1      37.251  33.395  33.069  1.00  0.00     0.029 A 
ATOM     19  N   UNL A   1      38.967  31.970  33.193  1.00  0.00    -0.354 N 
ATOM     20  C   UNL A   1      39.774  29.218  29.914  1.00  0.00     0.074 A 
ATOM     21  C   UNL A   1      38.841  29.419  28.824  1.00  0.00     0.031 C 
ATOM     22  C   UNL A   1      37.856  33.604  34.245  1.00  0.00     0.029 A 
ATOM     23  C   UNL A   1      38.946  32.649  34.389  1.00  0.00     0.049 A 
ATOM     24  H   UNL A   1      39.640  31.285  32.972  1.00  0.00     0.167 HD
ATOM     25  C   UNL A   1      40.772  28.301  29.925  1.00  0.00     0.034 A 
ATOM     26  C   UNL A   1      39.693  32.493  35.497  1.00  0.00     0.034 A 
ATOM     27  C   UNL A   1      41.693  28.133  31.025  1.00  0.00     0.049 A 
ATOM     28  C   UNL A   1      40.764  31.437  35.489  1.00  0.00     0.074 A 
ATOM     29  C   UNL A   1      42.786  27.288  31.110  1.00  0.00     0.029 A 
ATOM     30  N   UNL A   1      41.620  28.808  32.237  1.00  0.00    -0.354 N 
ATOM     31  N   UNL A   1      41.103  30.617  34.520  1.00  0.00    -0.248 NA
ATOM     32  C   UNL A   1      41.549  31.283  36.717  1.00  0.00     0.031 C 
ATOM     33  C   UNL A   1      43.327  27.398  32.395  1.00  0.00     0.029 A 
ATOM     34  C   UNL A   1      42.617  28.363  33.091  1.00  0.00     0.049 A 
ATOM     35  H   UNL A   1      40.957  29.502  32.457  1.00  0.00     0.167 HD
ATOM     36  C   UNL A   1      42.148  29.853  35.024  1.00  0.00     0.074 A 
ATOM     37  C   UNL A   1      42.405  30.335  36.366  1.00  0.00     0.031 C 
ATOM     38  C   UNL A   1      42.834  28.839  34.436  1.00  0.00     0.034 A 
BRANCH  25  39
ATOM     39  C   UNL A   1      40.897  27.373  28.744  1.00  0.00     0.023 A 
ATOM     40  C   UNL A   1      41.859  27.567  27.739  1.00  0.00     0.031 A 
ATOM     41  C   UNL A   1      40.057  26.249  28.645  1.00  0.00     0.131 A 
ATOM     42  C   UNL A   1      41.937  26.669  26.662  1.00  0.00     0.055 A 
ATOM     43  C   UNL A   1      40.177  25.327  27.604  1.00  0.00     0.041 A 
ATOM     44  F   UNL A   1      39.107  26.024  29.567  1.00  0.00    -0.206 F 
ATOM     45  C   UNL A   1      41.118  25.538  26.601  1.00  0.00     0.022 A 
BRANCH  42  46
ATOM     46  S   UNL A   1      43.073  27.038  25.297  1.00  0.00     0.124 S 
ATOM     47  O   UNL A   1      43.121  25.756  24.600  1.00  0.00    -0.237 OA
ATOM     48  O   UNL A   1      42.388  28.120  24.598  1.00  0.00    -0.237 OA
ATOM     49  O   UNL A   1      44.311  27.420  25.974  1.00  0.00    -0.744 OA
ENDBRANCH  42  46
ENDBRANCH  25  39
BRANCH  26  50
ATOM     50  C   UNL A   1      39.416  33.302  36.717  1.00  0.00     0.023 A 
ATOM     51  C   UNL A   1      40.092  34.505  36.959  1.00  0.00     0.031 A 
ATOM     52  C   UNL A   1      38.494  32.857  37.684  1.00  0.00     0.131 A 
ATOM     53  C   UNL A   1      39.877  35.197  38.161  1.00  0.00     0.055 A 
ATOM     54  C   UNL A   1      38.238  33.580  38.849  1.00  0.00     0.041 A 
ATOM     55  F   UNL A   1      37.816  31.712  37.502  1.00  0.00    -0.206 F 
ATOM     56  C   UNL A   1      38.945  34.751  39.101  1.00  0.00     0.022 A 
BRANCH  53  57
ATOM     57  S   UNL A   1      40.919  36.634  38.529  1.00  0.00     0.124 S 
ATOM     58  O   UNL A   1      39.924  37.650  38.854  1.00  0.00    -0.237 OA
ATOM     59  O   UNL A   1      41.723  36.145  39.644  1.00  0.00    -0.237 OA
ATOM     60  O   UNL A   1      41.650  36.852  37.282  1.00  0.00    -0.744 OA
ENDBRANCH  53  57
ENDBRANCH  26  50
BRANCH  38  61
ATOM     61  C   UNL A   1      43.928  28.209  35.256  1.00  0.00     0.023 A 
ATOM     62  C   UNL A   1      45.249  28.685  35.199  1.00  0.00     0.031 A 
ATOM     63  C   UNL A   1      43.655  27.100  36.074  1.00  0.00     0.131 A 
ATOM     64  C   UNL A   1      46.262  28.015  35.899  1.00  0.00     0.055 A 
ATOM     65  C   UNL A   1      44.657  26.474  36.817  1.00  0.00     0.041 A 
ATOM     66  F   UNL A   1      42.410  26.603  36.161  1.00  0.00    -0.206 F 
ATOM     67  C   UNL A   1      45.971  26.923  36.721  1.00  0.00     0.022 A 
BRANCH  64  68
ATOM     68  S   UNL A   1      47.981  28.535  35.648  1.00  0.00     0.124 S 
ATOM     69  O   UNL A   1      48.645  27.953  36.811  1.00  0.00    -0.237 OA
ATOM     70  O   UNL A   1      48.307  27.931  34.360  1.00  0.00    -0.237 OA
ATOM     71  O   UNL A   1      47.900  29.995  35.645  1.00  0.00    -0.744 OA
ENDBRANCH  64  68
ENDBRANCH  38  61
ENDBRANCH  12  13
ENDBRANCH   5   7
ENDBRANCH   2   3
ENDBRANCH   1   2
BRANCH   1  72
ATOM     72  C   UNL A   1      31.515  30.710  26.231  1.00  0.00     0.023 C 
BRANCH  72  73
ATOM     73  C   UNL A   1      32.357  29.809  27.141  1.00  0.00     0.116 C 
BRANCH  73  74
ATOM     74  N   UNL A   1      31.661  28.570  27.392  1.00  0.00    -0.354 N 
ATOM     75  C   UNL A   1      31.736  27.401  26.706  1.00  0.00     0.242 C 
ATOM     76  H   UNL A   1      31.051  28.574  28.165  1.00  0.00     0.163 HD
ATOM     77  O   UNL A   1      30.747  26.663  26.744  1.00  0.00    -0.273 OA
BRANCH  75  78
ATOM     78  C   UNL A   1      32.933  27.031  25.810  1.00  0.00     0.175 C 
ATOM     79  C   UNL A   1      33.390  25.584  26.073  1.00  0.00     0.044 C 
ATOM     80  N   UNL A   1      32.858  27.131  24.359  1.00  0.00    -0.330 N 
ATOM     81  C   UNL A   1      33.833  24.977  24.715  1.00  0.00    -0.006 C 
ATOM     82  C   UNL A   1      33.737  26.156  23.741  1.00  0.00     0.127 C 
ATOM     83  C   UNL A   1      32.926  23.821  24.215  1.00  0.00     0.030 C 
ATOM     84  C   UNL A   1      35.274  24.434  24.812  1.00  0.00     0.030 C 
ATOM     85  C   UNL A   1      33.047  22.552  25.053  1.00  0.00     0.120 C 
ATOM     86  C   UNL A   1      35.355  23.170  25.673  1.00  0.00     0.120 C 
ATOM     87  N   UNL A   1      34.444  22.144  25.178  1.00  0.00    -0.339 N 
ATOM     88  C   UNL A   1      34.909  20.833  25.080  1.00  0.00     0.253 C 
ATOM     89  O   UNL A   1      36.017  20.473  25.472  1.00  0.00    -0.269 OA
BRANCH  80  90
ATOM     90  C   UNL A   1      32.561  28.273  23.625  1.00  0.00     0.226 C 
ATOM     91  O   UNL A   1      33.359  29.201  23.522  1.00  0.00    -0.275 OA
BRANCH  90  92
ATOM     92  C   UNL A   1      31.307  28.340  22.829  1.00  0.00     0.079 C 
ATOM     93  C   UNL A   1      30.077  27.489  23.002  1.00  0.00     0.014 C 
ATOM     94  C   UNL A   1      30.068  28.886  23.523  1.00  0.00     0.014 C 
ENDBRANCH  90  92
ENDBRANCH  80  90
BRANCH  88  95
ATOM     95  C   UNL A   1      34.052  19.809  24.445  1.00  0.00     0.043 A 
ATOM     96  C   UNL A   1      32.908  20.192  23.733  1.00  0.00     0.014 A 
ATOM     97  C   UNL A   1      34.445  18.471  24.488  1.00  0.00     0.060 A 
ATOM     98  C   UNL A   1      32.132  19.221  23.097  1.00  0.00     0.005 A 
ATOM     99  C   UNL A   1      33.662  17.515  23.849  1.00  0.00     0.116 A 
ATOM    100  C   UNL A   1      32.507  17.878  23.160  1.00  0.00     0.046 A 
BRANCH  99 101
ATOM    101  O   UNL A   1      34.068  16.215  23.918  1.00  0.00    -0.508 OA
ATOM    102  H   UNL A   1      34.143  15.706  23.134  1.00  0.00     0.293 HD
ENDBRANCH  99 101
ENDBRANCH  88  95
ENDBRANCH  75  78
ENDBRANCH  73  74
ENDBRANCH  72  73
ENDBRANCH   1  72
TORSDOF 18
ENDMDL
