MODEL 1
REMARK VINA RESULT:     -11.3      0.000      0.000
REMARK SMILES Cc1oc(CSc2ccncc2N)cc1C(=O)NCCCCNC(=O)c1ccc(-c2c3nc(c(-c4cc(S(=O)(=O)[O-])ccc4F)c4ccc([nH]4)c(-c4cc(S(=O)(=O)[O-])ccc4F)c4nc(c(-c5cc(S(=O)(=O)[O-])ccc5F)c5ccc2[nH]5)C=C4)C=C3)cc1
REMARK SMILES IDX 20 1 19 2 18 3 16 4 17 5 15 7 1 8 2 9 3 10 4 11 14 12 5 13
REMARK SMILES IDX 6 14 7 15 8 16 12 17 9 18 11 19 10 20 13 21 21 24 22 25
REMARK SMILES IDX 23 26 24 27 25 29 26 30 27 31 88 32 28 33 87 34 29 35 30 36
REMARK SMILES IDX 31 37 81 38 32 39 86 40 80 41 82 42 33 43 85 44 79 45 78 46
REMARK SMILES IDX 34 48 66 49 46 50 65 51 47 52 50 53 64 54 83 55 48 56 49 57
REMARK SMILES IDX 63 59 84 60 51 61 35 62 36 63 44 64 37 65 43 66 45 67 42 68
REMARK SMILES IDX 38 69 39 70 40 71 41 72 67 73 68 74 76 75 69 76 75 77 77 78
REMARK SMILES IDX 74 79 70 80 71 81 72 82 73 83 52 84 53 85 61 86 54 87 60 88
REMARK SMILES IDX 62 89 59 90 55 91 56 92 57 93 58 94
REMARK H PARENT 18 6 13 22 13 23 23 28 82 47 50 58
REMARK Flexibility Score: inf
ROOT
ATOM      1  C   UNL A   1      35.060  30.604  27.977  1.00  0.00     0.023 C 
ENDROOT
BRANCH   1   2
ATOM      2  C   UNL A   1      34.707  29.248  27.366  1.00  0.00     0.116 C 
BRANCH   2   3
ATOM      3  N   UNL A   1      33.457  28.770  27.894  1.00  0.00    -0.352 N 
ATOM      4  C   UNL A   1      32.376  28.151  27.340  1.00  0.00     0.254 C 
ATOM      5  O   UNL A   1      31.491  27.855  28.152  1.00  0.00    -0.269 OA
ATOM      6  H   UNL A   1      33.363  28.921  28.862  1.00  0.00     0.163 HD
BRANCH   4   7
ATOM      7  C   UNL A   1      32.196  27.791  25.930  1.00  0.00     0.081 A 
ATOM      8  C   UNL A   1      33.512  25.611  25.049  1.00  0.00     0.088 C 
ATOM      9  C   UNL A   1      32.652  26.810  25.051  1.00  0.00     0.113 A 
ATOM     10  O   UNL A   1      32.176  27.048  23.785  1.00  0.00    -0.465 OA
ATOM     11  C   UNL A   1      31.439  28.180  23.814  1.00  0.00     0.115 A 
ATOM     12  C   UNL A   1      31.372  28.635  25.103  1.00  0.00     0.060 A 
BRANCH  11  13
ATOM     13  C   UNL A   1      30.828  28.650  22.553  1.00  0.00     0.150 C 
BRANCH  13  14
ATOM     14  S   UNL A   1      29.021  28.899  22.538  1.00  0.00    -0.116 SA
BRANCH  14  15
ATOM     15  C   UNL A   1      28.732  30.638  22.189  1.00  0.00     0.034 A 
ATOM     16  C   UNL A   1      28.047  30.883  20.987  1.00  0.00     0.037 A 
ATOM     17  C   UNL A   1      29.043  31.724  23.022  1.00  0.00     0.064 A 
ATOM     18  C   UNL A   1      27.716  32.182  20.642  1.00  0.00     0.112 A 
ATOM     19  C   UNL A   1      28.670  32.992  22.558  1.00  0.00     0.137 A 
ATOM     20  N   UNL A   1      28.023  33.250  21.396  1.00  0.00    -0.262 NA
BRANCH  17  21
ATOM     21  N   UNL A   1      29.542  31.592  24.315  1.00  0.00    -0.397 N 
ATOM     22  H   UNL A   1      28.986  31.185  25.018  1.00  0.00     0.156 HD
ATOM     23  H   UNL A   1      30.451  31.906  24.525  1.00  0.00     0.156 HD
ENDBRANCH  17  21
ENDBRANCH  14  15
ENDBRANCH  13  14
ENDBRANCH  11  13
ENDBRANCH   4   7
ENDBRANCH   2   3
ENDBRANCH   1   2
BRANCH   1  24
ATOM     24  C   UNL A   1      34.391  31.807  27.308  1.00  0.00     0.023 C 
BRANCH  24  25
ATOM     25  C   UNL A   1      33.043  32.202  27.904  1.00  0.00     0.116 C 
BRANCH  25  26
ATOM     26  N   UNL A   1      32.819  33.641  27.938  1.00  0.00    -0.352 N 
ATOM     27  C   UNL A   1      33.498  34.586  28.669  1.00  0.00     0.251 C 
ATOM     28  H   UNL A   1      32.089  33.977  27.369  1.00  0.00     0.163 HD
ATOM     29  O   UNL A   1      33.129  35.757  28.661  1.00  0.00    -0.269 OA
BRANCH  27  30
ATOM     30  C   UNL A   1      34.638  34.156  29.500  1.00  0.00     0.039 A 
ATOM     31  C   UNL A   1      34.387  33.406  30.651  1.00  0.00     0.014 A 
ATOM     32  C   UNL A   1      35.948  34.429  29.099  1.00  0.00     0.014 A 
ATOM     33  C   UNL A   1      35.458  32.863  31.362  1.00  0.00     0.010 A 
ATOM     34  C   UNL A   1      37.010  33.831  29.770  1.00  0.00     0.010 A 
ATOM     35  C   UNL A   1      36.774  33.037  30.903  1.00  0.00    -0.014 A 
BRANCH  35  36
ATOM     36  C   UNL A   1      37.922  32.391  31.589  1.00  0.00     0.031 A 
ATOM     37  C   UNL A   1      38.642  31.249  30.930  1.00  0.00     0.074 A 
ATOM     38  C   UNL A   1      38.259  32.782  32.834  1.00  0.00     0.049 A 
ATOM     39  N   UNL A   1      39.598  30.491  31.399  1.00  0.00    -0.248 NA
ATOM     40  C   UNL A   1      38.201  30.891  29.573  1.00  0.00     0.031 C 
ATOM     41  C   UNL A   1      37.600  33.847  33.594  1.00  0.00     0.029 A 
ATOM     42  N   UNL A   1      39.231  32.322  33.685  1.00  0.00    -0.354 N 
ATOM     43  C   UNL A   1      39.862  29.554  30.405  1.00  0.00     0.074 A 
ATOM     44  C   UNL A   1      38.920  29.806  29.334  1.00  0.00     0.031 C 
ATOM     45  C   UNL A   1      38.201  33.971  34.789  1.00  0.00     0.029 A 
ATOM     46  C   UNL A   1      39.256  32.970  34.899  1.00  0.00     0.049 A 
ATOM     47  H   UNL A   1      39.853  31.596  33.451  1.00  0.00     0.167 HD
ATOM     48  C   UNL A   1      40.816  28.591  30.379  1.00  0.00     0.034 A 
ATOM     49  C   UNL A   1      40.035  32.772  35.981  1.00  0.00     0.034 A 
ATOM     50  C   UNL A   1      41.758  28.369  31.449  1.00  0.00     0.049 A 
ATOM     51  C   UNL A   1      41.088  31.694  35.930  1.00  0.00     0.074 A 
ATOM     52  C   UNL A   1      42.800  27.461  31.507  1.00  0.00     0.029 A 
ATOM     53  N   UNL A   1      41.769  29.061  32.654  1.00  0.00    -0.354 N 
ATOM     54  N   UNL A   1      41.358  30.849  34.963  1.00  0.00    -0.248 NA
ATOM     55  C   UNL A   1      41.949  31.553  37.111  1.00  0.00     0.031 C 
ATOM     56  C   UNL A   1      43.404  27.564  32.764  1.00  0.00     0.029 A 
ATOM     57  C   UNL A   1      42.785  28.585  33.468  1.00  0.00     0.049 A 
ATOM     58  H   UNL A   1      41.146  29.785  32.895  1.00  0.00     0.167 HD
ATOM     59  C   UNL A   1      42.443  30.098  35.407  1.00  0.00     0.074 A 
ATOM     60  C   UNL A   1      42.782  30.598  36.724  1.00  0.00     0.031 C 
ATOM     61  C   UNL A   1      43.105  29.093  34.781  1.00  0.00     0.034 A 
BRANCH  48  62
ATOM     62  C   UNL A   1      40.864  27.699  29.162  1.00  0.00     0.023 A 
ATOM     63  C   UNL A   1      41.781  27.922  28.120  1.00  0.00     0.031 A 
ATOM     64  C   UNL A   1      39.957  26.633  29.022  1.00  0.00     0.131 A 
ATOM     65  C   UNL A   1      41.715  27.150  26.951  1.00  0.00     0.055 A 
ATOM     66  C   UNL A   1      39.954  25.813  27.892  1.00  0.00     0.041 A 
ATOM     67  F   UNL A   1      39.044  26.383  29.974  1.00  0.00    -0.206 F 
ATOM     68  C   UNL A   1      40.826  26.080  26.840  1.00  0.00     0.022 A 
BRANCH  65  69
ATOM     69  S   UNL A   1      42.707  27.663  25.521  1.00  0.00     0.124 S 
ATOM     70  O   UNL A   1      44.022  27.853  26.128  1.00  0.00    -0.237 OA
ATOM     71  O   UNL A   1      42.576  26.522  24.622  1.00  0.00    -0.237 OA
ATOM     72  O   UNL A   1      42.052  28.890  25.072  1.00  0.00    -0.744 OA
ENDBRANCH  65  69
ENDBRANCH  48  62
BRANCH  49  73
ATOM     73  C   UNL A   1      39.855  33.603  37.204  1.00  0.00     0.023 A 
ATOM     74  C   UNL A   1      40.650  34.737  37.430  1.00  0.00     0.031 A 
ATOM     75  C   UNL A   1      38.909  33.255  38.185  1.00  0.00     0.131 A 
ATOM     76  C   UNL A   1      40.521  35.456  38.628  1.00  0.00     0.055 A 
ATOM     77  C   UNL A   1      38.749  34.002  39.353  1.00  0.00     0.041 A 
ATOM     78  F   UNL A   1      38.116  32.184  38.014  1.00  0.00    -0.206 F 
ATOM     79  C   UNL A   1      39.567  35.103  39.586  1.00  0.00     0.022 A 
BRANCH  76  80
ATOM     80  S   UNL A   1      41.675  36.818  38.952  1.00  0.00     0.124 S 
ATOM     81  O   UNL A   1      40.761  37.915  39.253  1.00  0.00    -0.237 OA
ATOM     82  O   UNL A   1      42.448  36.298  40.074  1.00  0.00    -0.237 OA
ATOM     83  O   UNL A   1      42.412  36.945  37.696  1.00  0.00    -0.744 OA
ENDBRANCH  76  80
ENDBRANCH  49  73
BRANCH  61  84
ATOM     84  C   UNL A   1      44.296  28.507  35.497  1.00  0.00     0.023 A 
ATOM     85  C   UNL A   1      44.157  27.497  36.463  1.00  0.00     0.031 A 
ATOM     86  C   UNL A   1      45.590  28.976  35.207  1.00  0.00     0.131 A 
ATOM     87  C   UNL A   1      45.290  27.021  37.142  1.00  0.00     0.055 A 
ATOM     88  C   UNL A   1      46.717  28.460  35.847  1.00  0.00     0.041 A 
ATOM     89  F   UNL A   1      45.778  29.941  34.294  1.00  0.00    -0.206 F 
ATOM     90  C   UNL A   1      46.570  27.485  36.828  1.00  0.00     0.022 A 
BRANCH  87  91
ATOM     91  S   UNL A   1      45.060  25.837  38.498  1.00  0.00     0.124 S 
ATOM     92  O   UNL A   1      46.366  25.863  39.147  1.00  0.00    -0.237 OA
ATOM     93  O   UNL A   1      43.962  26.435  39.251  1.00  0.00    -0.237 OA
ATOM     94  O   UNL A   1      44.732  24.590  37.812  1.00  0.00    -0.744 OA
ENDBRANCH  87  91
ENDBRANCH  61  84
ENDBRANCH  35  36
ENDBRANCH  27  30
ENDBRANCH  25  26
ENDBRANCH  24  25
ENDBRANCH   1  24
TORSDOF 18
ENDMDL
MODEL 2
REMARK VINA RESULT:     -11.2      5.944     10.794
REMARK SMILES Cc1oc(CSc2ccncc2N)cc1C(=O)NCCCCNC(=O)c1ccc(-c2c3nc(c(-c4cc(S(=O)(=O)[O-])ccc4F)c4ccc([nH]4)c(-c4cc(S(=O)(=O)[O-])ccc4F)c4nc(c(-c5cc(S(=O)(=O)[O-])ccc5F)c5ccc2[nH]5)C=C4)C=C3)cc1
REMARK SMILES IDX 20 1 19 2 18 3 16 4 17 5 15 7 1 8 2 9 3 10 4 11 14 12 5 13
REMARK SMILES IDX 6 14 7 15 8 16 12 17 9 18 11 19 10 20 13 21 21 24 22 25
REMARK SMILES IDX 23 26 24 27 25 29 26 30 27 31 88 32 28 33 87 34 29 35 30 36
REMARK SMILES IDX 31 37 81 38 32 39 86 40 80 41 82 42 33 43 85 44 79 45 78 46
REMARK SMILES IDX 34 48 66 49 46 50 65 51 47 52 50 53 64 54 83 55 48 56 49 57
REMARK SMILES IDX 63 59 84 60 51 61 35 62 36 63 44 64 37 65 43 66 45 67 42 68
REMARK SMILES IDX 38 69 39 70 40 71 41 72 67 73 68 74 76 75 69 76 75 77 77 78
REMARK SMILES IDX 74 79 70 80 71 81 72 82 73 83 52 84 53 85 61 86 54 87 60 88
REMARK SMILES IDX 62 89 59 90 55 91 56 92 57 93 58 94
REMARK H PARENT 18 6 13 22 13 23 23 28 82 47 50 58
REMARK Flexibility Score: inf
ROOT
ATOM      1  C   UNL A   1      35.002  20.380  24.933  1.00  0.00     0.023 C 
ENDROOT
BRANCH   1   2
ATOM      2  C   UNL A   1      33.499  20.241  25.178  1.00  0.00     0.116 C 
BRANCH   2   3
ATOM      3  N   UNL A   1      32.776  20.350  23.939  1.00  0.00    -0.352 N 
ATOM      4  C   UNL A   1      32.397  21.401  23.159  1.00  0.00     0.254 C 
ATOM      5  O   UNL A   1      31.808  21.076  22.121  1.00  0.00    -0.269 OA
ATOM      6  H   UNL A   1      32.495  19.478  23.577  1.00  0.00     0.163 HD
BRANCH   4   7
ATOM      7  C   UNL A   1      32.649  22.822  23.416  1.00  0.00     0.081 A 
ATOM      8  C   UNL A   1      32.625  23.622  25.989  1.00  0.00     0.088 C 
ATOM      9  C   UNL A   1      32.722  23.674  24.517  1.00  0.00     0.113 A 
ATOM     10  O   UNL A   1      32.918  24.968  24.104  1.00  0.00    -0.465 OA
ATOM     11  C   UNL A   1      32.948  24.985  22.754  1.00  0.00     0.115 A 
ATOM     12  C   UNL A   1      32.849  23.701  22.290  1.00  0.00     0.060 A 
BRANCH  11  13
ATOM     13  C   UNL A   1      33.136  26.283  22.074  1.00  0.00     0.150 C 
BRANCH  13  14
ATOM     14  S   UNL A   1      32.736  27.791  23.020  1.00  0.00    -0.116 SA
BRANCH  14  15
ATOM     15  C   UNL A   1      30.955  28.014  22.929  1.00  0.00     0.034 A 
ATOM     16  C   UNL A   1      30.214  27.069  23.658  1.00  0.00     0.037 A 
ATOM     17  C   UNL A   1      30.271  29.058  22.287  1.00  0.00     0.064 A 
ATOM     18  C   UNL A   1      28.835  27.174  23.711  1.00  0.00     0.112 A 
ATOM     19  C   UNL A   1      28.875  29.050  22.400  1.00  0.00     0.137 A 
ATOM     20  N   UNL A   1      28.142  28.141  23.086  1.00  0.00    -0.262 NA
BRANCH  17  21
ATOM     21  N   UNL A   1      30.901  30.152  21.702  1.00  0.00    -0.397 N 
ATOM     22  H   UNL A   1      30.492  30.598  20.924  1.00  0.00     0.156 HD
ATOM     23  H   UNL A   1      31.754  30.481  22.064  1.00  0.00     0.156 HD
ENDBRANCH  17  21
ENDBRANCH  14  15
ENDBRANCH  13  14
ENDBRANCH  11  13
ENDBRANCH   4   7
ENDBRANCH   2   3
ENDBRANCH   1   2
BRANCH   1  24
ATOM     24  C   UNL A   1      35.691  21.474  25.753  1.00  0.00     0.023 C 
BRANCH  24  25
ATOM     25  C   UNL A   1      37.117  21.797  25.317  1.00  0.00     0.116 C 
BRANCH  25  26
ATOM     26  N   UNL A   1      38.056  20.705  25.533  1.00  0.00    -0.352 N 
ATOM     27  C   UNL A   1      39.312  20.765  26.088  1.00  0.00     0.251 C 
ATOM     28  H   UNL A   1      37.753  19.813  25.244  1.00  0.00     0.163 HD
ATOM     29  O   UNL A   1      40.023  19.765  26.118  1.00  0.00    -0.269 OA
BRANCH  27  30
ATOM     30  C   UNL A   1      39.803  22.061  26.592  1.00  0.00     0.039 A 
ATOM     31  C   UNL A   1      40.829  22.070  27.540  1.00  0.00     0.014 A 
ATOM     32  C   UNL A   1      39.302  23.257  26.072  1.00  0.00     0.014 A 
ATOM     33  C   UNL A   1      41.407  23.284  27.912  1.00  0.00     0.010 A 
ATOM     34  C   UNL A   1      39.925  24.458  26.393  1.00  0.00     0.010 A 
ATOM     35  C   UNL A   1      40.988  24.482  27.310  1.00  0.00    -0.014 A 
BRANCH  35  36
ATOM     36  C   UNL A   1      41.651  25.774  27.620  1.00  0.00     0.031 A 
ATOM     37  C   UNL A   1      40.916  26.822  28.408  1.00  0.00     0.074 A 
ATOM     38  C   UNL A   1      42.877  26.030  27.123  1.00  0.00     0.049 A 
ATOM     39  N   UNL A   1      41.277  28.044  28.699  1.00  0.00    -0.248 NA
ATOM     40  C   UNL A   1      39.582  26.453  28.904  1.00  0.00     0.031 C 
ATOM     41  C   UNL A   1      43.668  25.108  26.304  1.00  0.00     0.029 A 
ATOM     42  N   UNL A   1      43.671  27.144  27.225  1.00  0.00    -0.354 N 
ATOM     43  C   UNL A   1      40.209  28.599  29.396  1.00  0.00     0.074 A 
ATOM     44  C   UNL A   1      39.165  27.595  29.428  1.00  0.00     0.031 C 
ATOM     45  C   UNL A   1      44.839  25.688  25.995  1.00  0.00     0.029 A 
ATOM     46  C   UNL A   1      44.868  27.034  26.555  1.00  0.00     0.049 A 
ATOM     47  H   UNL A   1      43.408  27.948  27.728  1.00  0.00     0.167 HD
ATOM     48  C   UNL A   1      40.117  29.822  29.975  1.00  0.00     0.034 A 
ATOM     49  C   UNL A   1      45.871  27.922  26.404  1.00  0.00     0.034 A 
ATOM     50  C   UNL A   1      41.176  30.801  29.948  1.00  0.00     0.049 A 
ATOM     51  C   UNL A   1      45.747  29.276  27.055  1.00  0.00     0.074 A 
ATOM     52  C   UNL A   1      41.215  32.047  30.547  1.00  0.00     0.029 A 
ATOM     53  N   UNL A   1      42.385  30.645  29.281  1.00  0.00    -0.354 N 
ATOM     54  N   UNL A   1      44.750  29.768  27.753  1.00  0.00    -0.248 NA
ATOM     55  C   UNL A   1      46.888  30.188  26.909  1.00  0.00     0.031 C 
ATOM     56  C   UNL A   1      42.419  32.666  30.198  1.00  0.00     0.029 A 
ATOM     57  C   UNL A   1      43.166  31.780  29.437  1.00  0.00     0.049 A 
ATOM     58  H   UNL A   1      42.650  29.844  28.773  1.00  0.00     0.167 HD
ATOM     59  C   UNL A   1      45.159  31.035  28.158  1.00  0.00     0.074 A 
ATOM     60  C   UNL A   1      46.496  31.226  27.633  1.00  0.00     0.031 C 
ATOM     61  C   UNL A   1      44.495  31.954  28.903  1.00  0.00     0.034 A 
BRANCH  48  62
ATOM     62  C   UNL A   1      38.818  30.164  30.663  1.00  0.00     0.023 A 
ATOM     63  C   UNL A   1      37.806  30.891  30.011  1.00  0.00     0.031 A 
ATOM     64  C   UNL A   1      38.600  29.792  32.002  1.00  0.00     0.131 A 
ATOM     65  C   UNL A   1      36.666  31.296  30.719  1.00  0.00     0.055 A 
ATOM     66  C   UNL A   1      37.423  30.125  32.676  1.00  0.00     0.041 A 
ATOM     67  F   UNL A   1      39.537  29.115  32.684  1.00  0.00    -0.206 F 
ATOM     68  C   UNL A   1      36.455  30.896  32.039  1.00  0.00     0.022 A 
BRANCH  65  69
ATOM     69  S   UNL A   1      35.537  32.479  29.934  1.00  0.00     0.124 S 
ATOM     70  O   UNL A   1      35.352  31.879  28.615  1.00  0.00    -0.237 OA
ATOM     71  O   UNL A   1      34.379  32.447  30.820  1.00  0.00    -0.237 OA
ATOM     72  O   UNL A   1      36.293  33.730  29.941  1.00  0.00    -0.744 OA
ENDBRANCH  65  69
ENDBRANCH  48  62
BRANCH  49  73
ATOM     73  C   UNL A   1      47.078  27.569  25.604  1.00  0.00     0.023 A 
ATOM     74  C   UNL A   1      47.164  27.902  24.244  1.00  0.00     0.031 A 
ATOM     75  C   UNL A   1      48.148  26.861  26.180  1.00  0.00     0.131 A 
ATOM     76  C   UNL A   1      48.272  27.487  23.490  1.00  0.00     0.055 A 
ATOM     77  C   UNL A   1      49.272  26.492  25.438  1.00  0.00     0.041 A 
ATOM     78  F   UNL A   1      48.119  26.526  27.480  1.00  0.00    -0.206 F 
ATOM     79  C   UNL A   1      49.332  26.794  24.081  1.00  0.00     0.022 A 
BRANCH  76  80
ATOM     80  S   UNL A   1      48.273  27.798  21.703  1.00  0.00     0.124 S 
ATOM     81  O   UNL A   1      48.578  26.474  21.172  1.00  0.00    -0.237 OA
ATOM     82  O   UNL A   1      46.915  28.283  21.481  1.00  0.00    -0.237 OA
ATOM     83  O   UNL A   1      49.326  28.797  21.532  1.00  0.00    -0.744 OA
ENDBRANCH  76  80
ENDBRANCH  49  73
BRANCH  61  84
ATOM     84  C   UNL A   1      45.232  33.228  29.235  1.00  0.00     0.023 A 
ATOM     85  C   UNL A   1      45.127  34.376  28.432  1.00  0.00     0.031 A 
ATOM     86  C   UNL A   1      46.056  33.285  30.373  1.00  0.00     0.131 A 
ATOM     87  C   UNL A   1      45.874  35.521  28.752  1.00  0.00     0.055 A 
ATOM     88  C   UNL A   1      46.754  34.444  30.715  1.00  0.00     0.041 A 
ATOM     89  F   UNL A   1      46.192  32.216  31.172  1.00  0.00    -0.206 F 
ATOM     90  C   UNL A   1      46.674  35.566  29.897  1.00  0.00     0.022 A 
BRANCH  87  91
ATOM     91  S   UNL A   1      45.847  36.928  27.607  1.00  0.00     0.124 S 
ATOM     92  O   UNL A   1      44.419  37.082  27.351  1.00  0.00    -0.237 OA
ATOM     93  O   UNL A   1      46.471  37.984  28.396  1.00  0.00    -0.237 OA
ATOM     94  O   UNL A   1      46.634  36.459  26.469  1.00  0.00    -0.744 OA
ENDBRANCH  87  91
ENDBRANCH  61  84
ENDBRANCH  35  36
ENDBRANCH  27  30
ENDBRANCH  25  26
ENDBRANCH  24  25
ENDBRANCH   1  24
TORSDOF 18
ENDMDL
MODEL 3
REMARK VINA RESULT:     -11.0      1.929      3.873
REMARK SMILES Cc1oc(CSc2ccncc2N)cc1C(=O)NCCCCNC(=O)c1ccc(-c2c3nc(c(-c4cc(S(=O)(=O)[O-])ccc4F)c4ccc([nH]4)c(-c4cc(S(=O)(=O)[O-])ccc4F)c4nc(c(-c5cc(S(=O)(=O)[O-])ccc5F)c5ccc2[nH]5)C=C4)C=C3)cc1
REMARK SMILES IDX 20 1 19 2 18 3 16 4 17 5 15 7 1 8 2 9 3 10 4 11 14 12 5 13
REMARK SMILES IDX 6 14 7 15 8 16 12 17 9 18 11 19 10 20 13 21 21 24 22 25
REMARK SMILES IDX 23 26 24 27 25 29 26 30 27 31 88 32 28 33 87 34 29 35 30 36
REMARK SMILES IDX 31 37 81 38 32 39 86 40 80 41 82 42 33 43 85 44 79 45 78 46
REMARK SMILES IDX 34 48 66 49 46 50 65 51 47 52 50 53 64 54 83 55 48 56 49 57
REMARK SMILES IDX 63 59 84 60 51 61 35 62 36 63 44 64 37 65 43 66 45 67 42 68
REMARK SMILES IDX 38 69 39 70 40 71 41 72 67 73 68 74 76 75 69 76 75 77 77 78
REMARK SMILES IDX 74 79 70 80 71 81 72 82 73 83 52 84 53 85 61 86 54 87 60 88
REMARK SMILES IDX 62 89 59 90 55 91 56 92 57 93 58 94
REMARK H PARENT 18 6 13 22 13 23 23 28 82 47 50 58
REMARK Flexibility Score: inf
ROOT
ATOM      1  C   UNL A   1      31.780  30.427  26.805  1.00  0.00     0.023 C 
ENDROOT
BRANCH   1   2
ATOM      2  C   UNL A   1      32.271  29.853  25.476  1.00  0.00     0.116 C 
BRANCH   2   3
ATOM      3  N   UNL A   1      31.197  29.809  24.520  1.00  0.00    -0.352 N 
ATOM      4  C   UNL A   1      30.607  28.805  23.812  1.00  0.00     0.254 C 
ATOM      5  O   UNL A   1      29.662  29.172  23.103  1.00  0.00    -0.269 OA
ATOM      6  H   UNL A   1      30.802  30.693  24.340  1.00  0.00     0.163 HD
BRANCH   4   7
ATOM      7  C   UNL A   1      30.960  27.382  23.843  1.00  0.00     0.081 A 
ATOM      8  C   UNL A   1      29.838  25.888  25.785  1.00  0.00     0.088 C 
ATOM      9  C   UNL A   1      30.664  26.264  24.621  1.00  0.00     0.113 A 
ATOM     10  O   UNL A   1      31.388  25.180  24.189  1.00  0.00    -0.465 OA
ATOM     11  C   UNL A   1      32.171  25.573  23.160  1.00  0.00     0.115 A 
ATOM     12  C   UNL A   1      31.904  26.885  22.874  1.00  0.00     0.060 A 
BRANCH  11  13
ATOM     13  C   UNL A   1      33.058  24.572  22.534  1.00  0.00     0.150 C 
BRANCH  13  14
ATOM     14  S   UNL A   1      32.650  22.812  22.791  1.00  0.00    -0.116 SA
BRANCH  14  15
ATOM     15  C   UNL A   1      33.544  22.271  24.253  1.00  0.00     0.034 A 
ATOM     16  C   UNL A   1      34.906  22.615  24.260  1.00  0.00     0.037 A 
ATOM     17  C   UNL A   1      33.003  21.636  25.381  1.00  0.00     0.064 A 
ATOM     18  C   UNL A   1      35.685  22.302  25.361  1.00  0.00     0.112 A 
ATOM     19  C   UNL A   1      33.892  21.358  26.426  1.00  0.00     0.137 A 
ATOM     20  N   UNL A   1      35.211  21.668  26.446  1.00  0.00    -0.262 NA
BRANCH  17  21
ATOM     21  N   UNL A   1      31.641  21.421  25.571  1.00  0.00    -0.397 N 
ATOM     22  H   UNL A   1      31.096  21.042  24.843  1.00  0.00     0.156 HD
ATOM     23  H   UNL A   1      31.223  21.647  26.432  1.00  0.00     0.156 HD
ENDBRANCH  17  21
ENDBRANCH  14  15
ENDBRANCH  13  14
ENDBRANCH  11  13
ENDBRANCH   4   7
ENDBRANCH   2   3
ENDBRANCH   1   2
BRANCH   1  24
ATOM     24  C   UNL A   1      31.544  31.940  26.807  1.00  0.00     0.023 C 
BRANCH  24  25
ATOM     25  C   UNL A   1      32.800  32.782  27.005  1.00  0.00     0.116 C 
BRANCH  25  26
ATOM     26  N   UNL A   1      32.557  34.035  27.708  1.00  0.00    -0.352 N 
ATOM     27  C   UNL A   1      33.241  34.548  28.785  1.00  0.00     0.251 C 
ATOM     28  H   UNL A   1      31.811  34.581  27.370  1.00  0.00     0.163 HD
ATOM     29  O   UNL A   1      32.855  35.580  29.327  1.00  0.00    -0.269 OA
BRANCH  27  30
ATOM     30  C   UNL A   1      34.405  33.806  29.305  1.00  0.00     0.039 A 
ATOM     31  C   UNL A   1      35.687  34.261  28.994  1.00  0.00     0.014 A 
ATOM     32  C   UNL A   1      34.222  32.713  30.156  1.00  0.00     0.014 A 
ATOM     33  C   UNL A   1      36.793  33.663  29.601  1.00  0.00     0.010 A 
ATOM     34  C   UNL A   1      35.320  32.165  30.811  1.00  0.00     0.010 A 
ATOM     35  C   UNL A   1      36.614  32.639  30.545  1.00  0.00    -0.014 A 
BRANCH  35  36
ATOM     36  C   UNL A   1      37.768  32.052  31.273  1.00  0.00     0.031 A 
ATOM     37  C   UNL A   1      38.577  30.959  30.633  1.00  0.00     0.074 A 
ATOM     38  C   UNL A   1      38.030  32.446  32.535  1.00  0.00     0.049 A 
ATOM     39  N   UNL A   1      39.555  30.251  31.136  1.00  0.00    -0.248 NA
ATOM     40  C   UNL A   1      38.214  30.594  29.257  1.00  0.00     0.031 C 
ATOM     41  C   UNL A   1      37.281  33.464  33.276  1.00  0.00     0.029 A 
ATOM     42  N   UNL A   1      38.991  32.032  33.421  1.00  0.00    -0.354 N 
ATOM     43  C   UNL A   1      39.912  29.343  30.145  1.00  0.00     0.074 A 
ATOM     44  C   UNL A   1      39.003  29.554  29.038  1.00  0.00     0.031 C 
ATOM     45  C   UNL A   1      37.824  33.607  34.497  1.00  0.00     0.029 A 
ATOM     46  C   UNL A   1      38.929  32.666  34.641  1.00  0.00     0.049 A 
ATOM     47  H   UNL A   1      39.662  31.344  33.206  1.00  0.00     0.167 HD
ATOM     48  C   UNL A   1      40.920  28.435  30.150  1.00  0.00     0.034 A 
ATOM     49  C   UNL A   1      39.674  32.499  35.753  1.00  0.00     0.034 A 
ATOM     50  C   UNL A   1      41.828  28.254  31.256  1.00  0.00     0.049 A 
ATOM     51  C   UNL A   1      40.787  31.483  35.736  1.00  0.00     0.074 A 
ATOM     52  C   UNL A   1      42.917  27.406  31.348  1.00  0.00     0.029 A 
ATOM     53  N   UNL A   1      41.750  28.931  32.466  1.00  0.00    -0.354 N 
ATOM     54  N   UNL A   1      41.144  30.666  34.772  1.00  0.00    -0.248 NA
ATOM     55  C   UNL A   1      41.606  31.378  36.950  1.00  0.00     0.031 C 
ATOM     56  C   UNL A   1      43.462  27.528  32.630  1.00  0.00     0.029 A 
ATOM     57  C   UNL A   1      42.757  28.504  33.318  1.00  0.00     0.049 A 
ATOM     58  H   UNL A   1      41.078  29.616  32.687  1.00  0.00     0.167 HD
ATOM     59  C   UNL A   1      42.251  29.973  35.254  1.00  0.00     0.074 A 
ATOM     60  C   UNL A   1      42.506  30.476  36.589  1.00  0.00     0.031 C 
ATOM     61  C   UNL A   1      42.994  29.014  34.647  1.00  0.00     0.034 A 
BRANCH  48  62
ATOM     62  C   UNL A   1      41.068  27.562  28.927  1.00  0.00     0.023 A 
ATOM     63  C   UNL A   1      42.070  27.798  27.969  1.00  0.00     0.031 A 
ATOM     64  C   UNL A   1      40.174  26.501  28.695  1.00  0.00     0.131 A 
ATOM     65  C   UNL A   1      42.101  27.044  26.787  1.00  0.00     0.055 A 
ATOM     66  C   UNL A   1      40.265  25.698  27.556  1.00  0.00     0.041 A 
ATOM     67  F   UNL A   1      39.184  26.239  29.563  1.00  0.00    -0.206 F 
ATOM     68  C   UNL A   1      41.223  25.979  26.585  1.00  0.00     0.022 A 
BRANCH  65  69
ATOM     69  S   UNL A   1      43.210  27.575  25.453  1.00  0.00     0.124 S 
ATOM     70  O   UNL A   1      42.283  28.262  24.556  1.00  0.00    -0.237 OA
ATOM     71  O   UNL A   1      44.166  28.422  26.156  1.00  0.00    -0.237 OA
ATOM     72  O   UNL A   1      43.751  26.319  24.936  1.00  0.00    -0.744 OA
ENDBRANCH  65  69
ENDBRANCH  48  62
BRANCH  49  73
ATOM     73  C   UNL A   1      39.396  33.305  36.975  1.00  0.00     0.023 A 
ATOM     74  C   UNL A   1      40.056  34.522  37.202  1.00  0.00     0.031 A 
ATOM     75  C   UNL A   1      38.493  32.851  37.953  1.00  0.00     0.131 A 
ATOM     76  C   UNL A   1      39.842  35.222  38.399  1.00  0.00     0.055 A 
ATOM     77  C   UNL A   1      38.246  33.575  39.121  1.00  0.00     0.041 A 
ATOM     78  F   UNL A   1      37.829  31.697  37.781  1.00  0.00    -0.206 F 
ATOM     79  C   UNL A   1      38.933  34.762  39.356  1.00  0.00     0.022 A 
BRANCH  76  80
ATOM     80  S   UNL A   1      40.832  36.707  38.726  1.00  0.00     0.124 S 
ATOM     81  O   UNL A   1      39.797  37.721  38.895  1.00  0.00    -0.237 OA
ATOM     82  O   UNL A   1      41.561  36.325  39.930  1.00  0.00    -0.237 OA
ATOM     83  O   UNL A   1      41.648  36.843  37.521  1.00  0.00    -0.744 OA
ENDBRANCH  76  80
ENDBRANCH  49  73
BRANCH  61  84
ATOM     84  C   UNL A   1      44.186  28.487  35.407  1.00  0.00     0.023 A 
ATOM     85  C   UNL A   1      44.061  27.478  36.375  1.00  0.00     0.031 A 
ATOM     86  C   UNL A   1      45.466  29.014  35.156  1.00  0.00     0.131 A 
ATOM     87  C   UNL A   1      45.191  27.059  37.095  1.00  0.00     0.055 A 
ATOM     88  C   UNL A   1      46.594  28.555  35.837  1.00  0.00     0.041 A 
ATOM     89  F   UNL A   1      45.640  29.981  34.242  1.00  0.00    -0.206 F 
ATOM     90  C   UNL A   1      46.458  27.579  36.820  1.00  0.00     0.022 A 
BRANCH  87  91
ATOM     91  S   UNL A   1      44.971  25.874  38.452  1.00  0.00     0.124 S 
ATOM     92  O   UNL A   1      43.944  26.525  39.258  1.00  0.00    -0.237 OA
ATOM     93  O   UNL A   1      44.557  24.666  37.747  1.00  0.00    -0.237 OA
ATOM     94  O   UNL A   1      46.295  25.809  39.067  1.00  0.00    -0.744 OA
ENDBRANCH  87  91
ENDBRANCH  61  84
ENDBRANCH  35  36
ENDBRANCH  27  30
ENDBRANCH  25  26
ENDBRANCH  24  25
ENDBRANCH   1  24
TORSDOF 18
ENDMDL
