MODEL 1
REMARK VINA RESULT:     -10.8      0.000      0.000
REMARK SMILES C[NH+](C)CC[NH2+][C@@H](C(=O)NCCCCNC(=O)c1ccc(-c2c3nc(c(-c4cc(S(=O)(=O)[O-])ccc4F)c4ccc([nH]4)c(-c4cc(S(=O)(=O)[O-])ccc4F)c4nc(c(-c5cc(S(=O)(=O)[O-])ccc5F)c5ccc2[nH]5)C=C4)C=C3)cc1)c1cccc(C2CC2)c1
REMARK SMILES IDX 12 1 11 2 10 3 8 4 9 5 7 7 6 8 5 11 4 12 2 13 1 14 3 15
REMARK SMILES IDX 81 17 82 18 89 19 83 20 85 21 84 22 86 23 87 24 88 25 13 26
REMARK SMILES IDX 14 27 15 28 16 29 17 31 18 32 19 33 80 34 20 35 79 36 21 37
REMARK SMILES IDX 22 38 23 39 73 40 24 41 78 42 72 43 74 44 25 45 77 46 71 47
REMARK SMILES IDX 70 48 26 50 58 51 38 52 57 53 39 54 42 55 56 56 75 57 40 58
REMARK SMILES IDX 41 59 55 61 76 62 43 63 27 64 28 65 36 66 29 67 35 68 37 69
REMARK SMILES IDX 34 70 30 71 31 72 32 73 33 74 59 75 60 76 68 77 61 78 67 79
REMARK SMILES IDX 69 80 66 81 62 82 63 83 64 84 65 85 44 86 45 87 53 88 46 89
REMARK SMILES IDX 52 90 54 91 51 92 47 93 48 94 49 95 50 96
REMARK H PARENT 10 6 6 9 6 10 2 16 15 30 74 49 42 60
REMARK Flexibility Score: inf
ROOT
ATOM      1  C   UNL A   1      31.753  28.250  27.347  1.00  0.00     0.023 C 
ENDROOT
BRANCH   1   2
ATOM      2  C   UNL A   1      32.195  26.911  26.731  1.00  0.00     0.116 C 
BRANCH   2   3
ATOM      3  N   UNL A   1      31.166  25.898  26.896  1.00  0.00    -0.351 N 
ATOM      4  C   UNL A   1      30.390  25.241  25.981  1.00  0.00     0.283 C 
ATOM      5  O   UNL A   1      29.345  24.752  26.426  1.00  0.00    -0.268 OA
ATOM      6  H   UNL A   1      30.997  25.640  27.831  1.00  0.00     0.163 HD
BRANCH   4   7
ATOM      7  C   UNL A   1      30.797  25.113  24.463  1.00  0.00     0.304 C 
BRANCH   7   8
ATOM      8  N   UNL A   1      32.186  24.592  24.286  1.00  0.00    -0.328 N 
ATOM      9  H   UNL A   1      32.428  24.655  23.298  1.00  0.00     0.347 HD
ATOM     10  H   UNL A   1      32.790  25.162  24.878  1.00  0.00     0.347 HD
BRANCH   8  11
ATOM     11  C   UNL A   1      32.365  23.216  24.712  1.00  0.00     0.323 C 
BRANCH  11  12
ATOM     12  C   UNL A   1      33.227  22.305  23.809  1.00  0.00     0.323 C 
BRANCH  12  13
ATOM     13  N   UNL A   1      34.587  21.937  24.240  1.00  0.00    -0.335 N 
ATOM     14  C   UNL A   1      35.501  23.059  24.387  1.00  0.00     0.332 C 
ATOM     15  C   UNL A   1      34.640  21.056  25.405  1.00  0.00     0.332 C 
ATOM     16  H   UNL A   1      34.925  21.389  23.449  1.00  0.00     0.347 HD
ENDBRANCH  12  13
ENDBRANCH  11  12
ENDBRANCH   8  11
ENDBRANCH   7   8
BRANCH   7  17
ATOM     17  C   UNL A   1      30.737  26.504  23.801  1.00  0.00     0.019 A 
ATOM     18  C   UNL A   1      31.915  27.112  23.326  1.00  0.00     0.010 A 
ATOM     19  C   UNL A   1      29.529  27.219  23.691  1.00  0.00     0.014 A 
ATOM     20  C   UNL A   1      31.892  28.374  22.751  1.00  0.00     0.001 A 
ATOM     21  C   UNL A   1      29.478  28.515  23.129  1.00  0.00    -0.044 A 
ATOM     22  C   UNL A   1      30.687  29.063  22.659  1.00  0.00     0.004 A 
BRANCH  21  23
ATOM     23  C   UNL A   1      28.224  29.358  23.024  1.00  0.00     0.019 C 
ATOM     24  C   UNL A   1      28.203  30.862  22.981  1.00  0.00     0.009 C 
ATOM     25  C   UNL A   1      27.957  30.081  21.724  1.00  0.00     0.009 C 
ENDBRANCH  21  23
ENDBRANCH   7  17
ENDBRANCH   4   7
ENDBRANCH   2   3
ENDBRANCH   1   2
BRANCH   1  26
ATOM     26  C   UNL A   1      31.429  29.356  26.356  1.00  0.00     0.023 C 
BRANCH  26  27
ATOM     27  C   UNL A   1      32.612  30.232  26.014  1.00  0.00     0.116 C 
BRANCH  27  28
ATOM     28  N   UNL A   1      32.411  31.621  26.409  1.00  0.00    -0.352 N 
ATOM     29  C   UNL A   1      33.148  32.386  27.284  1.00  0.00     0.251 C 
ATOM     30  H   UNL A   1      31.642  32.072  25.992  1.00  0.00     0.163 HD
ATOM     31  O   UNL A   1      32.746  33.485  27.629  1.00  0.00    -0.269 OA
BRANCH  29  32
ATOM     32  C   UNL A   1      34.407  31.829  27.818  1.00  0.00     0.039 A 
ATOM     33  C   UNL A   1      35.493  32.677  28.030  1.00  0.00     0.014 A 
ATOM     34  C   UNL A   1      34.475  30.481  28.176  1.00  0.00     0.014 A 
ATOM     35  C   UNL A   1      36.629  32.183  28.672  1.00  0.00     0.010 A 
ATOM     36  C   UNL A   1      35.552  30.024  28.916  1.00  0.00     0.010 A 
ATOM     37  C   UNL A   1      36.649  30.864  29.156  1.00  0.00    -0.014 A 
BRANCH  37  38
ATOM     38  C   UNL A   1      37.822  30.314  29.878  1.00  0.00     0.031 A 
ATOM     39  C   UNL A   1      38.071  30.737  31.300  1.00  0.00     0.074 A 
ATOM     40  C   UNL A   1      38.694  29.516  29.232  1.00  0.00     0.049 A 
ATOM     41  N   UNL A   1      39.088  30.474  32.077  1.00  0.00    -0.248 NA
ATOM     42  C   UNL A   1      37.059  31.614  31.912  1.00  0.00     0.031 C 
ATOM     43  C   UNL A   1      38.582  29.090  27.835  1.00  0.00     0.029 A 
ATOM     44  N   UNL A   1      39.853  28.925  29.665  1.00  0.00    -0.354 N 
ATOM     45  C   UNL A   1      38.853  31.179  33.254  1.00  0.00     0.074 A 
ATOM     46  C   UNL A   1      37.638  31.938  33.056  1.00  0.00     0.031 C 
ATOM     47  C   UNL A   1      39.611  28.279  27.538  1.00  0.00     0.029 A 
ATOM     48  C   UNL A   1      40.478  28.164  28.705  1.00  0.00     0.049 A 
ATOM     49  H   UNL A   1      40.206  29.036  30.578  1.00  0.00     0.167 HD
ATOM     50  C   UNL A   1      39.569  31.168  34.405  1.00  0.00     0.034 A 
ATOM     51  C   UNL A   1      41.625  27.457  28.763  1.00  0.00     0.034 A 
ATOM     52  C   UNL A   1      40.755  30.371  34.590  1.00  0.00     0.049 A 
ATOM     53  C   UNL A   1      42.397  27.446  30.059  1.00  0.00     0.074 A 
ATOM     54  C   UNL A   1      41.524  30.218  35.730  1.00  0.00     0.029 A 
ATOM     55  N   UNL A   1      41.345  29.588  33.604  1.00  0.00    -0.354 N 
ATOM     56  N   UNL A   1      42.133  28.072  31.183  1.00  0.00    -0.248 NA
ATOM     57  C   UNL A   1      43.613  26.626  30.096  1.00  0.00     0.031 C 
ATOM     58  C   UNL A   1      42.608  29.392  35.417  1.00  0.00     0.029 A 
ATOM     59  C   UNL A   1      42.480  28.971  34.103  1.00  0.00     0.049 A 
ATOM     60  H   UNL A   1      41.005  29.488  32.685  1.00  0.00     0.167 HD
ATOM     61  C   UNL A   1      43.135  27.693  32.071  1.00  0.00     0.074 A 
ATOM     62  C   UNL A   1      43.999  26.776  31.354  1.00  0.00     0.031 C 
ATOM     63  C   UNL A   1      43.327  28.064  33.364  1.00  0.00     0.034 A 
BRANCH  50  64
ATOM     64  C   UNL A   1      39.089  32.055  35.529  1.00  0.00     0.023 A 
ATOM     65  C   UNL A   1      39.511  33.392  35.649  1.00  0.00     0.031 A 
ATOM     66  C   UNL A   1      38.237  31.545  36.524  1.00  0.00     0.131 A 
ATOM     67  C   UNL A   1      39.156  34.141  36.781  1.00  0.00     0.055 A 
ATOM     68  C   UNL A   1      37.813  32.325  37.603  1.00  0.00     0.041 A 
ATOM     69  F   UNL A   1      37.818  30.270  36.478  1.00  0.00    -0.206 F 
ATOM     70  C   UNL A   1      38.288  33.626  37.746  1.00  0.00     0.022 A 
BRANCH  67  71
ATOM     71  S   UNL A   1      39.973  35.738  37.051  1.00  0.00     0.124 S 
ATOM     72  O   UNL A   1      41.367  35.329  37.214  1.00  0.00    -0.237 OA
ATOM     73  O   UNL A   1      39.659  36.465  35.827  1.00  0.00    -0.237 OA
ATOM     74  O   UNL A   1      39.336  36.248  38.263  1.00  0.00    -0.744 OA
ENDBRANCH  67  71
ENDBRANCH  50  64
BRANCH  51  75
ATOM     75  C   UNL A   1      42.110  26.697  27.577  1.00  0.00     0.023 A 
ATOM     76  C   UNL A   1      41.802  25.336  27.419  1.00  0.00     0.031 A 
ATOM     77  C   UNL A   1      42.918  27.307  26.602  1.00  0.00     0.131 A 
ATOM     78  C   UNL A   1      42.337  24.617  26.338  1.00  0.00     0.055 A 
ATOM     79  C   UNL A   1      43.408  26.600  25.501  1.00  0.00     0.041 A 
ATOM     80  F   UNL A   1      43.235  28.608  26.699  1.00  0.00    -0.206 F 
ATOM     81  C   UNL A   1      43.129  25.243  25.372  1.00  0.00     0.022 A 
BRANCH  78  82
ATOM     82  S   UNL A   1      42.049  22.828  26.261  1.00  0.00     0.124 S 
ATOM     83  O   UNL A   1      40.593  22.760  26.274  1.00  0.00    -0.237 OA
ATOM     84  O   UNL A   1      42.698  22.472  25.003  1.00  0.00    -0.237 OA
ATOM     85  O   UNL A   1      42.710  22.325  27.464  1.00  0.00    -0.744 OA
ENDBRANCH  78  82
ENDBRANCH  51  75
BRANCH  63  86
ATOM     86  C   UNL A   1      44.489  27.435  34.087  1.00  0.00     0.023 A 
ATOM     87  C   UNL A   1      44.341  26.259  34.841  1.00  0.00     0.031 A 
ATOM     88  C   UNL A   1      45.763  28.028  34.024  1.00  0.00     0.131 A 
ATOM     89  C   UNL A   1      45.437  25.742  35.549  1.00  0.00     0.055 A 
ATOM     90  C   UNL A   1      46.863  27.478  34.682  1.00  0.00     0.041 A 
ATOM     91  F   UNL A   1      45.958  29.153  33.317  1.00  0.00    -0.206 F 
ATOM     92  C   UNL A   1      46.700  26.335  35.461  1.00  0.00     0.022 A 
BRANCH  89  93
ATOM     93  S   UNL A   1      45.169  24.335  36.660  1.00  0.00     0.124 S 
ATOM     94  O   UNL A   1      44.084  24.820  37.508  1.00  0.00    -0.237 OA
ATOM     95  O   UNL A   1      44.820  23.265  35.730  1.00  0.00    -0.237 OA
ATOM     96  O   UNL A   1      46.458  24.176  37.330  1.00  0.00    -0.744 OA
ENDBRANCH  89  93
ENDBRANCH  63  86
ENDBRANCH  37  38
ENDBRANCH  29  32
ENDBRANCH  27  28
ENDBRANCH  26  27
ENDBRANCH   1  26
TORSDOF 20
ENDMDL
MODEL 2
REMARK VINA RESULT:     -10.7      1.951      2.478
REMARK SMILES C[NH+](C)CC[NH2+][C@@H](C(=O)NCCCCNC(=O)c1ccc(-c2c3nc(c(-c4cc(S(=O)(=O)[O-])ccc4F)c4ccc([nH]4)c(-c4cc(S(=O)(=O)[O-])ccc4F)c4nc(c(-c5cc(S(=O)(=O)[O-])ccc5F)c5ccc2[nH]5)C=C4)C=C3)cc1)c1cccc(C2CC2)c1
REMARK SMILES IDX 12 1 11 2 10 3 8 4 9 5 7 7 6 8 5 11 4 12 2 13 1 14 3 15
REMARK SMILES IDX 81 17 82 18 89 19 83 20 85 21 84 22 86 23 87 24 88 25 13 26
REMARK SMILES IDX 14 27 15 28 16 29 17 31 18 32 19 33 80 34 20 35 79 36 21 37
REMARK SMILES IDX 22 38 23 39 73 40 24 41 78 42 72 43 74 44 25 45 77 46 71 47
REMARK SMILES IDX 70 48 26 50 58 51 38 52 57 53 39 54 42 55 56 56 75 57 40 58
REMARK SMILES IDX 41 59 55 61 76 62 43 63 27 64 28 65 36 66 29 67 35 68 37 69
REMARK SMILES IDX 34 70 30 71 31 72 32 73 33 74 59 75 60 76 68 77 61 78 67 79
REMARK SMILES IDX 69 80 66 81 62 82 63 83 64 84 65 85 44 86 45 87 53 88 46 89
REMARK SMILES IDX 52 90 54 91 51 92 47 93 48 94 49 95 50 96
REMARK H PARENT 10 6 6 9 6 10 2 16 15 30 74 49 42 60
REMARK Flexibility Score: inf
ROOT
ATOM      1  C   UNL A   1      32.090  30.073  27.101  1.00  0.00     0.023 C 
ENDROOT
BRANCH   1   2
ATOM      2  C   UNL A   1      31.821  29.089  25.948  1.00  0.00     0.116 C 
BRANCH   2   3
ATOM      3  N   UNL A   1      32.615  29.429  24.779  1.00  0.00    -0.351 N 
ATOM      4  C   UNL A   1      32.772  28.793  23.577  1.00  0.00     0.283 C 
ATOM      5  O   UNL A   1      33.799  29.086  22.953  1.00  0.00    -0.268 OA
ATOM      6  H   UNL A   1      33.131  30.262  24.867  1.00  0.00     0.163 HD
BRANCH   4   7
ATOM      7  C   UNL A   1      31.718  27.760  23.023  1.00  0.00     0.304 C 
BRANCH   7   8
ATOM      8  N   UNL A   1      32.140  27.156  21.723  1.00  0.00    -0.328 N 
ATOM      9  H   UNL A   1      31.304  26.868  21.217  1.00  0.00     0.347 HD
ATOM     10  H   UNL A   1      32.675  27.869  21.228  1.00  0.00     0.347 HD
BRANCH   8  11
ATOM     11  C   UNL A   1      33.011  26.002  21.858  1.00  0.00     0.323 C 
BRANCH  11  12
ATOM     12  C   UNL A   1      32.431  24.763  22.576  1.00  0.00     0.323 C 
BRANCH  12  13
ATOM     13  N   UNL A   1      33.080  24.268  23.804  1.00  0.00    -0.335 N 
ATOM     14  C   UNL A   1      33.494  22.875  23.750  1.00  0.00     0.332 C 
ATOM     15  C   UNL A   1      34.153  25.119  24.312  1.00  0.00     0.332 C 
ATOM     16  H   UNL A   1      32.323  24.320  24.485  1.00  0.00     0.347 HD
ENDBRANCH  12  13
ENDBRANCH  11  12
ENDBRANCH   8  11
ENDBRANCH   7   8
BRANCH   7  17
ATOM     17  C   UNL A   1      30.377  28.481  22.783  1.00  0.00     0.019 A 
ATOM     18  C   UNL A   1      29.171  27.892  23.210  1.00  0.00     0.010 A 
ATOM     19  C   UNL A   1      30.310  29.711  22.102  1.00  0.00     0.014 A 
ATOM     20  C   UNL A   1      27.949  28.507  22.983  1.00  0.00     0.001 A 
ATOM     21  C   UNL A   1      29.077  30.352  21.839  1.00  0.00    -0.044 A 
ATOM     22  C   UNL A   1      27.909  29.720  22.304  1.00  0.00     0.004 A 
BRANCH  21  23
ATOM     23  C   UNL A   1      28.930  31.650  21.072  1.00  0.00     0.019 C 
ATOM     24  C   UNL A   1      27.665  32.109  20.399  1.00  0.00     0.009 C 
ATOM     25  C   UNL A   1      28.095  32.750  21.685  1.00  0.00     0.009 C 
ENDBRANCH  21  23
ENDBRANCH   7  17
ENDBRANCH   4   7
ENDBRANCH   2   3
ENDBRANCH   1   2
BRANCH   1  26
ATOM     26  C   UNL A   1      31.574  31.487  26.893  1.00  0.00     0.023 C 
BRANCH  26  27
ATOM     27  C   UNL A   1      32.662  32.495  26.597  1.00  0.00     0.116 C 
BRANCH  27  28
ATOM     28  N   UNL A   1      32.500  33.729  27.355  1.00  0.00    -0.352 N 
ATOM     29  C   UNL A   1      33.213  34.173  28.446  1.00  0.00     0.251 C 
ATOM     30  H   UNL A   1      31.784  34.327  27.043  1.00  0.00     0.163 HD
ATOM     31  O   UNL A   1      32.841  35.157  29.064  1.00  0.00    -0.269 OA
BRANCH  29  32
ATOM     32  C   UNL A   1      34.405  33.410  28.865  1.00  0.00     0.039 A 
ATOM     33  C   UNL A   1      35.666  33.995  28.749  1.00  0.00     0.014 A 
ATOM     34  C   UNL A   1      34.256  32.147  29.442  1.00  0.00     0.014 A 
ATOM     35  C   UNL A   1      36.775  33.337  29.282  1.00  0.00     0.010 A 
ATOM     36  C   UNL A   1      35.336  31.552  30.072  1.00  0.00     0.010 A 
ATOM     37  C   UNL A   1      36.611  32.131  29.983  1.00  0.00    -0.014 A 
BRANCH  37  38
ATOM     38  C   UNL A   1      37.759  31.421  30.597  1.00  0.00     0.031 A 
ATOM     39  C   UNL A   1      38.139  31.735  32.019  1.00  0.00     0.074 A 
ATOM     40  C   UNL A   1      38.498  30.572  29.857  1.00  0.00     0.049 A 
ATOM     41  N   UNL A   1      39.168  31.324  32.712  1.00  0.00    -0.248 NA
ATOM     42  C   UNL A   1      37.269  32.679  32.739  1.00  0.00     0.031 C 
ATOM     43  C   UNL A   1      38.254  30.238  28.451  1.00  0.00     0.029 A 
ATOM     44  N   UNL A   1      39.610  29.839  30.181  1.00  0.00    -0.354 N 
ATOM     45  C   UNL A   1      39.083  31.983  33.934  1.00  0.00     0.074 A 
ATOM     46  C   UNL A   1      37.948  32.876  33.856  1.00  0.00     0.031 C 
ATOM     47  C   UNL A   1      39.169  29.341  28.046  1.00  0.00     0.029 A 
ATOM     48  C   UNL A   1      40.088  29.070  29.145  1.00  0.00     0.049 A 
ATOM     49  H   UNL A   1      40.028  29.861  31.073  1.00  0.00     0.167 HD
ATOM     50  C   UNL A   1      39.863  31.833  35.033  1.00  0.00     0.034 A 
ATOM     51  C   UNL A   1      41.152  28.245  29.093  1.00  0.00     0.034 A 
ATOM     52  C   UNL A   1      40.964  30.906  35.099  1.00  0.00     0.049 A 
ATOM     53  C   UNL A   1      41.997  28.080  30.332  1.00  0.00     0.074 A 
ATOM     54  C   UNL A   1      41.780  30.610  36.176  1.00  0.00     0.029 A 
ATOM     55  N   UNL A   1      41.404  30.121  34.039  1.00  0.00    -0.354 N 
ATOM     56  N   UNL A   1      41.872  28.667  31.500  1.00  0.00    -0.248 NA
ATOM     57  C   UNL A   1      43.117  27.136  30.247  1.00  0.00     0.031 C 
ATOM     58  C   UNL A   1      42.747  29.692  35.752  1.00  0.00     0.029 A 
ATOM     59  C   UNL A   1      42.494  29.361  34.430  1.00  0.00     0.049 A 
ATOM     60  H   UNL A   1      40.999  30.109  33.141  1.00  0.00     0.167 HD
ATOM     61  C   UNL A   1      42.879  28.136  32.300  1.00  0.00     0.074 A 
ATOM     62  C   UNL A   1      43.592  27.174  31.483  1.00  0.00     0.031 C 
ATOM     63  C   UNL A   1      43.190  28.412  33.593  1.00  0.00     0.034 A 
BRANCH  50  64
ATOM     64  C   UNL A   1      39.552  32.702  36.229  1.00  0.00     0.023 A 
ATOM     65  C   UNL A   1      38.756  32.240  37.292  1.00  0.00     0.031 A 
ATOM     66  C   UNL A   1      40.016  34.027  36.285  1.00  0.00     0.131 A 
ATOM     67  C   UNL A   1      38.373  33.119  38.316  1.00  0.00     0.055 A 
ATOM     68  C   UNL A   1      39.706  34.872  37.354  1.00  0.00     0.041 A 
ATOM     69  F   UNL A   1      40.762  34.535  35.290  1.00  0.00    -0.206 F 
ATOM     70  C   UNL A   1      38.864  34.425  38.368  1.00  0.00     0.022 A 
BRANCH  67  71
ATOM     71  S   UNL A   1      37.098  32.579  39.487  1.00  0.00     0.124 S 
ATOM     72  O   UNL A   1      37.496  31.195  39.736  1.00  0.00    -0.237 OA
ATOM     73  O   UNL A   1      37.277  33.506  40.599  1.00  0.00    -0.237 OA
ATOM     74  O   UNL A   1      35.854  32.736  38.736  1.00  0.00    -0.744 OA
ENDBRANCH  67  71
ENDBRANCH  50  64
BRANCH  51  75
ATOM     75  C   UNL A   1      41.478  27.505  27.841  1.00  0.00     0.023 A 
ATOM     76  C   UNL A   1      41.305  26.114  27.762  1.00  0.00     0.031 A 
ATOM     77  C   UNL A   1      42.001  28.168  26.717  1.00  0.00     0.131 A 
ATOM     78  C   UNL A   1      41.696  25.423  26.603  1.00  0.00     0.055 A 
ATOM     79  C   UNL A   1      42.342  27.485  25.548  1.00  0.00     0.041 A 
ATOM     80  F   UNL A   1      42.178  29.499  26.736  1.00  0.00    -0.206 F 
ATOM     81  C   UNL A   1      42.202  26.101  25.492  1.00  0.00     0.022 A 
BRANCH  78  82
ATOM     82  S   UNL A   1      41.607  23.612  26.602  1.00  0.00     0.124 S 
ATOM     83  O   UNL A   1      40.170  23.383  26.515  1.00  0.00    -0.237 OA
ATOM     84  O   UNL A   1      42.385  23.272  25.415  1.00  0.00    -0.237 OA
ATOM     85  O   UNL A   1      42.223  23.242  27.875  1.00  0.00    -0.744 OA
ENDBRANCH  78  82
ENDBRANCH  51  75
BRANCH  63  86
ATOM     86  C   UNL A   1      44.319  27.624  34.205  1.00  0.00     0.023 A 
ATOM     87  C   UNL A   1      44.110  26.362  34.784  1.00  0.00     0.031 A 
ATOM     88  C   UNL A   1      45.622  28.153  34.214  1.00  0.00     0.131 A 
ATOM     89  C   UNL A   1      45.179  25.692  35.398  1.00  0.00     0.055 A 
ATOM     90  C   UNL A   1      46.693  27.456  34.773  1.00  0.00     0.041 A 
ATOM     91  F   UNL A   1      45.875  29.356  33.673  1.00  0.00    -0.206 F 
ATOM     92  C   UNL A   1      46.471  26.223  35.382  1.00  0.00     0.022 A 
BRANCH  89  93
ATOM     93  S   UNL A   1      44.839  24.155  36.298  1.00  0.00     0.124 S 
ATOM     94  O   UNL A   1      46.061  23.392  36.069  1.00  0.00    -0.237 OA
ATOM     95  O   UNL A   1      44.631  24.631  37.662  1.00  0.00    -0.237 OA
ATOM     96  O   UNL A   1      43.645  23.628  35.639  1.00  0.00    -0.744 OA
ENDBRANCH  89  93
ENDBRANCH  63  86
ENDBRANCH  37  38
ENDBRANCH  29  32
ENDBRANCH  27  28
ENDBRANCH  26  27
ENDBRANCH   1  26
TORSDOF 20
ENDMDL
MODEL 3
REMARK VINA RESULT:     -10.6      2.444      3.163
REMARK SMILES C[NH+](C)CC[NH2+][C@@H](C(=O)NCCCCNC(=O)c1ccc(-c2c3nc(c(-c4cc(S(=O)(=O)[O-])ccc4F)c4ccc([nH]4)c(-c4cc(S(=O)(=O)[O-])ccc4F)c4nc(c(-c5cc(S(=O)(=O)[O-])ccc5F)c5ccc2[nH]5)C=C4)C=C3)cc1)c1cccc(C2CC2)c1
REMARK SMILES IDX 12 1 11 2 10 3 8 4 9 5 7 7 6 8 5 11 4 12 2 13 1 14 3 15
REMARK SMILES IDX 81 17 82 18 89 19 83 20 85 21 84 22 86 23 87 24 88 25 13 26
REMARK SMILES IDX 14 27 15 28 16 29 17 31 18 32 19 33 80 34 20 35 79 36 21 37
REMARK SMILES IDX 22 38 23 39 73 40 24 41 78 42 72 43 74 44 25 45 77 46 71 47
REMARK SMILES IDX 70 48 26 50 58 51 38 52 57 53 39 54 42 55 56 56 75 57 40 58
REMARK SMILES IDX 41 59 55 61 76 62 43 63 27 64 28 65 36 66 29 67 35 68 37 69
REMARK SMILES IDX 34 70 30 71 31 72 32 73 33 74 59 75 60 76 68 77 61 78 67 79
REMARK SMILES IDX 69 80 66 81 62 82 63 83 64 84 65 85 44 86 45 87 53 88 46 89
REMARK SMILES IDX 52 90 54 91 51 92 47 93 48 94 49 95 50 96
REMARK H PARENT 10 6 6 9 6 10 2 16 15 30 74 49 42 60
REMARK Flexibility Score: inf
ROOT
ATOM      1  C   UNL A   1      32.294  30.133  27.066  1.00  0.00     0.023 C 
ENDROOT
BRANCH   1   2
ATOM      2  C   UNL A   1      31.757  29.230  25.941  1.00  0.00     0.116 C 
BRANCH   2   3
ATOM      3  N   UNL A   1      32.311  29.618  24.654  1.00  0.00    -0.351 N 
ATOM      4  C   UNL A   1      32.324  28.976  23.447  1.00  0.00     0.283 C 
ATOM      5  O   UNL A   1      33.202  29.349  22.658  1.00  0.00    -0.268 OA
ATOM      6  H   UNL A   1      32.755  30.497  24.652  1.00  0.00     0.163 HD
BRANCH   4   7
ATOM      7  C   UNL A   1      31.294  27.840  23.080  1.00  0.00     0.304 C 
BRANCH   7   8
ATOM      8  N   UNL A   1      31.490  27.317  21.694  1.00  0.00    -0.328 N 
ATOM      9  H   UNL A   1      30.608  27.407  21.190  1.00  0.00     0.347 HD
ATOM     10  H   UNL A   1      32.241  27.866  21.277  1.00  0.00     0.347 HD
BRANCH   8  11
ATOM     11  C   UNL A   1      31.908  25.927  21.635  1.00  0.00     0.323 C 
BRANCH  11  12
ATOM     12  C   UNL A   1      31.569  25.039  22.854  1.00  0.00     0.323 C 
BRANCH  12  13
ATOM     13  N   UNL A   1      31.831  23.590  22.789  1.00  0.00    -0.335 N 
ATOM     14  C   UNL A   1      33.042  23.226  22.069  1.00  0.00     0.332 C 
ATOM     15  C   UNL A   1      31.752  22.898  24.073  1.00  0.00     0.332 C 
ATOM     16  H   UNL A   1      31.048  23.252  22.229  1.00  0.00     0.347 HD
ENDBRANCH  12  13
ENDBRANCH  11  12
ENDBRANCH   8  11
ENDBRANCH   7   8
BRANCH   7  17
ATOM     17  C   UNL A   1      29.863  28.406  23.162  1.00  0.00     0.019 A 
ATOM     18  C   UNL A   1      28.777  27.548  23.424  1.00  0.00     0.010 A 
ATOM     19  C   UNL A   1      29.593  29.770  22.940  1.00  0.00     0.014 A 
ATOM     20  C   UNL A   1      27.477  28.028  23.477  1.00  0.00     0.001 A 
ATOM     21  C   UNL A   1      28.276  30.284  22.967  1.00  0.00    -0.044 A 
ATOM     22  C   UNL A   1      27.235  29.379  23.248  1.00  0.00     0.004 A 
BRANCH  21  23
ATOM     23  C   UNL A   1      27.912  31.728  22.689  1.00  0.00     0.019 C 
ATOM     24  C   UNL A   1      28.904  32.847  22.527  1.00  0.00     0.009 C 
ATOM     25  C   UNL A   1      28.213  32.288  21.318  1.00  0.00     0.009 C 
ENDBRANCH  21  23
ENDBRANCH   7  17
ENDBRANCH   4   7
ENDBRANCH   2   3
ENDBRANCH   1   2
BRANCH   1  26
ATOM     26  C   UNL A   1      32.019  31.620  26.905  1.00  0.00     0.023 C 
BRANCH  26  27
ATOM     27  C   UNL A   1      33.218  32.495  27.191  1.00  0.00     0.116 C 
BRANCH  27  28
ATOM     28  N   UNL A   1      32.840  33.814  27.682  1.00  0.00    -0.352 N 
ATOM     29  C   UNL A   1      33.291  34.483  28.797  1.00  0.00     0.251 C 
ATOM     30  H   UNL A   1      32.172  34.292  27.141  1.00  0.00     0.163 HD
ATOM     31  O   UNL A   1      32.750  35.516  29.156  1.00  0.00    -0.269 OA
BRANCH  29  32
ATOM     32  C   UNL A   1      34.412  33.900  29.563  1.00  0.00     0.039 A 
ATOM     33  C   UNL A   1      34.140  32.997  30.591  1.00  0.00     0.014 A 
ATOM     34  C   UNL A   1      35.728  34.197  29.204  1.00  0.00     0.014 A 
ATOM     35  C   UNL A   1      35.198  32.335  31.212  1.00  0.00     0.010 A 
ATOM     36  C   UNL A   1      36.766  33.453  29.739  1.00  0.00     0.010 A 
ATOM     37  C   UNL A   1      36.515  32.528  30.762  1.00  0.00    -0.014 A 
BRANCH  37  38
ATOM     38  C   UNL A   1      37.662  31.812  31.372  1.00  0.00     0.031 A 
ATOM     39  C   UNL A   1      38.161  32.246  32.724  1.00  0.00     0.074 A 
ATOM     40  C   UNL A   1      38.295  30.845  30.681  1.00  0.00     0.049 A 
ATOM     41  N   UNL A   1      39.212  31.843  33.388  1.00  0.00    -0.248 NA
ATOM     42  C   UNL A   1      37.401  33.314  33.394  1.00  0.00     0.031 C 
ATOM     43  C   UNL A   1      37.932  30.384  29.338  1.00  0.00     0.029 A 
ATOM     44  N   UNL A   1      39.384  30.079  31.008  1.00  0.00    -0.354 N 
ATOM     45  C   UNL A   1      39.254  32.629  34.535  1.00  0.00     0.074 A 
ATOM     46  C   UNL A   1      38.170  33.581  34.436  1.00  0.00     0.031 C 
ATOM     47  C   UNL A   1      38.762  29.393  28.973  1.00  0.00     0.029 A 
ATOM     48  C   UNL A   1      39.741  29.178  30.032  1.00  0.00     0.049 A 
ATOM     49  H   UNL A   1      39.866  30.166  31.863  1.00  0.00     0.167 HD
ATOM     50  C   UNL A   1      40.102  32.543  35.590  1.00  0.00     0.034 A 
ATOM     51  C   UNL A   1      40.749  28.284  29.998  1.00  0.00     0.034 A 
ATOM     52  C   UNL A   1      41.149  31.558  35.683  1.00  0.00     0.049 A 
ATOM     53  C   UNL A   1      41.670  28.194  31.190  1.00  0.00     0.074 A 
ATOM     54  C   UNL A   1      42.022  31.322  36.730  1.00  0.00     0.029 A 
ATOM     55  N   UNL A   1      41.465  30.641  34.687  1.00  0.00    -0.354 N 
ATOM     56  N   UNL A   1      41.664  28.905  32.294  1.00  0.00    -0.248 NA
ATOM     57  C   UNL A   1      42.725  27.175  31.134  1.00  0.00     0.031 C 
ATOM     58  C   UNL A   1      42.901  30.305  36.344  1.00  0.00     0.029 A 
ATOM     59  C   UNL A   1      42.535  29.856  35.085  1.00  0.00     0.049 A 
ATOM     60  H   UNL A   1      40.997  30.562  33.824  1.00  0.00     0.167 HD
ATOM     61  C   UNL A   1      42.694  28.395  33.078  1.00  0.00     0.074 A 
ATOM     62  C   UNL A   1      43.290  27.310  32.324  1.00  0.00     0.031 C 
ATOM     63  C   UNL A   1      43.113  28.783  34.311  1.00  0.00     0.034 A 
BRANCH  50  64
ATOM     64  C   UNL A   1      39.928  33.549  36.703  1.00  0.00     0.023 A 
ATOM     65  C   UNL A   1      40.803  34.640  36.858  1.00  0.00     0.031 A 
ATOM     66  C   UNL A   1      38.905  33.390  37.654  1.00  0.00     0.131 A 
ATOM     67  C   UNL A   1      40.696  35.472  37.982  1.00  0.00     0.055 A 
ATOM     68  C   UNL A   1      38.748  34.275  38.723  1.00  0.00     0.041 A 
ATOM     69  F   UNL A   1      38.052  32.356  37.575  1.00  0.00    -0.206 F 
ATOM     70  C   UNL A   1      39.658  35.314  38.902  1.00  0.00     0.022 A 
BRANCH  67  71
ATOM     71  S   UNL A   1      42.027  36.661  38.307  1.00  0.00     0.124 S 
ATOM     72  O   UNL A   1      42.997  35.828  39.016  1.00  0.00    -0.237 OA
ATOM     73  O   UNL A   1      42.407  37.085  36.965  1.00  0.00    -0.237 OA
ATOM     74  O   UNL A   1      41.380  37.684  39.126  1.00  0.00    -0.744 OA
ENDBRANCH  67  71
ENDBRANCH  50  64
BRANCH  51  75
ATOM     75  C   UNL A   1      40.941  27.399  28.815  1.00  0.00     0.023 A 
ATOM     76  C   UNL A   1      41.937  27.673  27.865  1.00  0.00     0.031 A 
ATOM     77  C   UNL A   1      40.108  26.288  28.594  1.00  0.00     0.131 A 
ATOM     78  C   UNL A   1      42.047  26.876  26.714  1.00  0.00     0.055 A 
ATOM     79  C   UNL A   1      40.253  25.468  27.473  1.00  0.00     0.041 A 
ATOM     80  F   UNL A   1      39.145  25.975  29.475  1.00  0.00    -0.206 F 
ATOM     81  C   UNL A   1      41.220  25.769  26.518  1.00  0.00     0.022 A 
BRANCH  78  82
ATOM     82  S   UNL A   1      43.239  27.361  25.436  1.00  0.00     0.124 S 
ATOM     83  O   UNL A   1      44.237  28.083  26.216  1.00  0.00    -0.237 OA
ATOM     84  O   UNL A   1      43.653  26.066  24.903  1.00  0.00    -0.237 OA
ATOM     85  O   UNL A   1      42.444  28.181  24.524  1.00  0.00    -0.744 OA
ENDBRANCH  78  82
ENDBRANCH  51  75
BRANCH  63  86
ATOM     86  C   UNL A   1      44.236  27.991  34.929  1.00  0.00     0.023 A 
ATOM     87  C   UNL A   1      45.578  28.381  34.790  1.00  0.00     0.031 A 
ATOM     88  C   UNL A   1      43.954  26.825  35.663  1.00  0.00     0.131 A 
ATOM     89  C   UNL A   1      46.596  27.580  35.329  1.00  0.00     0.055 A 
ATOM     90  C   UNL A   1      44.967  26.064  36.248  1.00  0.00     0.041 A 
ATOM     91  F   UNL A   1      42.688  26.409  35.826  1.00  0.00    -0.206 F 
ATOM     92  C   UNL A   1      46.298  26.434  36.072  1.00  0.00     0.022 A 
BRANCH  89  93
ATOM     93  S   UNL A   1      48.321  28.008  34.972  1.00  0.00     0.124 S 
ATOM     94  O   UNL A   1      48.801  26.802  34.306  1.00  0.00    -0.237 OA
ATOM     95  O   UNL A   1      48.180  29.190  34.127  1.00  0.00    -0.237 OA
ATOM     96  O   UNL A   1      48.893  28.258  36.293  1.00  0.00    -0.744 OA
ENDBRANCH  89  93
ENDBRANCH  63  86
ENDBRANCH  37  38
ENDBRANCH  29  32
ENDBRANCH  27  28
ENDBRANCH  26  27
ENDBRANCH   1  26
TORSDOF 20
ENDMDL
