MODEL 1
REMARK VINA RESULT:     -12.3      0.000      0.000
REMARK SMILES Nc1nonc1C(=O)N1[C@@H]2CC[C@H]1C[C@H](CC(=O)NCCCCNC(=O)c1ccc(-c3c4nc(c(-c5cc(S(=O)(=O)[O-])ccc5F)c5ccc([nH]5)c(-c5cc(S(=O)(=O)[O-])ccc5F)c5nc(c(-c6cc(S(=O)(=O)[O-])ccc6F)c6ccc3[nH]6)C=C5)C=C4)cc1)C2
REMARK SMILES IDX 21 1 20 2 19 3 17 4 18 5 16 7 15 8 9 9 10 10 13 11 11 12
REMARK SMILES IDX 90 13 12 14 14 15 7 16 8 17 6 18 2 19 3 20 4 21 5 22 1 23
REMARK SMILES IDX 22 26 23 27 24 28 25 29 26 31 27 32 28 33 89 34 29 35 88 36
REMARK SMILES IDX 30 37 31 38 32 39 82 40 33 41 87 42 81 43 83 44 34 45 86 46
REMARK SMILES IDX 80 47 79 48 35 50 67 51 47 52 66 53 48 54 51 55 65 56 84 57
REMARK SMILES IDX 49 58 50 59 64 61 85 62 52 63 36 64 37 65 45 66 38 67 44 68
REMARK SMILES IDX 46 69 43 70 39 71 40 72 41 73 42 74 68 75 69 76 77 77 70 78
REMARK SMILES IDX 76 79 78 80 75 81 71 82 72 83 73 84 74 85 53 86 54 87 62 88
REMARK SMILES IDX 55 89 61 90 63 91 60 92 56 93 57 94 58 95 59 96
REMARK H PARENT 19 6 1 24 1 25 24 30 83 49 51 60
REMARK Flexibility Score: inf
ROOT
ATOM      1  C   UNL A   1      34.715  20.537  25.173  1.00  0.00     0.023 C 
ENDROOT
BRANCH   1   2
ATOM      2  C   UNL A   1      33.205  20.813  25.151  1.00  0.00     0.116 C 
BRANCH   2   3
ATOM      3  N   UNL A   1      32.757  21.383  26.413  1.00  0.00    -0.356 N 
ATOM      4  C   UNL A   1      32.350  22.643  26.744  1.00  0.00     0.220 C 
ATOM      5  O   UNL A   1      32.098  22.881  27.927  1.00  0.00    -0.275 OA
ATOM      6  H   UNL A   1      32.744  20.745  27.163  1.00  0.00     0.163 HD
BRANCH   4   7
ATOM      7  C   UNL A   1      32.207  23.739  25.697  1.00  0.00     0.103 C 
BRANCH   7   8
ATOM      8  C   UNL A   1      32.366  25.174  26.260  1.00  0.00     0.002 C 
ATOM      9  N   UNL A   1      32.407  27.591  24.717  1.00  0.00    -0.331 N 
ATOM     10  C   UNL A   1      31.397  27.509  25.765  1.00  0.00     0.086 C 
ATOM     11  C   UNL A   1      33.647  27.308  25.408  1.00  0.00     0.086 C 
ATOM     12  C   UNL A   1      32.067  28.131  27.008  1.00  0.00     0.027 C 
ATOM     13  C   UNL A   1      31.099  26.015  25.957  1.00  0.00     0.029 C 
ATOM     14  C   UNL A   1      33.562  28.122  26.691  1.00  0.00     0.027 C 
ATOM     15  C   UNL A   1      33.659  25.813  25.715  1.00  0.00     0.029 C 
BRANCH   9  16
ATOM     16  C   UNL A   1      32.337  28.647  23.812  1.00  0.00     0.280 C 
ATOM     17  O   UNL A   1      33.326  29.342  23.581  1.00  0.00    -0.267 OA
BRANCH  16  18
ATOM     18  C   UNL A   1      31.007  28.943  23.274  1.00  0.00     0.216 A 
ATOM     19  C   UNL A   1      30.083  29.996  23.514  1.00  0.00     0.201 A 
ATOM     20  N   UNL A   1      29.031  29.859  22.710  1.00  0.00    -0.032 NA
ATOM     21  O   UNL A   1      29.260  28.696  22.000  1.00  0.00    -0.242 OA
ATOM     22  N   UNL A   1      30.472  28.127  22.349  1.00  0.00    -0.042 NA
BRANCH  19  23
ATOM     23  N   UNL A   1      30.165  30.991  24.413  1.00  0.00    -0.379 N 
ATOM     24  H   UNL A   1      30.804  31.728  24.277  1.00  0.00     0.158 HD
ATOM     25  H   UNL A   1      29.585  30.986  25.209  1.00  0.00     0.158 HD
ENDBRANCH  19  23
ENDBRANCH  16  18
ENDBRANCH   9  16
ENDBRANCH   7   8
ENDBRANCH   4   7
ENDBRANCH   2   3
ENDBRANCH   1   2
BRANCH   1  26
ATOM     26  C   UNL A   1      35.599  21.680  25.628  1.00  0.00     0.023 C 
BRANCH  26  27
ATOM     27  C   UNL A   1      36.934  21.745  24.916  1.00  0.00     0.116 C 
BRANCH  27  28
ATOM     28  N   UNL A   1      37.803  20.606  25.185  1.00  0.00    -0.352 N 
ATOM     29  C   UNL A   1      39.012  20.597  25.855  1.00  0.00     0.251 C 
ATOM     30  H   UNL A   1      37.490  19.735  24.850  1.00  0.00     0.163 HD
ATOM     31  O   UNL A   1      39.670  19.573  25.929  1.00  0.00    -0.269 OA
BRANCH  29  32
ATOM     32  C   UNL A   1      39.508  21.872  26.419  1.00  0.00     0.039 A 
ATOM     33  C   UNL A   1      40.553  21.848  27.344  1.00  0.00     0.014 A 
ATOM     34  C   UNL A   1      39.020  23.086  25.932  1.00  0.00     0.014 A 
ATOM     35  C   UNL A   1      41.172  23.046  27.708  1.00  0.00     0.010 A 
ATOM     36  C   UNL A   1      39.714  24.256  26.199  1.00  0.00     0.010 A 
ATOM     37  C   UNL A   1      40.791  24.253  27.098  1.00  0.00    -0.014 A 
BRANCH  37  38
ATOM     38  C   UNL A   1      41.468  25.538  27.412  1.00  0.00     0.031 A 
ATOM     39  C   UNL A   1      40.732  26.574  28.220  1.00  0.00     0.074 A 
ATOM     40  C   UNL A   1      42.689  25.805  26.909  1.00  0.00     0.049 A 
ATOM     41  N   UNL A   1      41.072  27.805  28.500  1.00  0.00    -0.248 NA
ATOM     42  C   UNL A   1      39.409  26.185  28.735  1.00  0.00     0.031 C 
ATOM     43  C   UNL A   1      43.477  24.902  26.065  1.00  0.00     0.029 A 
ATOM     44  N   UNL A   1      43.482  26.918  27.029  1.00  0.00    -0.354 N 
ATOM     45  C   UNL A   1      39.997  28.342  29.200  1.00  0.00     0.074 A 
ATOM     46  C   UNL A   1      38.962  27.332  29.220  1.00  0.00     0.031 C 
ATOM     47  C   UNL A   1      44.654  25.484  25.775  1.00  0.00     0.029 A 
ATOM     48  C   UNL A   1      44.687  26.815  26.373  1.00  0.00     0.049 A 
ATOM     49  H   UNL A   1      43.213  27.717  27.537  1.00  0.00     0.167 HD
ATOM     50  C   UNL A   1      39.894  29.550  29.806  1.00  0.00     0.034 A 
ATOM     51  C   UNL A   1      45.701  27.696  26.268  1.00  0.00     0.034 A 
ATOM     52  C   UNL A   1      40.951  30.529  29.807  1.00  0.00     0.049 A 
ATOM     53  C   UNL A   1      45.573  29.030  26.961  1.00  0.00     0.074 A 
ATOM     54  C   UNL A   1      40.981  31.769  30.420  1.00  0.00     0.029 A 
ATOM     55  N   UNL A   1      42.174  30.372  29.166  1.00  0.00    -0.354 N 
ATOM     56  N   UNL A   1      44.565  29.509  27.653  1.00  0.00    -0.248 NA
ATOM     57  C   UNL A   1      46.725  29.936  26.871  1.00  0.00     0.031 C 
ATOM     58  C   UNL A   1      42.203  32.380  30.112  1.00  0.00     0.029 A 
ATOM     59  C   UNL A   1      42.961  31.495  29.361  1.00  0.00     0.049 A 
ATOM     60  H   UNL A   1      42.442  29.578  28.650  1.00  0.00     0.167 HD
ATOM     61  C   UNL A   1      44.980  30.755  28.114  1.00  0.00     0.074 A 
ATOM     62  C   UNL A   1      46.331  30.947  27.631  1.00  0.00     0.031 C 
ATOM     63  C   UNL A   1      44.308  31.660  28.871  1.00  0.00     0.034 A 
BRANCH  50  64
ATOM     64  C   UNL A   1      38.591  29.863  30.503  1.00  0.00     0.023 A 
ATOM     65  C   UNL A   1      37.575  30.599  29.865  1.00  0.00     0.031 A 
ATOM     66  C   UNL A   1      38.380  29.476  31.838  1.00  0.00     0.131 A 
ATOM     67  C   UNL A   1      36.447  31.009  30.587  1.00  0.00     0.055 A 
ATOM     68  C   UNL A   1      37.209  29.807  32.523  1.00  0.00     0.041 A 
ATOM     69  F   UNL A   1      39.319  28.791  32.508  1.00  0.00    -0.206 F 
ATOM     70  C   UNL A   1      36.242  30.595  31.904  1.00  0.00     0.022 A 
BRANCH  67  71
ATOM     71  S   UNL A   1      35.336  32.228  29.831  1.00  0.00     0.124 S 
ATOM     72  O   UNL A   1      34.450  32.548  30.948  1.00  0.00    -0.237 OA
ATOM     73  O   UNL A   1      36.256  33.282  29.422  1.00  0.00    -0.237 OA
ATOM     74  O   UNL A   1      34.708  31.487  28.738  1.00  0.00    -0.744 OA
ENDBRANCH  67  71
ENDBRANCH  50  64
BRANCH  51  75
ATOM     75  C   UNL A   1      46.931  27.357  25.496  1.00  0.00     0.023 A 
ATOM     76  C   UNL A   1      47.085  27.780  24.165  1.00  0.00     0.031 A 
ATOM     77  C   UNL A   1      47.946  26.560  26.053  1.00  0.00     0.131 A 
ATOM     78  C   UNL A   1      48.197  27.362  23.420  1.00  0.00     0.055 A 
ATOM     79  C   UNL A   1      49.078  26.189  25.323  1.00  0.00     0.041 A 
ATOM     80  F   UNL A   1      47.855  26.135  27.324  1.00  0.00    -0.206 F 
ATOM     81  C   UNL A   1      49.200  26.577  23.993  1.00  0.00     0.022 A 
BRANCH  78  82
ATOM     82  S   UNL A   1      48.267  27.780  21.655  1.00  0.00     0.124 S 
ATOM     83  O   UNL A   1      49.362  28.742  21.621  1.00  0.00    -0.237 OA
ATOM     84  O   UNL A   1      48.535  26.480  21.049  1.00  0.00    -0.237 OA
ATOM     85  O   UNL A   1      46.942  28.330  21.384  1.00  0.00    -0.744 OA
ENDBRANCH  78  82
ENDBRANCH  51  75
BRANCH  63  86
ATOM     86  C   UNL A   1      45.057  32.907  29.268  1.00  0.00     0.023 A 
ATOM     87  C   UNL A   1      44.976  34.091  28.515  1.00  0.00     0.031 A 
ATOM     88  C   UNL A   1      45.874  32.902  30.412  1.00  0.00     0.131 A 
ATOM     89  C   UNL A   1      45.745  35.204  28.882  1.00  0.00     0.055 A 
ATOM     90  C   UNL A   1      46.593  34.031  30.806  1.00  0.00     0.041 A 
ATOM     91  F   UNL A   1      45.986  31.796  31.166  1.00  0.00    -0.206 F 
ATOM     92  C   UNL A   1      46.541  35.186  30.031  1.00  0.00     0.022 A 
BRANCH  89  93
ATOM     93  S   UNL A   1      45.761  36.649  27.787  1.00  0.00     0.124 S 
ATOM     94  O   UNL A   1      44.342  36.983  27.704  1.00  0.00    -0.237 OA
ATOM     95  O   UNL A   1      46.595  37.590  28.525  1.00  0.00    -0.237 OA
ATOM     96  O   UNL A   1      46.350  36.137  26.551  1.00  0.00    -0.744 OA
ENDBRANCH  89  93
ENDBRANCH  63  86
ENDBRANCH  37  38
ENDBRANCH  29  32
ENDBRANCH  27  28
ENDBRANCH  26  27
ENDBRANCH   1  26
TORSDOF 18
ENDMDL
MODEL 2
REMARK VINA RESULT:     -12.0      1.349      7.671
REMARK SMILES Nc1nonc1C(=O)N1[C@@H]2CC[C@H]1C[C@H](CC(=O)NCCCCNC(=O)c1ccc(-c3c4nc(c(-c5cc(S(=O)(=O)[O-])ccc5F)c5ccc([nH]5)c(-c5cc(S(=O)(=O)[O-])ccc5F)c5nc(c(-c6cc(S(=O)(=O)[O-])ccc6F)c6ccc3[nH]6)C=C5)C=C4)cc1)C2
REMARK SMILES IDX 21 1 20 2 19 3 17 4 18 5 16 7 15 8 9 9 10 10 13 11 11 12
REMARK SMILES IDX 90 13 12 14 14 15 7 16 8 17 6 18 2 19 3 20 4 21 5 22 1 23
REMARK SMILES IDX 22 26 23 27 24 28 25 29 26 31 27 32 28 33 89 34 29 35 88 36
REMARK SMILES IDX 30 37 31 38 32 39 82 40 33 41 87 42 81 43 83 44 34 45 86 46
REMARK SMILES IDX 80 47 79 48 35 50 67 51 47 52 66 53 48 54 51 55 65 56 84 57
REMARK SMILES IDX 49 58 50 59 64 61 85 62 52 63 36 64 37 65 45 66 38 67 44 68
REMARK SMILES IDX 46 69 43 70 39 71 40 72 41 73 42 74 68 75 69 76 77 77 70 78
REMARK SMILES IDX 76 79 78 80 75 81 71 82 72 83 73 84 74 85 53 86 54 87 62 88
REMARK SMILES IDX 55 89 61 90 63 91 60 92 56 93 57 94 58 95 59 96
REMARK H PARENT 19 6 1 24 1 25 24 30 83 49 51 60
REMARK Flexibility Score: inf
ROOT
ATOM      1  C   UNL A   1      35.214  20.557  25.007  1.00  0.00     0.023 C 
ENDROOT
BRANCH   1   2
ATOM      2  C   UNL A   1      33.806  20.342  25.577  1.00  0.00     0.116 C 
BRANCH   2   3
ATOM      3  N   UNL A   1      33.629  21.064  26.829  1.00  0.00    -0.356 N 
ATOM      4  C   UNL A   1      32.783  22.074  27.181  1.00  0.00     0.220 C 
ATOM      5  O   UNL A   1      32.901  22.568  28.304  1.00  0.00    -0.275 OA
ATOM      6  H   UNL A   1      34.229  20.769  27.553  1.00  0.00     0.163 HD
BRANCH   4   7
ATOM      7  C   UNL A   1      31.715  22.593  26.227  1.00  0.00     0.103 C 
BRANCH   7   8
ATOM      8  C   UNL A   1      32.260  23.524  25.115  1.00  0.00     0.002 C 
ATOM      9  N   UNL A   1      31.512  26.259  24.694  1.00  0.00    -0.331 N 
ATOM     10  C   UNL A   1      32.932  26.000  24.894  1.00  0.00     0.086 C 
ATOM     11  C   UNL A   1      31.146  25.373  23.611  1.00  0.00     0.086 C 
ATOM     12  C   UNL A   1      33.499  25.796  23.474  1.00  0.00     0.027 C 
ATOM     13  C   UNL A   1      33.020  24.722  25.740  1.00  0.00     0.029 C 
ATOM     14  C   UNL A   1      32.275  25.520  22.600  1.00  0.00     0.027 C 
ATOM     15  C   UNL A   1      31.113  23.957  24.182  1.00  0.00     0.029 C 
BRANCH   9  16
ATOM     16  C   UNL A   1      31.074  27.582  24.692  1.00  0.00     0.280 C 
ATOM     17  O   UNL A   1      30.228  27.961  23.883  1.00  0.00    -0.267 OA
BRANCH  16  18
ATOM     18  C   UNL A   1      31.771  28.489  25.606  1.00  0.00     0.216 A 
ATOM     19  C   UNL A   1      31.807  28.590  27.024  1.00  0.00     0.201 A 
ATOM     20  N   UNL A   1      32.663  29.545  27.382  1.00  0.00    -0.032 NA
ATOM     21  O   UNL A   1      33.129  30.084  26.198  1.00  0.00    -0.242 OA
ATOM     22  N   UNL A   1      32.578  29.440  25.104  1.00  0.00    -0.042 NA
BRANCH  19  23
ATOM     23  N   UNL A   1      31.098  27.895  27.930  1.00  0.00    -0.379 N 
ATOM     24  H   UNL A   1      30.117  27.854  27.861  1.00  0.00     0.158 HD
ATOM     25  H   UNL A   1      31.560  27.427  28.662  1.00  0.00     0.158 HD
ENDBRANCH  19  23
ENDBRANCH  16  18
ENDBRANCH   9  16
ENDBRANCH   7   8
ENDBRANCH   4   7
ENDBRANCH   2   3
ENDBRANCH   1   2
BRANCH   1  26
ATOM     26  C   UNL A   1      35.560  21.972  24.590  1.00  0.00     0.023 C 
BRANCH  26  27
ATOM     27  C   UNL A   1      36.902  22.453  25.102  1.00  0.00     0.116 C 
BRANCH  27  28
ATOM     28  N   UNL A   1      37.843  21.377  25.393  1.00  0.00    -0.352 N 
ATOM     29  C   UNL A   1      39.029  21.450  26.099  1.00  0.00     0.251 C 
ATOM     30  H   UNL A   1      37.602  20.487  25.046  1.00  0.00     0.163 HD
ATOM     31  O   UNL A   1      39.755  20.475  26.188  1.00  0.00    -0.269 OA
BRANCH  29  32
ATOM     32  C   UNL A   1      39.416  22.754  26.680  1.00  0.00     0.039 A 
ATOM     33  C   UNL A   1      40.448  22.801  27.620  1.00  0.00     0.014 A 
ATOM     34  C   UNL A   1      38.842  23.931  26.198  1.00  0.00     0.014 A 
ATOM     35  C   UNL A   1      40.966  24.041  28.004  1.00  0.00     0.010 A 
ATOM     36  C   UNL A   1      39.439  25.149  26.485  1.00  0.00     0.010 A 
ATOM     37  C   UNL A   1      40.501  25.220  27.400  1.00  0.00    -0.014 A 
BRANCH  37  38
ATOM     38  C   UNL A   1      41.071  26.551  27.734  1.00  0.00     0.031 A 
ATOM     39  C   UNL A   1      42.501  26.847  27.367  1.00  0.00     0.074 A 
ATOM     40  C   UNL A   1      40.345  27.447  28.430  1.00  0.00     0.049 A 
ATOM     41  N   UNL A   1      43.240  27.882  27.673  1.00  0.00    -0.248 NA
ATOM     42  C   UNL A   1      43.209  25.811  26.597  1.00  0.00     0.031 C 
ATOM     43  C   UNL A   1      38.967  27.251  28.892  1.00  0.00     0.029 A 
ATOM     44  N   UNL A   1      40.665  28.703  28.879  1.00  0.00    -0.354 N 
ATOM     45  C   UNL A   1      44.502  27.608  27.155  1.00  0.00     0.074 A 
ATOM     46  C   UNL A   1      44.448  26.274  26.598  1.00  0.00     0.031 C 
ATOM     47  C   UNL A   1      38.552  28.362  29.525  1.00  0.00     0.029 A 
ATOM     48  C   UNL A   1      39.644  29.330  29.554  1.00  0.00     0.049 A 
ATOM     49  H   UNL A   1      41.546  29.118  28.731  1.00  0.00     0.167 HD
ATOM     50  C   UNL A   1      45.596  28.408  27.110  1.00  0.00     0.034 A 
ATOM     51  C   UNL A   1      39.596  30.547  30.131  1.00  0.00     0.034 A 
ATOM     52  C   UNL A   1      45.618  29.749  27.638  1.00  0.00     0.049 A 
ATOM     53  C   UNL A   1      40.819  31.428  30.058  1.00  0.00     0.074 A 
ATOM     54  C   UNL A   1      46.651  30.670  27.614  1.00  0.00     0.029 A 
ATOM     55  N   UNL A   1      44.550  30.365  28.278  1.00  0.00    -0.354 N 
ATOM     56  N   UNL A   1      41.994  31.170  29.530  1.00  0.00    -0.248 NA
ATOM     57  C   UNL A   1      40.705  32.769  30.646  1.00  0.00     0.031 C 
ATOM     58  C   UNL A   1      46.222  31.824  28.281  1.00  0.00     0.029 A 
ATOM     59  C   UNL A   1      44.902  31.648  28.663  1.00  0.00     0.049 A 
ATOM     60  H   UNL A   1      43.671  29.949  28.436  1.00  0.00     0.167 HD
ATOM     61  C   UNL A   1      42.743  32.333  29.688  1.00  0.00     0.074 A 
ATOM     62  C   UNL A   1      41.885  33.293  30.349  1.00  0.00     0.031 C 
ATOM     63  C   UNL A   1      44.025  32.588  29.318  1.00  0.00     0.034 A 
BRANCH  50  64
ATOM     64  C   UNL A   1      46.842  27.837  26.476  1.00  0.00     0.023 A 
ATOM     65  C   UNL A   1      47.150  28.073  25.123  1.00  0.00     0.031 A 
ATOM     66  C   UNL A   1      47.701  27.000  27.208  1.00  0.00     0.131 A 
ATOM     67  C   UNL A   1      48.224  27.404  24.522  1.00  0.00     0.055 A 
ATOM     68  C   UNL A   1      48.826  26.411  26.626  1.00  0.00     0.041 A 
ATOM     69  F   UNL A   1      47.449  26.720  28.496  1.00  0.00    -0.206 F 
ATOM     70  C   UNL A   1      49.082  26.595  25.269  1.00  0.00     0.022 A 
BRANCH  67  71
ATOM     71  S   UNL A   1      48.381  27.474  22.716  1.00  0.00     0.124 S 
ATOM     72  O   UNL A   1      47.166  28.195  22.345  1.00  0.00    -0.237 OA
ATOM     73  O   UNL A   1      49.634  28.196  22.535  1.00  0.00    -0.237 OA
ATOM     74  O   UNL A   1      48.408  26.067  22.320  1.00  0.00    -0.744 OA
ENDBRANCH  67  71
ENDBRANCH  50  64
BRANCH  51  75
ATOM     75  C   UNL A   1      38.358  31.022  30.814  1.00  0.00     0.023 A 
ATOM     76  C   UNL A   1      37.318  31.621  30.084  1.00  0.00     0.031 A 
ATOM     77  C   UNL A   1      38.216  30.934  32.209  1.00  0.00     0.131 A 
ATOM     78  C   UNL A   1      36.209  32.158  30.754  1.00  0.00     0.055 A 
ATOM     79  C   UNL A   1      37.085  31.424  32.868  1.00  0.00     0.041 A 
ATOM     80  F   UNL A   1      39.175  30.363  32.955  1.00  0.00    -0.206 F 
ATOM     81  C   UNL A   1      36.081  32.055  32.140  1.00  0.00     0.022 A 
BRANCH  78  82
ATOM     82  S   UNL A   1      34.978  33.082  29.793  1.00  0.00     0.124 S 
ATOM     83  O   UNL A   1      34.525  32.073  28.842  1.00  0.00    -0.237 OA
ATOM     84  O   UNL A   1      34.021  33.469  30.824  1.00  0.00    -0.237 OA
ATOM     85  O   UNL A   1      35.751  34.181  29.218  1.00  0.00    -0.744 OA
ENDBRANCH  78  82
ENDBRANCH  51  75
BRANCH  63  86
ATOM     86  C   UNL A   1      44.542  33.982  29.570  1.00  0.00     0.023 A 
ATOM     87  C   UNL A   1      44.406  35.006  28.618  1.00  0.00     0.031 A 
ATOM     88  C   UNL A   1      45.191  34.281  30.780  1.00  0.00     0.131 A 
ATOM     89  C   UNL A   1      44.965  36.267  28.866  1.00  0.00     0.055 A 
ATOM     90  C   UNL A   1      45.694  35.555  31.047  1.00  0.00     0.041 A 
ATOM     91  F   UNL A   1      45.346  33.339  31.724  1.00  0.00    -0.206 F 
ATOM     92  C   UNL A   1      45.594  36.553  30.081  1.00  0.00     0.022 A 
BRANCH  89  93
ATOM     93  S   UNL A   1      44.937  37.507  27.543  1.00  0.00     0.124 S 
ATOM     94  O   UNL A   1      46.044  37.073  26.697  1.00  0.00    -0.237 OA
ATOM     95  O   UNL A   1      43.601  37.334  26.983  1.00  0.00    -0.237 OA
ATOM     96  O   UNL A   1      45.153  38.768  28.250  1.00  0.00    -0.744 OA
ENDBRANCH  89  93
ENDBRANCH  63  86
ENDBRANCH  37  38
ENDBRANCH  29  32
ENDBRANCH  27  28
ENDBRANCH  26  27
ENDBRANCH   1  26
TORSDOF 18
ENDMDL
MODEL 3
REMARK VINA RESULT:     -12.0      1.554      7.614
REMARK SMILES Nc1nonc1C(=O)N1[C@@H]2CC[C@H]1C[C@H](CC(=O)NCCCCNC(=O)c1ccc(-c3c4nc(c(-c5cc(S(=O)(=O)[O-])ccc5F)c5ccc([nH]5)c(-c5cc(S(=O)(=O)[O-])ccc5F)c5nc(c(-c6cc(S(=O)(=O)[O-])ccc6F)c6ccc3[nH]6)C=C5)C=C4)cc1)C2
REMARK SMILES IDX 21 1 20 2 19 3 17 4 18 5 16 7 15 8 9 9 10 10 13 11 11 12
REMARK SMILES IDX 90 13 12 14 14 15 7 16 8 17 6 18 2 19 3 20 4 21 5 22 1 23
REMARK SMILES IDX 22 26 23 27 24 28 25 29 26 31 27 32 28 33 89 34 29 35 88 36
REMARK SMILES IDX 30 37 31 38 32 39 82 40 33 41 87 42 81 43 83 44 34 45 86 46
REMARK SMILES IDX 80 47 79 48 35 50 67 51 47 52 66 53 48 54 51 55 65 56 84 57
REMARK SMILES IDX 49 58 50 59 64 61 85 62 52 63 36 64 37 65 45 66 38 67 44 68
REMARK SMILES IDX 46 69 43 70 39 71 40 72 41 73 42 74 68 75 69 76 77 77 70 78
REMARK SMILES IDX 76 79 78 80 75 81 71 82 72 83 73 84 74 85 53 86 54 87 62 88
REMARK SMILES IDX 55 89 61 90 63 91 60 92 56 93 57 94 58 95 59 96
REMARK H PARENT 19 6 1 24 1 25 24 30 83 49 51 60
REMARK Flexibility Score: inf
ROOT
ATOM      1  C   UNL A   1      36.572  22.972  23.426  1.00  0.00     0.023 C 
ENDROOT
BRANCH   1   2
ATOM      2  C   UNL A   1      35.280  23.666  23.878  1.00  0.00     0.116 C 
BRANCH   2   3
ATOM      3  N   UNL A   1      34.106  22.932  23.431  1.00  0.00    -0.356 N 
ATOM      4  C   UNL A   1      32.886  23.354  22.991  1.00  0.00     0.220 C 
ATOM      5  O   UNL A   1      32.027  22.504  22.749  1.00  0.00    -0.275 OA
ATOM      6  H   UNL A   1      34.210  21.952  23.450  1.00  0.00     0.163 HD
BRANCH   4   7
ATOM      7  C   UNL A   1      32.573  24.832  22.797  1.00  0.00     0.103 C 
BRANCH   7   8
ATOM      8  C   UNL A   1      32.409  25.621  24.120  1.00  0.00     0.002 C 
ATOM      9  N   UNL A   1      31.413  28.298  24.369  1.00  0.00    -0.331 N 
ATOM     10  C   UNL A   1      30.709  27.273  25.129  1.00  0.00     0.086 C 
ATOM     11  C   UNL A   1      32.795  28.141  24.771  1.00  0.00     0.086 C 
ATOM     12  C   UNL A   1      31.402  27.258  26.508  1.00  0.00     0.027 C 
ATOM     13  C   UNL A   1      30.915  25.957  24.365  1.00  0.00     0.029 C 
ATOM     14  C   UNL A   1      32.735  27.972  26.282  1.00  0.00     0.027 C 
ATOM     15  C   UNL A   1      33.313  26.869  24.104  1.00  0.00     0.029 C 
BRANCH   9  16
ATOM     16  C   UNL A   1      30.849  29.570  24.292  1.00  0.00     0.280 C 
ATOM     17  O   UNL A   1      31.077  30.411  25.162  1.00  0.00    -0.267 OA
BRANCH  16  18
ATOM     18  C   UNL A   1      29.887  29.780  23.208  1.00  0.00     0.216 A 
ATOM     19  C   UNL A   1      28.810  30.692  23.038  1.00  0.00     0.201 A 
ATOM     20  N   UNL A   1      28.279  30.534  21.827  1.00  0.00    -0.032 NA
ATOM     21  O   UNL A   1      28.980  29.493  21.251  1.00  0.00    -0.242 OA
ATOM     22  N   UNL A   1      29.966  29.023  22.100  1.00  0.00    -0.042 NA
BRANCH  19  23
ATOM     23  N   UNL A   1      28.320  31.580  23.919  1.00  0.00    -0.379 N 
ATOM     24  H   UNL A   1      28.703  31.639  24.824  1.00  0.00     0.158 HD
ATOM     25  H   UNL A   1      27.578  32.173  23.659  1.00  0.00     0.158 HD
ENDBRANCH  19  23
ENDBRANCH  16  18
ENDBRANCH   9  16
ENDBRANCH   7   8
ENDBRANCH   4   7
ENDBRANCH   2   3
ENDBRANCH   1   2
BRANCH   1  26
ATOM     26  C   UNL A   1      36.912  21.669  24.121  1.00  0.00     0.023 C 
BRANCH  26  27
ATOM     27  C   UNL A   1      37.542  21.848  25.487  1.00  0.00     0.116 C 
BRANCH  27  28
ATOM     28  N   UNL A   1      38.619  20.906  25.768  1.00  0.00    -0.352 N 
ATOM     29  C   UNL A   1      39.814  21.150  26.419  1.00  0.00     0.251 C 
ATOM     30  H   UNL A   1      38.478  19.983  25.457  1.00  0.00     0.163 HD
ATOM     31  O   UNL A   1      40.659  20.275  26.505  1.00  0.00    -0.269 OA
BRANCH  29  32
ATOM     32  C   UNL A   1      40.058  22.510  26.946  1.00  0.00     0.039 A 
ATOM     33  C   UNL A   1      40.967  22.683  27.992  1.00  0.00     0.014 A 
ATOM     34  C   UNL A   1      39.482  23.615  26.318  1.00  0.00     0.014 A 
ATOM     35  C   UNL A   1      41.368  23.974  28.342  1.00  0.00     0.010 A 
ATOM     36  C   UNL A   1      39.973  24.884  26.583  1.00  0.00     0.010 A 
ATOM     37  C   UNL A   1      40.914  25.081  27.606  1.00  0.00    -0.014 A 
BRANCH  37  38
ATOM     38  C   UNL A   1      41.367  26.463  27.907  1.00  0.00     0.031 A 
ATOM     39  C   UNL A   1      42.769  26.871  27.536  1.00  0.00     0.074 A 
ATOM     40  C   UNL A   1      40.564  27.312  28.578  1.00  0.00     0.049 A 
ATOM     41  N   UNL A   1      43.416  27.972  27.817  1.00  0.00    -0.248 NA
ATOM     42  C   UNL A   1      43.566  25.879  26.796  1.00  0.00     0.031 C 
ATOM     43  C   UNL A   1      39.206  27.011  29.040  1.00  0.00     0.029 A 
ATOM     44  N   UNL A   1      40.774  28.602  28.994  1.00  0.00    -0.354 N 
ATOM     45  C   UNL A   1      44.698  27.794  27.309  1.00  0.00     0.074 A 
ATOM     46  C   UNL A   1      44.761  26.446  26.788  1.00  0.00     0.031 C 
ATOM     47  C   UNL A   1      38.695  28.099  29.643  1.00  0.00     0.029 A 
ATOM     48  C   UNL A   1      39.700  29.156  29.650  1.00  0.00     0.049 A 
ATOM     49  H   UNL A   1      41.617  29.086  28.838  1.00  0.00     0.167 HD
ATOM     50  C   UNL A   1      45.720  28.683  27.247  1.00  0.00     0.034 A 
ATOM     51  C   UNL A   1      39.546  30.380  30.194  1.00  0.00     0.034 A 
ATOM     52  C   UNL A   1      45.626  30.034  27.739  1.00  0.00     0.049 A 
ATOM     53  C   UNL A   1      40.690  31.359  30.102  1.00  0.00     0.074 A 
ATOM     54  C   UNL A   1      46.577  31.038  27.694  1.00  0.00     0.029 A 
ATOM     55  N   UNL A   1      44.506  30.572  28.361  1.00  0.00    -0.354 N 
ATOM     56  N   UNL A   1      41.885  31.189  29.584  1.00  0.00    -0.248 NA
ATOM     57  C   UNL A   1      40.459  32.700  30.654  1.00  0.00     0.031 C 
ATOM     58  C   UNL A   1      46.048  32.169  28.329  1.00  0.00     0.029 A 
ATOM     59  C   UNL A   1      44.746  31.890  28.713  1.00  0.00     0.049 A 
ATOM     60  H   UNL A   1      43.665  30.088  28.526  1.00  0.00     0.167 HD
ATOM     61  C   UNL A   1      42.532  32.415  29.713  1.00  0.00     0.074 A 
ATOM     62  C   UNL A   1      41.591  33.315  30.347  1.00  0.00     0.031 C 
ATOM     63  C   UNL A   1      43.788  32.769  29.340  1.00  0.00     0.034 A 
BRANCH  50  64
ATOM     64  C   UNL A   1      47.013  28.204  26.631  1.00  0.00     0.023 A 
ATOM     65  C   UNL A   1      47.227  28.255  25.241  1.00  0.00     0.031 A 
ATOM     66  C   UNL A   1      48.021  27.635  27.429  1.00  0.00     0.131 A 
ATOM     67  C   UNL A   1      48.367  27.661  24.684  1.00  0.00     0.055 A 
ATOM     68  C   UNL A   1      49.199  27.129  26.875  1.00  0.00     0.041 A 
ATOM     69  F   UNL A   1      47.867  27.538  28.758  1.00  0.00    -0.206 F 
ATOM     70  C   UNL A   1      49.370  27.122  25.493  1.00  0.00     0.022 A 
BRANCH  67  71
ATOM     71  S   UNL A   1      48.439  27.453  22.884  1.00  0.00     0.124 S 
ATOM     72  O   UNL A   1      48.361  26.000  22.754  1.00  0.00    -0.237 OA
ATOM     73  O   UNL A   1      47.270  28.199  22.433  1.00  0.00    -0.237 OA
ATOM     74  O   UNL A   1      49.730  28.036  22.523  1.00  0.00    -0.744 OA
ENDBRANCH  67  71
ENDBRANCH  50  64
BRANCH  51  75
ATOM     75  C   UNL A   1      38.269  30.765  30.861  1.00  0.00     0.023 A 
ATOM     76  C   UNL A   1      37.268  31.454  30.157  1.00  0.00     0.031 A 
ATOM     77  C   UNL A   1      38.049  30.499  32.224  1.00  0.00     0.131 A 
ATOM     78  C   UNL A   1      36.120  31.903  30.826  1.00  0.00     0.055 A 
ATOM     79  C   UNL A   1      36.880  30.902  32.875  1.00  0.00     0.041 A 
ATOM     80  F   UNL A   1      38.967  29.835  32.943  1.00  0.00    -0.206 F 
ATOM     81  C   UNL A   1      35.915  31.622  32.179  1.00  0.00     0.022 A 
BRANCH  78  82
ATOM     82  S   UNL A   1      34.940  32.944  29.924  1.00  0.00     0.124 S 
ATOM     83  O   UNL A   1      35.815  33.966  29.361  1.00  0.00    -0.237 OA
ATOM     84  O   UNL A   1      34.367  31.996  28.975  1.00  0.00    -0.237 OA
ATOM     85  O   UNL A   1      34.028  33.407  30.967  1.00  0.00    -0.744 OA
ENDBRANCH  78  82
ENDBRANCH  51  75
BRANCH  63  86
ATOM     86  C   UNL A   1      44.184  34.208  29.557  1.00  0.00     0.023 A 
ATOM     87  C   UNL A   1      43.875  35.210  28.623  1.00  0.00     0.031 A 
ATOM     88  C   UNL A   1      44.893  34.574  30.715  1.00  0.00     0.131 A 
ATOM     89  C   UNL A   1      44.324  36.521  28.833  1.00  0.00     0.055 A 
ATOM     90  C   UNL A   1      45.287  35.892  30.947  1.00  0.00     0.041 A 
ATOM     91  F   UNL A   1      45.213  33.654  31.640  1.00  0.00    -0.206 F 
ATOM     92  C   UNL A   1      45.015  36.872  29.996  1.00  0.00     0.022 A 
BRANCH  89  93
ATOM     93  S   UNL A   1      44.071  37.748  27.521  1.00  0.00     0.124 S 
ATOM     94  O   UNL A   1      43.736  38.945  28.286  1.00  0.00    -0.237 OA
ATOM     95  O   UNL A   1      45.367  37.761  26.853  1.00  0.00    -0.237 OA
ATOM     96  O   UNL A   1      42.973  37.188  26.735  1.00  0.00    -0.744 OA
ENDBRANCH  89  93
ENDBRANCH  63  86
ENDBRANCH  37  38
ENDBRANCH  29  32
ENDBRANCH  27  28
ENDBRANCH  26  27
ENDBRANCH   1  26
TORSDOF 18
ENDMDL
