MODEL 1
REMARK VINA RESULT:     -11.5      0.000      0.000
REMARK SMILES CCC(CC)(NC(=O)c1c(C)noc1C)C(=O)NCCCCNC(=O)c1ccc(-c2c3nc(c(-c4cc(S(=O)(=O)[O-])ccc4F)c4ccc([nH]4)c(-c4cc(S(=O)(=O)[O-])ccc4F)c4nc(c(-c5cc(S(=O)(=O)[O-])ccc5F)c5ccc2[nH]5)C=C4)C=C3)cc1
REMARK SMILES IDX 21 1 20 2 19 3 18 4 16 5 17 6 3 8 2 9 1 10 4 11 5 12 6 13
REMARK SMILES IDX 7 14 8 16 9 17 10 18 14 19 11 20 12 21 13 22 15 23 22 24
REMARK SMILES IDX 23 25 24 26 25 28 26 29 27 30 88 31 28 32 87 33 29 34 30 35
REMARK SMILES IDX 31 36 81 37 32 38 86 39 80 40 82 41 33 42 85 43 79 44 78 45
REMARK SMILES IDX 34 47 66 48 46 49 65 50 47 51 50 52 64 53 83 54 48 55 49 56
REMARK SMILES IDX 63 58 84 59 51 60 35 61 36 62 44 63 37 64 43 65 45 66 42 67
REMARK SMILES IDX 38 68 39 69 40 70 41 71 67 72 68 73 76 74 69 75 75 76 77 77
REMARK SMILES IDX 74 78 70 79 71 80 72 81 73 82 52 83 53 84 61 85 54 86 60 87
REMARK SMILES IDX 62 88 59 89 55 90 56 91 57 92 58 93
REMARK H PARENT 18 7 6 15 23 27 82 46 50 57
REMARK Flexibility Score: inf
ROOT
ATOM      1  C   UNL A   1      31.380  32.062  26.833  1.00  0.00     0.023 C 
ENDROOT
BRANCH   1   2
ATOM      2  C   UNL A   1      31.362  30.862  25.892  1.00  0.00     0.023 C 
BRANCH   2   3
ATOM      3  C   UNL A   1      32.530  29.861  25.858  1.00  0.00     0.116 C 
BRANCH   3   4
ATOM      4  N   UNL A   1      33.351  29.686  24.650  1.00  0.00    -0.354 N 
ATOM      5  C   UNL A   1      33.478  28.675  23.710  1.00  0.00     0.245 C 
ATOM      6  O   UNL A   1      34.033  28.949  22.643  1.00  0.00    -0.272 OA
ATOM      7  H   UNL A   1      33.939  30.454  24.470  1.00  0.00     0.163 HD
BRANCH   5   8
ATOM      8  C   UNL A   1      32.747  27.341  23.898  1.00  0.00     0.118 C 
BRANCH   8   9
ATOM      9  C   UNL A   1      31.300  27.325  24.459  1.00  0.00     0.035 C 
ATOM     10  C   UNL A   1      30.155  27.711  23.533  1.00  0.00     0.007 C 
ENDBRANCH   8   9
BRANCH   8  11
ATOM     11  C   UNL A   1      33.714  26.624  24.922  1.00  0.00     0.035 C 
ATOM     12  C   UNL A   1      33.139  25.789  26.051  1.00  0.00     0.007 C 
ENDBRANCH   8  11
BRANCH   8  13
ATOM     13  N   UNL A   1      32.690  26.735  22.557  1.00  0.00    -0.337 N 
ATOM     14  C   UNL A   1      33.030  25.495  22.040  1.00  0.00     0.257 C 
ATOM     15  H   UNL A   1      32.329  27.348  21.876  1.00  0.00     0.164 HD
ATOM     16  O   UNL A   1      33.255  25.589  20.824  1.00  0.00    -0.269 OA
BRANCH  14  17
ATOM     17  C   UNL A   1      33.159  24.159  22.679  1.00  0.00     0.105 A 
ATOM     18  C   UNL A   1      31.974  23.502  23.226  1.00  0.00     0.093 A 
ATOM     19  C   UNL A   1      34.157  23.289  23.145  1.00  0.00     0.146 A 
ATOM     20  C   UNL A   1      30.571  23.979  23.309  1.00  0.00     0.071 C 
ATOM     21  N   UNL A   1      32.238  22.315  23.767  1.00  0.00    -0.084 NA
ATOM     22  O   UNL A   1      33.581  22.181  23.694  1.00  0.00    -0.361 OA
ATOM     23  C   UNL A   1      35.617  23.174  23.365  1.00  0.00     0.092 C 
ENDBRANCH  14  17
ENDBRANCH   8  13
ENDBRANCH   5   8
ENDBRANCH   3   4
ENDBRANCH   2   3
ENDBRANCH   1   2
BRANCH   1  24
ATOM     24  C   UNL A   1      32.746  32.635  27.164  1.00  0.00     0.116 C 
BRANCH  24  25
ATOM     25  N   UNL A   1      32.668  34.008  27.624  1.00  0.00    -0.352 N 
ATOM     26  C   UNL A   1      33.367  34.626  28.632  1.00  0.00     0.251 C 
ATOM     27  H   UNL A   1      32.023  34.578  27.146  1.00  0.00     0.163 HD
ATOM     28  O   UNL A   1      33.033  35.759  28.981  1.00  0.00    -0.269 OA
BRANCH  26  29
ATOM     29  C   UNL A   1      34.486  33.934  29.317  1.00  0.00     0.039 A 
ATOM     30  C   UNL A   1      35.796  34.319  29.018  1.00  0.00     0.014 A 
ATOM     31  C   UNL A   1      34.261  32.902  30.233  1.00  0.00     0.014 A 
ATOM     32  C   UNL A   1      36.870  33.707  29.671  1.00  0.00     0.010 A 
ATOM     33  C   UNL A   1      35.330  32.346  30.939  1.00  0.00     0.010 A 
ATOM     34  C   UNL A   1      36.648  32.736  30.660  1.00  0.00    -0.014 A 
BRANCH  34  35
ATOM     35  C   UNL A   1      37.787  32.112  31.389  1.00  0.00     0.031 A 
ATOM     36  C   UNL A   1      38.585  31.006  30.749  1.00  0.00     0.074 A 
ATOM     37  C   UNL A   1      38.088  32.519  32.640  1.00  0.00     0.049 A 
ATOM     38  N   UNL A   1      39.591  30.322  31.233  1.00  0.00    -0.248 NA
ATOM     39  C   UNL A   1      38.182  30.600  29.394  1.00  0.00     0.031 C 
ATOM     40  C   UNL A   1      37.372  33.560  33.382  1.00  0.00     0.029 A 
ATOM     41  N   UNL A   1      39.069  32.111  33.509  1.00  0.00    -0.354 N 
ATOM     42  C   UNL A   1      39.936  29.402  30.248  1.00  0.00     0.074 A 
ATOM     43  C   UNL A   1      38.990  29.575  29.167  1.00  0.00     0.031 C 
ATOM     44  C   UNL A   1      37.960  33.731  34.577  1.00  0.00     0.029 A 
ATOM     45  C   UNL A   1      39.061  32.782  34.711  1.00  0.00     0.049 A 
ATOM     46  H   UNL A   1      39.720  31.405  33.293  1.00  0.00     0.167 HD
ATOM     47  C   UNL A   1      40.959  28.510  30.237  1.00  0.00     0.034 A 
ATOM     48  C   UNL A   1      39.840  32.642  35.802  1.00  0.00     0.034 A 
ATOM     49  C   UNL A   1      41.900  28.355  31.321  1.00  0.00     0.049 A 
ATOM     50  C   UNL A   1      40.944  31.612  35.784  1.00  0.00     0.074 A 
ATOM     51  C   UNL A   1      43.004  27.521  31.389  1.00  0.00     0.029 A 
ATOM     52  N   UNL A   1      41.843  29.034  32.532  1.00  0.00    -0.354 N 
ATOM     53  N   UNL A   1      41.290  30.788  34.820  1.00  0.00    -0.248 NA
ATOM     54  C   UNL A   1      41.768  31.501  36.994  1.00  0.00     0.031 C 
ATOM     55  C   UNL A   1      43.563  27.635  32.666  1.00  0.00     0.029 A 
ATOM     56  C   UNL A   1      42.867  28.607  33.366  1.00  0.00     0.049 A 
ATOM     57  H   UNL A   1      41.173  29.718  32.764  1.00  0.00     0.167 HD
ATOM     58  C   UNL A   1      42.394  30.088  35.300  1.00  0.00     0.074 A 
ATOM     59  C   UNL A   1      42.665  30.598  36.628  1.00  0.00     0.031 C 
ATOM     60  C   UNL A   1      43.124  29.116  34.694  1.00  0.00     0.034 A 
BRANCH  47  61
ATOM     61  C   UNL A   1      41.092  27.614  29.027  1.00  0.00     0.023 A 
ATOM     62  C   UNL A   1      42.067  27.840  28.039  1.00  0.00     0.031 A 
ATOM     63  C   UNL A   1      40.221  26.524  28.850  1.00  0.00     0.131 A 
ATOM     64  C   UNL A   1      42.098  27.039  26.887  1.00  0.00     0.055 A 
ATOM     65  C   UNL A   1      40.313  25.678  27.743  1.00  0.00     0.041 A 
ATOM     66  F   UNL A   1      39.254  26.269  29.747  1.00  0.00    -0.206 F 
ATOM     67  C   UNL A   1      41.245  25.942  26.745  1.00  0.00     0.022 A 
BRANCH  64  68
ATOM     68  S   UNL A   1      43.165  27.543  25.510  1.00  0.00     0.124 S 
ATOM     69  O   UNL A   1      43.663  26.254  25.036  1.00  0.00    -0.237 OA
ATOM     70  O   UNL A   1      42.233  28.231  24.624  1.00  0.00    -0.237 OA
ATOM     71  O   UNL A   1      44.168  28.394  26.146  1.00  0.00    -0.744 OA
ENDBRANCH  64  68
ENDBRANCH  47  61
BRANCH  48  72
ATOM     72  C   UNL A   1      39.609  33.482  37.016  1.00  0.00     0.023 A 
ATOM     73  C   UNL A   1      38.898  32.982  38.118  1.00  0.00     0.031 A 
ATOM     74  C   UNL A   1      40.048  34.817  37.067  1.00  0.00     0.131 A 
ATOM     75  C   UNL A   1      38.600  33.825  39.201  1.00  0.00     0.055 A 
ATOM     76  C   UNL A   1      39.802  35.634  38.173  1.00  0.00     0.041 A 
ATOM     77  F   UNL A   1      40.730  35.348  36.040  1.00  0.00    -0.206 F 
ATOM     78  C   UNL A   1      39.061  35.142  39.242  1.00  0.00     0.022 A 
BRANCH  75  79
ATOM     79  S   UNL A   1      37.509  33.203  40.511  1.00  0.00     0.124 S 
ATOM     80  O   UNL A   1      36.336  32.790  39.748  1.00  0.00    -0.237 OA
ATOM     81  O   UNL A   1      38.310  32.129  41.088  1.00  0.00    -0.237 OA
ATOM     82  O   UNL A   1      37.315  34.367  41.373  1.00  0.00    -0.744 OA
ENDBRANCH  75  79
ENDBRANCH  48  72
BRANCH  60  83
ATOM     83  C   UNL A   1      44.318  28.577  35.447  1.00  0.00     0.023 A 
ATOM     84  C   UNL A   1      44.198  27.552  36.401  1.00  0.00     0.031 A 
ATOM     85  C   UNL A   1      45.599  29.109  35.209  1.00  0.00     0.131 A 
ATOM     86  C   UNL A   1      45.325  27.133  37.124  1.00  0.00     0.055 A 
ATOM     87  C   UNL A   1      46.728  28.640  35.882  1.00  0.00     0.041 A 
ATOM     88  F   UNL A   1      45.775  30.093  34.312  1.00  0.00    -0.206 F 
ATOM     89  C   UNL A   1      46.593  27.656  36.856  1.00  0.00     0.022 A 
BRANCH  86  90
ATOM     90  S   UNL A   1      45.099  25.964  38.493  1.00  0.00     0.124 S 
ATOM     91  O   UNL A   1      44.187  24.986  37.909  1.00  0.00    -0.237 OA
ATOM     92  O   UNL A   1      46.460  25.501  38.737  1.00  0.00    -0.237 OA
ATOM     93  O   UNL A   1      44.527  26.788  39.557  1.00  0.00    -0.744 OA
ENDBRANCH  86  90
ENDBRANCH  60  83
ENDBRANCH  34  35
ENDBRANCH  26  29
ENDBRANCH  24  25
ENDBRANCH   1  24
TORSDOF 18
ENDMDL
MODEL 2
REMARK VINA RESULT:     -11.2      2.404      3.426
REMARK SMILES CCC(CC)(NC(=O)c1c(C)noc1C)C(=O)NCCCCNC(=O)c1ccc(-c2c3nc(c(-c4cc(S(=O)(=O)[O-])ccc4F)c4ccc([nH]4)c(-c4cc(S(=O)(=O)[O-])ccc4F)c4nc(c(-c5cc(S(=O)(=O)[O-])ccc5F)c5ccc2[nH]5)C=C4)C=C3)cc1
REMARK SMILES IDX 21 1 20 2 19 3 18 4 16 5 17 6 3 8 2 9 1 10 4 11 5 12 6 13
REMARK SMILES IDX 7 14 8 16 9 17 10 18 14 19 11 20 12 21 13 22 15 23 22 24
REMARK SMILES IDX 23 25 24 26 25 28 26 29 27 30 88 31 28 32 87 33 29 34 30 35
REMARK SMILES IDX 31 36 81 37 32 38 86 39 80 40 82 41 33 42 85 43 79 44 78 45
REMARK SMILES IDX 34 47 66 48 46 49 65 50 47 51 50 52 64 53 83 54 48 55 49 56
REMARK SMILES IDX 63 58 84 59 51 60 35 61 36 62 44 63 37 64 43 65 45 66 42 67
REMARK SMILES IDX 38 68 39 69 40 70 41 71 67 72 68 73 76 74 69 75 75 76 77 77
REMARK SMILES IDX 74 78 70 79 71 80 72 81 73 82 52 83 53 84 61 85 54 86 60 87
REMARK SMILES IDX 62 88 59 89 55 90 56 91 57 92 58 93
REMARK H PARENT 18 7 6 15 23 27 82 46 50 57
REMARK Flexibility Score: inf
ROOT
ATOM      1  C   UNL A   1      31.399  28.659  25.543  1.00  0.00     0.023 C 
ENDROOT
BRANCH   1   2
ATOM      2  C   UNL A   1      30.838  28.185  24.207  1.00  0.00     0.023 C 
BRANCH   2   3
ATOM      3  C   UNL A   1      30.459  26.711  23.982  1.00  0.00     0.116 C 
BRANCH   3   4
ATOM      4  N   UNL A   1      29.952  25.876  25.081  1.00  0.00    -0.354 N 
ATOM      5  C   UNL A   1      30.482  24.827  25.817  1.00  0.00     0.245 C 
ATOM      6  O   UNL A   1      29.925  24.529  26.876  1.00  0.00    -0.272 OA
ATOM      7  H   UNL A   1      29.038  26.114  25.355  1.00  0.00     0.163 HD
BRANCH   5   8
ATOM      8  C   UNL A   1      31.841  24.223  25.444  1.00  0.00     0.118 C 
BRANCH   8   9
ATOM      9  C   UNL A   1      32.942  25.124  24.824  1.00  0.00     0.035 C 
ATOM     10  C   UNL A   1      33.779  25.995  25.752  1.00  0.00     0.007 C 
ENDBRANCH   8   9
BRANCH   8  11
ATOM     11  C   UNL A   1      31.395  23.138  24.385  1.00  0.00     0.035 C 
ATOM     12  C   UNL A   1      32.217  22.922  23.129  1.00  0.00     0.007 C 
ENDBRANCH   8  11
BRANCH   8  13
ATOM     13  N   UNL A   1      32.388  23.688  26.702  1.00  0.00    -0.337 N 
ATOM     14  C   UNL A   1      33.033  22.513  27.054  1.00  0.00     0.257 C 
ATOM     15  H   UNL A   1      32.269  24.302  27.463  1.00  0.00     0.164 HD
ATOM     16  O   UNL A   1      32.884  22.294  28.266  1.00  0.00    -0.269 OA
BRANCH  14  17
ATOM     17  C   UNL A   1      33.821  21.539  26.254  1.00  0.00     0.105 A 
ATOM     18  C   UNL A   1      35.193  21.861  25.872  1.00  0.00     0.093 A 
ATOM     19  C   UNL A   1      33.629  20.365  25.509  1.00  0.00     0.146 A 
ATOM     20  C   UNL A   1      35.988  23.091  26.114  1.00  0.00     0.071 C 
ATOM     21  N   UNL A   1      35.776  20.901  25.159  1.00  0.00    -0.084 NA
ATOM     22  O   UNL A   1      34.814  19.973  24.957  1.00  0.00    -0.361 OA
ATOM     23  C   UNL A   1      32.588  19.443  25.002  1.00  0.00     0.092 C 
ENDBRANCH  14  17
ENDBRANCH   8  13
ENDBRANCH   5   8
ENDBRANCH   3   4
ENDBRANCH   2   3
ENDBRANCH   1   2
BRANCH   1  24
ATOM     24  C   UNL A   1      32.551  29.645  25.475  1.00  0.00     0.116 C 
BRANCH  24  25
ATOM     25  N   UNL A   1      32.164  30.972  25.914  1.00  0.00    -0.352 N 
ATOM     26  C   UNL A   1      32.692  31.741  26.923  1.00  0.00     0.251 C 
ATOM     27  H   UNL A   1      31.416  31.380  25.420  1.00  0.00     0.163 HD
ATOM     28  O   UNL A   1      32.109  32.776  27.252  1.00  0.00    -0.269 OA
BRANCH  26  29
ATOM     29  C   UNL A   1      33.924  31.322  27.632  1.00  0.00     0.039 A 
ATOM     30  C   UNL A   1      34.865  32.297  27.975  1.00  0.00     0.014 A 
ATOM     31  C   UNL A   1      34.172  29.982  27.947  1.00  0.00     0.014 A 
ATOM     32  C   UNL A   1      36.022  31.937  28.672  1.00  0.00     0.010 A 
ATOM     33  C   UNL A   1      35.290  29.636  28.709  1.00  0.00     0.010 A 
ATOM     34  C   UNL A   1      36.233  30.608  29.074  1.00  0.00    -0.014 A 
BRANCH  34  35
ATOM     35  C   UNL A   1      37.443  30.227  29.854  1.00  0.00     0.031 A 
ATOM     36  C   UNL A   1      38.483  29.321  29.249  1.00  0.00     0.074 A 
ATOM     37  C   UNL A   1      37.594  30.672  31.119  1.00  0.00     0.049 A 
ATOM     38  N   UNL A   1      39.587  28.857  29.778  1.00  0.00    -0.248 NA
ATOM     39  C   UNL A   1      38.237  28.858  27.875  1.00  0.00     0.031 C 
ATOM     40  C   UNL A   1      36.643  31.530  31.830  1.00  0.00     0.029 A 
ATOM     41  N   UNL A   1      38.599  30.467  32.032  1.00  0.00    -0.354 N 
ATOM     42  C   UNL A   1      40.162  28.042  28.807  1.00  0.00     0.074 A 
ATOM     43  C   UNL A   1      39.251  28.027  27.683  1.00  0.00     0.031 C 
ATOM     44  C   UNL A   1      37.127  31.805  33.051  1.00  0.00     0.029 A 
ATOM     45  C   UNL A   1      38.395  31.105  33.235  1.00  0.00     0.049 A 
ATOM     46  H   UNL A   1      39.392  29.915  31.844  1.00  0.00     0.167 HD
ATOM     47  C   UNL A   1      41.349  27.384  28.842  1.00  0.00     0.034 A 
ATOM     48  C   UNL A   1      39.136  31.117  34.361  1.00  0.00     0.034 A 
ATOM     49  C   UNL A   1      42.251  27.415  29.968  1.00  0.00     0.049 A 
ATOM     50  C   UNL A   1      40.431  30.341  34.391  1.00  0.00     0.074 A 
ATOM     51  C   UNL A   1      43.501  26.830  30.086  1.00  0.00     0.029 A 
ATOM     52  N   UNL A   1      41.997  28.051  31.177  1.00  0.00    -0.354 N 
ATOM     53  N   UNL A   1      40.985  29.621  33.443  1.00  0.00    -0.248 NA
ATOM     54  C   UNL A   1      41.203  30.390  35.639  1.00  0.00     0.031 C 
ATOM     55  C   UNL A   1      43.964  27.042  31.388  1.00  0.00     0.029 A 
ATOM     56  C   UNL A   1      43.049  27.837  32.058  1.00  0.00     0.049 A 
ATOM     57  H   UNL A   1      41.189  28.576  31.380  1.00  0.00     0.167 HD
ATOM     58  C   UNL A   1      42.189  29.161  33.972  1.00  0.00     0.074 A 
ATOM     59  C   UNL A   1      42.285  29.699  35.313  1.00  0.00     0.031 C 
ATOM     60  C   UNL A   1      43.133  28.371  33.398  1.00  0.00     0.034 A 
BRANCH  47  61
ATOM     61  C   UNL A   1      41.722  26.552  27.636  1.00  0.00     0.023 A 
ATOM     62  C   UNL A   1      41.437  25.177  27.566  1.00  0.00     0.031 A 
ATOM     63  C   UNL A   1      42.388  27.139  26.546  1.00  0.00     0.131 A 
ATOM     64  C   UNL A   1      41.882  24.423  26.469  1.00  0.00     0.055 A 
ATOM     65  C   UNL A   1      42.752  26.400  25.418  1.00  0.00     0.041 A 
ATOM     66  F   UNL A   1      42.709  28.443  26.561  1.00  0.00    -0.206 F 
ATOM     67  C   UNL A   1      42.513  25.030  25.381  1.00  0.00     0.022 A 
BRANCH  64  68
ATOM     68  S   UNL A   1      41.759  22.615  26.553  1.00  0.00     0.124 S 
ATOM     69  O   UNL A   1      42.342  22.220  25.274  1.00  0.00    -0.237 OA
ATOM     70  O   UNL A   1      42.548  22.300  27.739  1.00  0.00    -0.237 OA
ATOM     71  O   UNL A   1      40.323  22.374  26.676  1.00  0.00    -0.744 OA
ENDBRANCH  64  68
ENDBRANCH  47  61
BRANCH  48  72
ATOM     72  C   UNL A   1      38.679  31.874  35.565  1.00  0.00     0.023 A 
ATOM     73  C   UNL A   1      38.147  31.209  36.681  1.00  0.00     0.031 A 
ATOM     74  C   UNL A   1      38.714  33.280  35.593  1.00  0.00     0.131 A 
ATOM     75  C   UNL A   1      37.625  31.947  37.755  1.00  0.00     0.055 A 
ATOM     76  C   UNL A   1      38.249  34.009  36.691  1.00  0.00     0.041 A 
ATOM     77  F   UNL A   1      39.209  33.969  34.553  1.00  0.00    -0.206 F 
ATOM     78  C   UNL A   1      37.686  33.342  37.773  1.00  0.00     0.022 A 
BRANCH  75  79
ATOM     79  S   UNL A   1      36.766  31.058  39.083  1.00  0.00     0.124 S 
ATOM     80  O   UNL A   1      35.551  31.851  39.234  1.00  0.00    -0.237 OA
ATOM     81  O   UNL A   1      36.598  29.731  38.501  1.00  0.00    -0.237 OA
ATOM     82  O   UNL A   1      37.703  31.132  40.203  1.00  0.00    -0.744 OA
ENDBRANCH  75  79
ENDBRANCH  48  72
BRANCH  60  83
ATOM     83  C   UNL A   1      44.378  28.084  34.205  1.00  0.00     0.023 A 
ATOM     84  C   UNL A   1      44.490  26.947  35.024  1.00  0.00     0.031 A 
ATOM     85  C   UNL A   1      45.467  28.974  34.158  1.00  0.00     0.131 A 
ATOM     86  C   UNL A   1      45.640  26.760  35.807  1.00  0.00     0.055 A 
ATOM     87  C   UNL A   1      46.636  28.746  34.887  1.00  0.00     0.041 A 
ATOM     88  F   UNL A   1      45.416  30.079  33.398  1.00  0.00    -0.206 F 
ATOM     89  C   UNL A   1      46.721  27.642  35.729  1.00  0.00     0.022 A 
BRANCH  86  90
ATOM     90  S   UNL A   1      45.664  25.402  37.010  1.00  0.00     0.124 S 
ATOM     91  O   UNL A   1      47.068  25.005  36.991  1.00  0.00    -0.237 OA
ATOM     92  O   UNL A   1      45.203  26.056  38.230  1.00  0.00    -0.237 OA
ATOM     93  O   UNL A   1      44.735  24.425  36.444  1.00  0.00    -0.744 OA
ENDBRANCH  86  90
ENDBRANCH  60  83
ENDBRANCH  34  35
ENDBRANCH  26  29
ENDBRANCH  24  25
ENDBRANCH   1  24
TORSDOF 18
ENDMDL
MODEL 3
REMARK VINA RESULT:     -11.2      1.756      2.095
REMARK SMILES CCC(CC)(NC(=O)c1c(C)noc1C)C(=O)NCCCCNC(=O)c1ccc(-c2c3nc(c(-c4cc(S(=O)(=O)[O-])ccc4F)c4ccc([nH]4)c(-c4cc(S(=O)(=O)[O-])ccc4F)c4nc(c(-c5cc(S(=O)(=O)[O-])ccc5F)c5ccc2[nH]5)C=C4)C=C3)cc1
REMARK SMILES IDX 21 1 20 2 19 3 18 4 16 5 17 6 3 8 2 9 1 10 4 11 5 12 6 13
REMARK SMILES IDX 7 14 8 16 9 17 10 18 14 19 11 20 12 21 13 22 15 23 22 24
REMARK SMILES IDX 23 25 24 26 25 28 26 29 27 30 88 31 28 32 87 33 29 34 30 35
REMARK SMILES IDX 31 36 81 37 32 38 86 39 80 40 82 41 33 42 85 43 79 44 78 45
REMARK SMILES IDX 34 47 66 48 46 49 65 50 47 51 50 52 64 53 83 54 48 55 49 56
REMARK SMILES IDX 63 58 84 59 51 60 35 61 36 62 44 63 37 64 43 65 45 66 42 67
REMARK SMILES IDX 38 68 39 69 40 70 41 71 67 72 68 73 76 74 69 75 75 76 77 77
REMARK SMILES IDX 74 78 70 79 71 80 72 81 73 82 52 83 53 84 61 85 54 86 60 87
REMARK SMILES IDX 62 88 59 89 55 90 56 91 57 92 58 93
REMARK H PARENT 18 7 6 15 23 27 82 46 50 57
REMARK Flexibility Score: inf
ROOT
ATOM      1  C   UNL A   1      31.263  31.812  26.582  1.00  0.00     0.023 C 
ENDROOT
BRANCH   1   2
ATOM      2  C   UNL A   1      31.383  30.583  25.688  1.00  0.00     0.023 C 
BRANCH   2   3
ATOM      3  C   UNL A   1      32.667  29.735  25.670  1.00  0.00     0.116 C 
BRANCH   3   4
ATOM      4  N   UNL A   1      33.437  29.542  24.432  1.00  0.00    -0.354 N 
ATOM      5  C   UNL A   1      33.556  28.501  23.524  1.00  0.00     0.245 C 
ATOM      6  O   UNL A   1      34.052  28.754  22.423  1.00  0.00    -0.272 OA
ATOM      7  H   UNL A   1      33.989  30.322  24.198  1.00  0.00     0.163 HD
BRANCH   5   8
ATOM      8  C   UNL A   1      32.881  27.152  23.794  1.00  0.00     0.118 C 
BRANCH   8   9
ATOM      9  C   UNL A   1      31.472  27.109  24.443  1.00  0.00     0.035 C 
ATOM     10  C   UNL A   1      30.285  27.627  23.643  1.00  0.00     0.007 C 
ENDBRANCH   8   9
BRANCH   8  11
ATOM     11  C   UNL A   1      33.931  26.495  24.776  1.00  0.00     0.035 C 
ATOM     12  C   UNL A   1      33.461  25.555  25.870  1.00  0.00     0.007 C 
ENDBRANCH   8  11
BRANCH   8  13
ATOM     13  N   UNL A   1      32.762  26.505  22.476  1.00  0.00    -0.337 N 
ATOM     14  C   UNL A   1      33.081  25.250  21.982  1.00  0.00     0.257 C 
ATOM     15  H   UNL A   1      32.367  27.096  21.795  1.00  0.00     0.164 HD
ATOM     16  O   UNL A   1      33.248  25.308  20.754  1.00  0.00    -0.269 OA
BRANCH  14  17
ATOM     17  C   UNL A   1      33.246  23.935  22.654  1.00  0.00     0.105 A 
ATOM     18  C   UNL A   1      32.083  23.273  23.241  1.00  0.00     0.093 A 
ATOM     19  C   UNL A   1      34.267  23.095  23.125  1.00  0.00     0.146 A 
ATOM     20  C   UNL A   1      30.674  23.729  23.337  1.00  0.00     0.071 C 
ATOM     21  N   UNL A   1      32.377  22.107  23.809  1.00  0.00    -0.084 NA
ATOM     22  O   UNL A   1      33.720  21.993  23.714  1.00  0.00    -0.361 OA
ATOM     23  C   UNL A   1      35.732  23.011  23.321  1.00  0.00     0.092 C 
ENDBRANCH  14  17
ENDBRANCH   8  13
ENDBRANCH   5   8
ENDBRANCH   3   4
ENDBRANCH   2   3
ENDBRANCH   1   2
BRANCH   1  24
ATOM     24  C   UNL A   1      32.567  32.458  27.012  1.00  0.00     0.116 C 
BRANCH  24  25
ATOM     25  N   UNL A   1      32.391  33.843  27.406  1.00  0.00    -0.352 N 
ATOM     26  C   UNL A   1      33.045  34.559  28.378  1.00  0.00     0.251 C 
ATOM     27  H   UNL A   1      31.704  34.340  26.906  1.00  0.00     0.163 HD
ATOM     28  O   UNL A   1      32.629  35.680  28.675  1.00  0.00    -0.269 OA
BRANCH  26  29
ATOM     29  C   UNL A   1      34.214  33.985  29.087  1.00  0.00     0.039 A 
ATOM     30  C   UNL A   1      33.998  32.977  30.031  1.00  0.00     0.014 A 
ATOM     31  C   UNL A   1      35.515  34.440  28.848  1.00  0.00     0.014 A 
ATOM     32  C   UNL A   1      35.082  32.394  30.693  1.00  0.00     0.010 A 
ATOM     33  C   UNL A   1      36.602  33.805  29.454  1.00  0.00     0.010 A 
ATOM     34  C   UNL A   1      36.398  32.781  30.390  1.00  0.00    -0.014 A 
BRANCH  34  35
ATOM     35  C   UNL A   1      37.559  32.133  31.061  1.00  0.00     0.031 A 
ATOM     36  C   UNL A   1      38.398  31.123  30.322  1.00  0.00     0.074 A 
ATOM     37  C   UNL A   1      37.845  32.432  32.346  1.00  0.00     0.049 A 
ATOM     38  N   UNL A   1      39.429  30.435  30.743  1.00  0.00    -0.248 NA
ATOM     39  C   UNL A   1      38.010  30.832  28.934  1.00  0.00     0.031 C 
ATOM     40  C   UNL A   1      37.091  33.370  33.181  1.00  0.00     0.029 A 
ATOM     41  N   UNL A   1      38.842  31.980  33.176  1.00  0.00    -0.354 N 
ATOM     42  C   UNL A   1      39.807  29.625  29.677  1.00  0.00     0.074 A 
ATOM     43  C   UNL A   1      38.856  29.864  28.614  1.00  0.00     0.031 C 
ATOM     44  C   UNL A   1      37.673  33.450  34.388  1.00  0.00     0.029 A 
ATOM     45  C   UNL A   1      38.808  32.534  34.436  1.00  0.00     0.049 A 
ATOM     46  H   UNL A   1      39.518  31.322  32.896  1.00  0.00     0.167 HD
ATOM     47  C   UNL A   1      40.863  28.777  29.585  1.00  0.00     0.034 A 
ATOM     48  C   UNL A   1      39.593  32.320  35.511  1.00  0.00     0.034 A 
ATOM     49  C   UNL A   1      41.809  28.555  30.652  1.00  0.00     0.049 A 
ATOM     50  C   UNL A   1      40.734  31.338  35.399  1.00  0.00     0.074 A 
ATOM     51  C   UNL A   1      42.944  27.760  30.645  1.00  0.00     0.029 A 
ATOM     52  N   UNL A   1      41.727  29.114  31.921  1.00  0.00    -0.354 N 
ATOM     53  N   UNL A   1      41.110  30.623  34.364  1.00  0.00    -0.248 NA
ATOM     54  C   UNL A   1      41.562  31.145  36.596  1.00  0.00     0.031 C 
ATOM     55  C   UNL A   1      43.498  27.774  31.928  1.00  0.00     0.029 A 
ATOM     56  C   UNL A   1      42.767  28.649  32.715  1.00  0.00     0.049 A 
ATOM     57  H   UNL A   1      41.033  29.747  32.215  1.00  0.00     0.167 HD
ATOM     58  C   UNL A   1      42.240  29.922  34.778  1.00  0.00     0.074 A 
ATOM     59  C   UNL A   1      42.492  30.314  36.150  1.00  0.00     0.031 C 
ATOM     60  C   UNL A   1      43.005  29.039  34.085  1.00  0.00     0.034 A 
BRANCH  47  61
ATOM     61  C   UNL A   1      41.030  28.005  28.296  1.00  0.00     0.023 A 
ATOM     62  C   UNL A   1      40.588  26.677  28.163  1.00  0.00     0.031 A 
ATOM     63  C   UNL A   1      41.654  28.601  27.185  1.00  0.00     0.131 A 
ATOM     64  C   UNL A   1      40.844  25.966  26.980  1.00  0.00     0.055 A 
ATOM     65  C   UNL A   1      41.828  27.917  25.980  1.00  0.00     0.041 A 
ATOM     66  F   UNL A   1      42.118  29.860  27.255  1.00  0.00    -0.206 F 
ATOM     67  C   UNL A   1      41.436  26.586  25.878  1.00  0.00     0.022 A 
BRANCH  64  68
ATOM     68  S   UNL A   1      40.529  24.180  26.957  1.00  0.00     0.124 S 
ATOM     69  O   UNL A   1      39.177  24.126  26.406  1.00  0.00    -0.237 OA
ATOM     70  O   UNL A   1      41.592  23.684  26.090  1.00  0.00    -0.237 OA
ATOM     71  O   UNL A   1      40.637  23.794  28.361  1.00  0.00    -0.744 OA
ENDBRANCH  64  68
ENDBRANCH  47  61
BRANCH  48  72
ATOM     72  C   UNL A   1      39.331  33.033  36.798  1.00  0.00     0.023 A 
ATOM     73  C   UNL A   1      39.968  34.247  37.097  1.00  0.00     0.031 A 
ATOM     74  C   UNL A   1      38.483  32.478  37.773  1.00  0.00     0.131 A 
ATOM     75  C   UNL A   1      39.790  34.842  38.356  1.00  0.00     0.055 A 
ATOM     76  C   UNL A   1      38.260  33.105  39.001  1.00  0.00     0.041 A 
ATOM     77  F   UNL A   1      37.850  31.317  37.543  1.00  0.00    -0.206 F 
ATOM     78  C   UNL A   1      38.928  34.287  39.304  1.00  0.00     0.022 A 
BRANCH  75  79
ATOM     79  S   UNL A   1      40.784  36.300  38.777  1.00  0.00     0.124 S 
ATOM     80  O   UNL A   1      41.818  36.260  37.748  1.00  0.00    -0.237 OA
ATOM     81  O   UNL A   1      39.807  37.377  38.664  1.00  0.00    -0.237 OA
ATOM     82  O   UNL A   1      41.244  36.017  40.135  1.00  0.00    -0.744 OA
ENDBRANCH  75  79
ENDBRANCH  48  72
BRANCH  60  83
ATOM     83  C   UNL A   1      44.219  28.476  34.789  1.00  0.00     0.023 A 
ATOM     84  C   UNL A   1      44.166  27.282  35.528  1.00  0.00     0.031 A 
ATOM     85  C   UNL A   1      45.449  29.157  34.722  1.00  0.00     0.131 A 
ATOM     86  C   UNL A   1      45.303  26.836  36.220  1.00  0.00     0.055 A 
ATOM     87  C   UNL A   1      46.594  28.671  35.355  1.00  0.00     0.041 A 
ATOM     88  F   UNL A   1      45.560  30.304  34.035  1.00  0.00    -0.206 F 
ATOM     89  C   UNL A   1      46.521  27.512  36.122  1.00  0.00     0.022 A 
BRANCH  86  90
ATOM     90  S   UNL A   1      45.143  25.413  37.334  1.00  0.00     0.124 S 
ATOM     91  O   UNL A   1      44.536  24.413  36.463  1.00  0.00    -0.237 OA
ATOM     92  O   UNL A   1      46.527  25.164  37.722  1.00  0.00    -0.237 OA
ATOM     93  O   UNL A   1      44.281  25.910  38.405  1.00  0.00    -0.744 OA
ENDBRANCH  86  90
ENDBRANCH  60  83
ENDBRANCH  34  35
ENDBRANCH  26  29
ENDBRANCH  24  25
ENDBRANCH   1  24
TORSDOF 18
ENDMDL
