MODEL 1
REMARK VINA RESULT:     -11.8      0.000      0.000
REMARK SMILES O=C(NCCCCNC(=O)c1ccc(-c2c3nc(c(-c4cc(S(=O)(=O)[O-])ccc4F)c4ccc([nH]4)c(-c4cc(S(=O)(=O)[O-])ccc4F)c4nc(c(-c5cc(S(=O)(=O)[O-])ccc5F)c5ccc2[nH]5)C=C4)C=C3)cc1)c1ccc(N/C=C\C(=O)c2ccco2)cc1
REMARK SMILES IDX 5 1 4 2 3 3 1 4 2 5 74 7 75 8 89 9 76 10 88 11 77 12 78 13
REMARK SMILES IDX 79 15 80 16 81 17 82 18 83 19 84 20 87 21 85 22 86 23 6 24
REMARK SMILES IDX 7 25 8 26 9 27 10 29 11 30 12 31 73 32 13 33 72 34 14 35
REMARK SMILES IDX 15 36 16 37 66 38 17 39 71 40 65 41 67 42 18 43 70 44 64 45
REMARK SMILES IDX 63 46 19 48 51 49 31 50 50 51 32 52 35 53 49 54 68 55 33 56
REMARK SMILES IDX 34 57 48 59 69 60 36 61 20 62 21 63 29 64 22 65 28 66 30 67
REMARK SMILES IDX 27 68 23 69 24 70 25 71 26 72 52 73 53 74 61 75 54 76 60 77
REMARK SMILES IDX 62 78 59 79 55 80 56 81 57 82 58 83 37 84 38 85 46 86 39 87
REMARK SMILES IDX 45 88 47 89 44 90 40 91 41 92 42 93 43 94
REMARK H PARENT 3 6 78 14 8 28 67 47 35 58
REMARK Flexibility Score: inf
ROOT
ATOM      1  C   UNL A   1      32.885  29.318  24.707  1.00  0.00     0.023 C 
ENDROOT
BRANCH   1   2
ATOM      2  C   UNL A   1      31.386  29.502  24.933  1.00  0.00     0.116 C 
BRANCH   2   3
ATOM      3  N   UNL A   1      30.664  29.768  23.700  1.00  0.00    -0.352 N 
ATOM      4  O   UNL A   1      29.786  29.297  21.671  1.00  0.00    -0.269 OA
ATOM      5  C   UNL A   1      30.259  28.890  22.728  1.00  0.00     0.251 C 
ATOM      6  H   UNL A   1      30.431  30.711  23.540  1.00  0.00     0.163 HD
BRANCH   5   7
ATOM      7  C   UNL A   1      30.427  27.439  22.935  1.00  0.00     0.039 A 
ATOM      8  C   UNL A   1      29.612  26.732  23.823  1.00  0.00     0.016 A 
ATOM      9  C   UNL A   1      31.421  26.778  22.216  1.00  0.00     0.016 A 
ATOM     10  C   UNL A   1      29.850  25.375  24.055  1.00  0.00     0.027 A 
ATOM     11  C   UNL A   1      31.632  25.417  22.434  1.00  0.00     0.027 A 
ATOM     12  C   UNL A   1      30.859  24.698  23.363  1.00  0.00     0.038 A 
BRANCH  12  13
ATOM     13  N   UNL A   1      31.210  23.362  23.611  1.00  0.00    -0.362 N 
ATOM     14  H   UNL A   1      30.630  22.884  24.248  1.00  0.00     0.166 HD
BRANCH  13  15
ATOM     15  C   UNL A   1      32.242  22.628  23.093  1.00  0.00     0.087 C 
ATOM     16  C   UNL A   1      32.753  21.457  23.505  1.00  0.00     0.074 C 
BRANCH  16  17
ATOM     17  C   UNL A   1      32.298  20.619  24.655  1.00  0.00     0.222 C 
ATOM     18  O   UNL A   1      31.480  21.118  25.428  1.00  0.00    -0.286 OA
BRANCH  17  19
ATOM     19  C   UNL A   1      32.837  19.286  24.817  1.00  0.00     0.173 A 
ATOM     20  C   UNL A   1      34.003  18.687  24.367  1.00  0.00     0.054 A 
ATOM     21  O   UNL A   1      32.078  18.356  25.474  1.00  0.00    -0.461 OA
ATOM     22  C   UNL A   1      33.930  17.323  24.738  1.00  0.00     0.043 A 
ATOM     23  C   UNL A   1      32.739  17.173  25.407  1.00  0.00     0.196 A 
ENDBRANCH  17  19
ENDBRANCH  16  17
ENDBRANCH  13  15
ENDBRANCH  12  13
ENDBRANCH   5   7
ENDBRANCH   2   3
ENDBRANCH   1   2
BRANCH   1  24
ATOM     24  C   UNL A   1      33.634  28.592  25.824  1.00  0.00     0.023 C 
BRANCH  24  25
ATOM     25  C   UNL A   1      33.266  29.009  27.244  1.00  0.00     0.116 C 
BRANCH  25  26
ATOM     26  N   UNL A   1      33.360  30.443  27.459  1.00  0.00    -0.352 N 
ATOM     27  C   UNL A   1      34.377  31.170  28.034  1.00  0.00     0.251 C 
ATOM     28  H   UNL A   1      32.587  30.970  27.150  1.00  0.00     0.163 HD
ATOM     29  O   UNL A   1      34.222  32.370  28.240  1.00  0.00    -0.269 OA
BRANCH  27  30
ATOM     30  C   UNL A   1      35.632  30.496  28.438  1.00  0.00     0.039 A 
ATOM     31  C   UNL A   1      36.753  30.610  27.612  1.00  0.00     0.014 A 
ATOM     32  C   UNL A   1      35.709  29.767  29.627  1.00  0.00     0.014 A 
ATOM     33  C   UNL A   1      37.970  30.050  28.012  1.00  0.00     0.010 A 
ATOM     34  C   UNL A   1      36.938  29.269  30.056  1.00  0.00     0.010 A 
ATOM     35  C   UNL A   1      38.081  29.404  29.254  1.00  0.00    -0.014 A 
BRANCH  35  36
ATOM     36  C   UNL A   1      39.377  28.845  29.725  1.00  0.00     0.031 A 
ATOM     37  C   UNL A   1      40.125  29.530  30.838  1.00  0.00     0.074 A 
ATOM     38  C   UNL A   1      39.909  27.767  29.115  1.00  0.00     0.049 A 
ATOM     39  N   UNL A   1      41.318  29.277  31.314  1.00  0.00    -0.248 NA
ATOM     40  C   UNL A   1      39.451  30.670  31.477  1.00  0.00     0.031 C 
ATOM     41  C   UNL A   1      39.297  27.034  28.005  1.00  0.00     0.029 A 
ATOM     42  N   UNL A   1      41.093  27.106  29.332  1.00  0.00    -0.354 N 
ATOM     43  C   UNL A   1      41.544  30.235  32.297  1.00  0.00     0.074 A 
ATOM     44  C   UNL A   1      40.388  31.106  32.307  1.00  0.00     0.031 C 
ATOM     45  C   UNL A   1      40.102  26.020  27.648  1.00  0.00     0.029 A 
ATOM     46  C   UNL A   1      41.306  26.054  28.471  1.00  0.00     0.049 A 
ATOM     47  H   UNL A   1      41.730  27.363  30.037  1.00  0.00     0.167 HD
ATOM     48  C   UNL A   1      42.606  30.363  33.130  1.00  0.00     0.034 A 
ATOM     49  C   UNL A   1      42.360  25.220  28.350  1.00  0.00     0.034 A 
ATOM     50  C   UNL A   1      43.744  29.477  33.124  1.00  0.00     0.049 A 
ATOM     51  C   UNL A   1      43.533  25.387  29.286  1.00  0.00     0.074 A 
ATOM     52  C   UNL A   1      44.863  29.502  33.939  1.00  0.00     0.029 A 
ATOM     53  N   UNL A   1      43.907  28.401  32.262  1.00  0.00    -0.354 N 
ATOM     54  N   UNL A   1      43.718  26.284  30.227  1.00  0.00    -0.248 NA
ATOM     55  C   UNL A   1      44.629  24.418  29.155  1.00  0.00     0.031 C 
ATOM     56  C   UNL A   1      45.721  28.471  33.541  1.00  0.00     0.029 A 
ATOM     57  C   UNL A   1      45.110  27.762  32.520  1.00  0.00     0.049 A 
ATOM     58  H   UNL A   1      43.262  28.130  31.568  1.00  0.00     0.167 HD
ATOM     59  C   UNL A   1      44.935  25.961  30.822  1.00  0.00     0.074 A 
ATOM     60  C   UNL A   1      45.431  24.783  30.145  1.00  0.00     0.031 C 
ATOM     61  C   UNL A   1      45.584  26.581  31.840  1.00  0.00     0.034 A 
BRANCH  48  62
ATOM     62  C   UNL A   1      42.587  31.515  34.103  1.00  0.00     0.023 A 
ATOM     63  C   UNL A   1      41.769  31.496  35.248  1.00  0.00     0.031 A 
ATOM     64  C   UNL A   1      43.378  32.655  33.879  1.00  0.00     0.131 A 
ATOM     65  C   UNL A   1      41.710  32.620  36.084  1.00  0.00     0.055 A 
ATOM     66  C   UNL A   1      43.373  33.740  34.757  1.00  0.00     0.041 A 
ATOM     67  F   UNL A   1      44.163  32.738  32.793  1.00  0.00    -0.206 F 
ATOM     68  C   UNL A   1      42.524  33.732  35.862  1.00  0.00     0.022 A 
BRANCH  65  69
ATOM     69  S   UNL A   1      40.458  32.656  37.396  1.00  0.00     0.124 S 
ATOM     70  O   UNL A   1      41.269  32.392  38.582  1.00  0.00    -0.237 OA
ATOM     71  O   UNL A   1      39.918  34.006  37.281  1.00  0.00    -0.237 OA
ATOM     72  O   UNL A   1      39.539  31.582  37.023  1.00  0.00    -0.744 OA
ENDBRANCH  65  69
ENDBRANCH  48  62
BRANCH  49  73
ATOM     73  C   UNL A   1      42.377  24.159  27.301  1.00  0.00     0.023 A 
ATOM     74  C   UNL A   1      41.776  22.911  27.527  1.00  0.00     0.031 A 
ATOM     75  C   UNL A   1      43.055  24.354  26.085  1.00  0.00     0.131 A 
ATOM     76  C   UNL A   1      41.916  21.884  26.581  1.00  0.00     0.055 A 
ATOM     77  C   UNL A   1      43.144  23.347  25.122  1.00  0.00     0.041 A 
ATOM     78  F   UNL A   1      43.642  25.530  25.814  1.00  0.00    -0.206 F 
ATOM     79  C   UNL A   1      42.588  22.097  25.375  1.00  0.00     0.022 A 
BRANCH  76  80
ATOM     80  S   UNL A   1      41.303  20.229  27.000  1.00  0.00     0.124 S 
ATOM     81  O   UNL A   1      40.236  20.051  26.022  1.00  0.00    -0.237 OA
ATOM     82  O   UNL A   1      42.494  19.409  26.805  1.00  0.00    -0.237 OA
ATOM     83  O   UNL A   1      40.864  20.371  28.386  1.00  0.00    -0.744 OA
ENDBRANCH  76  80
ENDBRANCH  49  73
BRANCH  61  84
ATOM     84  C   UNL A   1      46.865  25.949  32.321  1.00  0.00     0.023 A 
ATOM     85  C   UNL A   1      48.087  26.148  31.656  1.00  0.00     0.031 A 
ATOM     86  C   UNL A   1      46.856  25.123  33.459  1.00  0.00     0.131 A 
ATOM     87  C   UNL A   1      49.240  25.486  32.102  1.00  0.00     0.055 A 
ATOM     88  C   UNL A   1      48.017  24.509  33.930  1.00  0.00     0.041 A 
ATOM     89  F   UNL A   1      45.715  24.900  34.132  1.00  0.00    -0.206 F 
ATOM     90  C   UNL A   1      49.215  24.679  33.243  1.00  0.00     0.022 A 
BRANCH  87  91
ATOM     91  S   UNL A   1      50.760  25.627  31.122  1.00  0.00     0.124 S 
ATOM     92  O   UNL A   1      51.702  24.834  31.907  1.00  0.00    -0.237 OA
ATOM     93  O   UNL A   1      50.360  25.055  29.841  1.00  0.00    -0.237 OA
ATOM     94  O   UNL A   1      51.024  27.064  31.103  1.00  0.00    -0.744 OA
ENDBRANCH  87  91
ENDBRANCH  61  84
ENDBRANCH  35  36
ENDBRANCH  27  30
ENDBRANCH  25  26
ENDBRANCH  24  25
ENDBRANCH   1  24
TORSDOF 18
ENDMDL
MODEL 2
REMARK VINA RESULT:     -11.8      3.488      8.623
REMARK SMILES O=C(NCCCCNC(=O)c1ccc(-c2c3nc(c(-c4cc(S(=O)(=O)[O-])ccc4F)c4ccc([nH]4)c(-c4cc(S(=O)(=O)[O-])ccc4F)c4nc(c(-c5cc(S(=O)(=O)[O-])ccc5F)c5ccc2[nH]5)C=C4)C=C3)cc1)c1ccc(N/C=C\C(=O)c2ccco2)cc1
REMARK SMILES IDX 5 1 4 2 3 3 1 4 2 5 74 7 75 8 89 9 76 10 88 11 77 12 78 13
REMARK SMILES IDX 79 15 80 16 81 17 82 18 83 19 84 20 87 21 85 22 86 23 6 24
REMARK SMILES IDX 7 25 8 26 9 27 10 29 11 30 12 31 73 32 13 33 72 34 14 35
REMARK SMILES IDX 15 36 16 37 66 38 17 39 71 40 65 41 67 42 18 43 70 44 64 45
REMARK SMILES IDX 63 46 19 48 51 49 31 50 50 51 32 52 35 53 49 54 68 55 33 56
REMARK SMILES IDX 34 57 48 59 69 60 36 61 20 62 21 63 29 64 22 65 28 66 30 67
REMARK SMILES IDX 27 68 23 69 24 70 25 71 26 72 52 73 53 74 61 75 54 76 60 77
REMARK SMILES IDX 62 78 59 79 55 80 56 81 57 82 58 83 37 84 38 85 46 86 39 87
REMARK SMILES IDX 45 88 47 89 44 90 40 91 41 92 42 93 43 94
REMARK H PARENT 3 6 78 14 8 28 67 47 35 58
REMARK Flexibility Score: inf
ROOT
ATOM      1  C   UNL A   1      31.861  29.901  26.382  1.00  0.00     0.023 C 
ENDROOT
BRANCH   1   2
ATOM      2  C   UNL A   1      32.380  29.331  25.064  1.00  0.00     0.116 C 
BRANCH   2   3
ATOM      3  N   UNL A   1      31.571  29.734  23.925  1.00  0.00    -0.352 N 
ATOM      4  O   UNL A   1      30.358  29.444  22.040  1.00  0.00    -0.269 OA
ATOM      5  C   UNL A   1      30.873  28.953  23.041  1.00  0.00     0.251 C 
ATOM      6  H   UNL A   1      31.517  30.703  23.767  1.00  0.00     0.163 HD
BRANCH   5   7
ATOM      7  C   UNL A   1      30.768  27.499  23.271  1.00  0.00     0.039 A 
ATOM      8  C   UNL A   1      29.838  26.971  24.170  1.00  0.00     0.016 A 
ATOM      9  C   UNL A   1      31.618  26.653  22.562  1.00  0.00     0.016 A 
ATOM     10  C   UNL A   1      29.818  25.597  24.424  1.00  0.00     0.027 A 
ATOM     11  C   UNL A   1      31.572  25.280  22.801  1.00  0.00     0.027 A 
ATOM     12  C   UNL A   1      30.681  24.733  23.743  1.00  0.00     0.038 A 
BRANCH  12  13
ATOM     13  N   UNL A   1      30.777  23.359  24.012  1.00  0.00    -0.362 N 
ATOM     14  H   UNL A   1      30.331  22.769  23.362  1.00  0.00     0.166 HD
BRANCH  13  15
ATOM     15  C   UNL A   1      31.404  22.722  25.048  1.00  0.00     0.087 C 
ATOM     16  C   UNL A   1      32.053  21.548  25.066  1.00  0.00     0.074 C 
BRANCH  16  17
ATOM     17  C   UNL A   1      32.285  20.617  23.920  1.00  0.00     0.222 C 
ATOM     18  O   UNL A   1      32.210  21.090  22.786  1.00  0.00    -0.286 OA
BRANCH  17  19
ATOM     19  C   UNL A   1      32.569  19.224  24.185  1.00  0.00     0.173 A 
ATOM     20  C   UNL A   1      33.067  18.203  23.393  1.00  0.00     0.054 A 
ATOM     21  O   UNL A   1      32.250  18.723  25.419  1.00  0.00    -0.461 OA
ATOM     22  C   UNL A   1      33.014  17.020  24.170  1.00  0.00     0.043 A 
ATOM     23  C   UNL A   1      32.509  17.390  25.393  1.00  0.00     0.196 A 
ENDBRANCH  17  19
ENDBRANCH  16  17
ENDBRANCH  13  15
ENDBRANCH  12  13
ENDBRANCH   5   7
ENDBRANCH   2   3
ENDBRANCH   1   2
BRANCH   1  24
ATOM     24  C   UNL A   1      31.748  31.424  26.441  1.00  0.00     0.023 C 
BRANCH  24  25
ATOM     25  C   UNL A   1      32.847  32.137  27.221  1.00  0.00     0.116 C 
BRANCH  25  26
ATOM     26  N   UNL A   1      32.530  33.526  27.512  1.00  0.00    -0.352 N 
ATOM     27  C   UNL A   1      33.116  34.377  28.420  1.00  0.00     0.251 C 
ATOM     28  H   UNL A   1      31.792  33.911  26.986  1.00  0.00     0.163 HD
ATOM     29  O   UNL A   1      32.629  35.487  28.611  1.00  0.00    -0.269 OA
BRANCH  27  30
ATOM     30  C   UNL A   1      34.302  33.937  29.189  1.00  0.00     0.039 A 
ATOM     31  C   UNL A   1      34.116  33.117  30.305  1.00  0.00     0.014 A 
ATOM     32  C   UNL A   1      35.592  34.319  28.810  1.00  0.00     0.014 A 
ATOM     33  C   UNL A   1      35.225  32.623  30.998  1.00  0.00     0.010 A 
ATOM     34  C   UNL A   1      36.696  33.772  29.459  1.00  0.00     0.010 A 
ATOM     35  C   UNL A   1      36.526  32.919  30.560  1.00  0.00    -0.014 A 
BRANCH  35  36
ATOM     36  C   UNL A   1      37.722  32.366  31.250  1.00  0.00     0.031 A 
ATOM     37  C   UNL A   1      38.468  31.211  30.638  1.00  0.00     0.074 A 
ATOM     38  C   UNL A   1      38.098  32.856  32.448  1.00  0.00     0.049 A 
ATOM     39  N   UNL A   1      39.457  30.508  31.130  1.00  0.00    -0.248 NA
ATOM     40  C   UNL A   1      38.020  30.769  29.308  1.00  0.00     0.031 C 
ATOM     41  C   UNL A   1      37.437  33.952  33.160  1.00  0.00     0.029 A 
ATOM     42  N   UNL A   1      39.119  32.486  33.289  1.00  0.00    -0.354 N 
ATOM     43  C   UNL A   1      39.739  29.532  30.178  1.00  0.00     0.074 A 
ATOM     44  C   UNL A   1      38.778  29.701  29.109  1.00  0.00     0.031 C 
ATOM     45  C   UNL A   1      38.076  34.173  34.321  1.00  0.00     0.029 A 
ATOM     46  C   UNL A   1      39.163  33.210  34.459  1.00  0.00     0.049 A 
ATOM     47  H   UNL A   1      39.758  31.768  33.075  1.00  0.00     0.167 HD
ATOM     48  C   UNL A   1      40.721  28.598  30.185  1.00  0.00     0.034 A 
ATOM     49  C   UNL A   1      39.980  33.100  35.527  1.00  0.00     0.034 A 
ATOM     50  C   UNL A   1      41.684  28.451  31.248  1.00  0.00     0.049 A 
ATOM     51  C   UNL A   1      41.062  32.048  35.512  1.00  0.00     0.074 A 
ATOM     52  C   UNL A   1      42.735  27.554  31.345  1.00  0.00     0.029 A 
ATOM     53  N   UNL A   1      41.720  29.227  32.399  1.00  0.00    -0.354 N 
ATOM     54  N   UNL A   1      41.329  31.150  34.591  1.00  0.00    -0.248 NA
ATOM     55  C   UNL A   1      41.964  32.006  36.671  1.00  0.00     0.031 C 
ATOM     56  C   UNL A   1      43.376  27.757  32.572  1.00  0.00     0.029 A 
ATOM     57  C   UNL A   1      42.767  28.823  33.213  1.00  0.00     0.049 A 
ATOM     58  H   UNL A   1      41.093  29.958  32.607  1.00  0.00     0.167 HD
ATOM     59  C   UNL A   1      42.452  30.464  35.047  1.00  0.00     0.074 A 
ATOM     60  C   UNL A   1      42.818  31.060  36.314  1.00  0.00     0.031 C 
ATOM     61  C   UNL A   1      43.123  29.436  34.470  1.00  0.00     0.034 A 
BRANCH  48  62
ATOM     62  C   UNL A   1      40.785  27.654  29.011  1.00  0.00     0.023 A 
ATOM     63  C   UNL A   1      41.719  27.832  27.975  1.00  0.00     0.031 A 
ATOM     64  C   UNL A   1      39.891  26.573  28.912  1.00  0.00     0.131 A 
ATOM     65  C   UNL A   1      41.693  26.989  26.855  1.00  0.00     0.055 A 
ATOM     66  C   UNL A   1      39.922  25.689  27.831  1.00  0.00     0.041 A 
ATOM     67  F   UNL A   1      38.965  26.364  29.860  1.00  0.00    -0.206 F 
ATOM     68  C   UNL A   1      40.818  25.902  26.787  1.00  0.00     0.022 A 
BRANCH  65  69
ATOM     69  S   UNL A   1      42.736  27.407  25.431  1.00  0.00     0.124 S 
ATOM     70  O   UNL A   1      44.003  27.731  26.082  1.00  0.00    -0.237 OA
ATOM     71  O   UNL A   1      42.715  26.176  24.651  1.00  0.00    -0.237 OA
ATOM     72  O   UNL A   1      42.045  28.544  24.824  1.00  0.00    -0.744 OA
ENDBRANCH  65  69
ENDBRANCH  48  62
BRANCH  49  73
ATOM     73  C   UNL A   1      39.811  33.991  36.712  1.00  0.00     0.023 A 
ATOM     74  C   UNL A   1      39.277  33.500  37.914  1.00  0.00     0.031 A 
ATOM     75  C   UNL A   1      40.115  35.361  36.637  1.00  0.00     0.131 A 
ATOM     76  C   UNL A   1      39.005  34.381  38.971  1.00  0.00     0.055 A 
ATOM     77  C   UNL A   1      39.895  36.224  37.712  1.00  0.00     0.041 A 
ATOM     78  F   UNL A   1      40.634  35.883  35.514  1.00  0.00    -0.206 F 
ATOM     79  C   UNL A   1      39.320  35.739  38.882  1.00  0.00     0.022 A 
BRANCH  76  80
ATOM     80  S   UNL A   1      38.128  33.746  40.427  1.00  0.00     0.124 S 
ATOM     81  O   UNL A   1      36.976  33.091  39.817  1.00  0.00    -0.237 OA
ATOM     82  O   UNL A   1      39.128  32.863  41.019  1.00  0.00    -0.237 OA
ATOM     83  O   UNL A   1      37.828  34.951  41.195  1.00  0.00    -0.744 OA
ENDBRANCH  76  80
ENDBRANCH  49  73
BRANCH  61  84
ATOM     84  C   UNL A   1      44.361  28.943  35.176  1.00  0.00     0.023 A 
ATOM     85  C   UNL A   1      44.307  27.925  36.143  1.00  0.00     0.031 A 
ATOM     86  C   UNL A   1      45.611  29.514  34.882  1.00  0.00     0.131 A 
ATOM     87  C   UNL A   1      45.475  27.546  36.821  1.00  0.00     0.055 A 
ATOM     88  C   UNL A   1      46.779  29.096  35.521  1.00  0.00     0.041 A 
ATOM     89  F   UNL A   1      45.718  30.491  33.965  1.00  0.00    -0.206 F 
ATOM     90  C   UNL A   1      46.712  28.115  36.506  1.00  0.00     0.022 A 
BRANCH  87  91
ATOM     91  S   UNL A   1      45.344  26.353  38.182  1.00  0.00     0.124 S 
ATOM     92  O   UNL A   1      46.665  26.446  38.796  1.00  0.00    -0.237 OA
ATOM     93  O   UNL A   1      44.238  26.893  38.965  1.00  0.00    -0.237 OA
ATOM     94  O   UNL A   1      45.064  25.089  37.505  1.00  0.00    -0.744 OA
ENDBRANCH  87  91
ENDBRANCH  61  84
ENDBRANCH  35  36
ENDBRANCH  27  30
ENDBRANCH  25  26
ENDBRANCH  24  25
ENDBRANCH   1  24
TORSDOF 18
ENDMDL
MODEL 3
REMARK VINA RESULT:     -11.7      4.565      8.694
REMARK SMILES O=C(NCCCCNC(=O)c1ccc(-c2c3nc(c(-c4cc(S(=O)(=O)[O-])ccc4F)c4ccc([nH]4)c(-c4cc(S(=O)(=O)[O-])ccc4F)c4nc(c(-c5cc(S(=O)(=O)[O-])ccc5F)c5ccc2[nH]5)C=C4)C=C3)cc1)c1ccc(N/C=C\C(=O)c2ccco2)cc1
REMARK SMILES IDX 5 1 4 2 3 3 1 4 2 5 74 7 75 8 89 9 76 10 88 11 77 12 78 13
REMARK SMILES IDX 79 15 80 16 81 17 82 18 83 19 84 20 87 21 85 22 86 23 6 24
REMARK SMILES IDX 7 25 8 26 9 27 10 29 11 30 12 31 73 32 13 33 72 34 14 35
REMARK SMILES IDX 15 36 16 37 66 38 17 39 71 40 65 41 67 42 18 43 70 44 64 45
REMARK SMILES IDX 63 46 19 48 51 49 31 50 50 51 32 52 35 53 49 54 68 55 33 56
REMARK SMILES IDX 34 57 48 59 69 60 36 61 20 62 21 63 29 64 22 65 28 66 30 67
REMARK SMILES IDX 27 68 23 69 24 70 25 71 26 72 52 73 53 74 61 75 54 76 60 77
REMARK SMILES IDX 62 78 59 79 55 80 56 81 57 82 58 83 37 84 38 85 46 86 39 87
REMARK SMILES IDX 45 88 47 89 44 90 40 91 41 92 42 93 43 94
REMARK H PARENT 3 6 78 14 8 28 67 47 35 58
REMARK Flexibility Score: inf
ROOT
ATOM      1  C   UNL A   1      36.865  21.360  24.670  1.00  0.00     0.023 C 
ENDROOT
BRANCH   1   2
ATOM      2  C   UNL A   1      35.518  21.326  25.387  1.00  0.00     0.116 C 
BRANCH   2   3
ATOM      3  N   UNL A   1      34.796  20.084  25.161  1.00  0.00    -0.352 N 
ATOM      4  O   UNL A   1      32.990  18.773  24.802  1.00  0.00    -0.269 OA
ATOM      5  C   UNL A   1      33.485  19.897  24.808  1.00  0.00     0.251 C 
ATOM      6  H   UNL A   1      35.324  19.261  25.277  1.00  0.00     0.163 HD
BRANCH   5   7
ATOM      7  C   UNL A   1      32.644  21.060  24.469  1.00  0.00     0.039 A 
ATOM      8  C   UNL A   1      32.549  21.530  23.156  1.00  0.00     0.016 A 
ATOM      9  C   UNL A   1      31.933  21.686  25.492  1.00  0.00     0.016 A 
ATOM     10  C   UNL A   1      31.807  22.682  22.882  1.00  0.00     0.027 A 
ATOM     11  C   UNL A   1      31.173  22.818  25.203  1.00  0.00     0.027 A 
ATOM     12  C   UNL A   1      31.108  23.340  23.898  1.00  0.00     0.038 A 
BRANCH  12  13
ATOM     13  N   UNL A   1      30.418  24.548  23.711  1.00  0.00    -0.362 N 
ATOM     14  H   UNL A   1      29.868  24.599  22.896  1.00  0.00     0.166 HD
BRANCH  13  15
ATOM     15  C   UNL A   1      30.401  25.665  24.501  1.00  0.00     0.087 C 
ATOM     16  C   UNL A   1      30.354  26.961  24.153  1.00  0.00     0.074 C 
BRANCH  16  17
ATOM     17  C   UNL A   1      30.281  27.531  22.773  1.00  0.00     0.222 C 
ATOM     18  O   UNL A   1      30.990  27.012  21.911  1.00  0.00    -0.286 OA
BRANCH  17  19
ATOM     19  C   UNL A   1      29.409  28.656  22.518  1.00  0.00     0.173 A 
ATOM     20  C   UNL A   1      28.149  28.989  22.986  1.00  0.00     0.054 A 
ATOM     21  O   UNL A   1      29.804  29.584  21.592  1.00  0.00    -0.461 OA
ATOM     22  C   UNL A   1      27.747  30.152  22.287  1.00  0.00     0.043 A 
ATOM     23  C   UNL A   1      28.788  30.474  21.451  1.00  0.00     0.196 A 
ENDBRANCH  17  19
ENDBRANCH  16  17
ENDBRANCH  13  15
ENDBRANCH  12  13
ENDBRANCH   5   7
ENDBRANCH   2   3
ENDBRANCH   1   2
BRANCH   1  24
ATOM     24  C   UNL A   1      37.819  20.215  25.009  1.00  0.00     0.023 C 
BRANCH  24  25
ATOM     25  C   UNL A   1      39.078  20.611  25.773  1.00  0.00     0.116 C 
BRANCH  25  26
ATOM     26  N   UNL A   1      40.040  19.527  25.888  1.00  0.00    -0.352 N 
ATOM     27  C   UNL A   1      41.392  19.589  26.133  1.00  0.00     0.251 C 
ATOM     28  H   UNL A   1      39.672  18.620  25.774  1.00  0.00     0.163 HD
ATOM     29  O   UNL A   1      42.066  18.565  26.074  1.00  0.00    -0.269 OA
BRANCH  27  30
ATOM     30  C   UNL A   1      42.033  20.892  26.424  1.00  0.00     0.039 A 
ATOM     31  C   UNL A   1      42.336  21.746  25.361  1.00  0.00     0.014 A 
ATOM     32  C   UNL A   1      42.323  21.276  27.736  1.00  0.00     0.014 A 
ATOM     33  C   UNL A   1      42.866  23.014  25.617  1.00  0.00     0.010 A 
ATOM     34  C   UNL A   1      42.787  22.564  27.994  1.00  0.00     0.010 A 
ATOM     35  C   UNL A   1      43.065  23.447  26.938  1.00  0.00    -0.014 A 
BRANCH  35  36
ATOM     36  C   UNL A   1      43.581  24.809  27.240  1.00  0.00     0.031 A 
ATOM     37  C   UNL A   1      42.645  25.858  27.779  1.00  0.00     0.074 A 
ATOM     38  C   UNL A   1      44.864  25.121  26.970  1.00  0.00     0.049 A 
ATOM     39  N   UNL A   1      42.863  27.131  27.995  1.00  0.00    -0.248 NA
ATOM     40  C   UNL A   1      41.275  25.421  28.088  1.00  0.00     0.031 C 
ATOM     41  C   UNL A   1      45.860  24.201  26.416  1.00  0.00     0.029 A 
ATOM     42  N   UNL A   1      45.550  26.302  27.112  1.00  0.00    -0.354 N 
ATOM     43  C   UNL A   1      41.654  27.650  28.449  1.00  0.00     0.074 A 
ATOM     44  C   UNL A   1      40.696  26.565  28.422  1.00  0.00     0.031 C 
ATOM     45  C   UNL A   1      47.029  24.848  26.278  1.00  0.00     0.029 A 
ATOM     46  C   UNL A   1      46.859  26.237  26.691  1.00  0.00     0.049 A 
ATOM     47  H   UNL A   1      45.143  27.119  27.480  1.00  0.00     0.167 HD
ATOM     48  C   UNL A   1      41.375  28.908  28.871  1.00  0.00     0.034 A 
ATOM     49  C   UNL A   1      47.808  27.193  26.631  1.00  0.00     0.034 A 
ATOM     50  C   UNL A   1      42.343  29.976  28.912  1.00  0.00     0.049 A 
ATOM     51  C   UNL A   1      47.471  28.587  27.102  1.00  0.00     0.074 A 
ATOM     52  C   UNL A   1      42.172  31.281  29.343  1.00  0.00     0.029 A 
ATOM     53  N   UNL A   1      43.667  29.862  28.511  1.00  0.00    -0.354 N 
ATOM     54  N   UNL A   1      46.328  29.053  27.551  1.00  0.00    -0.248 NA
ATOM     55  C   UNL A   1      48.555  29.578  27.073  1.00  0.00     0.031 C 
ATOM     56  C   UNL A   1      43.378  31.966  29.161  1.00  0.00     0.029 A 
ATOM     57  C   UNL A   1      44.320  31.074  28.677  1.00  0.00     0.049 A 
ATOM     58  H   UNL A   1      44.082  29.040  28.161  1.00  0.00     0.167 HD
ATOM     59  C   UNL A   1      46.570  30.381  27.894  1.00  0.00     0.074 A 
ATOM     60  C   UNL A   1      47.966  30.636  27.611  1.00  0.00     0.031 C 
ATOM     61  C   UNL A   1      45.717  31.306  28.398  1.00  0.00     0.034 A 
BRANCH  48  62
ATOM     62  C   UNL A   1      39.959  29.193  29.305  1.00  0.00     0.023 A 
ATOM     63  C   UNL A   1      39.606  29.255  30.665  1.00  0.00     0.031 A 
ATOM     64  C   UNL A   1      38.943  29.386  28.352  1.00  0.00     0.131 A 
ATOM     65  C   UNL A   1      38.265  29.434  31.033  1.00  0.00     0.055 A 
ATOM     66  C   UNL A   1      37.622  29.642  28.726  1.00  0.00     0.041 A 
ATOM     67  F   UNL A   1      39.216  29.319  27.040  1.00  0.00    -0.206 F 
ATOM     68  C   UNL A   1      37.273  29.654  30.074  1.00  0.00     0.022 A 
BRANCH  65  69
ATOM     69  S   UNL A   1      37.815  29.251  32.781  1.00  0.00     0.124 S 
ATOM     70  O   UNL A   1      36.584  30.035  32.850  1.00  0.00    -0.237 OA
ATOM     71  O   UNL A   1      37.660  27.808  32.918  1.00  0.00    -0.237 OA
ATOM     72  O   UNL A   1      38.955  29.827  33.490  1.00  0.00    -0.744 OA
ENDBRANCH  65  69
ENDBRANCH  48  62
BRANCH  49  73
ATOM     73  C   UNL A   1      49.167  26.886  26.096  1.00  0.00     0.023 A 
ATOM     74  C   UNL A   1      49.560  27.334  24.824  1.00  0.00     0.031 A 
ATOM     75  C   UNL A   1      50.067  26.084  26.819  1.00  0.00     0.131 A 
ATOM     76  C   UNL A   1      50.790  26.925  24.287  1.00  0.00     0.055 A 
ATOM     77  C   UNL A   1      51.313  25.727  26.303  1.00  0.00     0.041 A 
ATOM     78  F   UNL A   1      49.745  25.635  28.042  1.00  0.00    -0.206 F 
ATOM     79  C   UNL A   1      51.674  26.133  25.022  1.00  0.00     0.022 A 
BRANCH  76  80
ATOM     80  S   UNL A   1      51.170  27.353  22.565  1.00  0.00     0.124 S 
ATOM     81  O   UNL A   1      51.149  28.811  22.610  1.00  0.00    -0.237 OA
ATOM     82  O   UNL A   1      52.480  26.736  22.384  1.00  0.00    -0.237 OA
ATOM     83  O   UNL A   1      50.080  26.736  21.814  1.00  0.00    -0.744 OA
ENDBRANCH  76  80
ENDBRANCH  49  73
BRANCH  61  84
ATOM     84  C   UNL A   1      46.295  32.657  28.740  1.00  0.00     0.023 A 
ATOM     85  C   UNL A   1      46.803  32.945  30.018  1.00  0.00     0.031 A 
ATOM     86  C   UNL A   1      46.323  33.673  27.769  1.00  0.00     0.131 A 
ATOM     87  C   UNL A   1      47.269  34.236  30.308  1.00  0.00     0.055 A 
ATOM     88  C   UNL A   1      46.838  34.940  28.047  1.00  0.00     0.041 A 
ATOM     89  F   UNL A   1      45.851  33.450  26.532  1.00  0.00    -0.206 F 
ATOM     90  C   UNL A   1      47.303  35.231  29.326  1.00  0.00     0.022 A 
BRANCH  87  91
ATOM     91  S   UNL A   1      47.757  34.624  32.011  1.00  0.00     0.124 S 
ATOM     92  O   UNL A   1      48.189  36.014  31.895  1.00  0.00    -0.237 OA
ATOM     93  O   UNL A   1      46.518  34.402  32.749  1.00  0.00    -0.237 OA
ATOM     94  O   UNL A   1      48.823  33.665  32.289  1.00  0.00    -0.744 OA
ENDBRANCH  87  91
ENDBRANCH  61  84
ENDBRANCH  35  36
ENDBRANCH  27  30
ENDBRANCH  25  26
ENDBRANCH  24  25
ENDBRANCH   1  24
TORSDOF 18
ENDMDL
