MODEL 1
REMARK VINA RESULT:     -13.0      0.000      0.000
REMARK SMILES Cc1ccc(C(=O)Nc2cccc(F)c2C(=O)NCCCCNC(=O)c2ccc(-c3c4nc(c(-c5cc(S(=O)(=O)[O-])ccc5F)c5ccc([nH]5)c(-c5cc(S(=O)(=O)[O-])ccc5F)c5nc(c(-c6cc(S(=O)(=O)[O-])ccc6F)c6ccc3[nH]6)C=C5)C=C4)cc2)c(F)c1
REMARK SMILES IDX 21 1 20 2 19 3 18 4 16 5 17 6 15 8 9 9 10 10 11 11 13 12
REMARK SMILES IDX 12 13 14 14 8 15 6 16 7 17 5 19 1 20 2 21 3 22 91 23 4 24
REMARK SMILES IDX 89 25 90 26 22 27 23 28 24 29 25 31 26 32 27 33 88 34 28 35
REMARK SMILES IDX 87 36 29 37 30 38 31 39 81 40 32 41 86 42 80 43 82 44 33 45
REMARK SMILES IDX 85 46 79 47 78 48 34 50 66 51 46 52 65 53 47 54 50 55 64 56
REMARK SMILES IDX 83 57 48 58 49 59 63 61 84 62 51 63 35 64 36 65 44 66 37 67
REMARK SMILES IDX 43 68 45 69 42 70 38 71 39 72 40 73 41 74 67 75 68 76 76 77
REMARK SMILES IDX 69 78 75 79 77 80 74 81 70 82 71 83 72 84 73 85 52 86 53 87
REMARK SMILES IDX 61 88 54 89 60 90 62 91 59 92 55 93 56 94 57 95 58 96
REMARK H PARENT 18 7 8 18 23 30 82 49 50 60
REMARK Flexibility Score: inf
ROOT
ATOM      1  C   UNL A   1      35.231  21.291  24.836  1.00  0.00     0.023 C 
ENDROOT
BRANCH   1   2
ATOM      2  C   UNL A   1      34.181  20.965  25.891  1.00  0.00     0.023 C 
BRANCH   2   3
ATOM      3  C   UNL A   1      32.782  20.628  25.394  1.00  0.00     0.116 C 
BRANCH   3   4
ATOM      4  N   UNL A   1      31.734  21.503  25.889  1.00  0.00    -0.352 N 
ATOM      5  C   UNL A   1      31.372  22.787  25.551  1.00  0.00     0.256 C 
ATOM      6  O   UNL A   1      30.401  23.264  26.141  1.00  0.00    -0.269 OA
ATOM      7  H   UNL A   1      31.180  21.104  26.598  1.00  0.00     0.163 HD
BRANCH   5   8
ATOM      8  C   UNL A   1      32.140  23.646  24.602  1.00  0.00     0.099 A 
ATOM      9  C   UNL A   1      32.735  24.849  25.047  1.00  0.00     0.057 A 
ATOM     10  C   UNL A   1      33.634  25.545  24.220  1.00  0.00     0.027 A 
ATOM     11  C   UNL A   1      33.824  25.152  22.899  1.00  0.00     0.005 A 
ATOM     12  C   UNL A   1      32.210  23.391  23.233  1.00  0.00     0.138 A 
ATOM     13  C   UNL A   1      33.061  24.111  22.390  1.00  0.00     0.040 A 
ATOM     14  F   UNL A   1      31.388  22.510  22.645  1.00  0.00    -0.206 F 
BRANCH   9  15
ATOM     15  N   UNL A   1      32.333  25.437  26.267  1.00  0.00    -0.321 N 
ATOM     16  C   UNL A   1      31.678  26.645  26.467  1.00  0.00     0.258 C 
ATOM     17  O   UNL A   1      31.534  27.078  27.608  1.00  0.00    -0.269 OA
ATOM     18  H   UNL A   1      32.545  24.925  27.081  1.00  0.00     0.170 HD
BRANCH  16  19
ATOM     19  C   UNL A   1      31.022  27.363  25.333  1.00  0.00     0.075 A 
ATOM     20  C   UNL A   1      29.245  29.440  21.980  1.00  0.00     0.044 C 
ATOM     21  C   UNL A   1      29.851  28.728  23.152  1.00  0.00    -0.048 A 
ATOM     22  C   UNL A   1      29.414  27.449  23.501  1.00  0.00     0.004 A 
ATOM     23  C   UNL A   1      30.815  29.352  23.952  1.00  0.00     0.043 A 
ATOM     24  C   UNL A   1      29.967  26.790  24.604  1.00  0.00     0.017 A 
ATOM     25  C   UNL A   1      31.401  28.667  25.023  1.00  0.00     0.136 A 
ATOM     26  F   UNL A   1      32.352  29.304  25.724  1.00  0.00    -0.206 F 
ENDBRANCH  16  19
ENDBRANCH   9  15
ENDBRANCH   5   8
ENDBRANCH   3   4
ENDBRANCH   2   3
ENDBRANCH   1   2
BRANCH   1  27
ATOM     27  C   UNL A   1      36.572  21.801  25.348  1.00  0.00     0.116 C 
BRANCH  27  28
ATOM     28  N   UNL A   1      37.607  20.779  25.411  1.00  0.00    -0.352 N 
ATOM     29  C   UNL A   1      38.911  20.868  25.850  1.00  0.00     0.251 C 
ATOM     30  H   UNL A   1      37.334  19.889  25.091  1.00  0.00     0.163 HD
ATOM     31  O   UNL A   1      39.652  19.898  25.749  1.00  0.00    -0.269 OA
BRANCH  29  32
ATOM     32  C   UNL A   1      39.422  22.145  26.393  1.00  0.00     0.039 A 
ATOM     33  C   UNL A   1      40.463  22.112  27.325  1.00  0.00     0.014 A 
ATOM     34  C   UNL A   1      38.909  23.369  25.958  1.00  0.00     0.014 A 
ATOM     35  C   UNL A   1      41.061  23.306  27.739  1.00  0.00     0.010 A 
ATOM     36  C   UNL A   1      39.556  24.552  26.310  1.00  0.00     0.010 A 
ATOM     37  C   UNL A   1      40.648  24.531  27.190  1.00  0.00    -0.014 A 
BRANCH  37  38
ATOM     38  C   UNL A   1      41.354  25.801  27.504  1.00  0.00     0.031 A 
ATOM     39  C   UNL A   1      40.679  26.854  28.336  1.00  0.00     0.074 A 
ATOM     40  C   UNL A   1      42.573  26.038  26.979  1.00  0.00     0.049 A 
ATOM     41  N   UNL A   1      41.072  28.072  28.610  1.00  0.00    -0.248 NA
ATOM     42  C   UNL A   1      39.371  26.499  28.908  1.00  0.00     0.031 C 
ATOM     43  C   UNL A   1      43.327  25.109  26.134  1.00  0.00     0.029 A 
ATOM     44  N   UNL A   1      43.391  27.135  27.076  1.00  0.00    -0.354 N 
ATOM     45  C   UNL A   1      40.053  28.634  29.372  1.00  0.00     0.074 A 
ATOM     46  C   UNL A   1      39.003  27.641  29.466  1.00  0.00     0.031 C 
ATOM     47  C   UNL A   1      44.511  25.659  25.824  1.00  0.00     0.029 A 
ATOM     48  C   UNL A   1      44.582  26.997  26.403  1.00  0.00     0.049 A 
ATOM     49  H   UNL A   1      43.149  27.944  27.580  1.00  0.00     0.167 HD
ATOM     50  C   UNL A   1      40.009  29.856  29.958  1.00  0.00     0.034 A 
ATOM     51  C   UNL A   1      45.613  27.851  26.258  1.00  0.00     0.034 A 
ATOM     52  C   UNL A   1      41.069  30.829  29.873  1.00  0.00     0.049 A 
ATOM     53  C   UNL A   1      45.532  29.214  26.888  1.00  0.00     0.074 A 
ATOM     54  C   UNL A   1      41.138  32.081  30.460  1.00  0.00     0.029 A 
ATOM     55  N   UNL A   1      42.247  30.660  29.159  1.00  0.00    -0.354 N 
ATOM     56  N   UNL A   1      44.557  29.738  27.593  1.00  0.00    -0.248 NA
ATOM     57  C   UNL A   1      46.687  30.102  26.699  1.00  0.00     0.031 C 
ATOM     58  C   UNL A   1      42.334  32.688  30.061  1.00  0.00     0.029 A 
ATOM     59  C   UNL A   1      43.040  31.792  29.273  1.00  0.00     0.049 A 
ATOM     60  H   UNL A   1      42.484  29.855  28.645  1.00  0.00     0.167 HD
ATOM     61  C   UNL A   1      44.986  31.013  27.944  1.00  0.00     0.074 A 
ATOM     62  C   UNL A   1      46.310  31.179  27.376  1.00  0.00     0.031 C 
ATOM     63  C   UNL A   1      44.345  31.956  28.679  1.00  0.00     0.034 A 
BRANCH  50  64
ATOM     64  C   UNL A   1      38.757  30.204  30.723  1.00  0.00     0.023 A 
ATOM     65  C   UNL A   1      37.696  30.897  30.114  1.00  0.00     0.031 A 
ATOM     66  C   UNL A   1      38.636  29.873  32.083  1.00  0.00     0.131 A 
ATOM     67  C   UNL A   1      36.595  31.304  30.882  1.00  0.00     0.055 A 
ATOM     68  C   UNL A   1      37.502  30.212  32.824  1.00  0.00     0.041 A 
ATOM     69  F   UNL A   1      39.626  29.229  32.720  1.00  0.00    -0.206 F 
ATOM     70  C   UNL A   1      36.478  30.945  32.226  1.00  0.00     0.022 A 
BRANCH  67  71
ATOM     71  S   UNL A   1      35.378  32.415  30.127  1.00  0.00     0.124 S 
ATOM     72  O   UNL A   1      36.203  33.578  29.805  1.00  0.00    -0.237 OA
ATOM     73  O   UNL A   1      34.899  31.638  28.990  1.00  0.00    -0.237 OA
ATOM     74  O   UNL A   1      34.401  32.628  31.193  1.00  0.00    -0.744 OA
ENDBRANCH  67  71
ENDBRANCH  50  64
BRANCH  51  75
ATOM     75  C   UNL A   1      46.811  27.435  25.482  1.00  0.00     0.023 A 
ATOM     76  C   UNL A   1      46.940  27.778  24.128  1.00  0.00     0.031 A 
ATOM     77  C   UNL A   1      47.856  26.721  26.093  1.00  0.00     0.131 A 
ATOM     78  C   UNL A   1      48.090  27.397  23.420  1.00  0.00     0.055 A 
ATOM     79  C   UNL A   1      49.009  26.367  25.392  1.00  0.00     0.041 A 
ATOM     80  F   UNL A   1      47.781  26.387  27.391  1.00  0.00    -0.206 F 
ATOM     81  C   UNL A   1      49.131  26.704  24.047  1.00  0.00     0.022 A 
BRANCH  78  82
ATOM     82  S   UNL A   1      48.218  27.830  21.664  1.00  0.00     0.124 S 
ATOM     83  O   UNL A   1      48.507  26.535  21.059  1.00  0.00    -0.237 OA
ATOM     84  O   UNL A   1      46.898  28.388  21.387  1.00  0.00    -0.237 OA
ATOM     85  O   UNL A   1      49.315  28.795  21.632  1.00  0.00    -0.744 OA
ENDBRANCH  78  82
ENDBRANCH  51  75
BRANCH  63  86
ATOM     86  C   UNL A   1      45.077  33.247  28.933  1.00  0.00     0.023 A 
ATOM     87  C   UNL A   1      44.973  34.337  28.054  1.00  0.00     0.031 A 
ATOM     88  C   UNL A   1      45.861  33.395  30.091  1.00  0.00     0.131 A 
ATOM     89  C   UNL A   1      45.666  35.524  28.334  1.00  0.00     0.055 A 
ATOM     90  C   UNL A   1      46.513  34.592  30.385  1.00  0.00     0.041 A 
ATOM     91  F   UNL A   1      45.990  32.381  30.962  1.00  0.00    -0.206 F 
ATOM     92  C   UNL A   1      46.422  35.664  29.502  1.00  0.00     0.022 A 
BRANCH  89  93
ATOM     93  S   UNL A   1      45.594  36.882  27.134  1.00  0.00     0.124 S 
ATOM     94  O   UNL A   1      46.380  36.347  26.026  1.00  0.00    -0.237 OA
ATOM     95  O   UNL A   1      44.161  37.016  26.892  1.00  0.00    -0.237 OA
ATOM     96  O   UNL A   1      46.208  38.001  27.846  1.00  0.00    -0.744 OA
ENDBRANCH  89  93
ENDBRANCH  63  86
ENDBRANCH  37  38
ENDBRANCH  29  32
ENDBRANCH  27  28
ENDBRANCH   1  27
TORSDOF 16
ENDMDL
MODEL 2
REMARK VINA RESULT:     -13.0      5.078     10.353
REMARK SMILES Cc1ccc(C(=O)Nc2cccc(F)c2C(=O)NCCCCNC(=O)c2ccc(-c3c4nc(c(-c5cc(S(=O)(=O)[O-])ccc5F)c5ccc([nH]5)c(-c5cc(S(=O)(=O)[O-])ccc5F)c5nc(c(-c6cc(S(=O)(=O)[O-])ccc6F)c6ccc3[nH]6)C=C5)C=C4)cc2)c(F)c1
REMARK SMILES IDX 21 1 20 2 19 3 18 4 16 5 17 6 15 8 9 9 10 10 11 11 13 12
REMARK SMILES IDX 12 13 14 14 8 15 6 16 7 17 5 19 1 20 2 21 3 22 91 23 4 24
REMARK SMILES IDX 89 25 90 26 22 27 23 28 24 29 25 31 26 32 27 33 88 34 28 35
REMARK SMILES IDX 87 36 29 37 30 38 31 39 81 40 32 41 86 42 80 43 82 44 33 45
REMARK SMILES IDX 85 46 79 47 78 48 34 50 66 51 46 52 65 53 47 54 50 55 64 56
REMARK SMILES IDX 83 57 48 58 49 59 63 61 84 62 51 63 35 64 36 65 44 66 37 67
REMARK SMILES IDX 43 68 45 69 42 70 38 71 39 72 40 73 41 74 67 75 68 76 76 77
REMARK SMILES IDX 69 78 75 79 77 80 74 81 70 82 71 83 72 84 73 85 52 86 53 87
REMARK SMILES IDX 61 88 54 89 60 90 62 91 59 92 55 93 56 94 57 95 58 96
REMARK H PARENT 18 7 8 18 23 30 82 49 50 60
REMARK Flexibility Score: inf
ROOT
ATOM      1  C   UNL A   1      32.043  29.737  24.765  1.00  0.00     0.023 C 
ENDROOT
BRANCH   1   2
ATOM      2  C   UNL A   1      30.627  29.627  24.212  1.00  0.00     0.023 C 
BRANCH   2   3
ATOM      3  C   UNL A   1      30.469  28.985  22.840  1.00  0.00     0.116 C 
BRANCH   3   4
ATOM      4  N   UNL A   1      29.892  27.653  22.857  1.00  0.00    -0.352 N 
ATOM      5  C   UNL A   1      30.245  26.506  23.531  1.00  0.00     0.256 C 
ATOM      6  O   UNL A   1      29.530  25.518  23.358  1.00  0.00    -0.269 OA
ATOM      7  H   UNL A   1      29.101  27.551  22.280  1.00  0.00     0.163 HD
BRANCH   5   8
ATOM      8  C   UNL A   1      31.480  26.374  24.359  1.00  0.00     0.099 A 
ATOM      9  C   UNL A   1      32.737  26.174  23.743  1.00  0.00     0.057 A 
ATOM     10  C   UNL A   1      33.920  26.266  24.498  1.00  0.00     0.027 A 
ATOM     11  C   UNL A   1      33.864  26.392  25.882  1.00  0.00     0.005 A 
ATOM     12  C   UNL A   1      31.457  26.314  25.752  1.00  0.00     0.138 A 
ATOM     13  C   UNL A   1      32.629  26.352  26.513  1.00  0.00     0.040 A 
ATOM     14  F   UNL A   1      30.313  26.114  26.423  1.00  0.00    -0.206 F 
BRANCH   9  15
ATOM     15  N   UNL A   1      32.815  25.747  22.399  1.00  0.00    -0.321 N 
ATOM     16  C   UNL A   1      33.143  24.488  21.913  1.00  0.00     0.258 C 
ATOM     17  O   UNL A   1      33.308  24.325  20.705  1.00  0.00    -0.269 OA
ATOM     18  H   UNL A   1      32.611  26.429  21.719  1.00  0.00     0.170 HD
BRANCH  16  19
ATOM     19  C   UNL A   1      33.163  23.295  22.812  1.00  0.00     0.075 A 
ATOM     20  C   UNL A   1      33.254  19.927  25.526  1.00  0.00     0.044 C 
ATOM     21  C   UNL A   1      33.228  21.086  24.574  1.00  0.00    -0.048 A 
ATOM     22  C   UNL A   1      32.039  21.445  23.936  1.00  0.00     0.004 A 
ATOM     23  C   UNL A   1      34.399  21.784  24.259  1.00  0.00     0.043 A 
ATOM     24  C   UNL A   1      32.017  22.514  23.035  1.00  0.00     0.017 A 
ATOM     25  C   UNL A   1      34.360  22.885  23.396  1.00  0.00     0.136 A 
ATOM     26  F   UNL A   1      35.508  23.541  23.170  1.00  0.00    -0.206 F 
ENDBRANCH  16  19
ENDBRANCH   9  15
ENDBRANCH   5   8
ENDBRANCH   3   4
ENDBRANCH   2   3
ENDBRANCH   1   2
BRANCH   1  27
ATOM     27  C   UNL A   1      32.169  30.045  26.252  1.00  0.00     0.116 C 
BRANCH  27  28
ATOM     28  N   UNL A   1      31.975  31.450  26.582  1.00  0.00    -0.352 N 
ATOM     29  C   UNL A   1      32.792  32.315  27.278  1.00  0.00     0.251 C 
ATOM     30  H   UNL A   1      31.131  31.842  26.258  1.00  0.00     0.163 HD
ATOM     31  O   UNL A   1      32.407  33.453  27.515  1.00  0.00    -0.269 OA
BRANCH  29  32
ATOM     32  C   UNL A   1      34.105  31.851  27.776  1.00  0.00     0.039 A 
ATOM     33  C   UNL A   1      35.122  32.790  27.969  1.00  0.00     0.014 A 
ATOM     34  C   UNL A   1      34.322  30.508  28.092  1.00  0.00     0.014 A 
ATOM     35  C   UNL A   1      36.319  32.399  28.577  1.00  0.00     0.010 A 
ATOM     36  C   UNL A   1      35.481  30.137  28.768  1.00  0.00     0.010 A 
ATOM     37  C   UNL A   1      36.483  31.082  29.033  1.00  0.00    -0.014 A 
BRANCH  37  38
ATOM     38  C   UNL A   1      37.685  30.670  29.806  1.00  0.00     0.031 A 
ATOM     39  C   UNL A   1      38.711  29.767  29.182  1.00  0.00     0.074 A 
ATOM     40  C   UNL A   1      37.816  31.048  31.093  1.00  0.00     0.049 A 
ATOM     41  N   UNL A   1      39.754  29.196  29.729  1.00  0.00    -0.248 NA
ATOM     42  C   UNL A   1      38.518  29.439  27.762  1.00  0.00     0.031 C 
ATOM     43  C   UNL A   1      36.877  31.903  31.825  1.00  0.00     0.029 A 
ATOM     44  N   UNL A   1      38.789  30.761  32.016  1.00  0.00    -0.354 N 
ATOM     45  C   UNL A   1      40.331  28.427  28.725  1.00  0.00     0.074 A 
ATOM     46  C   UNL A   1      39.489  28.563  27.555  1.00  0.00     0.031 C 
ATOM     47  C   UNL A   1      37.341  32.101  33.068  1.00  0.00     0.029 A 
ATOM     48  C   UNL A   1      38.580  31.349  33.241  1.00  0.00     0.049 A 
ATOM     49  H   UNL A   1      39.564  30.187  31.820  1.00  0.00     0.167 HD
ATOM     50  C   UNL A   1      41.472  27.694  28.768  1.00  0.00     0.034 A 
ATOM     51  C   UNL A   1      39.298  31.286  34.379  1.00  0.00     0.034 A 
ATOM     52  C   UNL A   1      42.313  27.581  29.933  1.00  0.00     0.049 A 
ATOM     53  C   UNL A   1      40.542  30.443  34.418  1.00  0.00     0.074 A 
ATOM     54  C   UNL A   1      43.507  26.894  30.071  1.00  0.00     0.029 A 
ATOM     55  N   UNL A   1      42.051  28.171  31.162  1.00  0.00    -0.354 N 
ATOM     56  N   UNL A   1      41.068  29.710  33.466  1.00  0.00    -0.248 NA
ATOM     57  C   UNL A   1      41.285  30.415  35.684  1.00  0.00     0.031 C 
ATOM     58  C   UNL A   1      43.941  27.028  31.394  1.00  0.00     0.029 A 
ATOM     59  C   UNL A   1      43.050  27.848  32.068  1.00  0.00     0.049 A 
ATOM     60  H   UNL A   1      41.270  28.736  31.361  1.00  0.00     0.167 HD
ATOM     61  C   UNL A   1      42.213  29.142  34.014  1.00  0.00     0.074 A 
ATOM     62  C   UNL A   1      42.304  29.621  35.380  1.00  0.00     0.031 C 
ATOM     63  C   UNL A   1      43.114  28.309  33.434  1.00  0.00     0.034 A 
BRANCH  50  64
ATOM     64  C   UNL A   1      41.853  26.945  27.516  1.00  0.00     0.023 A 
ATOM     65  C   UNL A   1      41.653  25.558  27.404  1.00  0.00     0.031 A 
ATOM     66  C   UNL A   1      42.455  27.614  26.438  1.00  0.00     0.131 A 
ATOM     67  C   UNL A   1      42.120  24.873  26.273  1.00  0.00     0.055 A 
ATOM     68  C   UNL A   1      42.848  26.940  25.281  1.00  0.00     0.041 A 
ATOM     69  F   UNL A   1      42.689  28.935  26.499  1.00  0.00    -0.206 F 
ATOM     70  C   UNL A   1      42.694  25.557  25.199  1.00  0.00     0.022 A 
BRANCH  67  71
ATOM     71  S   UNL A   1      42.080  23.061  26.280  1.00  0.00     0.124 S 
ATOM     72  O   UNL A   1      40.649  22.801  26.420  1.00  0.00    -0.237 OA
ATOM     73  O   UNL A   1      42.668  22.724  24.989  1.00  0.00    -0.237 OA
ATOM     74  O   UNL A   1      42.888  22.705  27.445  1.00  0.00    -0.744 OA
ENDBRANCH  67  71
ENDBRANCH  50  64
BRANCH  51  75
ATOM     75  C   UNL A   1      38.852  32.051  35.574  1.00  0.00     0.023 A 
ATOM     76  C   UNL A   1      38.168  31.409  36.617  1.00  0.00     0.031 A 
ATOM     77  C   UNL A   1      39.135  33.421  35.703  1.00  0.00     0.131 A 
ATOM     78  C   UNL A   1      37.777  32.143  37.747  1.00  0.00     0.055 A 
ATOM     79  C   UNL A   1      38.768  34.140  36.841  1.00  0.00     0.041 A 
ATOM     80  F   UNL A   1      39.803  34.070  34.737  1.00  0.00    -0.206 F 
ATOM     81  C   UNL A   1      38.083  33.502  37.871  1.00  0.00     0.022 A 
BRANCH  78  82
ATOM     82  S   UNL A   1      36.868  31.296  39.069  1.00  0.00     0.124 S 
ATOM     83  O   UNL A   1      36.702  29.961  38.506  1.00  0.00    -0.237 OA
ATOM     84  O   UNL A   1      37.789  31.408  40.196  1.00  0.00    -0.237 OA
ATOM     85  O   UNL A   1      35.642  32.080  39.194  1.00  0.00    -0.744 OA
ENDBRANCH  78  82
ENDBRANCH  51  75
BRANCH  63  86
ATOM     86  C   UNL A   1      44.291  27.878  34.268  1.00  0.00     0.023 A 
ATOM     87  C   UNL A   1      44.269  26.688  35.013  1.00  0.00     0.031 A 
ATOM     88  C   UNL A   1      45.463  28.656  34.287  1.00  0.00     0.131 A 
ATOM     89  C   UNL A   1      45.391  26.321  35.771  1.00  0.00     0.055 A 
ATOM     90  C   UNL A   1      46.590  28.264  35.007  1.00  0.00     0.041 A 
ATOM     91  F   UNL A   1      45.532  29.802  33.589  1.00  0.00    -0.206 F 
ATOM     92  C   UNL A   1      46.556  27.093  35.759  1.00  0.00     0.022 A 
BRANCH  89  93
ATOM     93  S   UNL A   1      45.301  24.832  36.801  1.00  0.00     0.124 S 
ATOM     94  O   UNL A   1      44.731  23.858  35.874  1.00  0.00    -0.237 OA
ATOM     95  O   UNL A   1      46.696  24.617  37.173  1.00  0.00    -0.237 OA
ATOM     96  O   UNL A   1      44.423  25.228  37.901  1.00  0.00    -0.744 OA
ENDBRANCH  89  93
ENDBRANCH  63  86
ENDBRANCH  37  38
ENDBRANCH  29  32
ENDBRANCH  27  28
ENDBRANCH   1  27
TORSDOF 16
ENDMDL
MODEL 3
REMARK VINA RESULT:     -12.8      1.717      2.022
REMARK SMILES Cc1ccc(C(=O)Nc2cccc(F)c2C(=O)NCCCCNC(=O)c2ccc(-c3c4nc(c(-c5cc(S(=O)(=O)[O-])ccc5F)c5ccc([nH]5)c(-c5cc(S(=O)(=O)[O-])ccc5F)c5nc(c(-c6cc(S(=O)(=O)[O-])ccc6F)c6ccc3[nH]6)C=C5)C=C4)cc2)c(F)c1
REMARK SMILES IDX 21 1 20 2 19 3 18 4 16 5 17 6 15 8 9 9 10 10 11 11 13 12
REMARK SMILES IDX 12 13 14 14 8 15 6 16 7 17 5 19 1 20 2 21 3 22 91 23 4 24
REMARK SMILES IDX 89 25 90 26 22 27 23 28 24 29 25 31 26 32 27 33 88 34 28 35
REMARK SMILES IDX 87 36 29 37 30 38 31 39 81 40 32 41 86 42 80 43 82 44 33 45
REMARK SMILES IDX 85 46 79 47 78 48 34 50 66 51 46 52 65 53 47 54 50 55 64 56
REMARK SMILES IDX 83 57 48 58 49 59 63 61 84 62 51 63 35 64 36 65 44 66 37 67
REMARK SMILES IDX 43 68 45 69 42 70 38 71 39 72 40 73 41 74 67 75 68 76 76 77
REMARK SMILES IDX 69 78 75 79 77 80 74 81 70 82 71 83 72 84 73 85 52 86 53 87
REMARK SMILES IDX 61 88 54 89 60 90 62 91 59 92 55 93 56 94 57 95 58 96
REMARK H PARENT 18 7 8 18 23 30 82 49 50 60
REMARK Flexibility Score: inf
ROOT
ATOM      1  C   UNL A   1      35.598  21.201  25.495  1.00  0.00     0.023 C 
ENDROOT
BRANCH   1   2
ATOM      2  C   UNL A   1      35.008  21.944  26.688  1.00  0.00     0.023 C 
BRANCH   2   3
ATOM      3  C   UNL A   1      33.665  21.454  27.212  1.00  0.00     0.116 C 
BRANCH   3   4
ATOM      4  N   UNL A   1      32.709  22.505  27.512  1.00  0.00    -0.352 N 
ATOM      5  C   UNL A   1      32.155  23.493  26.731  1.00  0.00     0.256 C 
ATOM      6  O   UNL A   1      31.335  24.236  27.274  1.00  0.00    -0.269 OA
ATOM      7  H   UNL A   1      32.400  22.511  28.446  1.00  0.00     0.163 HD
BRANCH   5   8
ATOM      8  C   UNL A   1      32.565  23.770  25.323  1.00  0.00     0.099 A 
ATOM      9  C   UNL A   1      33.510  24.782  25.038  1.00  0.00     0.057 A 
ATOM     10  C   UNL A   1      34.058  24.900  23.748  1.00  0.00     0.027 A 
ATOM     11  C   UNL A   1      33.561  24.133  22.699  1.00  0.00     0.005 A 
ATOM     12  C   UNL A   1      31.967  23.154  24.223  1.00  0.00     0.138 A 
ATOM     13  C   UNL A   1      32.470  23.305  22.928  1.00  0.00     0.040 A 
ATOM     14  F   UNL A   1      30.820  22.471  24.345  1.00  0.00    -0.206 F 
BRANCH   9  15
ATOM     15  N   UNL A   1      33.814  25.769  26.002  1.00  0.00    -0.321 N 
ATOM     16  C   UNL A   1      33.598  27.139  25.930  1.00  0.00     0.258 C 
ATOM     17  O   UNL A   1      34.059  27.875  26.801  1.00  0.00    -0.269 OA
ATOM     18  H   UNL A   1      34.233  25.444  26.831  1.00  0.00     0.170 HD
BRANCH  16  19
ATOM     19  C   UNL A   1      32.698  27.724  24.890  1.00  0.00     0.075 A 
ATOM     20  C   UNL A   1      30.046  29.513  21.978  1.00  0.00     0.044 C 
ATOM     21  C   UNL A   1      30.964  28.879  22.981  1.00  0.00    -0.048 A 
ATOM     22  C   UNL A   1      32.346  28.922  22.795  1.00  0.00     0.004 A 
ATOM     23  C   UNL A   1      30.453  28.181  24.081  1.00  0.00     0.043 A 
ATOM     24  C   UNL A   1      33.202  28.317  23.721  1.00  0.00     0.017 A 
ATOM     25  C   UNL A   1      31.316  27.622  25.031  1.00  0.00     0.136 A 
ATOM     26  F   UNL A   1      30.764  27.005  26.087  1.00  0.00    -0.206 F 
ENDBRANCH  16  19
ENDBRANCH   9  15
ENDBRANCH   5   8
ENDBRANCH   3   4
ENDBRANCH   2   3
ENDBRANCH   1   2
BRANCH   1  27
ATOM     27  C   UNL A   1      37.022  21.574  25.100  1.00  0.00     0.116 C 
BRANCH  27  28
ATOM     28  N   UNL A   1      37.999  20.526  25.358  1.00  0.00    -0.352 N 
ATOM     29  C   UNL A   1      39.226  20.597  25.983  1.00  0.00     0.251 C 
ATOM     30  H   UNL A   1      37.744  19.630  25.039  1.00  0.00     0.163 HD
ATOM     31  O   UNL A   1      39.939  19.602  26.033  1.00  0.00    -0.269 OA
BRANCH  29  32
ATOM     32  C   UNL A   1      39.697  21.882  26.543  1.00  0.00     0.039 A 
ATOM     33  C   UNL A   1      40.723  21.868  27.492  1.00  0.00     0.014 A 
ATOM     34  C   UNL A   1      39.162  23.097  26.108  1.00  0.00     0.014 A 
ATOM     35  C   UNL A   1      41.284  23.074  27.923  1.00  0.00     0.010 A 
ATOM     36  C   UNL A   1      39.773  24.292  26.477  1.00  0.00     0.010 A 
ATOM     37  C   UNL A   1      40.851  24.291  27.376  1.00  0.00    -0.014 A 
BRANCH  37  38
ATOM     38  C   UNL A   1      41.520  25.576  27.710  1.00  0.00     0.031 A 
ATOM     39  C   UNL A   1      40.772  26.645  28.456  1.00  0.00     0.074 A 
ATOM     40  C   UNL A   1      42.775  25.811  27.277  1.00  0.00     0.049 A 
ATOM     41  N   UNL A   1      41.133  27.873  28.727  1.00  0.00    -0.248 NA
ATOM     42  C   UNL A   1      39.426  26.293  28.932  1.00  0.00     0.031 C 
ATOM     43  C   UNL A   1      43.601  24.866  26.521  1.00  0.00     0.029 A 
ATOM     44  N   UNL A   1      43.575  26.918  27.409  1.00  0.00    -0.354 N 
ATOM     45  C   UNL A   1      40.054  28.446  29.389  1.00  0.00     0.074 A 
ATOM     46  C   UNL A   1      39.006  27.447  29.427  1.00  0.00     0.031 C 
ATOM     47  C   UNL A   1      44.802  25.419  26.291  1.00  0.00     0.029 A 
ATOM     48  C   UNL A   1      44.817  26.773  26.837  1.00  0.00     0.049 A 
ATOM     49  H   UNL A   1      43.287  27.738  27.870  1.00  0.00     0.167 HD
ATOM     50  C   UNL A   1      39.953  29.683  29.936  1.00  0.00     0.034 A 
ATOM     51  C   UNL A   1      45.850  27.633  26.751  1.00  0.00     0.034 A 
ATOM     52  C   UNL A   1      41.009  30.664  29.909  1.00  0.00     0.049 A 
ATOM     53  C   UNL A   1      45.709  29.011  27.334  1.00  0.00     0.074 A 
ATOM     54  C   UNL A   1      41.023  31.932  30.465  1.00  0.00     0.029 A 
ATOM     55  N   UNL A   1      42.242  30.487  29.296  1.00  0.00    -0.354 N 
ATOM     56  N   UNL A   1      44.677  29.544  27.945  1.00  0.00    -0.248 NA
ATOM     57  C   UNL A   1      46.868  29.904  27.213  1.00  0.00     0.031 C 
ATOM     58  C   UNL A   1      42.242  32.539  30.146  1.00  0.00     0.029 A 
ATOM     59  C   UNL A   1      43.015  31.629  29.442  1.00  0.00     0.049 A 
ATOM     60  H   UNL A   1      42.526  29.670  28.825  1.00  0.00     0.167 HD
ATOM     61  C   UNL A   1      45.067  30.833  28.293  1.00  0.00     0.074 A 
ATOM     62  C   UNL A   1      46.431  30.996  27.829  1.00  0.00     0.031 C 
ATOM     63  C   UNL A   1      44.363  31.789  28.950  1.00  0.00     0.034 A 
BRANCH  50  64
ATOM     64  C   UNL A   1      38.642  30.040  30.589  1.00  0.00     0.023 A 
ATOM     65  C   UNL A   1      37.634  30.720  29.884  1.00  0.00     0.031 A 
ATOM     66  C   UNL A   1      38.408  29.730  31.939  1.00  0.00     0.131 A 
ATOM     67  C   UNL A   1      36.473  31.136  30.551  1.00  0.00     0.055 A 
ATOM     68  C   UNL A   1      37.217  30.077  32.578  1.00  0.00     0.041 A 
ATOM     69  F   UNL A   1      39.344  29.098  32.667  1.00  0.00    -0.206 F 
ATOM     70  C   UNL A   1      36.245  30.798  31.886  1.00  0.00     0.022 A 
BRANCH  67  71
ATOM     71  S   UNL A   1      35.321  32.233  29.680  1.00  0.00     0.124 S 
ATOM     72  O   UNL A   1      34.836  31.361  28.613  1.00  0.00    -0.237 OA
ATOM     73  O   UNL A   1      34.355  32.568  30.720  1.00  0.00    -0.237 OA
ATOM     74  O   UNL A   1      36.169  33.338  29.238  1.00  0.00    -0.744 OA
ENDBRANCH  67  71
ENDBRANCH  50  64
BRANCH  51  75
ATOM     75  C   UNL A   1      47.109  27.207  26.085  1.00  0.00     0.023 A 
ATOM     76  C   UNL A   1      48.120  26.563  26.814  1.00  0.00     0.031 A 
ATOM     77  C   UNL A   1      47.302  27.407  24.707  1.00  0.00     0.131 A 
ATOM     78  C   UNL A   1      49.290  26.148  26.162  1.00  0.00     0.055 A 
ATOM     79  C   UNL A   1      48.457  26.967  24.059  1.00  0.00     0.041 A 
ATOM     80  F   UNL A   1      46.353  28.003  23.968  1.00  0.00    -0.206 F 
ATOM     81  C   UNL A   1      49.460  26.334  24.787  1.00  0.00     0.022 A 
BRANCH  78  82
ATOM     82  S   UNL A   1      50.593  25.342  27.134  1.00  0.00     0.124 S 
ATOM     83  O   UNL A   1      51.532  24.939  26.095  1.00  0.00    -0.237 OA
ATOM     84  O   UNL A   1      51.032  26.422  28.013  1.00  0.00    -0.237 OA
ATOM     85  O   UNL A   1      49.891  24.250  27.802  1.00  0.00    -0.744 OA
ENDBRANCH  78  82
ENDBRANCH  51  75
BRANCH  63  86
ATOM     86  C   UNL A   1      45.062  33.093  29.225  1.00  0.00     0.023 A 
ATOM     87  C   UNL A   1      44.996  34.168  28.325  1.00  0.00     0.031 A 
ATOM     88  C   UNL A   1      45.775  33.269  30.425  1.00  0.00     0.131 A 
ATOM     89  C   UNL A   1      45.657  35.369  28.625  1.00  0.00     0.055 A 
ATOM     90  C   UNL A   1      46.394  34.479  30.737  1.00  0.00     0.041 A 
ATOM     91  F   UNL A   1      45.865  32.270  31.318  1.00  0.00    -0.206 F 
ATOM     92  C   UNL A   1      46.341  35.536  29.833  1.00  0.00     0.022 A 
BRANCH  89  93
ATOM     93  S   UNL A   1      45.639  36.707  27.402  1.00  0.00     0.124 S 
ATOM     94  O   UNL A   1      46.415  37.744  28.077  1.00  0.00    -0.237 OA
ATOM     95  O   UNL A   1      46.275  36.088  26.243  1.00  0.00    -0.237 OA
ATOM     96  O   UNL A   1      44.217  37.004  27.240  1.00  0.00    -0.744 OA
ENDBRANCH  89  93
ENDBRANCH  63  86
ENDBRANCH  37  38
ENDBRANCH  29  32
ENDBRANCH  27  28
ENDBRANCH   1  27
TORSDOF 16
ENDMDL
