MODEL 1
REMARK VINA RESULT:     -11.6      0.000      0.000
REMARK SMILES Cc1nc(SCc2cccc(Cl)c2)[nH]c(=O)c1CC(=O)NCCCCNC(=O)c1ccc(-c2c3nc(c(-c4cc(S(=O)(=O)[O-])ccc4F)c4ccc([nH]4)c(-c4cc(S(=O)(=O)[O-])ccc4F)c4nc(c(-c5cc(S(=O)(=O)[O-])ccc5F)c5ccc2[nH]5)C=C4)C=C3)cc1
REMARK SMILES IDX 23 1 22 2 21 3 19 4 20 5 18 7 17 8 1 9 2 10 3 11 4 12 15 13
REMARK SMILES IDX 14 14 16 15 5 17 6 18 7 19 8 20 13 21 9 22 11 23 10 24 12 25
REMARK SMILES IDX 24 26 25 27 26 28 27 29 28 31 29 32 30 33 91 34 31 35 90 36
REMARK SMILES IDX 32 37 33 38 34 39 84 40 35 41 89 42 83 43 85 44 36 45 88 46
REMARK SMILES IDX 82 47 81 48 37 50 69 51 49 52 68 53 50 54 53 55 67 56 86 57
REMARK SMILES IDX 51 58 52 59 66 61 87 62 54 63 38 64 39 65 47 66 40 67 46 68
REMARK SMILES IDX 48 69 45 70 41 71 42 72 43 73 44 74 70 75 71 76 79 77 72 78
REMARK SMILES IDX 78 79 80 80 77 81 73 82 74 83 75 84 76 85 55 86 56 87 64 88
REMARK SMILES IDX 57 89 63 90 65 91 62 92 58 93 59 94 60 95 61 96
REMARK H PARENT 21 6 14 16 26 30 85 49 53 60
REMARK Flexibility Score: inf
ROOT
ATOM      1  C   UNL A   1      35.179  22.162  24.217  1.00  0.00     0.023 C 
ENDROOT
BRANCH   1   2
ATOM      2  C   UNL A   1      34.238  21.239  24.987  1.00  0.00     0.116 C 
BRANCH   2   3
ATOM      3  N   UNL A   1      33.834  21.820  26.253  1.00  0.00    -0.356 N 
ATOM      4  C   UNL A   1      32.620  22.279  26.671  1.00  0.00     0.224 C 
ATOM      5  O   UNL A   1      32.522  22.667  27.838  1.00  0.00    -0.275 OA
ATOM      6  H   UNL A   1      34.554  21.898  26.919  1.00  0.00     0.163 HD
BRANCH   4   7
ATOM      7  C   UNL A   1      31.387  22.200  25.771  1.00  0.00     0.143 C 
BRANCH   7   8
ATOM      8  C   UNL A   1      31.081  23.446  24.992  1.00  0.00     0.048 A 
ATOM      9  C   UNL A   1      31.874  22.555  22.782  1.00  0.00     0.067 C 
ATOM     10  C   UNL A   1      31.297  23.630  23.672  1.00  0.00     0.049 A 
ATOM     11  N   UNL A   1      31.130  24.836  23.034  1.00  0.00    -0.229 NA
ATOM     12  C   UNL A   1      30.859  25.863  23.762  1.00  0.00     0.168 A 
ATOM     13  C   UNL A   1      30.533  24.605  25.744  1.00  0.00     0.255 A 
ATOM     14  N   UNL A   1      30.565  25.794  25.082  1.00  0.00    -0.301 N 
ATOM     15  O   UNL A   1      30.092  24.504  26.876  1.00  0.00    -0.269 OA
ATOM     16  H   UNL A   1      30.368  26.623  25.574  1.00  0.00     0.172 HD
BRANCH  12  17
ATOM     17  S   UNL A   1      30.841  27.483  23.145  1.00  0.00    -0.083 SA
BRANCH  17  18
ATOM     18  C   UNL A   1      32.522  28.049  23.537  1.00  0.00     0.113 C 
BRANCH  18  19
ATOM     19  C   UNL A   1      32.651  28.837  24.823  1.00  0.00    -0.036 A 
ATOM     20  C   UNL A   1      31.643  29.720  25.233  1.00  0.00     0.005 A 
ATOM     21  C   UNL A   1      33.806  28.747  25.616  1.00  0.00     0.025 A 
ATOM     22  C   UNL A   1      31.787  30.480  26.401  1.00  0.00     0.002 A 
ATOM     23  C   UNL A   1      33.941  29.490  26.788  1.00  0.00     0.041 A 
ATOM     24  C   UNL A   1      32.933  30.358  27.186  1.00  0.00     0.020 A 
ATOM     25  Cl  UNL A   1      35.376  29.331  27.726  1.00  0.00    -0.084 Cl
ENDBRANCH  18  19
ENDBRANCH  17  18
ENDBRANCH  12  17
ENDBRANCH   7   8
ENDBRANCH   4   7
ENDBRANCH   2   3
ENDBRANCH   1   2
BRANCH   1  26
ATOM     26  C   UNL A   1      36.651  21.752  24.268  1.00  0.00     0.023 C 
BRANCH  26  27
ATOM     27  C   UNL A   1      37.271  21.702  25.661  1.00  0.00     0.116 C 
BRANCH  27  28
ATOM     28  N   UNL A   1      38.351  20.732  25.781  1.00  0.00    -0.352 N 
ATOM     29  C   UNL A   1      39.641  20.926  26.221  1.00  0.00     0.251 C 
ATOM     30  H   UNL A   1      38.128  19.812  25.510  1.00  0.00     0.163 HD
ATOM     31  O   UNL A   1      40.466  20.022  26.129  1.00  0.00    -0.269 OA
BRANCH  29  32
ATOM     32  C   UNL A   1      40.033  22.250  26.758  1.00  0.00     0.039 A 
ATOM     33  C   UNL A   1      40.958  22.308  27.802  1.00  0.00     0.014 A 
ATOM     34  C   UNL A   1      39.542  23.427  26.186  1.00  0.00     0.014 A 
ATOM     35  C   UNL A   1      41.464  23.546  28.206  1.00  0.00     0.010 A 
ATOM     36  C   UNL A   1      40.108  24.651  26.535  1.00  0.00     0.010 A 
ATOM     37  C   UNL A   1      41.088  24.723  27.538  1.00  0.00    -0.014 A 
BRANCH  37  38
ATOM     38  C   UNL A   1      41.732  26.030  27.846  1.00  0.00     0.031 A 
ATOM     39  C   UNL A   1      40.950  27.116  28.534  1.00  0.00     0.074 A 
ATOM     40  C   UNL A   1      42.996  26.264  27.436  1.00  0.00     0.049 A 
ATOM     41  N   UNL A   1      41.304  28.347  28.801  1.00  0.00    -0.248 NA
ATOM     42  C   UNL A   1      39.580  26.781  28.949  1.00  0.00     0.031 C 
ATOM     43  C   UNL A   1      43.844  25.306  26.723  1.00  0.00     0.029 A 
ATOM     44  N   UNL A   1      43.786  27.382  27.546  1.00  0.00    -0.354 N 
ATOM     45  C   UNL A   1      40.198  28.939  29.402  1.00  0.00     0.074 A 
ATOM     46  C   UNL A   1      39.144  27.946  29.406  1.00  0.00     0.031 C 
ATOM     47  C   UNL A   1      45.039  25.868  26.481  1.00  0.00     0.029 A 
ATOM     48  C   UNL A   1      45.027  27.244  26.966  1.00  0.00     0.049 A 
ATOM     49  H   UNL A   1      43.492  28.207  27.997  1.00  0.00     0.167 HD
ATOM     50  C   UNL A   1      40.080  30.186  29.920  1.00  0.00     0.034 A 
ATOM     51  C   UNL A   1      46.035  28.129  26.820  1.00  0.00     0.034 A 
ATOM     52  C   UNL A   1      41.144  31.161  29.916  1.00  0.00     0.049 A 
ATOM     53  C   UNL A   1      45.864  29.525  27.368  1.00  0.00     0.074 A 
ATOM     54  C   UNL A   1      41.151  32.428  30.474  1.00  0.00     0.029 A 
ATOM     55  N   UNL A   1      42.383  30.987  29.313  1.00  0.00    -0.354 N 
ATOM     56  N   UNL A   1      44.832  30.047  27.991  1.00  0.00    -0.248 NA
ATOM     57  C   UNL A   1      46.994  30.447  27.200  1.00  0.00     0.031 C 
ATOM     58  C   UNL A   1      42.358  33.049  30.138  1.00  0.00     0.029 A 
ATOM     59  C   UNL A   1      43.144  32.140  29.447  1.00  0.00     0.049 A 
ATOM     60  H   UNL A   1      42.679  30.167  28.857  1.00  0.00     0.167 HD
ATOM     61  C   UNL A   1      45.203  31.349  28.313  1.00  0.00     0.074 A 
ATOM     62  C   UNL A   1      46.557  31.527  27.832  1.00  0.00     0.031 C 
ATOM     63  C   UNL A   1      44.490  32.311  28.954  1.00  0.00     0.034 A 
BRANCH  50  64
ATOM     64  C   UNL A   1      38.743  30.575  30.507  1.00  0.00     0.023 A 
ATOM     65  C   UNL A   1      37.795  31.304  29.770  1.00  0.00     0.031 A 
ATOM     66  C   UNL A   1      38.416  30.220  31.828  1.00  0.00     0.131 A 
ATOM     67  C   UNL A   1      36.599  31.717  30.377  1.00  0.00     0.055 A 
ATOM     68  C   UNL A   1      37.189  30.562  32.401  1.00  0.00     0.041 A 
ATOM     69  F   UNL A   1      39.289  29.543  32.590  1.00  0.00    -0.206 F 
ATOM     70  C   UNL A   1      36.278  31.327  31.679  1.00  0.00     0.022 A 
BRANCH  67  71
ATOM     71  S   UNL A   1      35.537  32.890  29.492  1.00  0.00     0.124 S 
ATOM     72  O   UNL A   1      36.000  32.727  28.116  1.00  0.00    -0.237 OA
ATOM     73  O   UNL A   1      34.200  32.385  29.780  1.00  0.00    -0.237 OA
ATOM     74  O   UNL A   1      35.865  34.177  30.102  1.00  0.00    -0.744 OA
ENDBRANCH  67  71
ENDBRANCH  50  64
BRANCH  51  75
ATOM     75  C   UNL A   1      47.285  27.743  26.101  1.00  0.00     0.023 A 
ATOM     76  C   UNL A   1      47.409  27.921  24.713  1.00  0.00     0.031 A 
ATOM     77  C   UNL A   1      48.358  27.142  26.784  1.00  0.00     0.131 A 
ATOM     78  C   UNL A   1      48.554  27.456  24.047  1.00  0.00     0.055 A 
ATOM     79  C   UNL A   1      49.520  26.737  26.126  1.00  0.00     0.041 A 
ATOM     80  F   UNL A   1      48.294  26.947  28.111  1.00  0.00    -0.206 F 
ATOM     81  C   UNL A   1      49.616  26.880  24.745  1.00  0.00     0.022 A 
BRANCH  78  82
ATOM     82  S   UNL A   1      48.593  27.526  22.234  1.00  0.00     0.124 S 
ATOM     83  O   UNL A   1      49.800  28.307  21.995  1.00  0.00    -0.237 OA
ATOM     84  O   UNL A   1      48.661  26.113  21.878  1.00  0.00    -0.237 OA
ATOM     85  O   UNL A   1      47.339  28.194  21.892  1.00  0.00    -0.744 OA
ENDBRANCH  78  82
ENDBRANCH  51  75
BRANCH  63  86
ATOM     86  C   UNL A   1      45.181  33.629  29.209  1.00  0.00     0.023 A 
ATOM     87  C   UNL A   1      45.035  34.726  28.342  1.00  0.00     0.031 A 
ATOM     88  C   UNL A   1      45.997  33.789  30.344  1.00  0.00     0.131 A 
ATOM     89  C   UNL A   1      45.732  35.917  28.597  1.00  0.00     0.055 A 
ATOM     90  C   UNL A   1      46.637  34.997  30.626  1.00  0.00     0.041 A 
ATOM     91  F   UNL A   1      46.178  32.774  31.204  1.00  0.00    -0.206 F 
ATOM     92  C   UNL A   1      46.515  36.065  29.744  1.00  0.00     0.022 A 
BRANCH  89  93
ATOM     93  S   UNL A   1      45.671  37.244  27.363  1.00  0.00     0.124 S 
ATOM     94  O   UNL A   1      46.742  36.858  26.449  1.00  0.00    -0.237 OA
ATOM     95  O   UNL A   1      44.314  37.125  26.841  1.00  0.00    -0.237 OA
ATOM     96  O   UNL A   1      45.929  38.452  28.144  1.00  0.00    -0.744 OA
ENDBRANCH  89  93
ENDBRANCH  63  86
ENDBRANCH  37  38
ENDBRANCH  29  32
ENDBRANCH  27  28
ENDBRANCH  26  27
ENDBRANCH   1  26
TORSDOF 18
ENDMDL
MODEL 2
REMARK VINA RESULT:     -11.5      2.492      3.129
REMARK SMILES Cc1nc(SCc2cccc(Cl)c2)[nH]c(=O)c1CC(=O)NCCCCNC(=O)c1ccc(-c2c3nc(c(-c4cc(S(=O)(=O)[O-])ccc4F)c4ccc([nH]4)c(-c4cc(S(=O)(=O)[O-])ccc4F)c4nc(c(-c5cc(S(=O)(=O)[O-])ccc5F)c5ccc2[nH]5)C=C4)C=C3)cc1
REMARK SMILES IDX 23 1 22 2 21 3 19 4 20 5 18 7 17 8 1 9 2 10 3 11 4 12 15 13
REMARK SMILES IDX 14 14 16 15 5 17 6 18 7 19 8 20 13 21 9 22 11 23 10 24 12 25
REMARK SMILES IDX 24 26 25 27 26 28 27 29 28 31 29 32 30 33 91 34 31 35 90 36
REMARK SMILES IDX 32 37 33 38 34 39 84 40 35 41 89 42 83 43 85 44 36 45 88 46
REMARK SMILES IDX 82 47 81 48 37 50 69 51 49 52 68 53 50 54 53 55 67 56 86 57
REMARK SMILES IDX 51 58 52 59 66 61 87 62 54 63 38 64 39 65 47 66 40 67 46 68
REMARK SMILES IDX 48 69 45 70 41 71 42 72 43 73 44 74 70 75 71 76 79 77 72 78
REMARK SMILES IDX 78 79 80 80 77 81 73 82 74 83 75 84 76 85 55 86 56 87 64 88
REMARK SMILES IDX 57 89 63 90 65 91 62 92 58 93 59 94 60 95 61 96
REMARK H PARENT 21 6 14 16 26 30 85 49 53 60
REMARK Flexibility Score: inf
ROOT
ATOM      1  C   UNL A   1      37.272  21.753  24.674  1.00  0.00     0.023 C 
ENDROOT
BRANCH   1   2
ATOM      2  C   UNL A   1      35.747  21.701  24.712  1.00  0.00     0.116 C 
BRANCH   2   3
ATOM      3  N   UNL A   1      35.247  21.608  26.070  1.00  0.00    -0.356 N 
ATOM      4  C   UNL A   1      33.975  21.688  26.554  1.00  0.00     0.224 C 
ATOM      5  O   UNL A   1      33.806  21.503  27.762  1.00  0.00    -0.275 OA
ATOM      6  H   UNL A   1      35.940  21.466  26.755  1.00  0.00     0.163 HD
BRANCH   4   7
ATOM      7  C   UNL A   1      32.779  21.872  25.620  1.00  0.00     0.143 C 
BRANCH   7   8
ATOM      8  C   UNL A   1      32.346  23.294  25.407  1.00  0.00     0.048 A 
ATOM      9  C   UNL A   1      33.434  23.546  23.158  1.00  0.00     0.067 C 
ATOM     10  C   UNL A   1      32.632  24.057  24.331  1.00  0.00     0.049 A 
ATOM     11  N   UNL A   1      32.331  25.396  24.246  1.00  0.00    -0.229 NA
ATOM     12  C   UNL A   1      31.850  25.967  25.295  1.00  0.00     0.168 A 
ATOM     13  C   UNL A   1      31.570  23.943  26.496  1.00  0.00     0.255 A 
ATOM     14  N   UNL A   1      31.469  25.297  26.409  1.00  0.00    -0.301 N 
ATOM     15  O   UNL A   1      31.064  23.311  27.408  1.00  0.00    -0.269 OA
ATOM     16  H   UNL A   1      31.110  25.802  27.173  1.00  0.00     0.172 HD
BRANCH  12  17
ATOM     17  S   UNL A   1      31.631  27.682  25.424  1.00  0.00    -0.083 SA
BRANCH  17  18
ATOM     18  C   UNL A   1      31.246  28.137  23.708  1.00  0.00     0.113 C 
BRANCH  18  19
ATOM     19  C   UNL A   1      29.883  28.762  23.499  1.00  0.00    -0.036 A 
ATOM     20  C   UNL A   1      28.743  27.966  23.324  1.00  0.00     0.005 A 
ATOM     21  C   UNL A   1      29.729  30.156  23.421  1.00  0.00     0.025 A 
ATOM     22  C   UNL A   1      27.491  28.549  23.087  1.00  0.00     0.002 A 
ATOM     23  C   UNL A   1      28.480  30.736  23.203  1.00  0.00     0.041 A 
ATOM     24  C   UNL A   1      27.356  29.937  23.036  1.00  0.00     0.020 A 
ATOM     25  Cl  UNL A   1      28.349  32.451  23.128  1.00  0.00    -0.084 Cl
ENDBRANCH  18  19
ENDBRANCH  17  18
ENDBRANCH  12  17
ENDBRANCH   7   8
ENDBRANCH   4   7
ENDBRANCH   2   3
ENDBRANCH   1   2
BRANCH   1  26
ATOM     26  C   UNL A   1      37.964  20.567  25.345  1.00  0.00     0.023 C 
BRANCH  26  27
ATOM     27  C   UNL A   1      39.376  20.836  25.860  1.00  0.00     0.116 C 
BRANCH  27  28
ATOM     28  N   UNL A   1      40.215  19.646  25.897  1.00  0.00    -0.352 N 
ATOM     29  C   UNL A   1      41.578  19.556  26.071  1.00  0.00     0.251 C 
ATOM     30  H   UNL A   1      39.744  18.789  25.783  1.00  0.00     0.163 HD
ATOM     31  O   UNL A   1      42.146  18.476  25.939  1.00  0.00    -0.269 OA
BRANCH  29  32
ATOM     32  C   UNL A   1      42.354  20.783  26.366  1.00  0.00     0.039 A 
ATOM     33  C   UNL A   1      42.735  21.611  25.309  1.00  0.00     0.014 A 
ATOM     34  C   UNL A   1      42.644  21.146  27.684  1.00  0.00     0.014 A 
ATOM     35  C   UNL A   1      43.319  22.852  25.580  1.00  0.00     0.010 A 
ATOM     36  C   UNL A   1      43.151  22.415  27.954  1.00  0.00     0.010 A 
ATOM     37  C   UNL A   1      43.479  23.289  26.906  1.00  0.00    -0.014 A 
BRANCH  37  38
ATOM     38  C   UNL A   1      43.951  24.667  27.216  1.00  0.00     0.031 A 
ATOM     39  C   UNL A   1      42.992  25.693  27.757  1.00  0.00     0.074 A 
ATOM     40  C   UNL A   1      45.224  25.015  26.936  1.00  0.00     0.049 A 
ATOM     41  N   UNL A   1      43.189  26.963  27.999  1.00  0.00    -0.248 NA
ATOM     42  C   UNL A   1      41.623  25.234  28.035  1.00  0.00     0.031 C 
ATOM     43  C   UNL A   1      46.239  24.123  26.371  1.00  0.00     0.029 A 
ATOM     44  N   UNL A   1      45.882  26.213  27.075  1.00  0.00    -0.354 N 
ATOM     45  C   UNL A   1      41.968  27.460  28.443  1.00  0.00     0.074 A 
ATOM     46  C   UNL A   1      41.025  26.364  28.381  1.00  0.00     0.031 C 
ATOM     47  C   UNL A   1      47.392  24.796  26.233  1.00  0.00     0.029 A 
ATOM     48  C   UNL A   1      47.189  26.182  26.644  1.00  0.00     0.049 A 
ATOM     49  H   UNL A   1      45.458  27.020  27.448  1.00  0.00     0.167 HD
ATOM     50  C   UNL A   1      41.669  28.707  28.881  1.00  0.00     0.034 A 
ATOM     51  C   UNL A   1      48.114  27.160  26.565  1.00  0.00     0.034 A 
ATOM     52  C   UNL A   1      42.624  29.787  28.944  1.00  0.00     0.049 A 
ATOM     53  C   UNL A   1      47.744  28.551  27.018  1.00  0.00     0.074 A 
ATOM     54  C   UNL A   1      42.442  31.069  29.434  1.00  0.00     0.029 A 
ATOM     55  N   UNL A   1      43.936  29.719  28.491  1.00  0.00    -0.354 N 
ATOM     56  N   UNL A   1      46.602  28.988  27.496  1.00  0.00    -0.248 NA
ATOM     57  C   UNL A   1      48.790  29.579  26.929  1.00  0.00     0.031 C 
ATOM     58  C   UNL A   1      43.612  31.799  29.202  1.00  0.00     0.029 A 
ATOM     59  C   UNL A   1      44.558  30.950  28.649  1.00  0.00     0.049 A 
ATOM     60  H   UNL A   1      44.362  28.917  28.113  1.00  0.00     0.167 HD
ATOM     61  C   UNL A   1      46.803  30.333  27.790  1.00  0.00     0.074 A 
ATOM     62  C   UNL A   1      48.178  30.632  27.453  1.00  0.00     0.031 C 
ATOM     63  C   UNL A   1      45.929  31.240  28.299  1.00  0.00     0.034 A 
BRANCH  50  64
ATOM     64  C   UNL A   1      40.241  28.979  29.296  1.00  0.00     0.023 A 
ATOM     65  C   UNL A   1      39.844  28.950  30.644  1.00  0.00     0.031 A 
ATOM     66  C   UNL A   1      39.262  29.262  28.328  1.00  0.00     0.131 A 
ATOM     67  C   UNL A   1      38.494  29.127  30.981  1.00  0.00     0.055 A 
ATOM     68  C   UNL A   1      37.934  29.520  28.677  1.00  0.00     0.041 A 
ATOM     69  F   UNL A   1      39.575  29.283  27.023  1.00  0.00    -0.206 F 
ATOM     70  C   UNL A   1      37.540  29.439  30.009  1.00  0.00     0.022 A 
BRANCH  67  71
ATOM     71  S   UNL A   1      37.977  28.800  32.688  1.00  0.00     0.124 S 
ATOM     72  O   UNL A   1      38.985  29.535  33.448  1.00  0.00    -0.237 OA
ATOM     73  O   UNL A   1      36.626  29.349  32.720  1.00  0.00    -0.237 OA
ATOM     74  O   UNL A   1      38.062  27.345  32.800  1.00  0.00    -0.744 OA
ENDBRANCH  67  71
ENDBRANCH  50  64
BRANCH  51  75
ATOM     75  C   UNL A   1      49.471  26.879  26.008  1.00  0.00     0.023 A 
ATOM     76  C   UNL A   1      49.813  27.259  24.700  1.00  0.00     0.031 A 
ATOM     77  C   UNL A   1      50.431  26.177  26.760  1.00  0.00     0.131 A 
ATOM     78  C   UNL A   1      51.058  26.892  24.166  1.00  0.00     0.055 A 
ATOM     79  C   UNL A   1      51.691  25.868  26.245  1.00  0.00     0.041 A 
ATOM     80  F   UNL A   1      50.159  25.789  28.016  1.00  0.00    -0.206 F 
ATOM     81  C   UNL A   1      52.005  26.214  24.935  1.00  0.00     0.022 A 
BRANCH  78  82
ATOM     82  S   UNL A   1      51.386  27.229  22.414  1.00  0.00     0.124 S 
ATOM     83  O   UNL A   1      52.664  26.555  22.218  1.00  0.00    -0.237 OA
ATOM     84  O   UNL A   1      50.231  26.616  21.766  1.00  0.00    -0.237 OA
ATOM     85  O   UNL A   1      51.432  28.688  22.350  1.00  0.00    -0.744 OA
ENDBRANCH  78  82
ENDBRANCH  51  75
BRANCH  63  86
ATOM     86  C   UNL A   1      46.453  32.632  28.561  1.00  0.00     0.023 A 
ATOM     87  C   UNL A   1      46.141  33.714  27.720  1.00  0.00     0.031 A 
ATOM     88  C   UNL A   1      47.274  32.878  29.677  1.00  0.00     0.131 A 
ATOM     89  C   UNL A   1      46.687  34.981  27.979  1.00  0.00     0.055 A 
ATOM     90  C   UNL A   1      47.761  34.153  29.965  1.00  0.00     0.041 A 
ATOM     91  F   UNL A   1      47.608  31.881  30.512  1.00  0.00    -0.206 F 
ATOM     92  C   UNL A   1      47.478  35.210  29.107  1.00  0.00     0.022 A 
BRANCH  89  93
ATOM     93  S   UNL A   1      46.421  36.309  26.773  1.00  0.00     0.124 S 
ATOM     94  O   UNL A   1      47.100  35.786  25.592  1.00  0.00    -0.237 OA
ATOM     95  O   UNL A   1      44.966  36.374  26.695  1.00  0.00    -0.237 OA
ATOM     96  O   UNL A   1      47.059  37.469  27.393  1.00  0.00    -0.744 OA
ENDBRANCH  89  93
ENDBRANCH  63  86
ENDBRANCH  37  38
ENDBRANCH  29  32
ENDBRANCH  27  28
ENDBRANCH  26  27
ENDBRANCH   1  26
TORSDOF 18
ENDMDL
MODEL 3
REMARK VINA RESULT:     -11.3      1.537      7.640
REMARK SMILES Cc1nc(SCc2cccc(Cl)c2)[nH]c(=O)c1CC(=O)NCCCCNC(=O)c1ccc(-c2c3nc(c(-c4cc(S(=O)(=O)[O-])ccc4F)c4ccc([nH]4)c(-c4cc(S(=O)(=O)[O-])ccc4F)c4nc(c(-c5cc(S(=O)(=O)[O-])ccc5F)c5ccc2[nH]5)C=C4)C=C3)cc1
REMARK SMILES IDX 23 1 22 2 21 3 19 4 20 5 18 7 17 8 1 9 2 10 3 11 4 12 15 13
REMARK SMILES IDX 14 14 16 15 5 17 6 18 7 19 8 20 13 21 9 22 11 23 10 24 12 25
REMARK SMILES IDX 24 26 25 27 26 28 27 29 28 31 29 32 30 33 91 34 31 35 90 36
REMARK SMILES IDX 32 37 33 38 34 39 84 40 35 41 89 42 83 43 85 44 36 45 88 46
REMARK SMILES IDX 82 47 81 48 37 50 69 51 49 52 68 53 50 54 53 55 67 56 86 57
REMARK SMILES IDX 51 58 52 59 66 61 87 62 54 63 38 64 39 65 47 66 40 67 46 68
REMARK SMILES IDX 48 69 45 70 41 71 42 72 43 73 44 74 70 75 71 76 79 77 72 78
REMARK SMILES IDX 78 79 80 80 77 81 73 82 74 83 75 84 76 85 55 86 56 87 64 88
REMARK SMILES IDX 57 89 63 90 65 91 62 92 58 93 59 94 60 95 61 96
REMARK H PARENT 21 6 14 16 26 30 85 49 53 60
REMARK Flexibility Score: inf
ROOT
ATOM      1  C   UNL A   1      34.901  23.222  24.215  1.00  0.00     0.023 C 
ENDROOT
BRANCH   1   2
ATOM      2  C   UNL A   1      33.854  23.046  23.118  1.00  0.00     0.116 C 
BRANCH   2   3
ATOM      3  N   UNL A   1      33.852  24.165  22.195  1.00  0.00    -0.356 N 
ATOM      4  C   UNL A   1      32.863  25.048  21.874  1.00  0.00     0.224 C 
ATOM      5  O   UNL A   1      33.142  25.967  21.101  1.00  0.00    -0.275 OA
ATOM      6  H   UNL A   1      34.703  24.312  21.723  1.00  0.00     0.163 HD
BRANCH   4   7
ATOM      7  C   UNL A   1      31.491  24.981  22.543  1.00  0.00     0.143 C 
BRANCH   7   8
ATOM      8  C   UNL A   1      31.337  25.824  23.776  1.00  0.00     0.048 A 
ATOM      9  C   UNL A   1      30.887  27.970  22.552  1.00  0.00     0.067 C 
ATOM     10  C   UNL A   1      31.081  27.148  23.805  1.00  0.00     0.049 A 
ATOM     11  N   UNL A   1      31.088  27.901  24.955  1.00  0.00    -0.229 NA
ATOM     12  C   UNL A   1      31.467  27.324  26.042  1.00  0.00     0.168 A 
ATOM     13  C   UNL A   1      31.530  25.155  25.089  1.00  0.00     0.255 A 
ATOM     14  N   UNL A   1      31.694  25.993  26.149  1.00  0.00    -0.301 N 
ATOM     15  O   UNL A   1      31.548  23.942  25.212  1.00  0.00    -0.269 OA
ATOM     16  H   UNL A   1      31.983  25.623  27.014  1.00  0.00     0.172 HD
BRANCH  12  17
ATOM     17  S   UNL A   1      31.747  28.182  27.523  1.00  0.00    -0.083 SA
BRANCH  17  18
ATOM     18  C   UNL A   1      32.076  29.864  26.920  1.00  0.00     0.113 C 
BRANCH  18  19
ATOM     19  C   UNL A   1      33.437  30.421  27.281  1.00  0.00    -0.036 A 
ATOM     20  C   UNL A   1      34.528  29.571  27.509  1.00  0.00     0.005 A 
ATOM     21  C   UNL A   1      33.634  31.801  27.448  1.00  0.00     0.025 A 
ATOM     22  C   UNL A   1      35.774  30.089  27.885  1.00  0.00     0.002 A 
ATOM     23  C   UNL A   1      34.879  32.317  27.806  1.00  0.00     0.041 A 
ATOM     24  C   UNL A   1      35.954  31.466  28.024  1.00  0.00     0.020 A 
ATOM     25  Cl  UNL A   1      35.065  34.019  27.987  1.00  0.00    -0.084 Cl
ENDBRANCH  18  19
ENDBRANCH  17  18
ENDBRANCH  12  17
ENDBRANCH   7   8
ENDBRANCH   4   7
ENDBRANCH   2   3
ENDBRANCH   1   2
BRANCH   1  26
ATOM     26  C   UNL A   1      35.955  22.116  24.269  1.00  0.00     0.023 C 
BRANCH  26  27
ATOM     27  C   UNL A   1      36.553  21.846  25.647  1.00  0.00     0.116 C 
BRANCH  27  28
ATOM     28  N   UNL A   1      37.631  20.867  25.629  1.00  0.00    -0.352 N 
ATOM     29  C   UNL A   1      38.958  21.037  25.956  1.00  0.00     0.251 C 
ATOM     30  H   UNL A   1      37.376  19.959  25.345  1.00  0.00     0.163 HD
ATOM     31  O   UNL A   1      39.763  20.133  25.754  1.00  0.00    -0.269 OA
BRANCH  29  32
ATOM     32  C   UNL A   1      39.409  22.336  26.505  1.00  0.00     0.039 A 
ATOM     33  C   UNL A   1      40.512  22.362  27.360  1.00  0.00     0.014 A 
ATOM     34  C   UNL A   1      38.787  23.529  26.122  1.00  0.00     0.014 A 
ATOM     35  C   UNL A   1      41.052  23.589  27.752  1.00  0.00     0.010 A 
ATOM     36  C   UNL A   1      39.376  24.749  26.448  1.00  0.00     0.010 A 
ATOM     37  C   UNL A   1      40.525  24.792  27.253  1.00  0.00    -0.014 A 
BRANCH  37  38
ATOM     38  C   UNL A   1      41.181  26.100  27.530  1.00  0.00     0.031 A 
ATOM     39  C   UNL A   1      42.542  26.401  26.964  1.00  0.00     0.074 A 
ATOM     40  C   UNL A   1      40.583  26.985  28.356  1.00  0.00     0.049 A 
ATOM     41  N   UNL A   1      43.312  27.438  27.168  1.00  0.00    -0.248 NA
ATOM     42  C   UNL A   1      43.125  25.386  26.073  1.00  0.00     0.031 C 
ATOM     43  C   UNL A   1      39.282  26.793  29.000  1.00  0.00     0.029 A 
ATOM     44  N   UNL A   1      40.993  28.216  28.806  1.00  0.00    -0.354 N 
ATOM     45  C   UNL A   1      44.476  27.196  26.445  1.00  0.00     0.074 A 
ATOM     46  C   UNL A   1      44.329  25.887  25.845  1.00  0.00     0.031 C 
ATOM     47  C   UNL A   1      38.992  27.874  29.742  1.00  0.00     0.029 A 
ATOM     48  C   UNL A   1      40.108  28.812  29.676  1.00  0.00     0.049 A 
ATOM     49  H   UNL A   1      41.842  28.634  28.532  1.00  0.00     0.167 HD
ATOM     50  C   UNL A   1      45.555  28.000  26.280  1.00  0.00     0.034 A 
ATOM     51  C   UNL A   1      40.192  29.971  30.362  1.00  0.00     0.034 A 
ATOM     52  C   UNL A   1      45.681  29.307  26.879  1.00  0.00     0.049 A 
ATOM     53  C   UNL A   1      41.422  30.829  30.195  1.00  0.00     0.074 A 
ATOM     54  C   UNL A   1      46.701  30.230  26.723  1.00  0.00     0.029 A 
ATOM     55  N   UNL A   1      44.768  29.873  27.760  1.00  0.00    -0.354 N 
ATOM     56  N   UNL A   1      42.486  30.613  29.456  1.00  0.00    -0.248 NA
ATOM     57  C   UNL A   1      41.460  32.089  30.949  1.00  0.00     0.031 C 
ATOM     58  C   UNL A   1      46.448  31.313  27.570  1.00  0.00     0.029 A 
ATOM     59  C   UNL A   1      45.224  31.111  28.189  1.00  0.00     0.049 A 
ATOM     60  H   UNL A   1      43.921  29.456  28.040  1.00  0.00     0.167 HD
ATOM     61  C   UNL A   1      43.304  31.724  29.636  1.00  0.00     0.074 A 
ATOM     62  C   UNL A   1      42.605  32.615  30.537  1.00  0.00     0.031 C 
ATOM     63  C   UNL A   1      44.523  31.987  29.098  1.00  0.00     0.034 A 
BRANCH  50  64
ATOM     64  C   UNL A   1      46.698  27.474  25.444  1.00  0.00     0.023 A 
ATOM     65  C   UNL A   1      46.949  27.954  24.148  1.00  0.00     0.031 A 
ATOM     66  C   UNL A   1      47.544  26.470  25.948  1.00  0.00     0.131 A 
ATOM     67  C   UNL A   1      47.970  27.382  23.373  1.00  0.00     0.055 A 
ATOM     68  C   UNL A   1      48.611  25.962  25.204  1.00  0.00     0.041 A 
ATOM     69  F   UNL A   1      47.341  25.955  27.172  1.00  0.00    -0.206 F 
ATOM     70  C   UNL A   1      48.820  26.408  23.902  1.00  0.00     0.022 A 
BRANCH  67  71
ATOM     71  S   UNL A   1      48.077  27.825  21.618  1.00  0.00     0.124 S 
ATOM     72  O   UNL A   1      48.289  26.520  20.996  1.00  0.00    -0.237 OA
ATOM     73  O   UNL A   1      46.782  28.447  21.370  1.00  0.00    -0.237 OA
ATOM     74  O   UNL A   1      49.225  28.727  21.561  1.00  0.00    -0.744 OA
ENDBRANCH  67  71
ENDBRANCH  50  64
BRANCH  51  75
ATOM     75  C   UNL A   1      39.100  30.382  31.293  1.00  0.00     0.023 A 
ATOM     76  C   UNL A   1      38.216  31.423  30.963  1.00  0.00     0.031 A 
ATOM     77  C   UNL A   1      38.955  29.773  32.553  1.00  0.00     0.131 A 
ATOM     78  C   UNL A   1      37.264  31.857  31.898  1.00  0.00     0.055 A 
ATOM     79  C   UNL A   1      37.966  30.168  33.456  1.00  0.00     0.041 A 
ATOM     80  F   UNL A   1      39.771  28.773  32.923  1.00  0.00    -0.206 F 
ATOM     81  C   UNL A   1      37.122  31.227  33.136  1.00  0.00     0.022 A 
BRANCH  78  82
ATOM     82  S   UNL A   1      36.275  33.328  31.512  1.00  0.00     0.124 S 
ATOM     83  O   UNL A   1      36.978  33.860  30.350  1.00  0.00    -0.237 OA
ATOM     84  O   UNL A   1      34.959  32.750  31.257  1.00  0.00    -0.237 OA
ATOM     85  O   UNL A   1      36.374  34.134  32.726  1.00  0.00    -0.744 OA
ENDBRANCH  78  82
ENDBRANCH  51  75
BRANCH  63  86
ATOM     86  C   UNL A   1      45.157  33.314  29.441  1.00  0.00     0.023 A 
ATOM     87  C   UNL A   1      44.926  34.469  28.675  1.00  0.00     0.031 A 
ATOM     88  C   UNL A   1      46.004  33.423  30.559  1.00  0.00     0.131 A 
ATOM     89  C   UNL A   1      45.573  35.670  29.006  1.00  0.00     0.055 A 
ATOM     90  C   UNL A   1      46.594  34.634  30.921  1.00  0.00     0.041 A 
ATOM     91  F   UNL A   1      46.265  32.351  31.325  1.00  0.00    -0.206 F 
ATOM     92  C   UNL A   1      46.388  35.764  30.136  1.00  0.00     0.022 A 
BRANCH  89  93
ATOM     93  S   UNL A   1      45.403  37.090  27.890  1.00  0.00     0.124 S 
ATOM     94  O   UNL A   1      46.289  38.070  28.510  1.00  0.00    -0.237 OA
ATOM     95  O   UNL A   1      45.851  36.541  26.615  1.00  0.00    -0.237 OA
ATOM     96  O   UNL A   1      43.979  37.412  27.958  1.00  0.00    -0.744 OA
ENDBRANCH  89  93
ENDBRANCH  63  86
ENDBRANCH  37  38
ENDBRANCH  29  32
ENDBRANCH  27  28
ENDBRANCH  26  27
ENDBRANCH   1  26
TORSDOF 18
ENDMDL
