MODEL 1
REMARK VINA RESULT:     -11.8      0.000      0.000
REMARK SMILES Cc1cc(C)cc(C[N@@H+]2CCO[C@@H](CC(=O)NCCCCNC(=O)c3ccc(-c4c5nc(c(-c6cc(S(=O)(=O)[O-])ccc6F)c6ccc([nH]6)c(-c6cc(S(=O)(=O)[O-])ccc6F)c6nc(c(-c7cc(S(=O)(=O)[O-])ccc7F)c7ccc4[nH]7)C=C6)C=C5)cc3)C2)c1
REMARK SMILES IDX 19 1 18 2 17 3 15 4 16 5 14 7 13 8 9 9 10 10 88 11 11 13
REMARK SMILES IDX 12 14 8 15 7 16 1 17 2 18 3 19 89 20 4 21 5 22 6 23 20 24
REMARK SMILES IDX 21 25 22 26 23 27 24 29 25 30 26 31 87 32 27 33 86 34 28 35
REMARK SMILES IDX 29 36 30 37 80 38 31 39 85 40 79 41 81 42 32 43 84 44 78 45
REMARK SMILES IDX 77 46 33 48 65 49 45 50 64 51 46 52 49 53 63 54 82 55 47 56
REMARK SMILES IDX 48 57 62 59 83 60 50 61 34 62 35 63 43 64 36 65 42 66 44 67
REMARK SMILES IDX 41 68 37 69 38 70 39 71 40 72 66 73 67 74 75 75 68 76 74 77
REMARK SMILES IDX 76 78 73 79 69 80 70 81 71 82 72 83 51 84 52 85 60 86 53 87
REMARK SMILES IDX 59 88 61 89 58 90 54 91 55 92 56 93 57 94
REMARK H PARENT 17 6 9 12 22 28 81 47 49 58
REMARK Flexibility Score: inf
ROOT
ATOM      1  C   UNL A   1      35.450  21.591  26.176  1.00  0.00     0.023 C 
ENDROOT
BRANCH   1   2
ATOM      2  C   UNL A   1      35.240  20.671  24.966  1.00  0.00     0.116 C 
BRANCH   2   3
ATOM      3  N   UNL A   1      34.205  19.679  25.217  1.00  0.00    -0.356 N 
ATOM      4  C   UNL A   1      32.855  19.743  25.016  1.00  0.00     0.222 C 
ATOM      5  O   UNL A   1      32.162  18.792  25.385  1.00  0.00    -0.275 OA
ATOM      6  H   UNL A   1      34.529  18.828  25.592  1.00  0.00     0.163 HD
BRANCH   4   7
ATOM      7  C   UNL A   1      32.224  20.965  24.376  1.00  0.00     0.138 C 
BRANCH   7   8
ATOM      8  C   UNL A   1      31.958  22.103  25.369  1.00  0.00     0.182 C 
ATOM      9  N   UNL A   1      31.705  24.668  25.442  1.00  0.00    -0.327 N 
ATOM     10  C   UNL A   1      30.474  24.423  26.192  1.00  0.00     0.291 C 
ATOM     11  C   UNL A   1      32.116  23.478  24.700  1.00  0.00     0.295 C 
ATOM     12  H   UNL A   1      31.439  25.388  24.770  1.00  0.00     0.348 HD
ATOM     13  C   UNL A   1      30.317  23.011  26.795  1.00  0.00     0.222 C 
ATOM     14  O   UNL A   1      30.607  21.970  25.852  1.00  0.00    -0.366 OA
BRANCH   9  15
ATOM     15  C   UNL A   1      32.796  25.386  26.109  1.00  0.00     0.299 C 
BRANCH  15  16
ATOM     16  C   UNL A   1      32.851  26.863  25.813  1.00  0.00     0.007 A 
ATOM     17  C   UNL A   1      34.383  30.015  27.310  1.00  0.00     0.044 C 
ATOM     18  C   UNL A   1      33.562  29.103  26.445  1.00  0.00    -0.050 A 
ATOM     19  C   UNL A   1      32.588  29.634  25.589  1.00  0.00     0.006 A 
ATOM     20  C   UNL A   1      33.687  27.715  26.552  1.00  0.00     0.013 A 
ATOM     21  C   UNL A   1      31.771  28.793  24.822  1.00  0.00    -0.050 A 
ATOM     22  C   UNL A   1      30.654  29.358  23.998  1.00  0.00     0.044 C 
ATOM     23  C   UNL A   1      31.948  27.413  24.901  1.00  0.00     0.013 A 
ENDBRANCH  15  16
ENDBRANCH   9  15
ENDBRANCH   7   8
ENDBRANCH   4   7
ENDBRANCH   2   3
ENDBRANCH   1   2
BRANCH   1  24
ATOM     24  C   UNL A   1      35.902  23.003  25.862  1.00  0.00     0.023 C 
BRANCH  24  25
ATOM     25  C   UNL A   1      37.222  23.075  25.126  1.00  0.00     0.116 C 
BRANCH  25  26
ATOM     26  N   UNL A   1      38.251  22.202  25.678  1.00  0.00    -0.352 N 
ATOM     27  C   UNL A   1      39.325  22.555  26.463  1.00  0.00     0.251 C 
ATOM     28  H   UNL A   1      38.168  21.245  25.465  1.00  0.00     0.163 HD
ATOM     29  O   UNL A   1      40.167  21.724  26.783  1.00  0.00    -0.269 OA
BRANCH  27  30
ATOM     30  C   UNL A   1      39.460  23.971  26.856  1.00  0.00     0.039 A 
ATOM     31  C   UNL A   1      39.152  24.348  28.163  1.00  0.00     0.014 A 
ATOM     32  C   UNL A   1      40.024  24.885  25.962  1.00  0.00     0.014 A 
ATOM     33  C   UNL A   1      39.491  25.628  28.600  1.00  0.00     0.010 A 
ATOM     34  C   UNL A   1      40.467  26.110  26.433  1.00  0.00     0.010 A 
ATOM     35  C   UNL A   1      40.193  26.501  27.753  1.00  0.00    -0.014 A 
BRANCH  35  36
ATOM     36  C   UNL A   1      40.622  27.848  28.202  1.00  0.00     0.031 A 
ATOM     37  C   UNL A   1      42.092  28.162  28.277  1.00  0.00     0.074 A 
ATOM     38  C   UNL A   1      39.706  28.744  28.620  1.00  0.00     0.049 A 
ATOM     39  N   UNL A   1      42.692  29.220  28.753  1.00  0.00    -0.248 NA
ATOM     40  C   UNL A   1      43.010  27.116  27.798  1.00  0.00     0.031 C 
ATOM     41  C   UNL A   1      38.258  28.525  28.656  1.00  0.00     0.029 A 
ATOM     42  N   UNL A   1      39.860  30.017  29.108  1.00  0.00    -0.354 N 
ATOM     43  C   UNL A   1      44.054  28.954  28.657  1.00  0.00     0.074 A 
ATOM     44  C   UNL A   1      44.184  27.602  28.160  1.00  0.00     0.031 C 
ATOM     45  C   UNL A   1      37.656  29.638  29.110  1.00  0.00     0.029 A 
ATOM     46  C   UNL A   1      38.673  30.630  29.437  1.00  0.00     0.049 A 
ATOM     47  H   UNL A   1      40.737  30.451  29.212  1.00  0.00     0.167 HD
ATOM     48  C   UNL A   1      45.099  29.774  28.925  1.00  0.00     0.034 A 
ATOM     49  C   UNL A   1      38.438  31.854  29.951  1.00  0.00     0.034 A 
ATOM     50  C   UNL A   1      44.943  31.130  29.388  1.00  0.00     0.049 A 
ATOM     51  C   UNL A   1      39.612  32.760  30.221  1.00  0.00     0.074 A 
ATOM     52  C   UNL A   1      45.920  32.078  29.634  1.00  0.00     0.029 A 
ATOM     53  N   UNL A   1      43.723  31.732  29.671  1.00  0.00    -0.354 N 
ATOM     54  N   UNL A   1      40.894  32.515  30.075  1.00  0.00    -0.248 NA
ATOM     55  C   UNL A   1      39.307  34.110  30.709  1.00  0.00     0.031 C 
ATOM     56  C   UNL A   1      45.296  33.233  30.117  1.00  0.00     0.029 A 
ATOM     57  C   UNL A   1      43.924  33.032  30.108  1.00  0.00     0.049 A 
ATOM     58  H   UNL A   1      42.844  31.299  29.576  1.00  0.00     0.167 HD
ATOM     59  C   UNL A   1      41.547  33.692  30.430  1.00  0.00     0.074 A 
ATOM     60  C   UNL A   1      40.516  34.648  30.780  1.00  0.00     0.031 C 
ATOM     61  C   UNL A   1      42.878  33.962  30.461  1.00  0.00     0.034 A 
BRANCH  48  62
ATOM     62  C   UNL A   1      46.486  29.206  28.732  1.00  0.00     0.023 A 
ATOM     63  C   UNL A   1      47.039  29.037  27.448  1.00  0.00     0.031 A 
ATOM     64  C   UNL A   1      47.240  28.766  29.833  1.00  0.00     0.131 A 
ATOM     65  C   UNL A   1      48.253  28.352  27.293  1.00  0.00     0.055 A 
ATOM     66  C   UNL A   1      48.492  28.170  29.676  1.00  0.00     0.041 A 
ATOM     67  F   UNL A   1      46.758  28.880  31.081  1.00  0.00    -0.206 F 
ATOM     68  C   UNL A   1      48.998  27.941  28.399  1.00  0.00     0.022 A 
BRANCH  65  69
ATOM     69  S   UNL A   1      48.753  27.854  25.621  1.00  0.00     0.124 S 
ATOM     70  O   UNL A   1      48.867  26.405  25.769  1.00  0.00    -0.237 OA
ATOM     71  O   UNL A   1      47.642  28.327  24.805  1.00  0.00    -0.237 OA
ATOM     72  O   UNL A   1      50.020  28.554  25.420  1.00  0.00    -0.744 OA
ENDBRANCH  65  69
ENDBRANCH  48  62
BRANCH  49  73
ATOM     73  C   UNL A   1      37.045  32.297  30.236  1.00  0.00     0.023 A 
ATOM     74  C   UNL A   1      36.282  32.958  29.259  1.00  0.00     0.031 A 
ATOM     75  C   UNL A   1      36.462  32.090  31.499  1.00  0.00     0.131 A 
ATOM     76  C   UNL A   1      34.995  33.425  29.573  1.00  0.00     0.055 A 
ATOM     77  C   UNL A   1      35.165  32.515  31.791  1.00  0.00     0.041 A 
ATOM     78  F   UNL A   1      37.144  31.453  32.464  1.00  0.00    -0.206 F 
ATOM     79  C   UNL A   1      34.427  33.198  30.829  1.00  0.00     0.022 A 
BRANCH  76  80
ATOM     80  S   UNL A   1      34.097  34.394  28.331  1.00  0.00     0.124 S 
ATOM     81  O   UNL A   1      35.081  34.494  27.260  1.00  0.00    -0.237 OA
ATOM     82  O   UNL A   1      32.940  33.545  28.062  1.00  0.00    -0.237 OA
ATOM     83  O   UNL A   1      33.799  35.645  29.025  1.00  0.00    -0.744 OA
ENDBRANCH  76  80
ENDBRANCH  49  73
BRANCH  61  84
ATOM     84  C   UNL A   1      43.278  35.363  30.848  1.00  0.00     0.023 A 
ATOM     85  C   UNL A   1      43.449  36.374  29.889  1.00  0.00     0.031 A 
ATOM     86  C   UNL A   1      43.496  35.684  32.200  1.00  0.00     0.131 A 
ATOM     87  C   UNL A   1      43.878  37.648  30.289  1.00  0.00     0.055 A 
ATOM     88  C   UNL A   1      43.868  36.968  32.597  1.00  0.00     0.041 A 
ATOM     89  F   UNL A   1      43.347  34.753  33.156  1.00  0.00    -0.206 F 
ATOM     90  C   UNL A   1      44.072  37.956  31.637  1.00  0.00     0.022 A 
BRANCH  87  91
ATOM     91  S   UNL A   1      44.259  38.878  29.011  1.00  0.00     0.124 S 
ATOM     92  O   UNL A   1      43.070  39.725  29.041  1.00  0.00    -0.237 OA
ATOM     93  O   UNL A   1      45.486  39.484  29.516  1.00  0.00    -0.237 OA
ATOM     94  O   UNL A   1      44.418  38.075  27.800  1.00  0.00    -0.744 OA
ENDBRANCH  87  91
ENDBRANCH  61  84
ENDBRANCH  35  36
ENDBRANCH  27  30
ENDBRANCH  25  26
ENDBRANCH  24  25
ENDBRANCH   1  24
TORSDOF 17
ENDMDL
MODEL 2
REMARK VINA RESULT:     -11.8      1.867      2.169
REMARK SMILES Cc1cc(C)cc(C[N@@H+]2CCO[C@@H](CC(=O)NCCCCNC(=O)c3ccc(-c4c5nc(c(-c6cc(S(=O)(=O)[O-])ccc6F)c6ccc([nH]6)c(-c6cc(S(=O)(=O)[O-])ccc6F)c6nc(c(-c7cc(S(=O)(=O)[O-])ccc7F)c7ccc4[nH]7)C=C6)C=C5)cc3)C2)c1
REMARK SMILES IDX 19 1 18 2 17 3 15 4 16 5 14 7 13 8 9 9 10 10 88 11 11 13
REMARK SMILES IDX 12 14 8 15 7 16 1 17 2 18 3 19 89 20 4 21 5 22 6 23 20 24
REMARK SMILES IDX 21 25 22 26 23 27 24 29 25 30 26 31 87 32 27 33 86 34 28 35
REMARK SMILES IDX 29 36 30 37 80 38 31 39 85 40 79 41 81 42 32 43 84 44 78 45
REMARK SMILES IDX 77 46 33 48 65 49 45 50 64 51 46 52 49 53 63 54 82 55 47 56
REMARK SMILES IDX 48 57 62 59 83 60 50 61 34 62 35 63 43 64 36 65 42 66 44 67
REMARK SMILES IDX 41 68 37 69 38 70 39 71 40 72 66 73 67 74 75 75 68 76 74 77
REMARK SMILES IDX 76 78 73 79 69 80 70 81 71 82 72 83 51 84 52 85 60 86 53 87
REMARK SMILES IDX 59 88 61 89 58 90 54 91 55 92 56 93 57 94
REMARK H PARENT 17 6 9 12 22 28 81 47 49 58
REMARK Flexibility Score: inf
ROOT
ATOM      1  C   UNL A   1      35.532  21.688  26.151  1.00  0.00     0.023 C 
ENDROOT
BRANCH   1   2
ATOM      2  C   UNL A   1      35.305  20.744  24.964  1.00  0.00     0.116 C 
BRANCH   2   3
ATOM      3  N   UNL A   1      34.369  19.679  25.294  1.00  0.00    -0.356 N 
ATOM      4  C   UNL A   1      33.012  19.620  25.149  1.00  0.00     0.222 C 
ATOM      5  O   UNL A   1      32.420  18.629  25.581  1.00  0.00    -0.275 OA
ATOM      6  H   UNL A   1      34.780  18.873  25.686  1.00  0.00     0.163 HD
BRANCH   4   7
ATOM      7  C   UNL A   1      32.254  20.757  24.492  1.00  0.00     0.138 C 
BRANCH   7   8
ATOM      8  C   UNL A   1      31.987  21.936  25.437  1.00  0.00     0.182 C 
ATOM      9  N   UNL A   1      31.871  24.512  25.429  1.00  0.00    -0.327 N 
ATOM     10  C   UNL A   1      30.583  24.354  26.101  1.00  0.00     0.291 C 
ATOM     11  C   UNL A   1      32.263  23.280  24.745  1.00  0.00     0.295 C 
ATOM     12  H   UNL A   1      31.688  25.225  24.723  1.00  0.00     0.348 HD
ATOM     13  C   UNL A   1      30.311  22.970  26.728  1.00  0.00     0.222 C 
ATOM     14  O   UNL A   1      30.603  21.888  25.833  1.00  0.00    -0.366 OA
BRANCH   9  15
ATOM     15  C   UNL A   1      32.954  25.190  26.147  1.00  0.00     0.299 C 
BRANCH  15  16
ATOM     16  C   UNL A   1      33.152  26.636  25.769  1.00  0.00     0.007 A 
ATOM     17  C   UNL A   1      32.030  30.075  26.968  1.00  0.00     0.044 C 
ATOM     18  C   UNL A   1      32.639  28.987  26.132  1.00  0.00    -0.050 A 
ATOM     19  C   UNL A   1      33.093  29.267  24.836  1.00  0.00     0.006 A 
ATOM     20  C   UNL A   1      32.671  27.667  26.592  1.00  0.00     0.013 A 
ATOM     21  C   UNL A   1      33.606  28.250  24.021  1.00  0.00    -0.050 A 
ATOM     22  C   UNL A   1      33.981  28.530  22.596  1.00  0.00     0.044 C 
ATOM     23  C   UNL A   1      33.681  26.950  24.516  1.00  0.00     0.013 A 
ENDBRANCH  15  16
ENDBRANCH   9  15
ENDBRANCH   7   8
ENDBRANCH   4   7
ENDBRANCH   2   3
ENDBRANCH   1   2
BRANCH   1  24
ATOM     24  C   UNL A   1      35.995  23.088  25.802  1.00  0.00     0.023 C 
BRANCH  24  25
ATOM     25  C   UNL A   1      37.321  23.133  25.075  1.00  0.00     0.116 C 
BRANCH  25  26
ATOM     26  N   UNL A   1      38.338  22.265  25.654  1.00  0.00    -0.352 N 
ATOM     27  C   UNL A   1      39.394  22.624  26.461  1.00  0.00     0.251 C 
ATOM     28  H   UNL A   1      38.261  21.306  25.444  1.00  0.00     0.163 HD
ATOM     29  O   UNL A   1      40.230  21.796  26.804  1.00  0.00    -0.269 OA
BRANCH  27  30
ATOM     30  C   UNL A   1      39.519  24.042  26.849  1.00  0.00     0.039 A 
ATOM     31  C   UNL A   1      39.249  24.414  28.166  1.00  0.00     0.014 A 
ATOM     32  C   UNL A   1      40.036  24.965  25.937  1.00  0.00     0.014 A 
ATOM     33  C   UNL A   1      39.581  25.700  28.591  1.00  0.00     0.010 A 
ATOM     34  C   UNL A   1      40.474  26.197  26.392  1.00  0.00     0.010 A 
ATOM     35  C   UNL A   1      40.239  26.584  27.721  1.00  0.00    -0.014 A 
BRANCH  35  36
ATOM     36  C   UNL A   1      40.661  27.938  28.155  1.00  0.00     0.031 A 
ATOM     37  C   UNL A   1      42.123  28.293  28.132  1.00  0.00     0.074 A 
ATOM     38  C   UNL A   1      39.752  28.803  28.646  1.00  0.00     0.049 A 
ATOM     39  N   UNL A   1      42.725  29.364  28.578  1.00  0.00    -0.248 NA
ATOM     40  C   UNL A   1      43.034  27.279  27.578  1.00  0.00     0.031 C 
ATOM     41  C   UNL A   1      38.316  28.543  28.780  1.00  0.00     0.029 A 
ATOM     42  N   UNL A   1      39.903  30.075  29.137  1.00  0.00    -0.354 N 
ATOM     43  C   UNL A   1      44.083  29.137  28.385  1.00  0.00     0.074 A 
ATOM     44  C   UNL A   1      44.216  27.795  27.863  1.00  0.00     0.031 C 
ATOM     45  C   UNL A   1      37.716  29.633  29.288  1.00  0.00     0.029 A 
ATOM     46  C   UNL A   1      38.725  30.651  29.555  1.00  0.00     0.049 A 
ATOM     47  H   UNL A   1      40.773  30.533  29.186  1.00  0.00     0.167 HD
ATOM     48  C   UNL A   1      45.122  29.984  28.590  1.00  0.00     0.034 A 
ATOM     49  C   UNL A   1      38.493  31.862  30.099  1.00  0.00     0.034 A 
ATOM     50  C   UNL A   1      44.960  31.330  29.078  1.00  0.00     0.049 A 
ATOM     51  C   UNL A   1      39.657  32.799  30.298  1.00  0.00     0.074 A 
ATOM     52  C   UNL A   1      45.925  32.304  29.267  1.00  0.00     0.029 A 
ATOM     53  N   UNL A   1      43.746  31.895  29.452  1.00  0.00    -0.354 N 
ATOM     54  N   UNL A   1      40.932  32.592  30.061  1.00  0.00    -0.248 NA
ATOM     55  C   UNL A   1      39.348  34.135  30.821  1.00  0.00     0.031 C 
ATOM     56  C   UNL A   1      45.304  33.436  29.806  1.00  0.00     0.029 A 
ATOM     57  C   UNL A   1      43.941  33.195  29.890  1.00  0.00     0.049 A 
ATOM     58  H   UNL A   1      42.875  31.437  29.413  1.00  0.00     0.167 HD
ATOM     59  C   UNL A   1      41.575  33.784  30.383  1.00  0.00     0.074 A 
ATOM     60  C   UNL A   1      40.544  34.706  30.815  1.00  0.00     0.031 C 
ATOM     61  C   UNL A   1      42.897  34.092  30.325  1.00  0.00     0.034 A 
BRANCH  48  62
ATOM     62  C   UNL A   1      46.507  29.459  28.294  1.00  0.00     0.023 A 
ATOM     63  C   UNL A   1      47.249  28.755  29.261  1.00  0.00     0.031 A 
ATOM     64  C   UNL A   1      47.123  29.719  27.058  1.00  0.00     0.131 A 
ATOM     65  C   UNL A   1      48.591  28.430  29.016  1.00  0.00     0.055 A 
ATOM     66  C   UNL A   1      48.429  29.309  26.786  1.00  0.00     0.041 A 
ATOM     67  F   UNL A   1      46.475  30.404  26.102  1.00  0.00    -0.206 F 
ATOM     68  C   UNL A   1      49.180  28.678  27.775  1.00  0.00     0.022 A 
BRANCH  65  69
ATOM     69  S   UNL A   1      49.602  27.841  30.402  1.00  0.00     0.124 S 
ATOM     70  O   UNL A   1      49.020  28.575  31.523  1.00  0.00    -0.237 OA
ATOM     71  O   UNL A   1      49.355  26.404  30.384  1.00  0.00    -0.237 OA
ATOM     72  O   UNL A   1      50.957  28.247  30.036  1.00  0.00    -0.744 OA
ENDBRANCH  65  69
ENDBRANCH  48  62
BRANCH  49  73
ATOM     73  C   UNL A   1      37.110  32.262  30.485  1.00  0.00     0.023 A 
ATOM     74  C   UNL A   1      36.245  32.863  29.556  1.00  0.00     0.031 A 
ATOM     75  C   UNL A   1      36.641  32.074  31.797  1.00  0.00     0.131 A 
ATOM     76  C   UNL A   1      34.971  33.292  29.961  1.00  0.00     0.055 A 
ATOM     77  C   UNL A   1      35.357  32.460  32.183  1.00  0.00     0.041 A 
ATOM     78  F   UNL A   1      37.424  31.493  32.720  1.00  0.00    -0.206 F 
ATOM     79  C   UNL A   1      34.517  33.084  31.265  1.00  0.00     0.022 A 
BRANCH  76  80
ATOM     80  S   UNL A   1      33.937  34.187  28.770  1.00  0.00     0.124 S 
ATOM     81  O   UNL A   1      32.842  34.650  29.614  1.00  0.00    -0.237 OA
ATOM     82  O   UNL A   1      34.854  35.216  28.286  1.00  0.00    -0.237 OA
ATOM     83  O   UNL A   1      33.582  33.163  27.790  1.00  0.00    -0.744 OA
ENDBRANCH  76  80
ENDBRANCH  49  73
BRANCH  61  84
ATOM     84  C   UNL A   1      43.284  35.499  30.701  1.00  0.00     0.023 A 
ATOM     85  C   UNL A   1      43.495  35.874  32.038  1.00  0.00     0.031 A 
ATOM     86  C   UNL A   1      43.438  36.478  29.702  1.00  0.00     0.131 A 
ATOM     87  C   UNL A   1      43.799  37.208  32.347  1.00  0.00     0.055 A 
ATOM     88  C   UNL A   1      43.794  37.790  30.011  1.00  0.00     0.041 A 
ATOM     89  F   UNL A   1      43.246  36.170  28.409  1.00  0.00    -0.206 F 
ATOM     90  C   UNL A   1      43.966  38.164  31.342  1.00  0.00     0.022 A 
BRANCH  87  91
ATOM     91  S   UNL A   1      43.892  37.697  34.091  1.00  0.00     0.124 S 
ATOM     92  O   UNL A   1      42.806  38.667  34.192  1.00  0.00    -0.237 OA
ATOM     93  O   UNL A   1      43.681  36.430  34.782  1.00  0.00    -0.237 OA
ATOM     94  O   UNL A   1      45.237  38.255  34.219  1.00  0.00    -0.744 OA
ENDBRANCH  87  91
ENDBRANCH  61  84
ENDBRANCH  35  36
ENDBRANCH  27  30
ENDBRANCH  25  26
ENDBRANCH  24  25
ENDBRANCH   1  24
TORSDOF 17
ENDMDL
MODEL 3
REMARK VINA RESULT:     -11.6      3.549      6.482
REMARK SMILES Cc1cc(C)cc(C[N@@H+]2CCO[C@@H](CC(=O)NCCCCNC(=O)c3ccc(-c4c5nc(c(-c6cc(S(=O)(=O)[O-])ccc6F)c6ccc([nH]6)c(-c6cc(S(=O)(=O)[O-])ccc6F)c6nc(c(-c7cc(S(=O)(=O)[O-])ccc7F)c7ccc4[nH]7)C=C6)C=C5)cc3)C2)c1
REMARK SMILES IDX 19 1 18 2 17 3 15 4 16 5 14 7 13 8 9 9 10 10 88 11 11 13
REMARK SMILES IDX 12 14 8 15 7 16 1 17 2 18 3 19 89 20 4 21 5 22 6 23 20 24
REMARK SMILES IDX 21 25 22 26 23 27 24 29 25 30 26 31 87 32 27 33 86 34 28 35
REMARK SMILES IDX 29 36 30 37 80 38 31 39 85 40 79 41 81 42 32 43 84 44 78 45
REMARK SMILES IDX 77 46 33 48 65 49 45 50 64 51 46 52 49 53 63 54 82 55 47 56
REMARK SMILES IDX 48 57 62 59 83 60 50 61 34 62 35 63 43 64 36 65 42 66 44 67
REMARK SMILES IDX 41 68 37 69 38 70 39 71 40 72 66 73 67 74 75 75 68 76 74 77
REMARK SMILES IDX 76 78 73 79 69 80 70 81 71 82 72 83 51 84 52 85 60 86 53 87
REMARK SMILES IDX 59 88 61 89 58 90 54 91 55 92 56 93 57 94
REMARK H PARENT 17 6 9 12 22 28 81 47 49 58
REMARK Flexibility Score: inf
ROOT
ATOM      1  C   UNL A   1      42.060  19.562  27.190  1.00  0.00     0.023 C 
ENDROOT
BRANCH   1   2
ATOM      2  C   UNL A   1      42.473  19.137  25.775  1.00  0.00     0.116 C 
BRANCH   2   3
ATOM      3  N   UNL A   1      43.841  18.640  25.741  1.00  0.00    -0.356 N 
ATOM      4  C   UNL A   1      44.934  19.110  25.069  1.00  0.00     0.222 C 
ATOM      5  O   UNL A   1      45.983  18.465  25.133  1.00  0.00    -0.275 OA
ATOM      6  H   UNL A   1      44.004  17.837  26.288  1.00  0.00     0.163 HD
BRANCH   4   7
ATOM      7  C   UNL A   1      44.850  20.381  24.246  1.00  0.00     0.138 C 
BRANCH   7   8
ATOM      8  C   UNL A   1      44.826  21.656  25.098  1.00  0.00     0.182 C 
ATOM      9  N   UNL A   1      46.171  23.822  25.485  1.00  0.00    -0.327 N 
ATOM     10  C   UNL A   1      44.896  24.520  25.334  1.00  0.00     0.291 C 
ATOM     11  C   UNL A   1      46.109  22.480  24.907  1.00  0.00     0.295 C 
ATOM     12  H   UNL A   1      46.819  24.380  24.929  1.00  0.00     0.348 HD
ATOM     13  C   UNL A   1      43.628  23.651  25.466  1.00  0.00     0.222 C 
ATOM     14  O   UNL A   1      43.695  22.449  24.686  1.00  0.00    -0.366 OA
BRANCH   9  15
ATOM     15  C   UNL A   1      46.864  23.906  26.774  1.00  0.00     0.299 C 
BRANCH  15  16
ATOM     16  C   UNL A   1      46.014  24.402  27.915  1.00  0.00     0.007 A 
ATOM     17  C   UNL A   1      46.028  27.238  30.461  1.00  0.00     0.044 C 
ATOM     18  C   UNL A   1      45.660  25.974  29.739  1.00  0.00    -0.050 A 
ATOM     19  C   UNL A   1      44.751  25.075  30.313  1.00  0.00     0.006 A 
ATOM     20  C   UNL A   1      46.288  25.630  28.539  1.00  0.00     0.013 A 
ATOM     21  C   UNL A   1      44.445  23.863  29.682  1.00  0.00    -0.050 A 
ATOM     22  C   UNL A   1      43.564  22.853  30.353  1.00  0.00     0.044 C 
ATOM     23  C   UNL A   1      45.040  23.561  28.458  1.00  0.00     0.013 A 
ENDBRANCH  15  16
ENDBRANCH   9  15
ENDBRANCH   7   8
ENDBRANCH   4   7
ENDBRANCH   2   3
ENDBRANCH   1   2
BRANCH   1  24
ATOM     24  C   UNL A   1      42.462  20.963  27.603  1.00  0.00     0.023 C 
BRANCH  24  25
ATOM     25  C   UNL A   1      41.292  21.900  27.814  1.00  0.00     0.116 C 
BRANCH  25  26
ATOM     26  N   UNL A   1      40.137  21.593  26.981  1.00  0.00    -0.352 N 
ATOM     27  C   UNL A   1      39.190  22.466  26.495  1.00  0.00     0.251 C 
ATOM     28  H   UNL A   1      40.018  20.646  26.735  1.00  0.00     0.163 HD
ATOM     29  O   UNL A   1      38.215  22.053  25.878  1.00  0.00    -0.269 OA
BRANCH  27  30
ATOM     30  C   UNL A   1      39.357  23.902  26.790  1.00  0.00     0.039 A 
ATOM     31  C   UNL A   1      39.054  24.374  28.067  1.00  0.00     0.014 A 
ATOM     32  C   UNL A   1      39.942  24.740  25.837  1.00  0.00     0.014 A 
ATOM     33  C   UNL A   1      39.422  25.674  28.416  1.00  0.00     0.010 A 
ATOM     34  C   UNL A   1      40.412  25.984  26.224  1.00  0.00     0.010 A 
ATOM     35  C   UNL A   1      40.145  26.470  27.513  1.00  0.00    -0.014 A 
BRANCH  35  36
ATOM     36  C   UNL A   1      40.604  27.835  27.871  1.00  0.00     0.031 A 
ATOM     37  C   UNL A   1      42.046  28.204  27.650  1.00  0.00     0.074 A 
ATOM     38  C   UNL A   1      39.757  28.697  28.466  1.00  0.00     0.049 A 
ATOM     39  N   UNL A   1      42.688  29.287  27.999  1.00  0.00    -0.248 NA
ATOM     40  C   UNL A   1      42.888  27.191  26.995  1.00  0.00     0.031 C 
ATOM     41  C   UNL A   1      38.355  28.425  28.791  1.00  0.00     0.029 A 
ATOM     42  N   UNL A   1      39.957  29.978  28.916  1.00  0.00    -0.354 N 
ATOM     43  C   UNL A   1      44.012  29.072  27.631  1.00  0.00     0.074 A 
ATOM     44  C   UNL A   1      44.092  27.723  27.115  1.00  0.00     0.031 C 
ATOM     45  C   UNL A   1      37.814  29.516  29.359  1.00  0.00     0.029 A 
ATOM     46  C   UNL A   1      38.837  30.548  29.478  1.00  0.00     0.049 A 
ATOM     47  H   UNL A   1      40.819  30.445  28.843  1.00  0.00     0.167 HD
ATOM     48  C   UNL A   1      45.058  29.932  27.686  1.00  0.00     0.034 A 
ATOM     49  C   UNL A   1      38.664  31.765  30.031  1.00  0.00     0.034 A 
ATOM     50  C   UNL A   1      44.946  31.284  28.173  1.00  0.00     0.049 A 
ATOM     51  C   UNL A   1      39.833  32.716  30.062  1.00  0.00     0.074 A 
ATOM     52  C   UNL A   1      45.916  32.269  28.221  1.00  0.00     0.029 A 
ATOM     53  N   UNL A   1      43.786  31.841  28.697  1.00  0.00    -0.354 N 
ATOM     54  N   UNL A   1      41.068  32.519  29.662  1.00  0.00    -0.248 NA
ATOM     55  C   UNL A   1      39.580  34.056  30.604  1.00  0.00     0.031 C 
ATOM     56  C   UNL A   1      45.358  33.403  28.822  1.00  0.00     0.029 A 
ATOM     57  C   UNL A   1      44.021  33.150  29.088  1.00  0.00     0.049 A 
ATOM     58  H   UNL A   1      42.923  31.374  28.779  1.00  0.00     0.167 HD
ATOM     59  C   UNL A   1      41.733  33.721  29.881  1.00  0.00     0.074 A 
ATOM     60  C   UNL A   1      40.757  34.640  30.433  1.00  0.00     0.031 C 
ATOM     61  C   UNL A   1      43.032  34.042  29.645  1.00  0.00     0.034 A 
BRANCH  48  62
ATOM     62  C   UNL A   1      46.399  29.416  27.217  1.00  0.00     0.023 A 
ATOM     63  C   UNL A   1      46.603  29.002  25.887  1.00  0.00     0.031 A 
ATOM     64  C   UNL A   1      47.466  29.272  28.119  1.00  0.00     0.131 A 
ATOM     65  C   UNL A   1      47.802  28.370  25.526  1.00  0.00     0.055 A 
ATOM     66  C   UNL A   1      48.692  28.729  27.729  1.00  0.00     0.041 A 
ATOM     67  F   UNL A   1      47.327  29.629  29.406  1.00  0.00    -0.206 F 
ATOM     68  C   UNL A   1      48.859  28.254  26.430  1.00  0.00     0.022 A 
BRANCH  65  69
ATOM     69  S   UNL A   1      47.890  27.548  23.911  1.00  0.00     0.124 S 
ATOM     70  O   UNL A   1      49.283  27.785  23.537  1.00  0.00    -0.237 OA
ATOM     71  O   UNL A   1      47.544  26.170  24.239  1.00  0.00    -0.237 OA
ATOM     72  O   UNL A   1      46.905  28.266  23.107  1.00  0.00    -0.744 OA
ENDBRANCH  65  69
ENDBRANCH  48  62
BRANCH  49  73
ATOM     73  C   UNL A   1      37.340  32.157  30.591  1.00  0.00     0.023 A 
ATOM     74  C   UNL A   1      36.377  32.795  29.792  1.00  0.00     0.031 A 
ATOM     75  C   UNL A   1      37.026  31.922  31.941  1.00  0.00     0.131 A 
ATOM     76  C   UNL A   1      35.163  33.214  30.359  1.00  0.00     0.055 A 
ATOM     77  C   UNL A   1      35.799  32.300  32.489  1.00  0.00     0.041 A 
ATOM     78  F   UNL A   1      37.906  31.305  32.745  1.00  0.00    -0.206 F 
ATOM     79  C   UNL A   1      34.862  32.961  31.699  1.00  0.00     0.022 A 
BRANCH  76  80
ATOM     80  S   UNL A   1      34.004  34.157  29.330  1.00  0.00     0.124 S 
ATOM     81  O   UNL A   1      33.493  33.127  28.435  1.00  0.00    -0.237 OA
ATOM     82  O   UNL A   1      33.065  34.669  30.324  1.00  0.00    -0.237 OA
ATOM     83  O   UNL A   1      34.852  35.168  28.702  1.00  0.00    -0.744 OA
ENDBRANCH  76  80
ENDBRANCH  49  73
BRANCH  61  84
ATOM     84  C   UNL A   1      43.449  35.458  29.948  1.00  0.00     0.023 A 
ATOM     85  C   UNL A   1      43.247  36.500  29.027  1.00  0.00     0.031 A 
ATOM     86  C   UNL A   1      44.061  35.766  31.176  1.00  0.00     0.131 A 
ATOM     87  C   UNL A   1      43.701  37.792  29.327  1.00  0.00     0.055 A 
ATOM     88  C   UNL A   1      44.460  37.064  31.492  1.00  0.00     0.041 A 
ATOM     89  F   UNL A   1      44.277  34.806  32.090  1.00  0.00    -0.206 F 
ATOM     90  C   UNL A   1      44.292  38.084  30.559  1.00  0.00     0.022 A 
BRANCH  87  91
ATOM     91  S   UNL A   1      43.586  39.074  28.048  1.00  0.00     0.124 S 
ATOM     92  O   UNL A   1      42.756  40.080  28.702  1.00  0.00    -0.237 OA
ATOM     93  O   UNL A   1      44.984  39.436  27.841  1.00  0.00    -0.237 OA
ATOM     94  O   UNL A   1      42.953  38.381  26.927  1.00  0.00    -0.744 OA
ENDBRANCH  87  91
ENDBRANCH  61  84
ENDBRANCH  35  36
ENDBRANCH  27  30
ENDBRANCH  25  26
ENDBRANCH  24  25
ENDBRANCH   1  24
TORSDOF 17
ENDMDL
