MODEL 1
REMARK VINA RESULT:     -11.0      0.000      0.000
REMARK SMILES N#C[C@@H]1CN(C(=O)N[C@@H](Cc2cnc[nH]2)C(=O)NCCCCNC(=O)c2ccc(-c3c4nc(c(-c5cc(S(=O)(=O)[O-])ccc5F)c5ccc([nH]5)c(-c5cc(S(=O)(=O)[O-])ccc5F)c5nc(c(-c6cc(S(=O)(=O)[O-])ccc6F)c6ccc3[nH]6)C=C5)C=C4)cc2)CCO1
REMARK SMILES IDX 20 1 19 2 18 3 16 4 17 5 9 7 8 8 6 9 7 10 5 12 3 13 4 14
REMARK SMILES IDX 91 15 90 16 89 17 2 18 1 19 10 20 11 21 12 22 15 23 13 24
REMARK SMILES IDX 14 25 21 27 22 28 23 29 24 30 25 32 26 33 27 34 88 35 28 36
REMARK SMILES IDX 87 37 29 38 30 39 31 40 81 41 32 42 86 43 80 44 82 45 33 46
REMARK SMILES IDX 85 47 79 48 78 49 34 51 66 52 46 53 65 54 47 55 50 56 64 57
REMARK SMILES IDX 83 58 48 59 49 60 63 62 84 63 51 64 35 65 36 66 44 67 37 68
REMARK SMILES IDX 43 69 45 70 42 71 38 72 39 73 40 74 41 75 67 76 68 77 76 78
REMARK SMILES IDX 69 79 75 80 77 81 74 82 70 83 71 84 72 85 73 86 52 87 53 88
REMARK SMILES IDX 61 89 54 90 60 91 62 92 59 93 55 94 56 95 57 96 58 97
REMARK H PARENT 18 6 8 11 15 26 23 31 82 50 50 61
REMARK Flexibility Score: inf
ROOT
ATOM      1  C   UNL A   1      31.752  27.693  26.396  1.00  0.00     0.023 C 
ENDROOT
BRANCH   1   2
ATOM      2  C   UNL A   1      32.120  26.223  26.423  1.00  0.00     0.116 C 
BRANCH   2   3
ATOM      3  N   UNL A   1      31.046  25.359  26.847  1.00  0.00    -0.354 N 
ATOM      4  C   UNL A   1      30.799  24.077  26.477  1.00  0.00     0.243 C 
ATOM      5  O   UNL A   1      30.105  23.386  27.232  1.00  0.00    -0.273 OA
ATOM      6  H   UNL A   1      30.409  25.750  27.489  1.00  0.00     0.163 HD
BRANCH   4   7
ATOM      7  C   UNL A   1      31.419  23.429  25.226  1.00  0.00     0.179 C 
BRANCH   7   8
ATOM      8  N   UNL A   1      31.862  22.035  25.358  1.00  0.00    -0.326 N 
ATOM      9  C   UNL A   1      33.004  21.352  25.517  1.00  0.00     0.318 C 
ATOM     10  O   UNL A   1      32.861  20.128  25.597  1.00  0.00    -0.249 OA
ATOM     11  H   UNL A   1      31.094  21.421  25.316  1.00  0.00     0.166 HD
BRANCH   9  12
ATOM     12  N   UNL A   1      34.236  21.917  25.587  1.00  0.00    -0.319 N 
ATOM     13  C   UNL A   1      35.710  22.829  23.874  1.00  0.00     0.240 C 
ATOM     14  C   UNL A   1      35.434  21.662  24.804  1.00  0.00     0.169 C 
ATOM     15  O   UNL A   1      36.050  23.954  24.758  1.00  0.00    -0.360 OA
ATOM     16  C   UNL A   1      34.942  24.304  25.625  1.00  0.00     0.183 C 
ATOM     17  C   UNL A   1      34.421  23.104  26.443  1.00  0.00     0.150 C 
BRANCH  13  18
ATOM     18  C   UNL A   1      34.638  23.302  22.907  1.00  0.00     0.096 C 
ATOM     19  N   UNL A   1      33.747  23.695  22.104  1.00  0.00    -0.195 NA
ENDBRANCH  13  18
ENDBRANCH   9  12
ENDBRANCH   7   8
BRANCH   7  20
ATOM     20  C   UNL A   1      30.719  23.737  23.890  1.00  0.00     0.090 C 
BRANCH  20  21
ATOM     21  C   UNL A   1      30.610  25.169  23.502  1.00  0.00     0.037 A 
ATOM     22  C   UNL A   1      29.616  26.111  23.668  1.00  0.00     0.134 A 
ATOM     23  N   UNL A   1      31.589  25.826  22.791  1.00  0.00    -0.348 N 
ATOM     24  N   UNL A   1      30.005  27.323  23.165  1.00  0.00    -0.245 NA
ATOM     25  C   UNL A   1      31.187  27.121  22.631  1.00  0.00     0.196 A 
ATOM     26  H   UNL A   1      32.427  25.432  22.457  1.00  0.00     0.167 HD
ENDBRANCH  20  21
ENDBRANCH   7  20
ENDBRANCH   4   7
ENDBRANCH   2   3
ENDBRANCH   1   2
BRANCH   1  27
ATOM     27  C   UNL A   1      32.612  28.584  27.283  1.00  0.00     0.023 C 
BRANCH  27  28
ATOM     28  C   UNL A   1      33.456  29.621  26.553  1.00  0.00     0.116 C 
BRANCH  28  29
ATOM     29  N   UNL A   1      33.478  30.928  27.197  1.00  0.00    -0.352 N 
ATOM     30  C   UNL A   1      34.410  31.444  28.068  1.00  0.00     0.251 C 
ATOM     31  H   UNL A   1      32.724  31.522  26.980  1.00  0.00     0.163 HD
ATOM     32  O   UNL A   1      34.236  32.540  28.592  1.00  0.00    -0.269 OA
BRANCH  30  33
ATOM     33  C   UNL A   1      35.602  30.638  28.399  1.00  0.00     0.039 A 
ATOM     34  C   UNL A   1      36.766  30.812  27.649  1.00  0.00     0.014 A 
ATOM     35  C   UNL A   1      35.589  29.781  29.502  1.00  0.00     0.014 A 
ATOM     36  C   UNL A   1      37.948  30.195  28.064  1.00  0.00     0.010 A 
ATOM     37  C   UNL A   1      36.784  29.245  29.965  1.00  0.00     0.010 A 
ATOM     38  C   UNL A   1      37.978  29.451  29.254  1.00  0.00    -0.014 A 
BRANCH  38  39
ATOM     39  C   UNL A   1      39.248  28.886  29.782  1.00  0.00     0.031 A 
ATOM     40  C   UNL A   1      39.941  29.552  30.939  1.00  0.00     0.074 A 
ATOM     41  C   UNL A   1      39.822  27.836  29.163  1.00  0.00     0.049 A 
ATOM     42  N   UNL A   1      41.097  29.276  31.484  1.00  0.00    -0.248 NA
ATOM     43  C   UNL A   1      39.258  30.711  31.533  1.00  0.00     0.031 C 
ATOM     44  C   UNL A   1      39.284  27.151  27.984  1.00  0.00     0.029 A 
ATOM     45  N   UNL A   1      40.994  27.170  29.424  1.00  0.00    -0.354 N 
ATOM     46  C   UNL A   1      41.294  30.243  32.464  1.00  0.00     0.074 A 
ATOM     47  C   UNL A   1      40.168  31.149  32.389  1.00  0.00     0.031 C 
ATOM     48  C   UNL A   1      40.114  26.154  27.637  1.00  0.00     0.029 A 
ATOM     49  C   UNL A   1      41.261  26.152  28.538  1.00  0.00     0.049 A 
ATOM     50  H   UNL A   1      41.587  27.400  30.174  1.00  0.00     0.167 HD
ATOM     51  C   UNL A   1      42.307  30.350  33.360  1.00  0.00     0.034 A 
ATOM     52  C   UNL A   1      42.317  25.318  28.454  1.00  0.00     0.034 A 
ATOM     53  C   UNL A   1      43.407  29.420  33.435  1.00  0.00     0.049 A 
ATOM     54  C   UNL A   1      43.420  25.437  29.472  1.00  0.00     0.074 A 
ATOM     55  C   UNL A   1      44.437  29.376  34.357  1.00  0.00     0.029 A 
ATOM     56  N   UNL A   1      43.626  28.373  32.546  1.00  0.00    -0.354 N 
ATOM     57  N   UNL A   1      43.553  26.306  30.448  1.00  0.00    -0.248 NA
ATOM     58  C   UNL A   1      44.506  24.453  29.389  1.00  0.00     0.031 C 
ATOM     59  C   UNL A   1      45.314  28.349  33.987  1.00  0.00     0.029 A 
ATOM     60  C   UNL A   1      44.793  27.701  32.878  1.00  0.00     0.049 A 
ATOM     61  H   UNL A   1      43.038  28.144  31.790  1.00  0.00     0.167 HD
ATOM     62  C   UNL A   1      44.727  25.959  31.109  1.00  0.00     0.074 A 
ATOM     63  C   UNL A   1      45.253  24.791  30.431  1.00  0.00     0.031 C 
ATOM     64  C   UNL A   1      45.316  26.548  32.181  1.00  0.00     0.034 A 
BRANCH  51  65
ATOM     65  C   UNL A   1      42.273  31.529  34.306  1.00  0.00     0.023 A 
ATOM     66  C   UNL A   1      41.442  31.546  35.440  1.00  0.00     0.031 A 
ATOM     67  C   UNL A   1      43.046  32.674  34.044  1.00  0.00     0.131 A 
ATOM     68  C   UNL A   1      41.328  32.713  36.209  1.00  0.00     0.055 A 
ATOM     69  C   UNL A   1      42.998  33.801  34.868  1.00  0.00     0.041 A 
ATOM     70  F   UNL A   1      43.845  32.728  32.966  1.00  0.00    -0.206 F 
ATOM     71  C   UNL A   1      42.120  33.832  35.947  1.00  0.00     0.022 A 
BRANCH  68  72
ATOM     72  S   UNL A   1      40.005  32.806  37.448  1.00  0.00     0.124 S 
ATOM     73  O   UNL A   1      40.758  32.667  38.693  1.00  0.00    -0.237 OA
ATOM     74  O   UNL A   1      39.428  34.121  37.195  1.00  0.00    -0.237 OA
ATOM     75  O   UNL A   1      39.145  31.671  37.118  1.00  0.00    -0.744 OA
ENDBRANCH  68  72
ENDBRANCH  51  65
BRANCH  52  76
ATOM     76  C   UNL A   1      42.389  24.308  27.360  1.00  0.00     0.023 A 
ATOM     77  C   UNL A   1      41.683  23.097  27.440  1.00  0.00     0.031 A 
ATOM     78  C   UNL A   1      43.183  24.535  26.221  1.00  0.00     0.131 A 
ATOM     79  C   UNL A   1      41.816  22.141  26.419  1.00  0.00     0.055 A 
ATOM     80  C   UNL A   1      43.273  23.603  25.187  1.00  0.00     0.041 A 
ATOM     81  F   UNL A   1      43.869  25.682  26.092  1.00  0.00    -0.206 F 
ATOM     82  C   UNL A   1      42.596  22.392  25.288  1.00  0.00     0.022 A 
BRANCH  79  83
ATOM     83  S   UNL A   1      40.999  20.534  26.619  1.00  0.00     0.124 S 
ATOM     84  O   UNL A   1      39.739  20.752  25.917  1.00  0.00    -0.237 OA
ATOM     85  O   UNL A   1      41.945  19.631  25.973  1.00  0.00    -0.237 OA
ATOM     86  O   UNL A   1      40.889  20.386  28.069  1.00  0.00    -0.744 OA
ENDBRANCH  79  83
ENDBRANCH  52  76
BRANCH  64  87
ATOM     87  C   UNL A   1      46.580  25.911  32.704  1.00  0.00     0.023 A 
ATOM     88  C   UNL A   1      46.550  24.887  33.667  1.00  0.00     0.031 A 
ATOM     89  C   UNL A   1      47.834  26.345  32.239  1.00  0.00     0.131 A 
ATOM     90  C   UNL A   1      47.751  24.368  34.173  1.00  0.00     0.055 A 
ATOM     91  C   UNL A   1      49.024  25.784  32.703  1.00  0.00     0.041 A 
ATOM     92  F   UNL A   1      47.922  27.322  31.323  1.00  0.00    -0.206 F 
ATOM     93  C   UNL A   1      48.988  24.798  33.685  1.00  0.00     0.022 A 
BRANCH  90  94
ATOM     94  S   UNL A   1      47.679  23.186  35.547  1.00  0.00     0.124 S 
ATOM     95  O   UNL A   1      48.590  22.140  35.096  1.00  0.00    -0.237 OA
ATOM     96  O   UNL A   1      48.139  23.990  36.675  1.00  0.00    -0.237 OA
ATOM     97  O   UNL A   1      46.269  22.802  35.595  1.00  0.00    -0.744 OA
ENDBRANCH  90  94
ENDBRANCH  64  87
ENDBRANCH  38  39
ENDBRANCH  30  33
ENDBRANCH  28  29
ENDBRANCH  27  28
ENDBRANCH   1  27
TORSDOF 19
ENDMDL
MODEL 2
REMARK VINA RESULT:     -10.9      2.362      7.794
REMARK SMILES N#C[C@@H]1CN(C(=O)N[C@@H](Cc2cnc[nH]2)C(=O)NCCCCNC(=O)c2ccc(-c3c4nc(c(-c5cc(S(=O)(=O)[O-])ccc5F)c5ccc([nH]5)c(-c5cc(S(=O)(=O)[O-])ccc5F)c5nc(c(-c6cc(S(=O)(=O)[O-])ccc6F)c6ccc3[nH]6)C=C5)C=C4)cc2)CCO1
REMARK SMILES IDX 20 1 19 2 18 3 16 4 17 5 9 7 8 8 6 9 7 10 5 12 3 13 4 14
REMARK SMILES IDX 91 15 90 16 89 17 2 18 1 19 10 20 11 21 12 22 15 23 13 24
REMARK SMILES IDX 14 25 21 27 22 28 23 29 24 30 25 32 26 33 27 34 88 35 28 36
REMARK SMILES IDX 87 37 29 38 30 39 31 40 81 41 32 42 86 43 80 44 82 45 33 46
REMARK SMILES IDX 85 47 79 48 78 49 34 51 66 52 46 53 65 54 47 55 50 56 64 57
REMARK SMILES IDX 83 58 48 59 49 60 63 62 84 63 51 64 35 65 36 66 44 67 37 68
REMARK SMILES IDX 43 69 45 70 42 71 38 72 39 73 40 74 41 75 67 76 68 77 76 78
REMARK SMILES IDX 69 79 75 80 77 81 74 82 70 83 71 84 72 85 73 86 52 87 53 88
REMARK SMILES IDX 61 89 54 90 60 91 62 92 59 93 55 94 56 95 57 96 58 97
REMARK H PARENT 18 6 8 11 15 26 23 31 82 50 50 61
REMARK Flexibility Score: inf
ROOT
ATOM      1  C   UNL A   1      31.897  28.715  27.642  1.00  0.00     0.023 C 
ENDROOT
BRANCH   1   2
ATOM      2  C   UNL A   1      32.640  27.642  26.871  1.00  0.00     0.116 C 
BRANCH   2   3
ATOM      3  N   UNL A   1      31.777  26.696  26.207  1.00  0.00    -0.354 N 
ATOM      4  C   UNL A   1      32.056  25.909  25.138  1.00  0.00     0.243 C 
ATOM      5  O   UNL A   1      31.362  24.898  24.974  1.00  0.00    -0.273 OA
ATOM      6  H   UNL A   1      30.869  26.610  26.578  1.00  0.00     0.163 HD
BRANCH   4   7
ATOM      7  C   UNL A   1      33.242  26.164  24.190  1.00  0.00     0.179 C 
BRANCH   7   8
ATOM      8  N   UNL A   1      33.649  25.046  23.329  1.00  0.00    -0.326 N 
ATOM      9  C   UNL A   1      34.417  23.951  23.396  1.00  0.00     0.318 C 
ATOM     10  O   UNL A   1      34.433  23.273  22.363  1.00  0.00    -0.249 OA
ATOM     11  H   UNL A   1      33.236  25.127  22.439  1.00  0.00     0.166 HD
BRANCH   9  12
ATOM     12  N   UNL A   1      35.136  23.580  24.485  1.00  0.00    -0.319 N 
ATOM     13  C   UNL A   1      34.854  21.759  26.081  1.00  0.00     0.240 C 
ATOM     14  C   UNL A   1      34.700  23.248  25.832  1.00  0.00     0.169 C 
ATOM     15  O   UNL A   1      36.304  21.514  26.065  1.00  0.00    -0.360 OA
ATOM     16  C   UNL A   1      36.883  21.831  24.774  1.00  0.00     0.183 C 
ATOM     17  C   UNL A   1      36.568  23.270  24.315  1.00  0.00     0.150 C 
BRANCH  13  18
ATOM     18  C   UNL A   1      34.200  20.759  25.142  1.00  0.00     0.096 C 
ATOM     19  N   UNL A   1      33.658  19.929  24.362  1.00  0.00    -0.195 NA
ENDBRANCH  13  18
ENDBRANCH   9  12
ENDBRANCH   7   8
BRANCH   7  20
ATOM     20  C   UNL A   1      33.260  27.533  23.487  1.00  0.00     0.090 C 
BRANCH  20  21
ATOM     21  C   UNL A   1      31.960  28.042  22.972  1.00  0.00     0.037 A 
ATOM     22  C   UNL A   1      30.982  27.478  22.180  1.00  0.00     0.134 A 
ATOM     23  N   UNL A   1      31.518  29.325  23.202  1.00  0.00    -0.348 N 
ATOM     24  N   UNL A   1      29.936  28.345  22.009  1.00  0.00    -0.245 NA
ATOM     25  C   UNL A   1      30.290  29.451  22.620  1.00  0.00     0.196 A 
ATOM     26  H   UNL A   1      32.001  30.026  23.697  1.00  0.00     0.167 HD
ENDBRANCH  20  21
ENDBRANCH   7  20
ENDBRANCH   4   7
ENDBRANCH   2   3
ENDBRANCH   1   2
BRANCH   1  27
ATOM     27  C   UNL A   1      31.378  29.868  26.793  1.00  0.00     0.023 C 
BRANCH  27  28
ATOM     28  C   UNL A   1      32.437  30.841  26.288  1.00  0.00     0.116 C 
BRANCH  28  29
ATOM     29  N   UNL A   1      32.255  32.209  26.754  1.00  0.00    -0.352 N 
ATOM     30  C   UNL A   1      33.071  32.956  27.573  1.00  0.00     0.251 C 
ATOM     31  H   UNL A   1      31.439  32.661  26.440  1.00  0.00     0.163 HD
ATOM     32  O   UNL A   1      32.729  34.075  27.942  1.00  0.00    -0.269 OA
BRANCH  30  33
ATOM     33  C   UNL A   1      34.344  32.371  28.039  1.00  0.00     0.039 A 
ATOM     34  C   UNL A   1      35.466  33.194  28.150  1.00  0.00     0.014 A 
ATOM     35  C   UNL A   1      34.398  31.037  28.446  1.00  0.00     0.014 A 
ATOM     36  C   UNL A   1      36.620  32.699  28.760  1.00  0.00     0.010 A 
ATOM     37  C   UNL A   1      35.514  30.577  29.135  1.00  0.00     0.010 A 
ATOM     38  C   UNL A   1      36.636  31.405  29.304  1.00  0.00    -0.014 A 
BRANCH  38  39
ATOM     39  C   UNL A   1      37.809  30.899  30.065  1.00  0.00     0.031 A 
ATOM     40  C   UNL A   1      38.757  29.926  29.419  1.00  0.00     0.074 A 
ATOM     41  C   UNL A   1      37.965  31.240  31.359  1.00  0.00     0.049 A 
ATOM     42  N   UNL A   1      39.779  29.295  29.937  1.00  0.00    -0.248 NA
ATOM     43  C   UNL A   1      38.491  29.585  28.014  1.00  0.00     0.031 C 
ATOM     44  C   UNL A   1      37.070  32.116  32.118  1.00  0.00     0.029 A 
ATOM     45  N   UNL A   1      38.923  30.877  32.273  1.00  0.00    -0.354 N 
ATOM     46  C   UNL A   1      40.260  28.463  28.932  1.00  0.00     0.074 A 
ATOM     47  C   UNL A   1      39.373  28.622  27.799  1.00  0.00     0.031 C 
ATOM     48  C   UNL A   1      37.529  32.236  33.374  1.00  0.00     0.029 A 
ATOM     49  C   UNL A   1      38.726  31.416  33.524  1.00  0.00     0.049 A 
ATOM     50  H   UNL A   1      39.679  30.286  32.054  1.00  0.00     0.167 HD
ATOM     51  C   UNL A   1      41.353  27.661  28.945  1.00  0.00     0.034 A 
ATOM     52  C   UNL A   1      39.424  31.257  34.666  1.00  0.00     0.034 A 
ATOM     53  C   UNL A   1      42.239  27.537  30.076  1.00  0.00     0.049 A 
ATOM     54  C   UNL A   1      40.649  30.381  34.654  1.00  0.00     0.074 A 
ATOM     55  C   UNL A   1      43.423  26.829  30.171  1.00  0.00     0.029 A 
ATOM     56  N   UNL A   1      42.032  28.130  31.317  1.00  0.00    -0.354 N 
ATOM     57  N   UNL A   1      41.141  29.663  33.670  1.00  0.00    -0.248 NA
ATOM     58  C   UNL A   1      41.422  30.307  35.899  1.00  0.00     0.031 C 
ATOM     59  C   UNL A   1      43.896  26.936  31.484  1.00  0.00     0.029 A 
ATOM     60  C   UNL A   1      43.048  27.775  32.191  1.00  0.00     0.049 A 
ATOM     61  H   UNL A   1      41.274  28.716  31.541  1.00  0.00     0.167 HD
ATOM     62  C   UNL A   1      42.295  29.069  34.173  1.00  0.00     0.074 A 
ATOM     63  C   UNL A   1      42.434  29.528  35.540  1.00  0.00     0.031 C 
ATOM     64  C   UNL A   1      43.163  28.225  33.559  1.00  0.00     0.034 A 
BRANCH  51  65
ATOM     65  C   UNL A   1      41.626  26.842  27.702  1.00  0.00     0.023 A 
ATOM     66  C   UNL A   1      41.289  25.479  27.625  1.00  0.00     0.031 A 
ATOM     67  C   UNL A   1      42.277  27.420  26.599  1.00  0.00     0.131 A 
ATOM     68  C   UNL A   1      41.691  24.719  26.517  1.00  0.00     0.055 A 
ATOM     69  C   UNL A   1      42.592  26.678  25.457  1.00  0.00     0.041 A 
ATOM     70  F   UNL A   1      42.642  28.712  26.618  1.00  0.00    -0.206 F 
ATOM     71  C   UNL A   1      42.317  25.315  25.420  1.00  0.00     0.022 A 
BRANCH  68  72
ATOM     72  S   UNL A   1      41.540  22.913  26.607  1.00  0.00     0.124 S 
ATOM     73  O   UNL A   1      42.230  22.499  25.387  1.00  0.00    -0.237 OA
ATOM     74  O   UNL A   1      42.217  22.601  27.860  1.00  0.00    -0.237 OA
ATOM     75  O   UNL A   1      40.096  22.689  26.602  1.00  0.00    -0.744 OA
ENDBRANCH  68  72
ENDBRANCH  51  65
BRANCH  52  76
ATOM     76  C   UNL A   1      38.976  31.930  35.918  1.00  0.00     0.023 A 
ATOM     77  C   UNL A   1      38.218  31.245  36.881  1.00  0.00     0.031 A 
ATOM     78  C   UNL A   1      39.287  33.280  36.161  1.00  0.00     0.131 A 
ATOM     79  C   UNL A   1      37.763  31.922  38.025  1.00  0.00     0.055 A 
ATOM     80  C   UNL A   1      38.874  33.935  37.322  1.00  0.00     0.041 A 
ATOM     81  F   UNL A   1      40.018  33.976  35.276  1.00  0.00    -0.206 F 
ATOM     82  C   UNL A   1      38.097  33.259  38.257  1.00  0.00     0.022 A 
BRANCH  79  83
ATOM     83  S   UNL A   1      36.673  31.046  39.180  1.00  0.00     0.124 S 
ATOM     84  O   UNL A   1      35.502  31.915  39.202  1.00  0.00    -0.237 OA
ATOM     85  O   UNL A   1      36.503  29.757  38.517  1.00  0.00    -0.237 OA
ATOM     86  O   UNL A   1      37.448  31.009  40.418  1.00  0.00    -0.744 OA
ENDBRANCH  79  83
ENDBRANCH  52  76
BRANCH  64  87
ATOM     87  C   UNL A   1      44.360  27.774  34.360  1.00  0.00     0.023 A 
ATOM     88  C   UNL A   1      44.335  26.599  35.133  1.00  0.00     0.031 A 
ATOM     89  C   UNL A   1      45.540  28.540  34.359  1.00  0.00     0.131 A 
ATOM     90  C   UNL A   1      45.448  26.251  35.913  1.00  0.00     0.055 A 
ATOM     91  C   UNL A   1      46.665  28.157  35.091  1.00  0.00     0.041 A 
ATOM     92  F   UNL A   1      45.619  29.672  33.642  1.00  0.00    -0.206 F 
ATOM     93  C   UNL A   1      46.619  27.014  35.883  1.00  0.00     0.022 A 
BRANCH  90  94
ATOM     94  S   UNL A   1      45.315  24.837  37.040  1.00  0.00     0.124 S 
ATOM     95  O   UNL A   1      44.535  23.891  36.250  1.00  0.00    -0.237 OA
ATOM     96  O   UNL A   1      46.713  24.483  37.264  1.00  0.00    -0.237 OA
ATOM     97  O   UNL A   1      44.623  25.391  38.204  1.00  0.00    -0.744 OA
ENDBRANCH  90  94
ENDBRANCH  64  87
ENDBRANCH  38  39
ENDBRANCH  30  33
ENDBRANCH  28  29
ENDBRANCH  27  28
ENDBRANCH   1  27
TORSDOF 19
ENDMDL
MODEL 3
REMARK VINA RESULT:     -10.7      2.404      8.014
REMARK SMILES N#C[C@@H]1CN(C(=O)N[C@@H](Cc2cnc[nH]2)C(=O)NCCCCNC(=O)c2ccc(-c3c4nc(c(-c5cc(S(=O)(=O)[O-])ccc5F)c5ccc([nH]5)c(-c5cc(S(=O)(=O)[O-])ccc5F)c5nc(c(-c6cc(S(=O)(=O)[O-])ccc6F)c6ccc3[nH]6)C=C5)C=C4)cc2)CCO1
REMARK SMILES IDX 20 1 19 2 18 3 16 4 17 5 9 7 8 8 6 9 7 10 5 12 3 13 4 14
REMARK SMILES IDX 91 15 90 16 89 17 2 18 1 19 10 20 11 21 12 22 15 23 13 24
REMARK SMILES IDX 14 25 21 27 22 28 23 29 24 30 25 32 26 33 27 34 88 35 28 36
REMARK SMILES IDX 87 37 29 38 30 39 31 40 81 41 32 42 86 43 80 44 82 45 33 46
REMARK SMILES IDX 85 47 79 48 78 49 34 51 66 52 46 53 65 54 47 55 50 56 64 57
REMARK SMILES IDX 83 58 48 59 49 60 63 62 84 63 51 64 35 65 36 66 44 67 37 68
REMARK SMILES IDX 43 69 45 70 42 71 38 72 39 73 40 74 41 75 67 76 68 77 76 78
REMARK SMILES IDX 69 79 75 80 77 81 74 82 70 83 71 84 72 85 73 86 52 87 53 88
REMARK SMILES IDX 61 89 54 90 60 91 62 92 59 93 55 94 56 95 57 96 58 97
REMARK H PARENT 18 6 8 11 15 26 23 31 82 50 50 61
REMARK Flexibility Score: inf
ROOT
ATOM      1  C   UNL A   1      31.852  28.937  27.205  1.00  0.00     0.023 C 
ENDROOT
BRANCH   1   2
ATOM      2  C   UNL A   1      31.630  27.822  26.203  1.00  0.00     0.116 C 
BRANCH   2   3
ATOM      3  N   UNL A   1      30.838  26.729  26.710  1.00  0.00    -0.354 N 
ATOM      4  C   UNL A   1      30.321  25.676  26.028  1.00  0.00     0.243 C 
ATOM      5  O   UNL A   1      30.037  24.659  26.673  1.00  0.00    -0.273 OA
ATOM      6  H   UNL A   1      30.648  26.749  27.676  1.00  0.00     0.163 HD
BRANCH   4   7
ATOM      7  C   UNL A   1      30.166  25.659  24.497  1.00  0.00     0.179 C 
BRANCH   7   8
ATOM      8  N   UNL A   1      30.464  24.390  23.819  1.00  0.00    -0.326 N 
ATOM      9  C   UNL A   1      31.521  23.747  23.307  1.00  0.00     0.318 C 
ATOM     10  O   UNL A   1      31.263  22.636  22.831  1.00  0.00    -0.249 OA
ATOM     11  H   UNL A   1      29.645  23.856  23.707  1.00  0.00     0.166 HD
BRANCH   9  12
ATOM     12  N   UNL A   1      32.787  24.237  23.289  1.00  0.00    -0.319 N 
ATOM     13  C   UNL A   1      34.265  24.999  25.070  1.00  0.00     0.240 C 
ATOM     14  C   UNL A   1      33.350  25.413  23.932  1.00  0.00     0.169 C 
ATOM     15  O   UNL A   1      35.400  24.322  24.425  1.00  0.00    -0.360 OA
ATOM     16  C   UNL A   1      34.976  23.131  23.714  1.00  0.00     0.183 C 
ATOM     17  C   UNL A   1      33.855  23.413  22.692  1.00  0.00     0.150 C 
BRANCH  13  18
ATOM     18  C   UNL A   1      33.746  24.092  26.174  1.00  0.00     0.096 C 
ATOM     19  N   UNL A   1      33.315  23.339  27.089  1.00  0.00    -0.195 NA
ENDBRANCH  13  18
ENDBRANCH   9  12
ENDBRANCH   7   8
BRANCH   7  20
ATOM     20  C   UNL A   1      28.934  26.391  23.936  1.00  0.00     0.090 C 
BRANCH  20  21
ATOM     21  C   UNL A   1      29.184  27.645  23.175  1.00  0.00     0.037 A 
ATOM     22  C   UNL A   1      30.306  28.155  22.555  1.00  0.00     0.134 A 
ATOM     23  N   UNL A   1      28.226  28.617  23.003  1.00  0.00    -0.348 N 
ATOM     24  N   UNL A   1      30.024  29.347  21.944  1.00  0.00    -0.245 NA
ATOM     25  C   UNL A   1      28.772  29.609  22.240  1.00  0.00     0.196 A 
ATOM     26  H   UNL A   1      27.310  28.601  23.366  1.00  0.00     0.167 HD
ENDBRANCH  20  21
ENDBRANCH   7  20
ENDBRANCH   4   7
ENDBRANCH   2   3
ENDBRANCH   1   2
BRANCH   1  27
ATOM     27  C   UNL A   1      31.923  30.334  26.602  1.00  0.00     0.023 C 
BRANCH  27  28
ATOM     28  C   UNL A   1      33.012  31.239  27.166  1.00  0.00     0.116 C 
BRANCH  28  29
ATOM     29  N   UNL A   1      32.623  32.639  27.270  1.00  0.00    -0.352 N 
ATOM     30  C   UNL A   1      33.189  33.637  28.030  1.00  0.00     0.251 C 
ATOM     31  H   UNL A   1      31.850  32.908  26.722  1.00  0.00     0.163 HD
ATOM     32  O   UNL A   1      32.685  34.755  28.069  1.00  0.00    -0.269 OA
BRANCH  30  33
ATOM     33  C   UNL A   1      34.388  33.329  28.835  1.00  0.00     0.039 A 
ATOM     34  C   UNL A   1      34.232  32.690  30.065  1.00  0.00     0.014 A 
ATOM     35  C   UNL A   1      35.663  33.592  28.328  1.00  0.00     0.014 A 
ATOM     36  C   UNL A   1      35.360  32.230  30.747  1.00  0.00     0.010 A 
ATOM     37  C   UNL A   1      36.775  33.052  28.961  1.00  0.00     0.010 A 
ATOM     38  C   UNL A   1      36.636  32.360  30.175  1.00  0.00    -0.014 A 
BRANCH  38  39
ATOM     39  C   UNL A   1      37.838  31.772  30.822  1.00  0.00     0.031 A 
ATOM     40  C   UNL A   1      38.642  30.726  30.099  1.00  0.00     0.074 A 
ATOM     41  C   UNL A   1      38.148  32.108  32.089  1.00  0.00     0.049 A 
ATOM     42  N   UNL A   1      39.661  30.023  30.522  1.00  0.00    -0.248 NA
ATOM     43  C   UNL A   1      38.212  30.396  28.732  1.00  0.00     0.031 C 
ATOM     44  C   UNL A   1      37.400  33.055  32.922  1.00  0.00     0.029 A 
ATOM     45  N   UNL A   1      39.163  31.680  32.909  1.00  0.00    -0.354 N 
ATOM     46  C   UNL A   1      39.975  29.151  29.486  1.00  0.00     0.074 A 
ATOM     47  C   UNL A   1      38.994  29.369  28.444  1.00  0.00     0.031 C 
ATOM     48  C   UNL A   1      37.991  33.147  34.124  1.00  0.00     0.029 A 
ATOM     49  C   UNL A   1      39.133  32.240  34.166  1.00  0.00     0.049 A 
ATOM     50  H   UNL A   1      39.847  31.033  32.625  1.00  0.00     0.167 HD
ATOM     51  C   UNL A   1      41.002  28.269  29.401  1.00  0.00     0.034 A 
ATOM     52  C   UNL A   1      39.927  32.037  35.235  1.00  0.00     0.034 A 
ATOM     53  C   UNL A   1      41.985  28.086  30.441  1.00  0.00     0.049 A 
ATOM     54  C   UNL A   1      41.077  31.071  35.114  1.00  0.00     0.074 A 
ATOM     55  C   UNL A   1      43.117  27.291  30.428  1.00  0.00     0.029 A 
ATOM     56  N   UNL A   1      41.947  28.700  31.688  1.00  0.00    -0.354 N 
ATOM     57  N   UNL A   1      41.413  30.312  34.096  1.00  0.00    -0.248 NA
ATOM     58  C   UNL A   1      41.963  30.947  36.277  1.00  0.00     0.031 C 
ATOM     59  C   UNL A   1      43.725  27.371  31.686  1.00  0.00     0.029 A 
ATOM     60  C   UNL A   1      43.017  28.275  32.462  1.00  0.00     0.049 A 
ATOM     61  H   UNL A   1      41.261  29.344  31.978  1.00  0.00     0.167 HD
ATOM     62  C   UNL A   1      42.564  29.636  34.490  1.00  0.00     0.074 A 
ATOM     63  C   UNL A   1      42.873  30.092  35.831  1.00  0.00     0.031 C 
ATOM     64  C   UNL A   1      43.302  28.724  33.805  1.00  0.00     0.034 A 
BRANCH  51  65
ATOM     65  C   UNL A   1      41.087  27.424  28.150  1.00  0.00     0.023 A 
ATOM     66  C   UNL A   1      40.748  26.059  28.153  1.00  0.00     0.031 A 
ATOM     67  C   UNL A   1      41.563  27.978  26.949  1.00  0.00     0.131 A 
ATOM     68  C   UNL A   1      40.981  25.275  27.013  1.00  0.00     0.055 A 
ATOM     69  C   UNL A   1      41.705  27.212  25.789  1.00  0.00     0.041 A 
ATOM     70  F   UNL A   1      41.922  29.270  26.885  1.00  0.00    -0.206 F 
ATOM     71  C   UNL A   1      41.432  25.848  25.822  1.00  0.00     0.022 A 
BRANCH  68  72
ATOM     72  S   UNL A   1      40.852  23.471  27.163  1.00  0.00     0.124 S 
ATOM     73  O   UNL A   1      39.403  23.280  27.155  1.00  0.00    -0.237 OA
ATOM     74  O   UNL A   1      41.564  23.005  25.979  1.00  0.00    -0.237 OA
ATOM     75  O   UNL A   1      41.503  23.186  28.439  1.00  0.00    -0.744 OA
ENDBRANCH  68  72
ENDBRANCH  51  65
BRANCH  52  76
ATOM     76  C   UNL A   1      39.658  32.750  36.516  1.00  0.00     0.023 A 
ATOM     77  C   UNL A   1      38.742  32.244  37.452  1.00  0.00     0.031 A 
ATOM     78  C   UNL A   1      40.304  33.963  36.814  1.00  0.00     0.131 A 
ATOM     79  C   UNL A   1      38.468  32.966  38.625  1.00  0.00     0.055 A 
ATOM     80  C   UNL A   1      40.064  34.654  38.003  1.00  0.00     0.041 A 
ATOM     81  F   UNL A   1      41.196  34.484  35.957  1.00  0.00    -0.206 F 
ATOM     82  C   UNL A   1      39.133  34.161  38.912  1.00  0.00     0.022 A 
BRANCH  79  83
ATOM     83  S   UNL A   1      37.182  32.352  39.746  1.00  0.00     0.124 S 
ATOM     84  O   UNL A   1      37.230  33.337  40.821  1.00  0.00    -0.237 OA
ATOM     85  O   UNL A   1      35.996  32.388  38.896  1.00  0.00    -0.237 OA
ATOM     86  O   UNL A   1      37.650  31.014  40.102  1.00  0.00    -0.744 OA
ENDBRANCH  79  83
ENDBRANCH  52  76
BRANCH  64  87
ATOM     87  C   UNL A   1      44.536  28.190  34.490  1.00  0.00     0.023 A 
ATOM     88  C   UNL A   1      44.498  27.033  35.288  1.00  0.00     0.031 A 
ATOM     89  C   UNL A   1      45.766  28.857  34.350  1.00  0.00     0.131 A 
ATOM     90  C   UNL A   1      45.655  26.607  35.958  1.00  0.00     0.055 A 
ATOM     91  C   UNL A   1      46.927  28.395  34.971  1.00  0.00     0.041 A 
ATOM     92  F   UNL A   1      45.859  29.968  33.602  1.00  0.00    -0.206 F 
ATOM     93  C   UNL A   1      46.873  27.272  35.791  1.00  0.00     0.022 A 
BRANCH  90  94
ATOM     94  S   UNL A   1      45.528  25.226  37.126  1.00  0.00     0.124 S 
ATOM     95  O   UNL A   1      44.152  24.784  36.926  1.00  0.00    -0.237 OA
ATOM     96  O   UNL A   1      46.566  24.317  36.649  1.00  0.00    -0.237 OA
ATOM     97  O   UNL A   1      45.797  25.847  38.422  1.00  0.00    -0.744 OA
ENDBRANCH  90  94
ENDBRANCH  64  87
ENDBRANCH  38  39
ENDBRANCH  30  33
ENDBRANCH  28  29
ENDBRANCH  27  28
ENDBRANCH   1  27
TORSDOF 19
ENDMDL
