MODEL 1
REMARK VINA RESULT:     -13.1      0.000      0.000
REMARK SMILES NS(=O)(=O)c1ccc(-n2nc(C(=O)NCCCCNC(=O)c3ccc(-c4c5nc(c(-c6cc(S(=O)(=O)[O-])ccc6F)c6ccc([nH]6)c(-c6cc(S(=O)(=O)[O-])ccc6F)c6nc(c(-c7cc(S(=O)(=O)[O-])ccc7F)c7ccc4[nH]7)C=C6)C=C5)cc3)cc2-c2cc3ccccc3s2)cc1
REMARK SMILES IDX 16 1 15 2 14 3 12 4 13 5 11 7 9 8 10 9 86 10 85 11 8 12 5 13
REMARK SMILES IDX 6 14 97 15 7 16 96 17 2 18 3 19 4 20 1 21 87 24 88 25 95 26
REMARK SMILES IDX 89 27 94 28 90 29 93 30 91 31 92 32 17 33 18 34 19 35 20 36
REMARK SMILES IDX 21 38 22 39 23 40 84 41 24 42 83 43 25 44 26 45 27 46 77 47
REMARK SMILES IDX 28 48 82 49 76 50 78 51 29 52 81 53 75 54 74 55 30 57 62 58
REMARK SMILES IDX 42 59 61 60 43 61 46 62 60 63 79 64 44 65 45 66 59 68 80 69
REMARK SMILES IDX 47 70 31 71 32 72 40 73 33 74 39 75 41 76 38 77 34 78 35 79
REMARK SMILES IDX 36 80 37 81 63 82 64 83 72 84 65 85 71 86 73 87 70 88 66 89
REMARK SMILES IDX 67 90 68 91 69 92 48 93 49 94 57 95 50 96 56 97 58 98 55 99
REMARK SMILES IDX 51 100 52 101 53 102 54 103
REMARK H PARENT 14 6 1 22 1 23 19 37 78 56 46 67
REMARK Flexibility Score: inf
ROOT
ATOM      1  C   UNL A   1      32.710  27.603  26.855  1.00  0.00     0.023 C 
ENDROOT
BRANCH   1   2
ATOM      2  C   UNL A   1      31.511  27.542  25.895  1.00  0.00     0.116 C 
BRANCH   2   3
ATOM      3  N   UNL A   1      30.440  26.694  26.409  1.00  0.00    -0.351 N 
ATOM      4  C   UNL A   1      30.149  25.346  26.265  1.00  0.00     0.271 C 
ATOM      5  O   UNL A   1      29.191  24.920  26.913  1.00  0.00    -0.267 OA
ATOM      6  H   UNL A   1      29.792  27.177  26.971  1.00  0.00     0.163 HD
BRANCH   4   7
ATOM      7  C   UNL A   1      30.979  24.467  25.412  1.00  0.00     0.151 A 
ATOM      8  N   UNL A   1      32.231  22.787  24.896  1.00  0.00    -0.231 N 
ATOM      9  N   UNL A   1      31.184  23.159  25.687  1.00  0.00    -0.162 NA
ATOM     10  C   UNL A   1      32.651  23.835  24.112  1.00  0.00     0.085 A 
ATOM     11  C   UNL A   1      31.656  24.785  24.226  1.00  0.00     0.066 A 
BRANCH   8  12
ATOM     12  C   UNL A   1      32.562  21.422  24.728  1.00  0.00     0.065 A 
ATOM     13  C   UNL A   1      33.028  18.683  24.599  1.00  0.00     0.082 A 
ATOM     14  C   UNL A   1      32.485  19.349  23.492  1.00  0.00     0.024 A 
ATOM     15  C   UNL A   1      33.350  19.381  25.766  1.00  0.00     0.024 A 
ATOM     16  C   UNL A   1      32.231  20.723  23.563  1.00  0.00     0.030 A 
ATOM     17  C   UNL A   1      33.143  20.758  25.818  1.00  0.00     0.030 A 
BRANCH  13  18
ATOM     18  S   UNL A   1      33.265  16.934  24.497  1.00  0.00     0.238 S 
ATOM     19  O   UNL A   1      33.438  16.575  23.102  1.00  0.00    -0.207 OA
ATOM     20  O   UNL A   1      32.314  16.286  25.357  1.00  0.00    -0.207 OA
BRANCH  18  21
ATOM     21  N   UNL A   1      34.763  16.661  25.215  1.00  0.00    -0.225 NA
ATOM     22  H   UNL A   1      34.745  15.770  25.710  1.00  0.00     0.137 HD
ATOM     23  H   UNL A   1      34.966  17.413  25.873  1.00  0.00     0.137 HD
ENDBRANCH  18  21
ENDBRANCH  13  18
ENDBRANCH   8  12
BRANCH  10  24
ATOM     24  C   UNL A   1      33.856  24.030  23.356  1.00  0.00     0.054 A 
ATOM     25  C   UNL A   1      34.941  24.788  23.781  1.00  0.00     0.031 A 
ATOM     26  S   UNL A   1      34.544  22.613  22.613  1.00  0.00    -0.134 S 
ATOM     27  C   UNL A   1      35.854  23.855  24.426  1.00  0.00    -0.007 A 
ATOM     28  C   UNL A   1      35.660  22.552  23.943  1.00  0.00     0.035 A 
ATOM     29  C   UNL A   1      36.743  24.039  25.509  1.00  0.00     0.009 A 
ATOM     30  C   UNL A   1      36.274  21.434  24.527  1.00  0.00     0.019 A 
ATOM     31  C   UNL A   1      37.307  22.923  26.138  1.00  0.00     0.001 A 
ATOM     32  C   UNL A   1      37.062  21.639  25.662  1.00  0.00     0.001 A 
ENDBRANCH  10  24
ENDBRANCH   4   7
ENDBRANCH   2   3
ENDBRANCH   1   2
BRANCH   1  33
ATOM     33  C   UNL A   1      33.351  28.992  27.005  1.00  0.00     0.023 C 
BRANCH  33  34
ATOM     34  C   UNL A   1      34.804  28.980  27.481  1.00  0.00     0.116 C 
BRANCH  34  35
ATOM     35  N   UNL A   1      35.115  30.053  28.423  1.00  0.00    -0.352 N 
ATOM     36  C   UNL A   1      36.221  30.150  29.250  1.00  0.00     0.251 C 
ATOM     37  H   UNL A   1      34.465  30.791  28.476  1.00  0.00     0.163 HD
ATOM     38  O   UNL A   1      36.182  30.845  30.260  1.00  0.00    -0.269 OA
BRANCH  36  39
ATOM     39  C   UNL A   1      37.446  29.406  28.892  1.00  0.00     0.039 A 
ATOM     40  C   UNL A   1      38.145  29.676  27.711  1.00  0.00     0.014 A 
ATOM     41  C   UNL A   1      37.911  28.447  29.790  1.00  0.00     0.014 A 
ATOM     42  C   UNL A   1      39.375  29.049  27.496  1.00  0.00     0.010 A 
ATOM     43  C   UNL A   1      39.170  27.913  29.630  1.00  0.00     0.010 A 
ATOM     44  C   UNL A   1      39.901  28.191  28.476  1.00  0.00    -0.014 A 
BRANCH  44  45
ATOM     45  C   UNL A   1      41.293  27.729  28.400  1.00  0.00     0.031 A 
ATOM     46  C   UNL A   1      41.464  26.450  27.654  1.00  0.00     0.074 A 
ATOM     47  C   UNL A   1      42.355  28.502  28.718  1.00  0.00     0.049 A 
ATOM     48  N   UNL A   1      41.814  25.295  28.117  1.00  0.00    -0.248 NA
ATOM     49  C   UNL A   1      41.030  26.408  26.246  1.00  0.00     0.031 C 
ATOM     50  C   UNL A   1      42.329  29.900  29.163  1.00  0.00     0.029 A 
ATOM     51  N   UNL A   1      43.693  28.253  28.599  1.00  0.00    -0.354 N 
ATOM     52  C   UNL A   1      41.905  24.451  27.010  1.00  0.00     0.074 A 
ATOM     53  C   UNL A   1      41.186  25.114  25.959  1.00  0.00     0.031 C 
ATOM     54  C   UNL A   1      43.564  30.439  29.051  1.00  0.00     0.029 A 
ATOM     55  C   UNL A   1      44.500  29.387  28.699  1.00  0.00     0.049 A 
ATOM     56  H   UNL A   1      44.057  27.349  28.453  1.00  0.00     0.167 HD
ATOM     57  C   UNL A   1      42.805  23.427  26.982  1.00  0.00     0.034 A 
ATOM     58  C   UNL A   1      45.844  29.477  28.510  1.00  0.00     0.034 A 
ATOM     59  C   UNL A   1      43.334  23.191  28.308  1.00  0.00     0.049 A 
ATOM     60  C   UNL A   1      46.393  28.118  28.699  1.00  0.00     0.074 A 
ATOM     61  C   UNL A   1      42.824  22.769  29.517  1.00  0.00     0.029 A 
ATOM     62  N   UNL A   1      44.543  23.790  28.580  1.00  0.00    -0.354 N 
ATOM     63  N   UNL A   1      46.349  27.485  29.838  1.00  0.00    -0.248 NA
ATOM     64  C   UNL A   1      46.629  27.277  27.536  1.00  0.00     0.031 C 
ATOM     65  C   UNL A   1      43.571  23.474  30.509  1.00  0.00     0.029 A 
ATOM     66  C   UNL A   1      44.552  24.239  29.875  1.00  0.00     0.049 A 
ATOM     67  H   UNL A   1      45.286  23.882  27.941  1.00  0.00     0.167 HD
ATOM     68  C   UNL A   1      46.094  26.169  29.500  1.00  0.00     0.074 A 
ATOM     69  C   UNL A   1      46.447  26.073  28.088  1.00  0.00     0.031 C 
ATOM     70  C   UNL A   1      45.343  25.375  30.320  1.00  0.00     0.034 A 
BRANCH  57  71
ATOM     71  C   UNL A   1      43.556  22.937  25.748  1.00  0.00     0.023 A 
ATOM     72  C   UNL A   1      43.688  21.539  25.595  1.00  0.00     0.031 A 
ATOM     73  C   UNL A   1      44.380  23.714  24.904  1.00  0.00     0.131 A 
ATOM     74  C   UNL A   1      44.670  20.984  24.754  1.00  0.00     0.055 A 
ATOM     75  C   UNL A   1      45.317  23.156  24.026  1.00  0.00     0.041 A 
ATOM     76  F   UNL A   1      44.397  25.050  24.926  1.00  0.00    -0.206 F 
ATOM     77  C   UNL A   1      45.494  21.786  23.972  1.00  0.00     0.022 A 
BRANCH  74  78
ATOM     78  S   UNL A   1      44.975  19.199  24.837  1.00  0.00     0.124 S 
ATOM     79  O   UNL A   1      44.949  18.833  23.425  1.00  0.00    -0.237 OA
ATOM     80  O   UNL A   1      46.275  19.148  25.496  1.00  0.00    -0.237 OA
ATOM     81  O   UNL A   1      43.854  18.701  25.631  1.00  0.00    -0.744 OA
ENDBRANCH  74  78
ENDBRANCH  57  71
BRANCH  58  82
ATOM     82  C   UNL A   1      46.622  30.605  27.927  1.00  0.00     0.023 A 
ATOM     83  C   UNL A   1      46.050  31.611  27.118  1.00  0.00     0.031 A 
ATOM     84  C   UNL A   1      47.936  30.836  28.391  1.00  0.00     0.131 A 
ATOM     85  C   UNL A   1      46.782  32.787  26.817  1.00  0.00     0.055 A 
ATOM     86  C   UNL A   1      48.652  31.997  28.094  1.00  0.00     0.041 A 
ATOM     87  F   UNL A   1      48.535  29.972  29.227  1.00  0.00    -0.206 F 
ATOM     88  C   UNL A   1      48.072  32.985  27.313  1.00  0.00     0.022 A 
BRANCH  85  89
ATOM     89  S   UNL A   1      46.027  34.129  25.836  1.00  0.00     0.124 S 
ATOM     90  O   UNL A   1      45.006  33.424  25.073  1.00  0.00    -0.237 OA
ATOM     91  O   UNL A   1      45.553  35.042  26.870  1.00  0.00    -0.237 OA
ATOM     92  O   UNL A   1      47.144  34.639  25.039  1.00  0.00    -0.744 OA
ENDBRANCH  85  89
ENDBRANCH  58  82
BRANCH  70  93
ATOM     93  C   UNL A   1      45.197  25.802  31.767  1.00  0.00     0.023 A 
ATOM     94  C   UNL A   1      46.139  25.561  32.794  1.00  0.00     0.031 A 
ATOM     95  C   UNL A   1      44.057  26.557  32.092  1.00  0.00     0.131 A 
ATOM     96  C   UNL A   1      45.909  26.062  34.090  1.00  0.00     0.055 A 
ATOM     97  C   UNL A   1      43.845  27.071  33.369  1.00  0.00     0.041 A 
ATOM     98  F   UNL A   1      43.135  26.835  31.155  1.00  0.00    -0.206 F 
ATOM     99  C   UNL A   1      44.767  26.819  34.376  1.00  0.00     0.022 A 
BRANCH  96 100
ATOM    100  S   UNL A   1      47.077  25.715  35.446  1.00  0.00     0.124 S 
ATOM    101  O   UNL A   1      47.559  27.036  35.832  1.00  0.00    -0.237 OA
ATOM    102  O   UNL A   1      46.232  25.033  36.424  1.00  0.00    -0.237 OA
ATOM    103  O   UNL A   1      48.084  24.860  34.816  1.00  0.00    -0.744 OA
ENDBRANCH  96 100
ENDBRANCH  70  93
ENDBRANCH  44  45
ENDBRANCH  36  39
ENDBRANCH  34  35
ENDBRANCH  33  34
ENDBRANCH   1  33
TORSDOF 18
ENDMDL
MODEL 2
REMARK VINA RESULT:     -13.0      2.350      6.906
REMARK SMILES NS(=O)(=O)c1ccc(-n2nc(C(=O)NCCCCNC(=O)c3ccc(-c4c5nc(c(-c6cc(S(=O)(=O)[O-])ccc6F)c6ccc([nH]6)c(-c6cc(S(=O)(=O)[O-])ccc6F)c6nc(c(-c7cc(S(=O)(=O)[O-])ccc7F)c7ccc4[nH]7)C=C6)C=C5)cc3)cc2-c2cc3ccccc3s2)cc1
REMARK SMILES IDX 16 1 15 2 14 3 12 4 13 5 11 7 9 8 10 9 86 10 85 11 8 12 5 13
REMARK SMILES IDX 6 14 97 15 7 16 96 17 2 18 3 19 4 20 1 21 87 24 88 25 95 26
REMARK SMILES IDX 89 27 94 28 90 29 93 30 91 31 92 32 17 33 18 34 19 35 20 36
REMARK SMILES IDX 21 38 22 39 23 40 84 41 24 42 83 43 25 44 26 45 27 46 77 47
REMARK SMILES IDX 28 48 82 49 76 50 78 51 29 52 81 53 75 54 74 55 30 57 62 58
REMARK SMILES IDX 42 59 61 60 43 61 46 62 60 63 79 64 44 65 45 66 59 68 80 69
REMARK SMILES IDX 47 70 31 71 32 72 40 73 33 74 39 75 41 76 38 77 34 78 35 79
REMARK SMILES IDX 36 80 37 81 63 82 64 83 72 84 65 85 71 86 73 87 70 88 66 89
REMARK SMILES IDX 67 90 68 91 69 92 48 93 49 94 57 95 50 96 56 97 58 98 55 99
REMARK SMILES IDX 51 100 52 101 53 102 54 103
REMARK H PARENT 14 6 1 22 1 23 19 37 78 56 46 67
REMARK Flexibility Score: inf
ROOT
ATOM      1  C   UNL A   1      32.340  26.901  26.744  1.00  0.00     0.023 C 
ENDROOT
BRANCH   1   2
ATOM      2  C   UNL A   1      30.987  26.713  26.039  1.00  0.00     0.116 C 
BRANCH   2   3
ATOM      3  N   UNL A   1      30.153  25.720  26.710  1.00  0.00    -0.351 N 
ATOM      4  C   UNL A   1      30.010  24.349  26.561  1.00  0.00     0.271 C 
ATOM      5  O   UNL A   1      29.260  23.787  27.362  1.00  0.00    -0.267 OA
ATOM      6  H   UNL A   1      29.574  26.102  27.409  1.00  0.00     0.163 HD
BRANCH   4   7
ATOM      7  C   UNL A   1      30.757  23.606  25.524  1.00  0.00     0.151 A 
ATOM      8  N   UNL A   1      32.134  22.162  24.702  1.00  0.00    -0.231 N 
ATOM      9  N   UNL A   1      31.257  22.366  25.726  1.00  0.00    -0.162 NA
ATOM     10  C   UNL A   1      32.156  23.241  23.852  1.00  0.00     0.085 A 
ATOM     11  C   UNL A   1      31.062  24.001  24.213  1.00  0.00     0.066 A 
BRANCH   8  12
ATOM     12  C   UNL A   1      32.658  20.874  24.443  1.00  0.00     0.065 A 
ATOM     13  C   UNL A   1      33.583  18.263  24.181  1.00  0.00     0.082 A 
ATOM     14  C   UNL A   1      32.629  18.757  23.282  1.00  0.00     0.024 A 
ATOM     15  C   UNL A   1      34.085  19.072  25.204  1.00  0.00     0.024 A 
ATOM     16  C   UNL A   1      32.147  20.063  23.424  1.00  0.00     0.030 A 
ATOM     17  C   UNL A   1      33.643  20.389  25.316  1.00  0.00     0.030 A 
BRANCH  13  18
ATOM     18  S   UNL A   1      34.111  16.585  24.012  1.00  0.00     0.238 S 
ATOM     19  O   UNL A   1      35.197  16.349  24.945  1.00  0.00    -0.207 OA
ATOM     20  O   UNL A   1      34.199  16.264  22.615  1.00  0.00    -0.207 OA
BRANCH  18  21
ATOM     21  N   UNL A   1      32.821  15.670  24.591  1.00  0.00    -0.225 NA
ATOM     22  H   UNL A   1      33.091  14.688  24.629  1.00  0.00     0.137 HD
ATOM     23  H   UNL A   1      32.021  15.780  23.969  1.00  0.00     0.137 HD
ENDBRANCH  18  21
ENDBRANCH  13  18
ENDBRANCH   8  12
BRANCH  10  24
ATOM     24  C   UNL A   1      33.090  23.625  22.830  1.00  0.00     0.054 A 
ATOM     25  C   UNL A   1      32.763  24.357  21.696  1.00  0.00     0.031 A 
ATOM     26  S   UNL A   1      34.613  24.271  23.374  1.00  0.00    -0.134 S 
ATOM     27  C   UNL A   1      33.017  25.751  22.030  1.00  0.00    -0.007 A 
ATOM     28  C   UNL A   1      33.967  25.852  23.057  1.00  0.00     0.035 A 
ATOM     29  C   UNL A   1      32.371  26.932  21.601  1.00  0.00     0.009 A 
ATOM     30  C   UNL A   1      34.256  27.067  23.697  1.00  0.00     0.019 A 
ATOM     31  C   UNL A   1      32.605  28.134  22.278  1.00  0.00     0.001 A 
ATOM     32  C   UNL A   1      33.523  28.194  23.322  1.00  0.00     0.001 A 
ENDBRANCH  10  24
ENDBRANCH   4   7
ENDBRANCH   2   3
ENDBRANCH   1   2
BRANCH   1  33
ATOM     33  C   UNL A   1      32.609  28.323  27.262  1.00  0.00     0.023 C 
BRANCH  33  34
ATOM     34  C   UNL A   1      34.031  28.834  27.026  1.00  0.00     0.116 C 
BRANCH  34  35
ATOM     35  N   UNL A   1      34.116  30.290  26.929  1.00  0.00    -0.352 N 
ATOM     36  C   UNL A   1      34.891  31.138  27.702  1.00  0.00     0.251 C 
ATOM     37  H   UNL A   1      33.561  30.715  26.236  1.00  0.00     0.163 HD
ATOM     38  O   UNL A   1      34.588  32.321  27.816  1.00  0.00    -0.269 OA
BRANCH  36  39
ATOM     39  C   UNL A   1      36.086  30.594  28.378  1.00  0.00     0.039 A 
ATOM     40  C   UNL A   1      36.063  29.349  29.013  1.00  0.00     0.014 A 
ATOM     41  C   UNL A   1      37.259  31.347  28.330  1.00  0.00     0.014 A 
ATOM     42  C   UNL A   1      37.259  28.820  29.504  1.00  0.00     0.010 A 
ATOM     43  C   UNL A   1      38.452  30.779  28.715  1.00  0.00     0.010 A 
ATOM     44  C   UNL A   1      38.460  29.524  29.324  1.00  0.00    -0.014 A 
BRANCH  44  45
ATOM     45  C   UNL A   1      39.754  28.884  29.590  1.00  0.00     0.031 A 
ATOM     46  C   UNL A   1      40.080  28.761  31.039  1.00  0.00     0.074 A 
ATOM     47  C   UNL A   1      40.463  28.213  28.654  1.00  0.00     0.049 A 
ATOM     48  N   UNL A   1      41.007  29.370  31.704  1.00  0.00    -0.248 NA
ATOM     49  C   UNL A   1      39.155  27.995  31.894  1.00  0.00     0.031 C 
ATOM     50  C   UNL A   1      40.085  27.987  27.254  1.00  0.00     0.029 A 
ATOM     51  N   UNL A   1      41.611  27.484  28.773  1.00  0.00    -0.354 N 
ATOM     52  C   UNL A   1      40.949  28.855  32.999  1.00  0.00     0.074 A 
ATOM     53  C   UNL A   1      39.665  28.222  33.106  1.00  0.00     0.031 C 
ATOM     54  C   UNL A   1      40.848  27.003  26.727  1.00  0.00     0.029 A 
ATOM     55  C   UNL A   1      41.880  26.652  27.685  1.00  0.00     0.049 A 
ATOM     56  H   UNL A   1      42.200  27.541  29.561  1.00  0.00     0.167 HD
ATOM     57  C   UNL A   1      42.076  28.748  33.761  1.00  0.00     0.034 A 
ATOM     58  C   UNL A   1      42.874  25.732  27.561  1.00  0.00     0.034 A 
ATOM     59  C   UNL A   1      43.152  29.514  33.171  1.00  0.00     0.049 A 
ATOM     60  C   UNL A   1      43.930  26.113  28.522  1.00  0.00     0.074 A 
ATOM     61  C   UNL A   1      43.395  30.848  32.918  1.00  0.00     0.029 A 
ATOM     62  N   UNL A   1      44.028  28.799  32.388  1.00  0.00    -0.354 N 
ATOM     63  N   UNL A   1      44.610  27.222  28.429  1.00  0.00    -0.248 NA
ATOM     64  C   UNL A   1      43.967  25.475  29.829  1.00  0.00     0.031 C 
ATOM     65  C   UNL A   1      44.149  30.870  31.706  1.00  0.00     0.029 A 
ATOM     66  C   UNL A   1      44.399  29.555  31.306  1.00  0.00     0.049 A 
ATOM     67  H   UNL A   1      44.340  27.885  32.576  1.00  0.00     0.167 HD
ATOM     68  C   UNL A   1      44.768  27.648  29.735  1.00  0.00     0.074 A 
ATOM     69  C   UNL A   1      44.512  26.463  30.546  1.00  0.00     0.031 C 
ATOM     70  C   UNL A   1      44.796  28.981  30.030  1.00  0.00     0.034 A 
BRANCH  57  71
ATOM     71  C   UNL A   1      42.372  27.631  34.757  1.00  0.00     0.023 A 
ATOM     72  C   UNL A   1      43.202  26.579  34.307  1.00  0.00     0.031 A 
ATOM     73  C   UNL A   1      41.682  27.378  35.963  1.00  0.00     0.131 A 
ATOM     74  C   UNL A   1      43.221  25.332  34.958  1.00  0.00     0.055 A 
ATOM     75  C   UNL A   1      41.749  26.154  36.640  1.00  0.00     0.041 A 
ATOM     76  F   UNL A   1      40.844  28.254  36.523  1.00  0.00    -0.206 F 
ATOM     77  C   UNL A   1      42.491  25.109  36.121  1.00  0.00     0.022 A 
BRANCH  74  78
ATOM     78  S   UNL A   1      44.075  23.949  34.157  1.00  0.00     0.124 S 
ATOM     79  O   UNL A   1      43.579  22.814  34.928  1.00  0.00    -0.237 OA
ATOM     80  O   UNL A   1      43.596  24.058  32.783  1.00  0.00    -0.237 OA
ATOM     81  O   UNL A   1      45.488  24.266  34.351  1.00  0.00    -0.744 OA
ENDBRANCH  74  78
ENDBRANCH  57  71
BRANCH  58  82
ATOM     82  C   UNL A   1      42.838  24.421  26.856  1.00  0.00     0.023 A 
ATOM     83  C   UNL A   1      43.837  23.993  25.955  1.00  0.00     0.031 A 
ATOM     84  C   UNL A   1      41.905  23.447  27.278  1.00  0.00     0.131 A 
ATOM     85  C   UNL A   1      43.880  22.643  25.526  1.00  0.00     0.055 A 
ATOM     86  C   UNL A   1      41.954  22.118  26.854  1.00  0.00     0.041 A 
ATOM     87  F   UNL A   1      40.965  23.741  28.191  1.00  0.00    -0.206 F 
ATOM     88  C   UNL A   1      42.950  21.707  25.983  1.00  0.00     0.022 A 
BRANCH  85  89
ATOM     89  S   UNL A   1      45.211  22.058  24.421  1.00  0.00     0.124 S 
ATOM     90  O   UNL A   1      44.653  20.823  23.884  1.00  0.00    -0.237 OA
ATOM     91  O   UNL A   1      45.351  23.168  23.487  1.00  0.00    -0.237 OA
ATOM     92  O   UNL A   1      46.348  21.874  25.324  1.00  0.00    -0.744 OA
ENDBRANCH  85  89
ENDBRANCH  58  82
BRANCH  70  93
ATOM     93  C   UNL A   1      45.111  29.942  28.901  1.00  0.00     0.023 A 
ATOM     94  C   UNL A   1      46.400  30.408  28.553  1.00  0.00     0.031 A 
ATOM     95  C   UNL A   1      44.031  30.349  28.098  1.00  0.00     0.131 A 
ATOM     96  C   UNL A   1      46.564  31.259  27.442  1.00  0.00     0.055 A 
ATOM     97  C   UNL A   1      44.201  31.171  26.986  1.00  0.00     0.041 A 
ATOM     98  F   UNL A   1      42.785  29.926  28.367  1.00  0.00    -0.206 F 
ATOM     99  C   UNL A   1      45.467  31.636  26.657  1.00  0.00     0.022 A 
BRANCH  96 100
ATOM    100  S   UNL A   1      48.206  31.921  27.007  1.00  0.00     0.124 S 
ATOM    101  O   UNL A   1      47.907  32.976  26.046  1.00  0.00    -0.237 OA
ATOM    102  O   UNL A   1      48.722  32.362  28.301  1.00  0.00    -0.237 OA
ATOM    103  O   UNL A   1      48.900  30.762  26.442  1.00  0.00    -0.744 OA
ENDBRANCH  96 100
ENDBRANCH  70  93
ENDBRANCH  44  45
ENDBRANCH  36  39
ENDBRANCH  34  35
ENDBRANCH  33  34
ENDBRANCH   1  33
TORSDOF 18
ENDMDL
MODEL 3
REMARK VINA RESULT:     -12.8      2.305      6.943
REMARK SMILES NS(=O)(=O)c1ccc(-n2nc(C(=O)NCCCCNC(=O)c3ccc(-c4c5nc(c(-c6cc(S(=O)(=O)[O-])ccc6F)c6ccc([nH]6)c(-c6cc(S(=O)(=O)[O-])ccc6F)c6nc(c(-c7cc(S(=O)(=O)[O-])ccc7F)c7ccc4[nH]7)C=C6)C=C5)cc3)cc2-c2cc3ccccc3s2)cc1
REMARK SMILES IDX 16 1 15 2 14 3 12 4 13 5 11 7 9 8 10 9 86 10 85 11 8 12 5 13
REMARK SMILES IDX 6 14 97 15 7 16 96 17 2 18 3 19 4 20 1 21 87 24 88 25 95 26
REMARK SMILES IDX 89 27 94 28 90 29 93 30 91 31 92 32 17 33 18 34 19 35 20 36
REMARK SMILES IDX 21 38 22 39 23 40 84 41 24 42 83 43 25 44 26 45 27 46 77 47
REMARK SMILES IDX 28 48 82 49 76 50 78 51 29 52 81 53 75 54 74 55 30 57 62 58
REMARK SMILES IDX 42 59 61 60 43 61 46 62 60 63 79 64 44 65 45 66 59 68 80 69
REMARK SMILES IDX 47 70 31 71 32 72 40 73 33 74 39 75 41 76 38 77 34 78 35 79
REMARK SMILES IDX 36 80 37 81 63 82 64 83 72 84 65 85 71 86 73 87 70 88 66 89
REMARK SMILES IDX 67 90 68 91 69 92 48 93 49 94 57 95 50 96 56 97 58 98 55 99
REMARK SMILES IDX 51 100 52 101 53 102 54 103
REMARK H PARENT 14 6 1 22 1 23 19 37 78 56 46 67
REMARK Flexibility Score: inf
ROOT
ATOM      1  C   UNL A   1      32.486  29.616  25.750  1.00  0.00     0.023 C 
ENDROOT
BRANCH   1   2
ATOM      2  C   UNL A   1      31.365  28.568  25.654  1.00  0.00     0.116 C 
BRANCH   2   3
ATOM      3  N   UNL A   1      30.941  28.344  24.275  1.00  0.00    -0.351 N 
ATOM      4  C   UNL A   1      31.117  27.289  23.392  1.00  0.00     0.271 C 
ATOM      5  O   UNL A   1      30.548  27.387  22.303  1.00  0.00    -0.267 OA
ATOM      6  H   UNL A   1      30.429  29.093  23.895  1.00  0.00     0.163 HD
BRANCH   4   7
ATOM      7  C   UNL A   1      31.908  26.097  23.765  1.00  0.00     0.151 A 
ATOM      8  N   UNL A   1      32.292  24.045  24.312  1.00  0.00    -0.231 N 
ATOM      9  N   UNL A   1      31.472  24.833  23.560  1.00  0.00    -0.162 NA
ATOM     10  C   UNL A   1      33.249  24.798  24.948  1.00  0.00     0.085 A 
ATOM     11  C   UNL A   1      33.182  26.040  24.348  1.00  0.00     0.066 A 
BRANCH   8  12
ATOM     12  C   UNL A   1      32.296  22.640  24.147  1.00  0.00     0.065 A 
ATOM     13  C   UNL A   1      32.584  19.891  23.830  1.00  0.00     0.082 A 
ATOM     14  C   UNL A   1      31.949  20.398  24.972  1.00  0.00     0.024 A 
ATOM     15  C   UNL A   1      33.065  20.752  22.841  1.00  0.00     0.024 A 
ATOM     16  C   UNL A   1      31.822  21.781  25.143  1.00  0.00     0.030 A 
ATOM     17  C   UNL A   1      32.895  22.127  22.986  1.00  0.00     0.030 A 
BRANCH  13  18
ATOM     18  S   UNL A   1      32.790  18.142  23.688  1.00  0.00     0.238 S 
ATOM     19  O   UNL A   1      34.145  17.806  24.086  1.00  0.00    -0.207 OA
ATOM     20  O   UNL A   1      32.210  17.705  22.448  1.00  0.00    -0.207 OA
BRANCH  18  21
ATOM     21  N   UNL A   1      31.801  17.495  24.887  1.00  0.00    -0.225 NA
ATOM     22  H   UNL A   1      32.345  16.858  25.469  1.00  0.00     0.137 HD
ATOM     23  H   UNL A   1      31.031  16.986  24.454  1.00  0.00     0.137 HD
ENDBRANCH  18  21
ENDBRANCH  13  18
ENDBRANCH   8  12
BRANCH  10  24
ATOM     24  C   UNL A   1      34.129  24.489  26.040  1.00  0.00     0.054 A 
ATOM     25  C   UNL A   1      34.159  23.271  26.709  1.00  0.00     0.031 A 
ATOM     26  S   UNL A   1      35.796  24.954  25.849  1.00  0.00    -0.134 S 
ATOM     27  C   UNL A   1      35.187  22.477  26.051  1.00  0.00    -0.007 A 
ATOM     28  C   UNL A   1      36.126  23.304  25.416  1.00  0.00     0.035 A 
ATOM     29  C   UNL A   1      35.280  21.082  25.844  1.00  0.00     0.009 A 
ATOM     30  C   UNL A   1      37.111  22.799  24.553  1.00  0.00     0.019 A 
ATOM     31  C   UNL A   1      36.217  20.579  24.935  1.00  0.00     0.001 A 
ATOM     32  C   UNL A   1      37.107  21.429  24.287  1.00  0.00     0.001 A 
ENDBRANCH  10  24
ENDBRANCH   4   7
ENDBRANCH   2   3
ENDBRANCH   1   2
BRANCH   1  33
ATOM     33  C   UNL A   1      33.888  29.045  26.014  1.00  0.00     0.023 C 
BRANCH  33  34
ATOM     34  C   UNL A   1      34.571  29.578  27.275  1.00  0.00     0.116 C 
BRANCH  34  35
ATOM     35  N   UNL A   1      34.967  30.981  27.171  1.00  0.00    -0.352 N 
ATOM     36  C   UNL A   1      35.913  31.644  27.935  1.00  0.00     0.251 C 
ATOM     37  H   UNL A   1      34.511  31.515  26.481  1.00  0.00     0.163 HD
ATOM     38  O   UNL A   1      35.873  32.865  28.047  1.00  0.00    -0.269 OA
BRANCH  36  39
ATOM     39  C   UNL A   1      36.968  30.857  28.604  1.00  0.00     0.039 A 
ATOM     40  C   UNL A   1      36.824  29.485  28.829  1.00  0.00     0.014 A 
ATOM     41  C   UNL A   1      38.139  31.520  28.971  1.00  0.00     0.014 A 
ATOM     42  C   UNL A   1      37.912  28.765  29.329  1.00  0.00     0.010 A 
ATOM     43  C   UNL A   1      39.242  30.793  29.360  1.00  0.00     0.010 A 
ATOM     44  C   UNL A   1      39.133  29.418  29.562  1.00  0.00    -0.014 A 
BRANCH  44  45
ATOM     45  C   UNL A   1      40.356  28.651  29.833  1.00  0.00     0.031 A 
ATOM     46  C   UNL A   1      40.654  28.484  31.284  1.00  0.00     0.074 A 
ATOM     47  C   UNL A   1      41.004  27.924  28.896  1.00  0.00     0.049 A 
ATOM     48  N   UNL A   1      41.630  28.993  31.962  1.00  0.00    -0.248 NA
ATOM     49  C   UNL A   1      39.651  27.805  32.123  1.00  0.00     0.031 C 
ATOM     50  C   UNL A   1      40.619  27.748  27.491  1.00  0.00     0.029 A 
ATOM     51  N   UNL A   1      42.075  27.084  29.018  1.00  0.00    -0.354 N 
ATOM     52  C   UNL A   1      41.510  28.474  33.252  1.00  0.00     0.074 A 
ATOM     53  C   UNL A   1      40.169  27.969  33.342  1.00  0.00     0.031 C 
ATOM     54  C   UNL A   1      41.287  26.699  26.961  1.00  0.00     0.029 A 
ATOM     55  C   UNL A   1      42.270  26.240  27.924  1.00  0.00     0.049 A 
ATOM     56  H   UNL A   1      42.659  27.076  29.811  1.00  0.00     0.167 HD
ATOM     57  C   UNL A   1      42.613  28.251  34.022  1.00  0.00     0.034 A 
ATOM     58  C   UNL A   1      43.171  25.228  27.799  1.00  0.00     0.034 A 
ATOM     59  C   UNL A   1      43.765  28.913  33.449  1.00  0.00     0.049 A 
ATOM     60  C   UNL A   1      44.250  25.495  28.773  1.00  0.00     0.074 A 
ATOM     61  C   UNL A   1      44.140  30.219  33.212  1.00  0.00     0.029 A 
ATOM     62  N   UNL A   1      44.575  28.123  32.666  1.00  0.00    -0.354 N 
ATOM     63  N   UNL A   1      45.037  26.532  28.697  1.00  0.00    -0.248 NA
ATOM     64  C   UNL A   1      44.212  24.845  30.074  1.00  0.00     0.031 C 
ATOM     65  C   UNL A   1      44.904  30.178  32.006  1.00  0.00     0.029 A 
ATOM     66  C   UNL A   1      45.028  28.849  31.595  1.00  0.00     0.049 A 
ATOM     67  H   UNL A   1      44.794  27.181  32.848  1.00  0.00     0.167 HD
ATOM     68  C   UNL A   1      45.224  26.929  30.008  1.00  0.00     0.074 A 
ATOM     69  C   UNL A   1      44.845  25.768  30.805  1.00  0.00     0.031 C 
ATOM     70  C   UNL A   1      45.379  28.251  30.317  1.00  0.00     0.034 A 
BRANCH  57  71
ATOM     71  C   UNL A   1      42.790  27.100  35.009  1.00  0.00     0.023 A 
ATOM     72  C   UNL A   1      43.568  26.003  34.577  1.00  0.00     0.031 A 
ATOM     73  C   UNL A   1      42.031  26.876  36.179  1.00  0.00     0.131 A 
ATOM     74  C   UNL A   1      43.474  24.747  35.204  1.00  0.00     0.055 A 
ATOM     75  C   UNL A   1      41.986  25.640  36.835  1.00  0.00     0.041 A 
ATOM     76  F   UNL A   1      41.228  27.797  36.718  1.00  0.00    -0.206 F 
ATOM     77  C   UNL A   1      42.680  24.555  36.330  1.00  0.00     0.022 A 
BRANCH  74  78
ATOM     78  S   UNL A   1      44.270  23.322  34.416  1.00  0.00     0.124 S 
ATOM     79  O   UNL A   1      45.440  23.943  33.804  1.00  0.00    -0.237 OA
ATOM     80  O   UNL A   1      44.522  22.451  35.559  1.00  0.00    -0.237 OA
ATOM     81  O   UNL A   1      43.255  22.844  33.480  1.00  0.00    -0.744 OA
ENDBRANCH  74  78
ENDBRANCH  57  71
BRANCH  58  82
ATOM     82  C   UNL A   1      43.013  23.933  27.080  1.00  0.00     0.023 A 
ATOM     83  C   UNL A   1      44.012  23.375  26.253  1.00  0.00     0.031 A 
ATOM     84  C   UNL A   1      41.929  23.093  27.422  1.00  0.00     0.131 A 
ATOM     85  C   UNL A   1      43.907  22.031  25.815  1.00  0.00     0.055 A 
ATOM     86  C   UNL A   1      41.832  21.770  26.989  1.00  0.00     0.041 A 
ATOM     87  F   UNL A   1      40.971  23.511  28.264  1.00  0.00    -0.206 F 
ATOM     88  C   UNL A   1      42.828  21.228  26.192  1.00  0.00     0.022 A 
BRANCH  85  89
ATOM     89  S   UNL A   1      45.227  21.272  24.808  1.00  0.00     0.124 S 
ATOM     90  O   UNL A   1      46.329  22.211  24.976  1.00  0.00    -0.237 OA
ATOM     91  O   UNL A   1      45.385  19.965  25.435  1.00  0.00    -0.237 OA
ATOM     92  O   UNL A   1      44.653  21.238  23.462  1.00  0.00    -0.744 OA
ENDBRANCH  85  89
ENDBRANCH  58  82
BRANCH  70  93
ATOM     93  C   UNL A   1      45.797  29.187  29.201  1.00  0.00     0.023 A 
ATOM     94  C   UNL A   1      44.929  30.023  28.461  1.00  0.00     0.031 A 
ATOM     95  C   UNL A   1      47.173  29.270  28.927  1.00  0.00     0.131 A 
ATOM     96  C   UNL A   1      45.453  30.892  27.483  1.00  0.00     0.055 A 
ATOM     97  C   UNL A   1      47.690  30.147  27.976  1.00  0.00     0.041 A 
ATOM     98  F   UNL A   1      48.049  28.514  29.608  1.00  0.00    -0.206 F 
ATOM     99  C   UNL A   1      46.831  30.957  27.244  1.00  0.00     0.022 A 
BRANCH  96 100
ATOM    100  S   UNL A   1      44.351  31.937  26.476  1.00  0.00     0.124 S 
ATOM    101  O   UNL A   1      43.890  32.954  27.414  1.00  0.00    -0.237 OA
ATOM    102  O   UNL A   1      45.241  32.403  25.414  1.00  0.00    -0.237 OA
ATOM    103  O   UNL A   1      43.313  31.006  26.030  1.00  0.00    -0.744 OA
ENDBRANCH  96 100
ENDBRANCH  70  93
ENDBRANCH  44  45
ENDBRANCH  36  39
ENDBRANCH  34  35
ENDBRANCH  33  34
ENDBRANCH   1  33
TORSDOF 18
ENDMDL
