MODEL 1
REMARK VINA RESULT:     -11.6      0.000      0.000
REMARK SMILES NC(=O)C1CC[NH+](Cc2ccc(C(=O)NCCCCNC(=O)c3ccc(-c4c5nc(c(-c6cc(S(=O)(=O)[O-])ccc6F)c6ccc([nH]6)c(-c6cc(S(=O)(=O)[O-])ccc6F)c6nc(c(-c7cc(S(=O)(=O)[O-])ccc7F)c7ccc4[nH]7)C=C6)C=C5)cc3)cc2)CC1
REMARK SMILES IDX 17 1 16 2 15 3 13 4 14 5 12 7 9 8 10 9 87 10 11 11 86 12
REMARK SMILES IDX 8 13 7 14 4 15 5 16 89 17 6 18 88 19 2 21 1 22 3 25 18 26
REMARK SMILES IDX 19 27 20 28 21 29 22 31 23 32 24 33 85 34 25 35 84 36 26 37
REMARK SMILES IDX 27 38 28 39 78 40 29 41 83 42 77 43 79 44 30 45 82 46 76 47
REMARK SMILES IDX 75 48 31 50 63 51 43 52 62 53 44 54 47 55 61 56 80 57 45 58
REMARK SMILES IDX 46 59 60 61 81 62 48 63 32 64 33 65 41 66 34 67 40 68 42 69
REMARK SMILES IDX 39 70 35 71 36 72 37 73 38 74 64 75 65 76 73 77 66 78 72 79
REMARK SMILES IDX 74 80 71 81 67 82 68 83 69 84 70 85 49 86 50 87 58 88 51 89
REMARK SMILES IDX 57 90 59 91 56 92 52 93 53 94 54 95 55 96
REMARK H PARENT 15 6 7 20 1 23 1 24 20 30 79 49 47 60
REMARK Flexibility Score: inf
ROOT
ATOM      1  C   UNL A   1      32.901  29.270  24.610  1.00  0.00     0.023 C 
ENDROOT
BRANCH   1   2
ATOM      2  C   UNL A   1      31.408  29.444  24.894  1.00  0.00     0.116 C 
BRANCH   2   3
ATOM      3  N   UNL A   1      30.658  29.608  23.662  1.00  0.00    -0.352 N 
ATOM      4  C   UNL A   1      30.285  28.698  22.705  1.00  0.00     0.251 C 
ATOM      5  O   UNL A   1      29.559  29.067  21.784  1.00  0.00    -0.269 OA
ATOM      6  H   UNL A   1      30.367  30.531  23.482  1.00  0.00     0.163 HD
BRANCH   4   7
ATOM      7  C   UNL A   1      30.678  27.268  22.781  1.00  0.00     0.039 A 
ATOM      8  C   UNL A   1      31.413  24.572  23.133  1.00  0.00     0.006 A 
ATOM      9  C   UNL A   1      30.345  25.120  23.858  1.00  0.00     0.010 A 
ATOM     10  C   UNL A   1      32.038  25.363  22.159  1.00  0.00     0.010 A 
ATOM     11  C   UNL A   1      29.983  26.458  23.685  1.00  0.00     0.014 A 
ATOM     12  C   UNL A   1      31.667  26.698  21.978  1.00  0.00     0.014 A 
BRANCH   8  13
ATOM     13  C   UNL A   1      31.921  23.179  23.457  1.00  0.00     0.299 C 
BRANCH  13  14
ATOM     14  N   UNL A   1      32.496  23.000  24.809  1.00  0.00    -0.331 N 
ATOM     15  C   UNL A   1      34.541  22.160  26.752  1.00  0.00     0.089 C 
ATOM     16  C   UNL A   1      33.218  21.411  26.575  1.00  0.00     0.075 C 
ATOM     17  C   UNL A   1      34.287  23.638  26.425  1.00  0.00     0.075 C 
ATOM     18  C   UNL A   1      32.664  21.588  25.161  1.00  0.00     0.263 C 
ATOM     19  C   UNL A   1      33.720  23.792  25.009  1.00  0.00     0.263 C 
ATOM     20  H   UNL A   1      31.813  23.372  25.468  1.00  0.00     0.348 HD
BRANCH  15  21
ATOM     21  C   UNL A   1      35.710  21.632  25.914  1.00  0.00     0.220 C 
ATOM     22  N   UNL A   1      36.916  22.246  26.047  1.00  0.00    -0.369 N 
ATOM     23  H   UNL A   1      37.689  21.933  25.524  1.00  0.00     0.159 HD
ATOM     24  H   UNL A   1      37.017  23.003  26.667  1.00  0.00     0.159 HD
ATOM     25  O   UNL A   1      35.589  20.736  25.084  1.00  0.00    -0.275 OA
ENDBRANCH  15  21
ENDBRANCH  13  14
ENDBRANCH   8  13
ENDBRANCH   4   7
ENDBRANCH   2   3
ENDBRANCH   1   2
BRANCH   1  26
ATOM     26  C   UNL A   1      33.738  28.861  25.827  1.00  0.00     0.023 C 
BRANCH  26  27
ATOM     27  C   UNL A   1      33.206  29.340  27.174  1.00  0.00     0.116 C 
BRANCH  27  28
ATOM     28  N   UNL A   1      33.400  30.765  27.389  1.00  0.00    -0.352 N 
ATOM     29  C   UNL A   1      34.475  31.418  27.952  1.00  0.00     0.251 C 
ATOM     30  H   UNL A   1      32.662  31.344  27.091  1.00  0.00     0.163 HD
ATOM     31  O   UNL A   1      34.417  32.622  28.156  1.00  0.00    -0.269 OA
BRANCH  29  32
ATOM     32  C   UNL A   1      35.671  30.640  28.345  1.00  0.00     0.039 A 
ATOM     33  C   UNL A   1      36.816  30.721  27.549  1.00  0.00     0.014 A 
ATOM     34  C   UNL A   1      35.676  29.868  29.510  1.00  0.00     0.014 A 
ATOM     35  C   UNL A   1      37.993  30.096  27.966  1.00  0.00     0.010 A 
ATOM     36  C   UNL A   1      36.865  29.295  29.954  1.00  0.00     0.010 A 
ATOM     37  C   UNL A   1      38.040  29.417  29.194  1.00  0.00    -0.014 A 
BRANCH  37  38
ATOM     38  C   UNL A   1      39.312  28.858  29.720  1.00  0.00     0.031 A 
ATOM     39  C   UNL A   1      40.012  29.522  30.872  1.00  0.00     0.074 A 
ATOM     40  C   UNL A   1      39.875  27.800  29.102  1.00  0.00     0.049 A 
ATOM     41  N   UNL A   1      41.172  29.243  31.407  1.00  0.00    -0.248 NA
ATOM     42  C   UNL A   1      39.326  30.671  31.482  1.00  0.00     0.031 C 
ATOM     43  C   UNL A   1      39.309  27.098  27.948  1.00  0.00     0.029 A 
ATOM     44  N   UNL A   1      41.053  27.139  29.347  1.00  0.00    -0.354 N 
ATOM     45  C   UNL A   1      41.364  30.185  32.411  1.00  0.00     0.074 A 
ATOM     46  C   UNL A   1      40.224  31.077  32.369  1.00  0.00     0.031 C 
ATOM     47  C   UNL A   1      40.133  26.098  27.594  1.00  0.00     0.029 A 
ATOM     48  C   UNL A   1      41.304  26.114  28.464  1.00  0.00     0.049 A 
ATOM     49  H   UNL A   1      41.660  27.377  30.084  1.00  0.00     0.167 HD
ATOM     50  C   UNL A   1      42.387  30.286  33.295  1.00  0.00     0.034 A 
ATOM     51  C   UNL A   1      42.367  25.291  28.356  1.00  0.00     0.034 A 
ATOM     52  C   UNL A   1      43.513  29.383  33.327  1.00  0.00     0.049 A 
ATOM     53  C   UNL A   1      43.507  25.443  29.329  1.00  0.00     0.074 A 
ATOM     54  C   UNL A   1      44.569  29.350  34.223  1.00  0.00     0.029 A 
ATOM     55  N   UNL A   1      43.738  28.359  32.416  1.00  0.00    -0.354 N 
ATOM     56  N   UNL A   1      43.646  26.305  30.310  1.00  0.00    -0.248 NA
ATOM     57  C   UNL A   1      44.629  24.506  29.185  1.00  0.00     0.031 C 
ATOM     58  C   UNL A   1      45.462  28.354  33.815  1.00  0.00     0.029 A 
ATOM     59  C   UNL A   1      44.932  27.715  32.705  1.00  0.00     0.049 A 
ATOM     60  H   UNL A   1      43.137  28.124  31.671  1.00  0.00     0.167 HD
ATOM     61  C   UNL A   1      44.863  25.998  30.913  1.00  0.00     0.074 A 
ATOM     62  C   UNL A   1      45.408  24.864  30.196  1.00  0.00     0.031 C 
ATOM     63  C   UNL A   1      45.472  26.598  31.967  1.00  0.00     0.034 A 
BRANCH  50  64
ATOM     64  C   UNL A   1      42.342  31.427  34.282  1.00  0.00     0.023 A 
ATOM     65  C   UNL A   1      41.464  31.419  35.379  1.00  0.00     0.031 A 
ATOM     66  C   UNL A   1      43.166  32.553  34.109  1.00  0.00     0.131 A 
ATOM     67  C   UNL A   1      41.373  32.541  36.216  1.00  0.00     0.055 A 
ATOM     68  C   UNL A   1      43.129  33.635  34.991  1.00  0.00     0.041 A 
ATOM     69  F   UNL A   1      44.012  32.627  33.069  1.00  0.00    -0.206 F 
ATOM     70  C   UNL A   1      42.219  33.640  36.043  1.00  0.00     0.022 A 
BRANCH  67  71
ATOM     71  S   UNL A   1      40.040  32.603  37.443  1.00  0.00     0.124 S 
ATOM     72  O   UNL A   1      39.521  33.954  37.247  1.00  0.00    -0.237 OA
ATOM     73  O   UNL A   1      39.168  31.516  37.016  1.00  0.00    -0.237 OA
ATOM     74  O   UNL A   1      40.732  32.386  38.712  1.00  0.00    -0.744 OA
ENDBRANCH  67  71
ENDBRANCH  50  64
BRANCH  51  75
ATOM     75  C   UNL A   1      42.420  24.266  27.276  1.00  0.00     0.023 A 
ATOM     76  C   UNL A   1      41.628  23.110  27.339  1.00  0.00     0.031 A 
ATOM     77  C   UNL A   1      43.292  24.411  26.182  1.00  0.00     0.131 A 
ATOM     78  C   UNL A   1      41.753  22.121  26.350  1.00  0.00     0.055 A 
ATOM     79  C   UNL A   1      43.378  23.447  25.175  1.00  0.00     0.041 A 
ATOM     80  F   UNL A   1      44.066  25.502  26.071  1.00  0.00    -0.206 F 
ATOM     81  C   UNL A   1      42.613  22.288  25.263  1.00  0.00     0.022 A 
BRANCH  78  82
ATOM     82  S   UNL A   1      40.825  20.576  26.547  1.00  0.00     0.124 S 
ATOM     83  O   UNL A   1      41.580  19.663  25.694  1.00  0.00    -0.237 OA
ATOM     84  O   UNL A   1      40.924  20.343  27.984  1.00  0.00    -0.237 OA
ATOM     85  O   UNL A   1      39.488  20.918  26.063  1.00  0.00    -0.744 OA
ENDBRANCH  78  82
ENDBRANCH  51  75
BRANCH  63  86
ATOM     86  C   UNL A   1      46.785  26.009  32.420  1.00  0.00     0.023 A 
ATOM     87  C   UNL A   1      46.843  25.015  33.414  1.00  0.00     0.031 A 
ATOM     88  C   UNL A   1      47.993  26.455  31.857  1.00  0.00     0.131 A 
ATOM     89  C   UNL A   1      48.088  24.537  33.850  1.00  0.00     0.055 A 
ATOM     90  C   UNL A   1      49.226  25.937  32.256  1.00  0.00     0.041 A 
ATOM     91  F   UNL A   1      47.994  27.404  30.907  1.00  0.00    -0.206 F 
ATOM     92  C   UNL A   1      49.278  24.979  33.265  1.00  0.00     0.022 A 
BRANCH  89  93
ATOM     93  S   UNL A   1      48.137  23.382  35.248  1.00  0.00     0.124 S 
ATOM     94  O   UNL A   1      46.923  23.736  35.976  1.00  0.00    -0.237 OA
ATOM     95  O   UNL A   1      48.127  22.084  34.581  1.00  0.00    -0.237 OA
ATOM     96  O   UNL A   1      49.387  23.719  35.927  1.00  0.00    -0.744 OA
ENDBRANCH  89  93
ENDBRANCH  63  86
ENDBRANCH  37  38
ENDBRANCH  29  32
ENDBRANCH  27  28
ENDBRANCH  26  27
ENDBRANCH   1  26
TORSDOF 17
ENDMDL
MODEL 2
REMARK VINA RESULT:     -11.6      5.375      8.732
REMARK SMILES NC(=O)C1CC[NH+](Cc2ccc(C(=O)NCCCCNC(=O)c3ccc(-c4c5nc(c(-c6cc(S(=O)(=O)[O-])ccc6F)c6ccc([nH]6)c(-c6cc(S(=O)(=O)[O-])ccc6F)c6nc(c(-c7cc(S(=O)(=O)[O-])ccc7F)c7ccc4[nH]7)C=C6)C=C5)cc3)cc2)CC1
REMARK SMILES IDX 17 1 16 2 15 3 13 4 14 5 12 7 9 8 10 9 87 10 11 11 86 12
REMARK SMILES IDX 8 13 7 14 4 15 5 16 89 17 6 18 88 19 2 21 1 22 3 25 18 26
REMARK SMILES IDX 19 27 20 28 21 29 22 31 23 32 24 33 85 34 25 35 84 36 26 37
REMARK SMILES IDX 27 38 28 39 78 40 29 41 83 42 77 43 79 44 30 45 82 46 76 47
REMARK SMILES IDX 75 48 31 50 63 51 43 52 62 53 44 54 47 55 61 56 80 57 45 58
REMARK SMILES IDX 46 59 60 61 81 62 48 63 32 64 33 65 41 66 34 67 40 68 42 69
REMARK SMILES IDX 39 70 35 71 36 72 37 73 38 74 64 75 65 76 73 77 66 78 72 79
REMARK SMILES IDX 74 80 71 81 67 82 68 83 69 84 70 85 49 86 50 87 58 88 51 89
REMARK SMILES IDX 57 90 59 91 56 92 52 93 53 94 54 95 55 96
REMARK H PARENT 15 6 7 20 1 23 1 24 20 30 79 49 47 60
REMARK Flexibility Score: inf
ROOT
ATOM      1  C   UNL A   1      36.912  21.937  24.865  1.00  0.00     0.023 C 
ENDROOT
BRANCH   1   2
ATOM      2  C   UNL A   1      35.738  21.888  25.844  1.00  0.00     0.116 C 
BRANCH   2   3
ATOM      3  N   UNL A   1      35.017  20.632  25.733  1.00  0.00    -0.352 N 
ATOM      4  C   UNL A   1      33.755  20.355  25.271  1.00  0.00     0.251 C 
ATOM      5  O   UNL A   1      33.397  19.181  25.187  1.00  0.00    -0.269 OA
ATOM      6  H   UNL A   1      35.520  19.844  26.044  1.00  0.00     0.163 HD
BRANCH   4   7
ATOM      7  C   UNL A   1      32.832  21.422  24.810  1.00  0.00     0.039 A 
ATOM      8  C   UNL A   1      31.230  23.509  23.803  1.00  0.00     0.006 A 
ATOM      9  C   UNL A   1      31.942  22.672  22.931  1.00  0.00     0.010 A 
ATOM     10  C   UNL A   1      31.251  23.221  25.175  1.00  0.00     0.010 A 
ATOM     11  C   UNL A   1      32.739  21.639  23.431  1.00  0.00     0.014 A 
ATOM     12  C   UNL A   1      32.039  22.180  25.673  1.00  0.00     0.014 A 
BRANCH   8  13
ATOM     13  C   UNL A   1      30.518  24.739  23.271  1.00  0.00     0.299 C 
BRANCH  13  14
ATOM     14  N   UNL A   1      31.128  26.040  23.622  1.00  0.00    -0.331 N 
ATOM     15  C   UNL A   1      31.396  28.970  23.553  1.00  0.00     0.089 C 
ATOM     16  C   UNL A   1      32.377  28.039  22.838  1.00  0.00     0.075 C 
ATOM     17  C   UNL A   1      30.865  28.230  24.790  1.00  0.00     0.075 C 
ATOM     18  C   UNL A   1      31.711  26.716  22.460  1.00  0.00     0.263 C 
ATOM     19  C   UNL A   1      30.215  26.901  24.390  1.00  0.00     0.263 C 
ATOM     20  H   UNL A   1      31.908  25.837  24.246  1.00  0.00     0.348 HD
BRANCH  15  21
ATOM     21  C   UNL A   1      30.224  29.469  22.700  1.00  0.00     0.220 C 
ATOM     22  N   UNL A   1      30.507  30.010  21.485  1.00  0.00    -0.369 N 
ATOM     23  H   UNL A   1      29.778  30.340  20.912  1.00  0.00     0.159 HD
ATOM     24  H   UNL A   1      31.440  30.071  21.179  1.00  0.00     0.159 HD
ATOM     25  O   UNL A   1      29.061  29.466  23.093  1.00  0.00    -0.275 OA
ENDBRANCH  15  21
ENDBRANCH  13  14
ENDBRANCH   8  13
ENDBRANCH   4   7
ENDBRANCH   2   3
ENDBRANCH   1   2
BRANCH   1  26
ATOM     26  C   UNL A   1      37.865  20.741  24.952  1.00  0.00     0.023 C 
BRANCH  26  27
ATOM     27  C   UNL A   1      39.079  20.939  25.854  1.00  0.00     0.116 C 
BRANCH  27  28
ATOM     28  N   UNL A   1      39.949  19.774  25.901  1.00  0.00    -0.352 N 
ATOM     29  C   UNL A   1      41.309  19.716  26.114  1.00  0.00     0.251 C 
ATOM     30  H   UNL A   1      39.505  18.907  25.761  1.00  0.00     0.163 HD
ATOM     31  O   UNL A   1      41.897  18.650  26.007  1.00  0.00    -0.269 OA
BRANCH  29  32
ATOM     32  C   UNL A   1      42.048  20.960  26.425  1.00  0.00     0.039 A 
ATOM     33  C   UNL A   1      42.430  21.796  25.372  1.00  0.00     0.014 A 
ATOM     34  C   UNL A   1      42.329  21.317  27.747  1.00  0.00     0.014 A 
ATOM     35  C   UNL A   1      43.018  23.032  25.651  1.00  0.00     0.010 A 
ATOM     36  C   UNL A   1      42.860  22.574  28.024  1.00  0.00     0.010 A 
ATOM     37  C   UNL A   1      43.195  23.451  26.979  1.00  0.00    -0.014 A 
BRANCH  37  38
ATOM     38  C   UNL A   1      43.695  24.812  27.299  1.00  0.00     0.031 A 
ATOM     39  C   UNL A   1      42.761  25.853  27.848  1.00  0.00     0.074 A 
ATOM     40  C   UNL A   1      44.974  25.131  27.016  1.00  0.00     0.049 A 
ATOM     41  N   UNL A   1      42.984  27.118  28.098  1.00  0.00    -0.248 NA
ATOM     42  C   UNL A   1      41.383  25.418  28.125  1.00  0.00     0.031 C 
ATOM     43  C   UNL A   1      45.964  24.217  26.441  1.00  0.00     0.029 A 
ATOM     44  N   UNL A   1      45.658  26.313  27.156  1.00  0.00    -0.354 N 
ATOM     45  C   UNL A   1      41.776  27.635  28.551  1.00  0.00     0.074 A 
ATOM     46  C   UNL A   1      40.811  26.557  28.487  1.00  0.00     0.031 C 
ATOM     47  C   UNL A   1      47.129  24.867  26.292  1.00  0.00     0.029 A 
ATOM     48  C   UNL A   1      46.960  26.253  26.715  1.00  0.00     0.049 A 
ATOM     49  H   UNL A   1      45.254  27.126  27.536  1.00  0.00     0.167 HD
ATOM     50  C   UNL A   1      41.503  28.886  28.997  1.00  0.00     0.034 A 
ATOM     51  C   UNL A   1      47.906  27.211  26.643  1.00  0.00     0.034 A 
ATOM     52  C   UNL A   1      42.480  29.946  29.061  1.00  0.00     0.049 A 
ATOM     53  C   UNL A   1      47.570  28.603  27.114  1.00  0.00     0.074 A 
ATOM     54  C   UNL A   1      42.330  31.230  29.559  1.00  0.00     0.029 A 
ATOM     55  N   UNL A   1      43.788  29.853  28.602  1.00  0.00    -0.354 N 
ATOM     56  N   UNL A   1      46.437  29.061  27.593  1.00  0.00    -0.248 NA
ATOM     57  C   UNL A   1      48.642  29.604  27.038  1.00  0.00     0.031 C 
ATOM     58  C   UNL A   1      43.522  31.929  29.341  1.00  0.00     0.029 A 
ATOM     59  C   UNL A   1      44.443  31.064  28.771  1.00  0.00     0.049 A 
ATOM     60  H   UNL A   1      44.192  29.043  28.213  1.00  0.00     0.167 HD
ATOM     61  C   UNL A   1      46.669  30.399  27.898  1.00  0.00     0.074 A 
ATOM     62  C   UNL A   1      48.052  30.668  27.562  1.00  0.00     0.031 C 
ATOM     63  C   UNL A   1      45.816  31.322  28.412  1.00  0.00     0.034 A 
BRANCH  50  64
ATOM     64  C   UNL A   1      40.085  29.177  29.424  1.00  0.00     0.023 A 
ATOM     65  C   UNL A   1      39.733  29.299  30.780  1.00  0.00     0.031 A 
ATOM     66  C   UNL A   1      39.063  29.305  28.467  1.00  0.00     0.131 A 
ATOM     67  C   UNL A   1      38.389  29.464  31.145  1.00  0.00     0.055 A 
ATOM     68  C   UNL A   1      37.738  29.549  28.832  1.00  0.00     0.041 A 
ATOM     69  F   UNL A   1      39.334  29.179  27.158  1.00  0.00    -0.206 F 
ATOM     70  C   UNL A   1      37.392  29.615  30.178  1.00  0.00     0.022 A 
BRANCH  67  71
ATOM     71  S   UNL A   1      37.946  29.338  32.898  1.00  0.00     0.124 S 
ATOM     72  O   UNL A   1      37.464  27.962  32.982  1.00  0.00    -0.237 OA
ATOM     73  O   UNL A   1      39.213  29.613  33.565  1.00  0.00    -0.237 OA
ATOM     74  O   UNL A   1      36.918  30.362  33.067  1.00  0.00    -0.744 OA
ENDBRANCH  67  71
ENDBRANCH  50  64
BRANCH  51  75
ATOM     75  C   UNL A   1      49.253  26.901  26.087  1.00  0.00     0.023 A 
ATOM     76  C   UNL A   1      49.612  27.314  24.794  1.00  0.00     0.031 A 
ATOM     77  C   UNL A   1      50.188  26.155  26.826  1.00  0.00     0.131 A 
ATOM     78  C   UNL A   1      50.857  26.943  24.262  1.00  0.00     0.055 A 
ATOM     79  C   UNL A   1      51.444  25.829  26.310  1.00  0.00     0.041 A 
ATOM     80  F   UNL A   1      49.896  25.742  28.069  1.00  0.00    -0.206 F 
ATOM     81  C   UNL A   1      51.779  26.213  25.016  1.00  0.00     0.022 A 
BRANCH  78  82
ATOM     82  S   UNL A   1      51.224  27.365  22.537  1.00  0.00     0.124 S 
ATOM     83  O   UNL A   1      52.545  26.771  22.359  1.00  0.00    -0.237 OA
ATOM     84  O   UNL A   1      50.126  26.717  21.827  1.00  0.00    -0.237 OA
ATOM     85  O   UNL A   1      51.191  28.826  22.531  1.00  0.00    -0.744 OA
ENDBRANCH  78  82
ENDBRANCH  51  75
BRANCH  63  86
ATOM     86  C   UNL A   1      46.377  32.698  28.668  1.00  0.00     0.023 A 
ATOM     87  C   UNL A   1      46.439  33.670  27.654  1.00  0.00     0.031 A 
ATOM     88  C   UNL A   1      46.864  33.038  29.943  1.00  0.00     0.131 A 
ATOM     89  C   UNL A   1      47.022  34.918  27.918  1.00  0.00     0.055 A 
ATOM     90  C   UNL A   1      47.394  34.300  30.214  1.00  0.00     0.041 A 
ATOM     91  F   UNL A   1      46.831  32.147  30.946  1.00  0.00    -0.206 F 
ATOM     92  C   UNL A   1      47.485  35.245  29.196  1.00  0.00     0.022 A 
BRANCH  89  93
ATOM     93  S   UNL A   1      47.241  36.086  26.547  1.00  0.00     0.124 S 
ATOM     94  O   UNL A   1      48.432  36.821  26.962  1.00  0.00    -0.237 OA
ATOM     95  O   UNL A   1      47.407  35.197  25.402  1.00  0.00    -0.237 OA
ATOM     96  O   UNL A   1      46.001  36.860  26.555  1.00  0.00    -0.744 OA
ENDBRANCH  89  93
ENDBRANCH  63  86
ENDBRANCH  37  38
ENDBRANCH  29  32
ENDBRANCH  27  28
ENDBRANCH  26  27
ENDBRANCH   1  26
TORSDOF 17
ENDMDL
MODEL 3
REMARK VINA RESULT:     -11.6      3.165      8.568
REMARK SMILES NC(=O)C1CC[NH+](Cc2ccc(C(=O)NCCCCNC(=O)c3ccc(-c4c5nc(c(-c6cc(S(=O)(=O)[O-])ccc6F)c6ccc([nH]6)c(-c6cc(S(=O)(=O)[O-])ccc6F)c6nc(c(-c7cc(S(=O)(=O)[O-])ccc7F)c7ccc4[nH]7)C=C6)C=C5)cc3)cc2)CC1
REMARK SMILES IDX 17 1 16 2 15 3 13 4 14 5 12 7 9 8 10 9 87 10 11 11 86 12
REMARK SMILES IDX 8 13 7 14 4 15 5 16 89 17 6 18 88 19 2 21 1 22 3 25 18 26
REMARK SMILES IDX 19 27 20 28 21 29 22 31 23 32 24 33 85 34 25 35 84 36 26 37
REMARK SMILES IDX 27 38 28 39 78 40 29 41 83 42 77 43 79 44 30 45 82 46 76 47
REMARK SMILES IDX 75 48 31 50 63 51 43 52 62 53 44 54 47 55 61 56 80 57 45 58
REMARK SMILES IDX 46 59 60 61 81 62 48 63 32 64 33 65 41 66 34 67 40 68 42 69
REMARK SMILES IDX 39 70 35 71 36 72 37 73 38 74 64 75 65 76 73 77 66 78 72 79
REMARK SMILES IDX 74 80 71 81 67 82 68 83 69 84 70 85 49 86 50 87 58 88 51 89
REMARK SMILES IDX 57 90 59 91 56 92 52 93 53 94 54 95 55 96
REMARK H PARENT 15 6 7 20 1 23 1 24 20 30 79 49 47 60
REMARK Flexibility Score: inf
ROOT
ATOM      1  C   UNL A   1      32.200  29.835  26.695  1.00  0.00     0.023 C 
ENDROOT
BRANCH   1   2
ATOM      2  C   UNL A   1      32.485  29.388  25.260  1.00  0.00     0.116 C 
BRANCH   2   3
ATOM      3  N   UNL A   1      31.444  29.842  24.355  1.00  0.00    -0.352 N 
ATOM      4  C   UNL A   1      30.618  29.145  23.508  1.00  0.00     0.251 C 
ATOM      5  O   UNL A   1      29.737  29.754  22.903  1.00  0.00    -0.269 OA
ATOM      6  H   UNL A   1      31.307  30.817  24.348  1.00  0.00     0.163 HD
BRANCH   4   7
ATOM      7  C   UNL A   1      30.715  27.673  23.348  1.00  0.00     0.039 A 
ATOM      8  C   UNL A   1      30.907  24.864  23.251  1.00  0.00     0.006 A 
ATOM      9  C   UNL A   1      30.031  25.488  24.151  1.00  0.00     0.010 A 
ATOM     10  C   UNL A   1      31.606  25.661  22.334  1.00  0.00     0.010 A 
ATOM     11  C   UNL A   1      29.938  26.882  24.201  1.00  0.00     0.014 A 
ATOM     12  C   UNL A   1      31.503  27.054  22.376  1.00  0.00     0.014 A 
BRANCH   8  13
ATOM     13  C   UNL A   1      31.142  23.367  23.327  1.00  0.00     0.299 C 
BRANCH  13  14
ATOM     14  N   UNL A   1      32.225  22.929  24.236  1.00  0.00    -0.331 N 
ATOM     15  C   UNL A   1      33.872  20.960  25.674  1.00  0.00     0.089 C 
ATOM     16  C   UNL A   1      32.835  21.836  26.380  1.00  0.00     0.075 C 
ATOM     17  C   UNL A   1      34.412  21.751  24.473  1.00  0.00     0.075 C 
ATOM     18  C   UNL A   1      31.713  22.246  25.427  1.00  0.00     0.263 C 
ATOM     19  C   UNL A   1      33.270  22.164  23.538  1.00  0.00     0.263 C 
ATOM     20  H   UNL A   1      32.681  23.776  24.575  1.00  0.00     0.348 HD
BRANCH  15  21
ATOM     21  C   UNL A   1      33.368  19.588  25.212  1.00  0.00     0.220 C 
ATOM     22  N   UNL A   1      34.284  18.697  24.747  1.00  0.00    -0.369 N 
ATOM     23  H   UNL A   1      33.994  17.807  24.442  1.00  0.00     0.159 HD
ATOM     24  H   UNL A   1      35.237  18.941  24.715  1.00  0.00     0.159 HD
ATOM     25  O   UNL A   1      32.178  19.289  25.178  1.00  0.00    -0.275 OA
ENDBRANCH  15  21
ENDBRANCH  13  14
ENDBRANCH   8  13
ENDBRANCH   4   7
ENDBRANCH   2   3
ENDBRANCH   1   2
BRANCH   1  26
ATOM     26  C   UNL A   1      31.930  31.335  26.853  1.00  0.00     0.023 C 
BRANCH  26  27
ATOM     27  C   UNL A   1      33.087  32.149  27.424  1.00  0.00     0.116 C 
BRANCH  27  28
ATOM     28  N   UNL A   1      32.741  33.543  27.658  1.00  0.00    -0.352 N 
ATOM     29  C   UNL A   1      33.288  34.432  28.557  1.00  0.00     0.251 C 
ATOM     30  H   UNL A   1      32.016  33.899  27.096  1.00  0.00     0.163 HD
ATOM     31  O   UNL A   1      32.792  35.541  28.694  1.00  0.00    -0.269 OA
BRANCH  29  32
ATOM     32  C   UNL A   1      34.445  34.013  29.379  1.00  0.00     0.039 A 
ATOM     33  C   UNL A   1      34.233  33.119  30.432  1.00  0.00     0.014 A 
ATOM     34  C   UNL A   1      35.734  34.469  29.091  1.00  0.00     0.014 A 
ATOM     35  C   UNL A   1      35.325  32.616  31.142  1.00  0.00     0.010 A 
ATOM     36  C   UNL A   1      36.826  33.921  29.759  1.00  0.00     0.010 A 
ATOM     37  C   UNL A   1      36.634  32.977  30.781  1.00  0.00    -0.014 A 
BRANCH  37  38
ATOM     38  C   UNL A   1      37.814  32.355  31.433  1.00  0.00     0.031 A 
ATOM     39  C   UNL A   1      38.526  31.206  30.774  1.00  0.00     0.074 A 
ATOM     40  C   UNL A   1      38.191  32.773  32.658  1.00  0.00     0.049 A 
ATOM     41  N   UNL A   1      39.509  30.472  31.227  1.00  0.00    -0.248 NA
ATOM     42  C   UNL A   1      38.046  30.815  29.440  1.00  0.00     0.031 C 
ATOM     43  C   UNL A   1      37.550  33.851  33.415  1.00  0.00     0.029 A 
ATOM     44  N   UNL A   1      39.191  32.335  33.489  1.00  0.00    -0.354 N 
ATOM     45  C   UNL A   1      39.762  29.525  30.242  1.00  0.00     0.074 A 
ATOM     46  C   UNL A   1      38.788  29.746  29.192  1.00  0.00     0.031 C 
ATOM     47  C   UNL A   1      38.182  33.998  34.591  1.00  0.00     0.029 A 
ATOM     48  C   UNL A   1      39.240  32.999  34.692  1.00  0.00     0.049 A 
ATOM     49  H   UNL A   1      39.814  31.613  33.246  1.00  0.00     0.167 HD
ATOM     50  C   UNL A   1      40.727  28.573  30.208  1.00  0.00     0.034 A 
ATOM     51  C   UNL A   1      40.036  32.814  35.765  1.00  0.00     0.034 A 
ATOM     52  C   UNL A   1      41.694  28.373  31.260  1.00  0.00     0.049 A 
ATOM     53  C   UNL A   1      41.080  31.728  35.717  1.00  0.00     0.074 A 
ATOM     54  C   UNL A   1      42.757  27.485  31.298  1.00  0.00     0.029 A 
ATOM     55  N   UNL A   1      41.712  29.060  32.467  1.00  0.00    -0.354 N 
ATOM     56  N   UNL A   1      41.343  30.877  34.753  1.00  0.00    -0.248 NA
ATOM     57  C   UNL A   1      41.938  31.583  36.901  1.00  0.00     0.031 C 
ATOM     58  C   UNL A   1      43.373  27.590  32.550  1.00  0.00     0.029 A 
ATOM     59  C   UNL A   1      42.741  28.592  33.270  1.00  0.00     0.049 A 
ATOM     60  H   UNL A   1      41.084  29.777  32.717  1.00  0.00     0.167 HD
ATOM     61  C   UNL A   1      42.413  30.111  35.206  1.00  0.00     0.074 A 
ATOM     62  C   UNL A   1      42.755  30.611  36.521  1.00  0.00     0.031 C 
ATOM     63  C   UNL A   1      43.056  29.088  34.588  1.00  0.00     0.034 A 
BRANCH  50  64
ATOM     64  C   UNL A   1      40.763  27.664  29.003  1.00  0.00     0.023 A 
ATOM     65  C   UNL A   1      41.721  27.824  27.987  1.00  0.00     0.031 A 
ATOM     66  C   UNL A   1      39.810  26.642  28.852  1.00  0.00     0.131 A 
ATOM     67  C   UNL A   1      41.660  27.029  26.833  1.00  0.00     0.055 A 
ATOM     68  C   UNL A   1      39.802  25.801  27.738  1.00  0.00     0.041 A 
ATOM     69  F   UNL A   1      38.858  26.453  29.780  1.00  0.00    -0.206 F 
ATOM     70  C   UNL A   1      40.722  26.001  26.713  1.00  0.00     0.022 A 
BRANCH  67  71
ATOM     71  S   UNL A   1      42.733  27.450  25.434  1.00  0.00     0.124 S 
ATOM     72  O   UNL A   1      43.982  27.789  26.111  1.00  0.00    -0.237 OA
ATOM     73  O   UNL A   1      42.741  26.216  24.659  1.00  0.00    -0.237 OA
ATOM     74  O   UNL A   1      42.049  28.577  24.804  1.00  0.00    -0.744 OA
ENDBRANCH  67  71
ENDBRANCH  50  64
BRANCH  51  75
ATOM     75  C   UNL A   1      39.868  33.655  36.983  1.00  0.00     0.023 A 
ATOM     76  C   UNL A   1      40.723  34.739  37.235  1.00  0.00     0.031 A 
ATOM     77  C   UNL A   1      38.873  33.363  37.933  1.00  0.00     0.131 A 
ATOM     78  C   UNL A   1      40.594  35.468  38.428  1.00  0.00     0.055 A 
ATOM     79  C   UNL A   1      38.719  34.121  39.095  1.00  0.00     0.041 A 
ATOM     80  F   UNL A   1      38.026  32.341  37.736  1.00  0.00    -0.206 F 
ATOM     81  C   UNL A   1      39.591  35.174  39.353  1.00  0.00     0.022 A 
BRANCH  78  82
ATOM     82  S   UNL A   1      41.811  36.764  38.787  1.00  0.00     0.124 S 
ATOM     83  O   UNL A   1      42.713  36.080  39.707  1.00  0.00    -0.237 OA
ATOM     84  O   UNL A   1      42.345  37.055  37.461  1.00  0.00    -0.237 OA
ATOM     85  O   UNL A   1      41.006  37.831  39.380  1.00  0.00    -0.744 OA
ENDBRANCH  78  82
ENDBRANCH  51  75
BRANCH  63  86
ATOM     86  C   UNL A   1      44.217  28.469  35.326  1.00  0.00     0.023 A 
ATOM     87  C   UNL A   1      44.057  27.319  36.120  1.00  0.00     0.031 A 
ATOM     88  C   UNL A   1      45.497  29.044  35.243  1.00  0.00     0.131 A 
ATOM     89  C   UNL A   1      45.149  26.810  36.838  1.00  0.00     0.055 A 
ATOM     90  C   UNL A   1      46.592  28.502  35.917  1.00  0.00     0.041 A 
ATOM     91  F   UNL A   1      45.704  30.145  34.502  1.00  0.00    -0.206 F 
ATOM     92  C   UNL A   1      46.419  27.384  36.729  1.00  0.00     0.022 A 
BRANCH  89  93
ATOM     93  S   UNL A   1      44.873  25.429  37.983  1.00  0.00     0.124 S 
ATOM     94  O   UNL A   1      43.477  25.093  37.721  1.00  0.00    -0.237 OA
ATOM     95  O   UNL A   1      45.859  24.451  37.536  1.00  0.00    -0.237 OA
ATOM     96  O   UNL A   1      45.133  26.015  39.296  1.00  0.00    -0.744 OA
ENDBRANCH  89  93
ENDBRANCH  63  86
ENDBRANCH  37  38
ENDBRANCH  29  32
ENDBRANCH  27  28
ENDBRANCH  26  27
ENDBRANCH   1  26
TORSDOF 17
ENDMDL
