MODEL 1
REMARK VINA RESULT:     -12.0      0.000      0.000
REMARK SMILES O=C(NCCCCNC(=O)[C@@H]1CCCN(C(=O)/C=C/c2c(F)cccc2Cl)C1)c1ccc(-c2c3nc(c(-c4cc(S(=O)(=O)[O-])ccc4F)c4ccc([nH]4)c(-c4cc(S(=O)(=O)[O-])ccc4F)c4nc(c(-c5cc(S(=O)(=O)[O-])ccc5F)c5ccc2[nH]5)C=C4)C=C3)cc1
REMARK SMILES IDX 5 1 4 2 3 3 1 4 2 5 29 7 30 8 91 9 31 10 90 11 32 12 33 13
REMARK SMILES IDX 34 14 84 15 35 16 89 17 83 18 85 19 36 20 88 21 82 22 81 23
REMARK SMILES IDX 37 25 69 26 49 27 68 28 50 29 53 30 67 31 86 32 51 33 52 34
REMARK SMILES IDX 66 36 87 37 54 38 38 39 39 40 47 41 40 42 46 43 48 44 45 45
REMARK SMILES IDX 41 46 42 47 43 48 44 49 70 50 71 51 79 52 72 53 78 54 80 55
REMARK SMILES IDX 77 56 73 57 74 58 75 59 76 60 55 61 56 62 64 63 57 64 63 65
REMARK SMILES IDX 65 66 62 67 58 68 59 69 60 70 61 71 6 72 7 73 8 74 9 75
REMARK SMILES IDX 10 77 11 78 12 79 28 80 13 81 15 82 14 83 16 84 17 85 18 86
REMARK SMILES IDX 19 87 20 88 21 89 26 90 22 91 23 92 25 93 27 94 24 95
REMARK H PARENT 3 6 85 24 53 35 8 76
REMARK Flexibility Score: inf
ROOT
ATOM      1  C   UNL A   1      31.568  31.402  26.469  1.00  0.00     0.023 C 
ENDROOT
BRANCH   1   2
ATOM      2  C   UNL A   1      32.838  32.120  26.912  1.00  0.00     0.116 C 
BRANCH   2   3
ATOM      3  N   UNL A   1      32.587  33.477  27.376  1.00  0.00    -0.352 N 
ATOM      4  O   UNL A   1      32.719  35.266  28.738  1.00  0.00    -0.269 OA
ATOM      5  C   UNL A   1      33.191  34.193  28.382  1.00  0.00     0.251 C 
ATOM      6  H   UNL A   1      31.873  33.955  26.896  1.00  0.00     0.163 HD
BRANCH   5   7
ATOM      7  C   UNL A   1      34.399  33.656  29.048  1.00  0.00     0.039 A 
ATOM      8  C   UNL A   1      35.667  34.157  28.746  1.00  0.00     0.014 A 
ATOM      9  C   UNL A   1      34.254  32.645  30.001  1.00  0.00     0.014 A 
ATOM     10  C   UNL A   1      36.799  33.551  29.281  1.00  0.00     0.010 A 
ATOM     11  C   UNL A   1      35.388  32.093  30.602  1.00  0.00     0.010 A 
ATOM     12  C   UNL A   1      36.673  32.520  30.223  1.00  0.00    -0.014 A 
BRANCH  12  13
ATOM     13  C   UNL A   1      37.880  31.909  30.836  1.00  0.00     0.031 A 
ATOM     14  C   UNL A   1      38.674  30.873  30.093  1.00  0.00     0.074 A 
ATOM     15  C   UNL A   1      38.238  32.271  32.083  1.00  0.00     0.049 A 
ATOM     16  N   UNL A   1      39.678  30.142  30.508  1.00  0.00    -0.248 NA
ATOM     17  C   UNL A   1      38.274  30.615  28.703  1.00  0.00     0.031 C 
ATOM     18  C   UNL A   1      37.554  33.277  32.896  1.00  0.00     0.029 A 
ATOM     19  N   UNL A   1      39.254  31.826  32.890  1.00  0.00    -0.354 N 
ATOM     20  C   UNL A   1      40.016  29.318  29.439  1.00  0.00     0.074 A 
ATOM     21  C   UNL A   1      39.082  29.620  28.372  1.00  0.00     0.031 C 
ATOM     22  C   UNL A   1      38.168  33.375  34.082  1.00  0.00     0.029 A 
ATOM     23  C   UNL A   1      39.239  32.386  34.145  1.00  0.00     0.049 A 
ATOM     24  H   UNL A   1      39.928  31.169  32.600  1.00  0.00     0.167 HD
ATOM     25  C   UNL A   1      41.014  28.402  29.360  1.00  0.00     0.034 A 
ATOM     26  C   UNL A   1      39.967  32.106  35.244  1.00  0.00     0.034 A 
ATOM     27  C   UNL A   1      41.924  28.116  30.446  1.00  0.00     0.049 A 
ATOM     28  C   UNL A   1      41.019  31.034  35.165  1.00  0.00     0.074 A 
ATOM     29  C   UNL A   1      42.992  27.234  30.468  1.00  0.00     0.029 A 
ATOM     30  N   UNL A   1      41.862  28.690  31.711  1.00  0.00    -0.354 N 
ATOM     31  N   UNL A   1      41.338  30.267  34.148  1.00  0.00    -0.248 NA
ATOM     32  C   UNL A   1      41.814  30.793  36.375  1.00  0.00     0.031 C 
ATOM     33  C   UNL A   1      43.516  27.211  31.765  1.00  0.00     0.029 A 
ATOM     34  C   UNL A   1      42.844  28.151  32.530  1.00  0.00     0.049 A 
ATOM     35  H   UNL A   1      41.215  29.379  31.986  1.00  0.00     0.167 HD
ATOM     36  C   UNL A   1      42.393  29.473  34.586  1.00  0.00     0.074 A 
ATOM     37  C   UNL A   1      42.653  29.852  35.961  1.00  0.00     0.031 C 
ATOM     38  C   UNL A   1      43.092  28.530  33.904  1.00  0.00     0.034 A 
BRANCH  25  39
ATOM     39  C   UNL A   1      41.125  27.603  28.079  1.00  0.00     0.023 A 
ATOM     40  C   UNL A   1      40.734  26.255  28.006  1.00  0.00     0.031 A 
ATOM     41  C   UNL A   1      41.686  28.183  26.926  1.00  0.00     0.131 A 
ATOM     42  C   UNL A   1      41.002  25.506  26.850  1.00  0.00     0.055 A 
ATOM     43  C   UNL A   1      41.860  27.459  25.744  1.00  0.00     0.041 A 
ATOM     44  F   UNL A   1      42.098  29.460  26.933  1.00  0.00    -0.206 F 
ATOM     45  C   UNL A   1      41.538  26.106  25.709  1.00  0.00     0.022 A 
BRANCH  42  46
ATOM     46  S   UNL A   1      40.824  23.702  26.928  1.00  0.00     0.124 S 
ATOM     47  O   UNL A   1      41.744  23.267  25.878  1.00  0.00    -0.237 OA
ATOM     48  O   UNL A   1      41.230  23.404  28.296  1.00  0.00    -0.237 OA
ATOM     49  O   UNL A   1      39.410  23.483  26.631  1.00  0.00    -0.744 OA
ENDBRANCH  42  46
ENDBRANCH  25  39
BRANCH  26  50
ATOM     50  C   UNL A   1      39.675  32.821  36.517  1.00  0.00     0.023 A 
ATOM     51  C   UNL A   1      38.700  32.354  37.409  1.00  0.00     0.031 A 
ATOM     52  C   UNL A   1      40.399  33.976  36.869  1.00  0.00     0.131 A 
ATOM     53  C   UNL A   1      38.460  33.051  38.603  1.00  0.00     0.055 A 
ATOM     54  C   UNL A   1      40.192  34.636  38.080  1.00  0.00     0.041 A 
ATOM     55  F   UNL A   1      41.349  34.457  36.052  1.00  0.00    -0.206 F 
ATOM     56  C   UNL A   1      39.211  34.177  38.953  1.00  0.00     0.022 A 
BRANCH  53  57
ATOM     57  S   UNL A   1      37.113  32.492  39.682  1.00  0.00     0.124 S 
ATOM     58  O   UNL A   1      37.203  33.442  40.785  1.00  0.00    -0.237 OA
ATOM     59  O   UNL A   1      35.951  32.627  38.811  1.00  0.00    -0.237 OA
ATOM     60  O   UNL A   1      37.487  31.118  40.009  1.00  0.00    -0.744 OA
ENDBRANCH  53  57
ENDBRANCH  26  50
BRANCH  38  61
ATOM     61  C   UNL A   1      44.259  27.885  34.611  1.00  0.00     0.023 A 
ATOM     62  C   UNL A   1      44.150  26.648  35.270  1.00  0.00     0.031 A 
ATOM     63  C   UNL A   1      45.518  28.516  34.590  1.00  0.00     0.131 A 
ATOM     64  C   UNL A   1      45.275  26.097  35.905  1.00  0.00     0.055 A 
ATOM     65  C   UNL A   1      46.642  27.936  35.175  1.00  0.00     0.041 A 
ATOM     66  F   UNL A   1      45.677  29.702  33.981  1.00  0.00    -0.206 F 
ATOM     67  C   UNL A   1      46.523  26.721  35.843  1.00  0.00     0.022 A 
BRANCH  64  68
ATOM     68  S   UNL A   1      45.078  24.570  36.867  1.00  0.00     0.124 S 
ATOM     69  O   UNL A   1      44.512  25.070  38.116  1.00  0.00    -0.237 OA
ATOM     70  O   UNL A   1      44.179  23.784  36.029  1.00  0.00    -0.237 OA
ATOM     71  O   UNL A   1      46.440  24.050  36.969  1.00  0.00    -0.744 OA
ENDBRANCH  64  68
ENDBRANCH  38  61
ENDBRANCH  12  13
ENDBRANCH   5   7
ENDBRANCH   2   3
ENDBRANCH   1   2
BRANCH   1  72
ATOM     72  C   UNL A   1      31.773  29.999  25.898  1.00  0.00     0.023 C 
BRANCH  72  73
ATOM     73  C   UNL A   1      33.223  29.538  25.804  1.00  0.00     0.116 C 
BRANCH  73  74
ATOM     74  N   UNL A   1      33.528  28.788  24.600  1.00  0.00    -0.356 N 
ATOM     75  C   UNL A   1      33.575  27.432  24.430  1.00  0.00     0.224 C 
ATOM     76  H   UNL A   1      33.727  29.327  23.799  1.00  0.00     0.163 HD
ATOM     77  O   UNL A   1      33.737  26.990  23.291  1.00  0.00    -0.275 OA
BRANCH  75  78
ATOM     78  C   UNL A   1      33.505  26.520  25.654  1.00  0.00     0.098 C 
ATOM     79  C   UNL A   1      34.408  25.271  25.506  1.00  0.00     0.017 C 
ATOM     80  C   UNL A   1      32.069  26.102  25.992  1.00  0.00     0.133 C 
ATOM     81  C   UNL A   1      33.773  24.132  24.690  1.00  0.00     0.022 C 
ATOM     82  N   UNL A   1      31.582  25.081  25.072  1.00  0.00    -0.338 N 
ATOM     83  C   UNL A   1      32.347  23.845  25.157  1.00  0.00     0.120 C 
BRANCH  82  84
ATOM     84  C   UNL A   1      30.625  25.441  24.140  1.00  0.00     0.246 C 
ATOM     85  O   UNL A   1      30.220  24.655  23.280  1.00  0.00    -0.270 OA
BRANCH  84  86
ATOM     86  C   UNL A   1      30.119  26.838  24.054  1.00  0.00     0.072 C 
ATOM     87  C   UNL A   1      29.457  27.398  23.033  1.00  0.00     0.018 C 
BRANCH  87  88
ATOM     88  C   UNL A   1      29.004  28.795  23.060  1.00  0.00     0.029 A 
ATOM     89  C   UNL A   1      29.900  29.819  22.735  1.00  0.00     0.131 A 
ATOM     90  C   UNL A   1      27.678  29.152  23.364  1.00  0.00     0.051 A 
ATOM     91  F   UNL A   1      31.177  29.530  22.446  1.00  0.00    -0.206 F 
ATOM     92  C   UNL A   1      29.498  31.153  22.682  1.00  0.00     0.040 A 
ATOM     93  C   UNL A   1      27.269  30.491  23.311  1.00  0.00     0.021 A 
ATOM     94  Cl  UNL A   1      26.490  27.972  23.801  1.00  0.00    -0.084 Cl
ATOM     95  C   UNL A   1      28.176  31.491  22.961  1.00  0.00     0.005 A 
ENDBRANCH  87  88
ENDBRANCH  84  86
ENDBRANCH  82  84
ENDBRANCH  75  78
ENDBRANCH  73  74
ENDBRANCH  72  73
ENDBRANCH   1  72
TORSDOF 17
ENDMDL
MODEL 2
REMARK VINA RESULT:     -11.8      2.273      3.924
REMARK SMILES O=C(NCCCCNC(=O)[C@@H]1CCCN(C(=O)/C=C/c2c(F)cccc2Cl)C1)c1ccc(-c2c3nc(c(-c4cc(S(=O)(=O)[O-])ccc4F)c4ccc([nH]4)c(-c4cc(S(=O)(=O)[O-])ccc4F)c4nc(c(-c5cc(S(=O)(=O)[O-])ccc5F)c5ccc2[nH]5)C=C4)C=C3)cc1
REMARK SMILES IDX 5 1 4 2 3 3 1 4 2 5 29 7 30 8 91 9 31 10 90 11 32 12 33 13
REMARK SMILES IDX 34 14 84 15 35 16 89 17 83 18 85 19 36 20 88 21 82 22 81 23
REMARK SMILES IDX 37 25 69 26 49 27 68 28 50 29 53 30 67 31 86 32 51 33 52 34
REMARK SMILES IDX 66 36 87 37 54 38 38 39 39 40 47 41 40 42 46 43 48 44 45 45
REMARK SMILES IDX 41 46 42 47 43 48 44 49 70 50 71 51 79 52 72 53 78 54 80 55
REMARK SMILES IDX 77 56 73 57 74 58 75 59 76 60 55 61 56 62 64 63 57 64 63 65
REMARK SMILES IDX 65 66 62 67 58 68 59 69 60 70 61 71 6 72 7 73 8 74 9 75
REMARK SMILES IDX 10 77 11 78 12 79 28 80 13 81 15 82 14 83 16 84 17 85 18 86
REMARK SMILES IDX 19 87 20 88 21 89 26 90 22 91 23 92 25 93 27 94 24 95
REMARK H PARENT 3 6 85 24 53 35 8 76
REMARK Flexibility Score: inf
ROOT
ATOM      1  C   UNL A   1      31.381  31.888  26.600  1.00  0.00     0.023 C 
ENDROOT
BRANCH   1   2
ATOM      2  C   UNL A   1      32.684  32.509  27.093  1.00  0.00     0.116 C 
BRANCH   2   3
ATOM      3  N   UNL A   1      32.506  33.858  27.610  1.00  0.00    -0.352 N 
ATOM      4  O   UNL A   1      32.746  35.588  29.033  1.00  0.00    -0.269 OA
ATOM      5  C   UNL A   1      33.160  34.506  28.631  1.00  0.00     0.251 C 
ATOM      6  H   UNL A   1      31.810  34.388  27.159  1.00  0.00     0.163 HD
BRANCH   5   7
ATOM      7  C   UNL A   1      34.348  33.887  29.258  1.00  0.00     0.039 A 
ATOM      8  C   UNL A   1      34.211  32.882  30.218  1.00  0.00     0.014 A 
ATOM      9  C   UNL A   1      35.619  34.312  28.866  1.00  0.00     0.014 A 
ATOM     10  C   UNL A   1      35.332  32.407  30.892  1.00  0.00     0.010 A 
ATOM     11  C   UNL A   1      36.750  33.773  29.484  1.00  0.00     0.010 A 
ATOM     12  C   UNL A   1      36.614  32.839  30.526  1.00  0.00    -0.014 A 
BRANCH  12  13
ATOM     13  C   UNL A   1      37.816  32.291  31.207  1.00  0.00     0.031 A 
ATOM     14  C   UNL A   1      38.585  31.152  30.601  1.00  0.00     0.074 A 
ATOM     15  C   UNL A   1      38.191  32.806  32.393  1.00  0.00     0.049 A 
ATOM     16  N   UNL A   1      39.579  30.463  31.102  1.00  0.00    -0.248 NA
ATOM     17  C   UNL A   1      38.169  30.722  29.259  1.00  0.00     0.031 C 
ATOM     18  C   UNL A   1      37.531  33.923  33.072  1.00  0.00     0.029 A 
ATOM     19  N   UNL A   1      39.205  32.452  33.246  1.00  0.00    -0.354 N 
ATOM     20  C   UNL A   1      39.894  29.500  30.149  1.00  0.00     0.074 A 
ATOM     21  C   UNL A   1      38.956  29.677  29.057  1.00  0.00     0.031 C 
ATOM     22  C   UNL A   1      38.157  34.163  34.232  1.00  0.00     0.029 A 
ATOM     23  C   UNL A   1      39.210  33.171  34.417  1.00  0.00     0.049 A 
ATOM     24  H   UNL A   1      39.865  31.750  33.041  1.00  0.00     0.167 HD
ATOM     25  C   UNL A   1      40.875  28.562  30.184  1.00  0.00     0.034 A 
ATOM     26  C   UNL A   1      39.942  33.023  35.539  1.00  0.00     0.034 A 
ATOM     27  C   UNL A   1      41.788  28.404  31.293  1.00  0.00     0.049 A 
ATOM     28  C   UNL A   1      40.974  31.931  35.595  1.00  0.00     0.074 A 
ATOM     29  C   UNL A   1      42.840  27.513  31.425  1.00  0.00     0.029 A 
ATOM     30  N   UNL A   1      41.747  29.140  32.473  1.00  0.00    -0.354 N 
ATOM     31  N   UNL A   1      41.271  31.031  34.685  1.00  0.00    -0.248 NA
ATOM     32  C   UNL A   1      41.774  31.835  36.821  1.00  0.00     0.031 C 
ATOM     33  C   UNL A   1      43.374  27.649  32.710  1.00  0.00     0.029 A 
ATOM     34  C   UNL A   1      42.725  28.694  33.350  1.00  0.00     0.049 A 
ATOM     35  H   UNL A   1      41.115  29.871  32.659  1.00  0.00     0.167 HD
ATOM     36  C   UNL A   1      42.315  30.282  35.218  1.00  0.00     0.074 A 
ATOM     37  C   UNL A   1      42.593  30.833  36.529  1.00  0.00     0.031 C 
ATOM     38  C   UNL A   1      42.991  29.245  34.661  1.00  0.00     0.034 A 
BRANCH  25  39
ATOM     39  C   UNL A   1      40.960  27.601  29.019  1.00  0.00     0.023 A 
ATOM     40  C   UNL A   1      41.925  27.743  28.006  1.00  0.00     0.031 A 
ATOM     41  C   UNL A   1      40.023  26.560  28.886  1.00  0.00     0.131 A 
ATOM     42  C   UNL A   1      41.869  26.932  26.863  1.00  0.00     0.055 A 
ATOM     43  C   UNL A   1      40.034  25.691  27.792  1.00  0.00     0.041 A 
ATOM     44  F   UNL A   1      39.063  26.381  29.806  1.00  0.00    -0.206 F 
ATOM     45  C   UNL A   1      40.946  25.889  26.761  1.00  0.00     0.022 A 
BRANCH  42  46
ATOM     46  S   UNL A   1      42.888  27.385  25.431  1.00  0.00     0.124 S 
ATOM     47  O   UNL A   1      42.952  26.120  24.700  1.00  0.00    -0.237 OA
ATOM     48  O   UNL A   1      42.102  28.443  24.808  1.00  0.00    -0.237 OA
ATOM     49  O   UNL A   1      44.152  27.811  26.028  1.00  0.00    -0.744 OA
ENDBRANCH  42  46
ENDBRANCH  25  39
BRANCH  26  50
ATOM     50  C   UNL A   1      39.673  33.904  36.709  1.00  0.00     0.023 A 
ATOM     51  C   UNL A   1      39.078  33.406  37.876  1.00  0.00     0.031 A 
ATOM     52  C   UNL A   1      40.041  35.263  36.679  1.00  0.00     0.131 A 
ATOM     53  C   UNL A   1      38.850  34.267  38.961  1.00  0.00     0.055 A 
ATOM     54  C   UNL A   1      39.859  36.101  37.778  1.00  0.00     0.041 A 
ATOM     55  F   UNL A   1      40.622  35.785  35.587  1.00  0.00    -0.206 F 
ATOM     56  C   UNL A   1      39.252  35.605  38.927  1.00  0.00     0.022 A 
BRANCH  53  57
ATOM     57  S   UNL A   1      37.973  33.623  40.412  1.00  0.00     0.124 S 
ATOM     58  O   UNL A   1      36.765  33.071  39.808  1.00  0.00    -0.237 OA
ATOM     59  O   UNL A   1      38.927  32.653  40.939  1.00  0.00    -0.237 OA
ATOM     60  O   UNL A   1      37.770  34.809  41.242  1.00  0.00    -0.744 OA
ENDBRANCH  53  57
ENDBRANCH  26  50
BRANCH  38  61
ATOM     61  C   UNL A   1      44.152  28.676  35.439  1.00  0.00     0.023 A 
ATOM     62  C   UNL A   1      43.993  27.650  36.387  1.00  0.00     0.031 A 
ATOM     63  C   UNL A   1      45.454  29.156  35.194  1.00  0.00     0.131 A 
ATOM     64  C   UNL A   1      45.114  27.158  37.076  1.00  0.00     0.055 A 
ATOM     65  C   UNL A   1      46.568  28.625  35.842  1.00  0.00     0.041 A 
ATOM     66  F   UNL A   1      45.662  30.140  34.305  1.00  0.00    -0.206 F 
ATOM     67  C   UNL A   1      46.401  27.624  36.793  1.00  0.00     0.022 A 
BRANCH  64  68
ATOM     68  S   UNL A   1      44.867  25.934  38.392  1.00  0.00     0.124 S 
ATOM     69  O   UNL A   1      46.217  25.785  38.924  1.00  0.00    -0.237 OA
ATOM     70  O   UNL A   1      43.906  26.600  39.265  1.00  0.00    -0.237 OA
ATOM     71  O   UNL A   1      44.349  24.766  37.682  1.00  0.00    -0.744 OA
ENDBRANCH  64  68
ENDBRANCH  38  61
ENDBRANCH  12  13
ENDBRANCH   5   7
ENDBRANCH   2   3
ENDBRANCH   1   2
BRANCH   1  72
ATOM     72  C   UNL A   1      31.530  30.574  25.833  1.00  0.00     0.023 C 
BRANCH  72  73
ATOM     73  C   UNL A   1      31.914  29.365  26.677  1.00  0.00     0.116 C 
BRANCH  73  74
ATOM     74  N   UNL A   1      32.890  28.493  26.052  1.00  0.00    -0.356 N 
ATOM     75  C   UNL A   1      32.742  27.707  24.943  1.00  0.00     0.224 C 
ATOM     76  H   UNL A   1      33.775  28.463  26.483  1.00  0.00     0.163 HD
ATOM     77  O   UNL A   1      33.736  27.128  24.500  1.00  0.00    -0.275 OA
BRANCH  75  78
ATOM     78  C   UNL A   1      31.351  27.511  24.341  1.00  0.00     0.098 C 
ATOM     79  C   UNL A   1      30.485  26.536  25.175  1.00  0.00     0.017 C 
ATOM     80  C   UNL A   1      31.405  27.058  22.877  1.00  0.00     0.133 C 
ATOM     81  C   UNL A   1      30.759  25.050  24.885  1.00  0.00     0.022 C 
ATOM     82  N   UNL A   1      31.764  25.650  22.770  1.00  0.00    -0.338 N 
ATOM     83  C   UNL A   1      30.777  24.773  23.383  1.00  0.00     0.120 C 
BRANCH  82  84
ATOM     84  C   UNL A   1      33.024  25.330  22.293  1.00  0.00     0.246 C 
ATOM     85  O   UNL A   1      33.581  25.998  21.417  1.00  0.00    -0.270 OA
BRANCH  84  86
ATOM     86  C   UNL A   1      33.724  24.093  22.729  1.00  0.00     0.072 C 
ATOM     87  C   UNL A   1      34.403  23.905  23.869  1.00  0.00     0.018 C 
BRANCH  87  88
ATOM     88  C   UNL A   1      35.058  22.631  24.195  1.00  0.00     0.029 A 
ATOM     89  C   UNL A   1      36.452  22.535  24.136  1.00  0.00     0.131 A 
ATOM     90  C   UNL A   1      34.337  21.497  24.608  1.00  0.00     0.051 A 
ATOM     91  F   UNL A   1      37.183  23.587  23.739  1.00  0.00    -0.206 F 
ATOM     92  C   UNL A   1      37.121  21.368  24.501  1.00  0.00     0.040 A 
ATOM     93  C   UNL A   1      35.004  20.321  24.977  1.00  0.00     0.021 A 
ATOM     94  Cl  UNL A   1      32.609  21.493  24.697  1.00  0.00    -0.084 Cl
ATOM     95  C   UNL A   1      36.397  20.259  24.932  1.00  0.00     0.005 A 
ENDBRANCH  87  88
ENDBRANCH  84  86
ENDBRANCH  82  84
ENDBRANCH  75  78
ENDBRANCH  73  74
ENDBRANCH  72  73
ENDBRANCH   1  72
TORSDOF 17
ENDMDL
MODEL 3
REMARK VINA RESULT:     -11.8      1.880      3.634
REMARK SMILES O=C(NCCCCNC(=O)[C@@H]1CCCN(C(=O)/C=C/c2c(F)cccc2Cl)C1)c1ccc(-c2c3nc(c(-c4cc(S(=O)(=O)[O-])ccc4F)c4ccc([nH]4)c(-c4cc(S(=O)(=O)[O-])ccc4F)c4nc(c(-c5cc(S(=O)(=O)[O-])ccc5F)c5ccc2[nH]5)C=C4)C=C3)cc1
REMARK SMILES IDX 5 1 4 2 3 3 1 4 2 5 29 7 30 8 91 9 31 10 90 11 32 12 33 13
REMARK SMILES IDX 34 14 84 15 35 16 89 17 83 18 85 19 36 20 88 21 82 22 81 23
REMARK SMILES IDX 37 25 69 26 49 27 68 28 50 29 53 30 67 31 86 32 51 33 52 34
REMARK SMILES IDX 66 36 87 37 54 38 38 39 39 40 47 41 40 42 46 43 48 44 45 45
REMARK SMILES IDX 41 46 42 47 43 48 44 49 70 50 71 51 79 52 72 53 78 54 80 55
REMARK SMILES IDX 77 56 73 57 74 58 75 59 76 60 55 61 56 62 64 63 57 64 63 65
REMARK SMILES IDX 65 66 62 67 58 68 59 69 60 70 61 71 6 72 7 73 8 74 9 75
REMARK SMILES IDX 10 77 11 78 12 79 28 80 13 81 15 82 14 83 16 84 17 85 18 86
REMARK SMILES IDX 19 87 20 88 21 89 26 90 22 91 23 92 25 93 27 94 24 95
REMARK H PARENT 3 6 85 24 53 35 8 76
REMARK Flexibility Score: inf
ROOT
ATOM      1  C   UNL A   1      31.481  31.870  26.507  1.00  0.00     0.023 C 
ENDROOT
BRANCH   1   2
ATOM      2  C   UNL A   1      32.723  32.445  27.180  1.00  0.00     0.116 C 
BRANCH   2   3
ATOM      3  N   UNL A   1      32.545  33.825  27.609  1.00  0.00    -0.352 N 
ATOM      4  O   UNL A   1      32.800  35.647  28.908  1.00  0.00    -0.269 OA
ATOM      5  C   UNL A   1      33.213  34.544  28.571  1.00  0.00     0.251 C 
ATOM      6  H   UNL A   1      31.837  34.319  27.136  1.00  0.00     0.163 HD
BRANCH   5   7
ATOM      7  C   UNL A   1      34.419  33.975  29.215  1.00  0.00     0.039 A 
ATOM      8  C   UNL A   1      35.697  34.398  28.843  1.00  0.00     0.014 A 
ATOM      9  C   UNL A   1      34.262  33.014  30.216  1.00  0.00     0.014 A 
ATOM     10  C   UNL A   1      36.819  33.758  29.361  1.00  0.00     0.010 A 
ATOM     11  C   UNL A   1      35.391  32.432  30.797  1.00  0.00     0.010 A 
ATOM     12  C   UNL A   1      36.679  32.776  30.352  1.00  0.00    -0.014 A 
BRANCH  12  13
ATOM     13  C   UNL A   1      37.878  32.131  30.946  1.00  0.00     0.031 A 
ATOM     14  C   UNL A   1      38.638  31.082  30.185  1.00  0.00     0.074 A 
ATOM     15  C   UNL A   1      38.261  32.475  32.191  1.00  0.00     0.049 A 
ATOM     16  N   UNL A   1      39.629  30.324  30.583  1.00  0.00    -0.248 NA
ATOM     17  C   UNL A   1      38.215  30.845  28.798  1.00  0.00     0.031 C 
ATOM     18  C   UNL A   1      37.610  33.491  33.020  1.00  0.00     0.029 A 
ATOM     19  N   UNL A   1      39.275  31.999  32.982  1.00  0.00    -0.354 N 
ATOM     20  C   UNL A   1      39.934  29.500  29.504  1.00  0.00     0.074 A 
ATOM     21  C   UNL A   1      38.995  29.832  28.451  1.00  0.00     0.031 C 
ATOM     22  C   UNL A   1      38.241  33.564  34.199  1.00  0.00     0.029 A 
ATOM     23  C   UNL A   1      39.288  32.550  34.242  1.00  0.00     0.049 A 
ATOM     24  H   UNL A   1      39.929  31.328  32.679  1.00  0.00     0.167 HD
ATOM     25  C   UNL A   1      40.908  28.560  29.405  1.00  0.00     0.034 A 
ATOM     26  C   UNL A   1      40.022  32.243  35.329  1.00  0.00     0.034 A 
ATOM     27  C   UNL A   1      41.824  28.244  30.478  1.00  0.00     0.049 A 
ATOM     28  C   UNL A   1      41.047  31.147  35.230  1.00  0.00     0.074 A 
ATOM     29  C   UNL A   1      42.870  27.337  30.481  1.00  0.00     0.029 A 
ATOM     30  N   UNL A   1      41.791  28.810  31.749  1.00  0.00    -0.354 N 
ATOM     31  N   UNL A   1      41.335  30.380  34.203  1.00  0.00    -0.248 NA
ATOM     32  C   UNL A   1      41.850  30.877  36.428  1.00  0.00     0.031 C 
ATOM     33  C   UNL A   1      43.409  27.291  31.771  1.00  0.00     0.029 A 
ATOM     34  C   UNL A   1      42.769  28.241  32.552  1.00  0.00     0.049 A 
ATOM     35  H   UNL A   1      41.165  29.512  32.036  1.00  0.00     0.167 HD
ATOM     36  C   UNL A   1      42.375  29.557  34.623  1.00  0.00     0.074 A 
ATOM     37  C   UNL A   1      42.661  29.920  35.997  1.00  0.00     0.031 C 
ATOM     38  C   UNL A   1      43.043  28.604  33.925  1.00  0.00     0.034 A 
BRANCH  25  39
ATOM     39  C   UNL A   1      40.984  27.769  28.118  1.00  0.00     0.023 A 
ATOM     40  C   UNL A   1      40.530  26.442  28.032  1.00  0.00     0.031 A 
ATOM     41  C   UNL A   1      41.575  28.333  26.972  1.00  0.00     0.131 A 
ATOM     42  C   UNL A   1      40.765  25.692  26.869  1.00  0.00     0.055 A 
ATOM     43  C   UNL A   1      41.717  27.612  25.783  1.00  0.00     0.041 A 
ATOM     44  F   UNL A   1      42.047  29.588  26.991  1.00  0.00    -0.206 F 
ATOM     45  C   UNL A   1      41.332  26.276  25.734  1.00  0.00     0.022 A 
BRANCH  42  46
ATOM     46  S   UNL A   1      40.501  23.898  26.930  1.00  0.00     0.124 S 
ATOM     47  O   UNL A   1      39.103  23.789  26.518  1.00  0.00    -0.237 OA
ATOM     48  O   UNL A   1      41.487  23.402  25.977  1.00  0.00    -0.237 OA
ATOM     49  O   UNL A   1      40.756  23.559  28.329  1.00  0.00    -0.744 OA
ENDBRANCH  42  46
ENDBRANCH  25  39
BRANCH  26  50
ATOM     50  C   UNL A   1      39.763  32.955  36.611  1.00  0.00     0.023 A 
ATOM     51  C   UNL A   1      38.829  32.473  37.538  1.00  0.00     0.031 A 
ATOM     52  C   UNL A   1      40.478  34.124  36.936  1.00  0.00     0.131 A 
ATOM     53  C   UNL A   1      38.620  33.168  38.739  1.00  0.00     0.055 A 
ATOM     54  C   UNL A   1      40.303  34.782  38.152  1.00  0.00     0.041 A 
ATOM     55  F   UNL A   1      41.390  34.621  36.084  1.00  0.00    -0.206 F 
ATOM     56  C   UNL A   1      39.363  34.308  39.061  1.00  0.00     0.022 A 
BRANCH  53  57
ATOM     57  S   UNL A   1      37.323  32.587  39.866  1.00  0.00     0.124 S 
ATOM     58  O   UNL A   1      36.178  32.477  38.969  1.00  0.00    -0.237 OA
ATOM     59  O   UNL A   1      37.882  31.329  40.350  1.00  0.00    -0.237 OA
ATOM     60  O   UNL A   1      37.235  33.652  40.863  1.00  0.00    -0.744 OA
ENDBRANCH  53  57
ENDBRANCH  26  50
BRANCH  38  61
ATOM     61  C   UNL A   1      44.203  27.925  34.613  1.00  0.00     0.023 A 
ATOM     62  C   UNL A   1      44.084  26.661  35.216  1.00  0.00     0.031 A 
ATOM     63  C   UNL A   1      45.463  28.552  34.629  1.00  0.00     0.131 A 
ATOM     64  C   UNL A   1      45.202  26.079  35.836  1.00  0.00     0.055 A 
ATOM     65  C   UNL A   1      46.581  27.944  35.199  1.00  0.00     0.041 A 
ATOM     66  F   UNL A   1      45.630  29.763  34.074  1.00  0.00    -0.206 F 
ATOM     67  C   UNL A   1      46.453  26.702  35.812  1.00  0.00     0.022 A 
BRANCH  64  68
ATOM     68  S   UNL A   1      44.993  24.512  36.729  1.00  0.00     0.124 S 
ATOM     69  O   UNL A   1      46.282  23.864  36.508  1.00  0.00    -0.237 OA
ATOM     70  O   UNL A   1      44.729  24.960  38.092  1.00  0.00    -0.237 OA
ATOM     71  O   UNL A   1      43.860  23.882  36.055  1.00  0.00    -0.744 OA
ENDBRANCH  64  68
ENDBRANCH  38  61
ENDBRANCH  12  13
ENDBRANCH   5   7
ENDBRANCH   2   3
ENDBRANCH   1   2
BRANCH   1  72
ATOM     72  C   UNL A   1      31.408  30.344  26.457  1.00  0.00     0.023 C 
BRANCH  72  73
ATOM     73  C   UNL A   1      32.148  29.693  25.295  1.00  0.00     0.116 C 
BRANCH  73  74
ATOM     74  N   UNL A   1      32.789  28.436  25.632  1.00  0.00    -0.356 N 
ATOM     75  C   UNL A   1      32.445  27.172  25.240  1.00  0.00     0.224 C 
ATOM     76  H   UNL A   1      33.576  28.502  26.221  1.00  0.00     0.163 HD
ATOM     77  O   UNL A   1      33.195  26.241  25.540  1.00  0.00    -0.275 OA
BRANCH  75  78
ATOM     78  C   UNL A   1      31.117  26.946  24.518  1.00  0.00     0.098 C 
ATOM     79  C   UNL A   1      30.288  25.807  25.160  1.00  0.00     0.017 C 
ATOM     80  C   UNL A   1      31.303  26.689  23.017  1.00  0.00     0.133 C 
ATOM     81  C   UNL A   1      30.709  24.397  24.712  1.00  0.00     0.022 C 
ATOM     82  N   UNL A   1      31.790  25.339  22.766  1.00  0.00    -0.338 N 
ATOM     83  C   UNL A   1      30.846  24.316  23.193  1.00  0.00     0.120 C 
BRANCH  82  84
ATOM     84  C   UNL A   1      33.100  25.182  22.348  1.00  0.00     0.246 C 
ATOM     85  O   UNL A   1      33.631  25.961  21.551  1.00  0.00    -0.270 OA
BRANCH  84  86
ATOM     86  C   UNL A   1      33.902  23.995  22.749  1.00  0.00     0.072 C 
ATOM     87  C   UNL A   1      34.276  23.651  23.989  1.00  0.00     0.018 C 
BRANCH  87  88
ATOM     88  C   UNL A   1      35.072  22.448  24.266  1.00  0.00     0.029 A 
ATOM     89  C   UNL A   1      36.469  22.517  24.215  1.00  0.00     0.131 A 
ATOM     90  C   UNL A   1      34.486  21.222  24.624  1.00  0.00     0.051 A 
ATOM     91  F   UNL A   1      37.074  23.662  23.870  1.00  0.00    -0.206 F 
ATOM     92  C   UNL A   1      37.267  21.420  24.535  1.00  0.00     0.040 A 
ATOM     93  C   UNL A   1      35.284  20.116  24.948  1.00  0.00     0.021 A 
ATOM     94  Cl  UNL A   1      32.770  21.014  24.698  1.00  0.00    -0.084 Cl
ATOM     95  C   UNL A   1      36.675  20.217  24.913  1.00  0.00     0.005 A 
ENDBRANCH  87  88
ENDBRANCH  84  86
ENDBRANCH  82  84
ENDBRANCH  75  78
ENDBRANCH  73  74
ENDBRANCH  72  73
ENDBRANCH   1  72
TORSDOF 17
ENDMDL
