MODEL 1
REMARK VINA RESULT:     -12.1      0.000      0.000
REMARK SMILES C=CCn1nc(C(=O)NCCCCNC(=O)c2ccc(-c3c4nc(c(-c5cc(S(=O)(=O)[O-])ccc5F)c5ccc([nH]5)c(-c5cc(S(=O)(=O)[O-])ccc5F)c5nc(c(-c6cc(S(=O)(=O)[O-])ccc6F)c6ccc3[nH]6)C=C5)C=C4)cc2)c2c1CC[C@@H]([NH2+]Cc1nc(C)cc(=O)[nH]1)C2
REMARK SMILES IDX 11 1 10 2 9 3 7 4 8 5 6 7 4 8 5 9 81 10 80 11 82 12 95 13
REMARK SMILES IDX 83 14 84 15 3 16 2 17 1 18 85 19 86 22 87 23 88 24 94 25
REMARK SMILES IDX 89 26 92 27 90 29 91 30 93 31 12 32 13 33 14 34 15 35 16 37
REMARK SMILES IDX 17 38 18 39 79 40 19 41 78 42 20 43 21 44 22 45 72 46 23 47
REMARK SMILES IDX 77 48 71 49 73 50 24 51 76 52 70 53 69 54 25 56 57 57 37 58
REMARK SMILES IDX 56 59 38 60 41 61 55 62 74 63 39 64 40 65 54 67 75 68 42 69
REMARK SMILES IDX 26 70 27 71 35 72 28 73 34 74 36 75 33 76 29 77 30 78 31 79
REMARK SMILES IDX 32 80 58 81 59 82 67 83 60 84 66 85 68 86 65 87 61 88 62 89
REMARK SMILES IDX 63 90 64 91 43 92 44 93 52 94 45 95 51 96 53 97 50 98 46 99
REMARK SMILES IDX 47 100 48 101 49 102
REMARK H PARENT 9 6 85 20 85 21 94 28 14 36 73 55 41 66
REMARK Flexibility Score: inf
ROOT
ATOM      1  C   UNL A   1      34.339  31.012  27.654  1.00  0.00     0.023 C 
ENDROOT
BRANCH   1   2
ATOM      2  C   UNL A   1      34.130  29.529  27.273  1.00  0.00     0.116 C 
BRANCH   2   3
ATOM      3  N   UNL A   1      32.808  29.037  27.633  1.00  0.00    -0.351 N 
ATOM      4  C   UNL A   1      32.016  27.947  27.337  1.00  0.00     0.272 C 
ATOM      5  O   UNL A   1      30.977  27.922  28.016  1.00  0.00    -0.267 OA
ATOM      6  H   UNL A   1      32.356  29.650  28.256  1.00  0.00     0.163 HD
BRANCH   4   7
ATOM      7  C   UNL A   1      32.266  26.899  26.299  1.00  0.00     0.153 A 
ATOM      8  N   UNL A   1      31.916  24.940  25.415  1.00  0.00    -0.265 N 
ATOM      9  N   UNL A   1      31.781  25.658  26.548  1.00  0.00    -0.167 NA
ATOM     10  C   UNL A   1      32.592  25.631  24.452  1.00  0.00     0.043 A 
ATOM     11  C   UNL A   1      32.818  26.894  24.980  1.00  0.00     0.012 A 
ATOM     12  C   UNL A   1      32.785  25.234  23.021  1.00  0.00     0.062 C 
ATOM     13  C   UNL A   1      33.322  27.978  24.105  1.00  0.00     0.105 C 
ATOM     14  C   UNL A   1      33.413  26.366  22.196  1.00  0.00     0.072 C 
ATOM     15  C   UNL A   1      32.948  27.776  22.617  1.00  0.00     0.187 C 
BRANCH   8  16
ATOM     16  C   UNL A   1      31.250  23.630  25.382  1.00  0.00     0.171 C 
BRANCH  16  17
ATOM     17  C   UNL A   1      32.072  22.455  24.923  1.00  0.00    -0.011 C 
ATOM     18  C   UNL A   1      31.927  21.201  25.373  1.00  0.00     0.006 C 
ENDBRANCH  16  17
ENDBRANCH   8  16
BRANCH  15  19
ATOM     19  N   UNL A   1      31.542  28.117  22.230  1.00  0.00    -0.337 N 
ATOM     20  H   UNL A   1      30.927  27.853  23.000  1.00  0.00     0.346 HD
ATOM     21  H   UNL A   1      31.345  27.605  21.370  1.00  0.00     0.346 HD
BRANCH  19  22
ATOM     22  C   UNL A   1      31.319  29.540  21.931  1.00  0.00     0.337 C 
BRANCH  22  23
ATOM     23  C   UNL A   1      29.898  29.977  22.199  1.00  0.00     0.164 A 
ATOM     24  N   UNL A   1      29.019  29.090  22.542  1.00  0.00    -0.234 NA
ATOM     25  N   UNL A   1      29.641  31.314  22.143  1.00  0.00    -0.306 N 
ATOM     26  C   UNL A   1      27.784  29.536  22.925  1.00  0.00     0.045 A 
ATOM     27  C   UNL A   1      28.424  31.821  22.480  1.00  0.00     0.251 A 
ATOM     28  H   UNL A   1      30.354  31.928  21.850  1.00  0.00     0.171 HD
ATOM     29  C   UNL A   1      26.849  28.472  23.423  1.00  0.00     0.067 C 
ATOM     30  C   UNL A   1      27.432  30.830  22.929  1.00  0.00     0.095 A 
ATOM     31  O   UNL A   1      28.154  33.016  22.437  1.00  0.00    -0.270 OA
ENDBRANCH  22  23
ENDBRANCH  19  22
ENDBRANCH  15  19
ENDBRANCH   4   7
ENDBRANCH   2   3
ENDBRANCH   1   2
BRANCH   1  32
ATOM     32  C   UNL A   1      33.087  31.876  27.815  1.00  0.00     0.023 C 
BRANCH  32  33
ATOM     33  C   UNL A   1      33.249  33.294  27.275  1.00  0.00     0.116 C 
BRANCH  33  34
ATOM     34  N   UNL A   1      32.770  34.332  28.194  1.00  0.00    -0.352 N 
ATOM     35  C   UNL A   1      33.179  34.529  29.507  1.00  0.00     0.251 C 
ATOM     36  H   UNL A   1      32.089  34.951  27.845  1.00  0.00     0.163 HD
ATOM     37  O   UNL A   1      32.468  35.091  30.318  1.00  0.00    -0.269 OA
BRANCH  35  38
ATOM     38  C   UNL A   1      34.530  34.055  29.867  1.00  0.00     0.039 A 
ATOM     39  C   UNL A   1      34.736  33.041  30.806  1.00  0.00     0.014 A 
ATOM     40  C   UNL A   1      35.589  34.601  29.144  1.00  0.00     0.014 A 
ATOM     41  C   UNL A   1      36.018  32.511  30.938  1.00  0.00     0.010 A 
ATOM     42  C   UNL A   1      36.815  33.986  29.179  1.00  0.00     0.010 A 
ATOM     43  C   UNL A   1      37.052  32.970  30.100  1.00  0.00    -0.014 A 
BRANCH  43  44
ATOM     44  C   UNL A   1      38.344  32.286  30.038  1.00  0.00     0.031 A 
ATOM     45  C   UNL A   1      38.301  30.983  29.316  1.00  0.00     0.074 A 
ATOM     46  C   UNL A   1      39.512  32.884  30.370  1.00  0.00     0.049 A 
ATOM     47  N   UNL A   1      38.415  29.802  29.824  1.00  0.00    -0.248 NA
ATOM     48  C   UNL A   1      37.906  30.972  27.896  1.00  0.00     0.031 C 
ATOM     49  C   UNL A   1      39.723  34.266  30.815  1.00  0.00     0.029 A 
ATOM     50  N   UNL A   1      40.787  32.414  30.277  1.00  0.00    -0.354 N 
ATOM     51  C   UNL A   1      38.393  28.917  28.749  1.00  0.00     0.074 A 
ATOM     52  C   UNL A   1      37.838  29.660  27.651  1.00  0.00     0.031 C 
ATOM     53  C   UNL A   1      41.034  34.585  30.715  1.00  0.00     0.029 A 
ATOM     54  C   UNL A   1      41.782  33.391  30.365  1.00  0.00     0.049 A 
ATOM     55  H   UNL A   1      40.991  31.458  30.156  1.00  0.00     0.167 HD
ATOM     56  C   UNL A   1      39.091  27.748  28.794  1.00  0.00     0.034 A 
ATOM     57  C   UNL A   1      43.121  33.239  30.157  1.00  0.00     0.034 A 
ATOM     58  C   UNL A   1      39.498  27.452  30.154  1.00  0.00     0.049 A 
ATOM     59  C   UNL A   1      43.412  31.796  30.341  1.00  0.00     0.074 A 
ATOM     60  C   UNL A   1      38.825  27.288  31.351  1.00  0.00     0.029 A 
ATOM     61  N   UNL A   1      40.809  27.702  30.502  1.00  0.00    -0.354 N 
ATOM     62  N   UNL A   1      43.272  31.184  31.484  1.00  0.00    -0.248 NA
ATOM     63  C   UNL A   1      43.344  30.936  29.168  1.00  0.00     0.031 C 
ATOM     64  C   UNL A   1      39.632  27.963  32.316  1.00  0.00     0.029 A 
ATOM     65  C   UNL A   1      40.800  28.397  31.686  1.00  0.00     0.049 A 
ATOM     66  H   UNL A   1      41.607  27.430  29.994  1.00  0.00     0.167 HD
ATOM     67  C   UNL A   1      42.648  29.986  31.174  1.00  0.00     0.074 A 
ATOM     68  C   UNL A   1      42.805  29.846  29.725  1.00  0.00     0.031 C 
ATOM     69  C   UNL A   1      41.810  29.372  32.064  1.00  0.00     0.034 A 
BRANCH  56  70
ATOM     70  C   UNL A   1      39.760  27.078  27.608  1.00  0.00     0.023 A 
ATOM     71  C   UNL A   1      39.699  25.671  27.555  1.00  0.00     0.031 A 
ATOM     72  C   UNL A   1      40.678  27.679  26.718  1.00  0.00     0.131 A 
ATOM     73  C   UNL A   1      40.600  24.933  26.770  1.00  0.00     0.055 A 
ATOM     74  C   UNL A   1      41.527  26.941  25.886  1.00  0.00     0.041 A 
ATOM     75  F   UNL A   1      40.878  29.000  26.657  1.00  0.00    -0.206 F 
ATOM     76  C   UNL A   1      41.519  25.559  25.936  1.00  0.00     0.022 A 
BRANCH  73  77
ATOM     77  S   UNL A   1      40.675  23.140  27.011  1.00  0.00     0.124 S 
ATOM     78  O   UNL A   1      41.655  22.753  26.002  1.00  0.00    -0.237 OA
ATOM     79  O   UNL A   1      41.107  23.043  28.401  1.00  0.00    -0.237 OA
ATOM     80  O   UNL A   1      39.305  22.706  26.750  1.00  0.00    -0.744 OA
ENDBRANCH  73  77
ENDBRANCH  56  70
BRANCH  57  81
ATOM     81  C   UNL A   1      44.066  34.189  29.491  1.00  0.00     0.023 A 
ATOM     82  C   UNL A   1      43.647  35.287  28.700  1.00  0.00     0.031 A 
ATOM     83  C   UNL A   1      45.432  34.167  29.854  1.00  0.00     0.131 A 
ATOM     84  C   UNL A   1      44.573  36.293  28.316  1.00  0.00     0.055 A 
ATOM     85  C   UNL A   1      46.338  35.163  29.479  1.00  0.00     0.041 A 
ATOM     86  F   UNL A   1      45.918  33.215  30.666  1.00  0.00    -0.206 F 
ATOM     87  C   UNL A   1      45.910  36.236  28.716  1.00  0.00     0.022 A 
BRANCH  84  88
ATOM     88  S   UNL A   1      44.041  37.752  27.350  1.00  0.00     0.124 S 
ATOM     89  O   UNL A   1      45.259  38.113  26.634  1.00  0.00    -0.237 OA
ATOM     90  O   UNL A   1      42.947  37.217  26.547  1.00  0.00    -0.237 OA
ATOM     91  O   UNL A   1      43.629  38.710  28.377  1.00  0.00    -0.744 OA
ENDBRANCH  84  88
ENDBRANCH  57  81
BRANCH  69  92
ATOM     92  C   UNL A   1      41.800  29.856  33.503  1.00  0.00     0.023 A 
ATOM     93  C   UNL A   1      40.924  30.831  34.038  1.00  0.00     0.031 A 
ATOM     94  C   UNL A   1      42.669  29.205  34.398  1.00  0.00     0.131 A 
ATOM     95  C   UNL A   1      40.958  31.129  35.417  1.00  0.00     0.055 A 
ATOM     96  C   UNL A   1      42.681  29.484  35.763  1.00  0.00     0.041 A 
ATOM     97  F   UNL A   1      43.510  28.254  33.960  1.00  0.00    -0.206 F 
ATOM     98  C   UNL A   1      41.829  30.453  36.277  1.00  0.00     0.022 A 
BRANCH  95  99
ATOM     99  S   UNL A   1      39.891  32.430  36.124  1.00  0.00     0.124 S 
ATOM    100  O   UNL A   1      40.835  33.349  36.746  1.00  0.00    -0.237 OA
ATOM    101  O   UNL A   1      39.187  32.936  34.948  1.00  0.00    -0.237 OA
ATOM    102  O   UNL A   1      39.044  31.697  37.068  1.00  0.00    -0.744 OA
ENDBRANCH  95  99
ENDBRANCH  69  92
ENDBRANCH  43  44
ENDBRANCH  35  38
ENDBRANCH  33  34
ENDBRANCH  32  33
ENDBRANCH   1  32
TORSDOF 19
ENDMDL
MODEL 2
REMARK VINA RESULT:     -11.9      4.238      9.133
REMARK SMILES C=CCn1nc(C(=O)NCCCCNC(=O)c2ccc(-c3c4nc(c(-c5cc(S(=O)(=O)[O-])ccc5F)c5ccc([nH]5)c(-c5cc(S(=O)(=O)[O-])ccc5F)c5nc(c(-c6cc(S(=O)(=O)[O-])ccc6F)c6ccc3[nH]6)C=C5)C=C4)cc2)c2c1CC[C@@H]([NH2+]Cc1nc(C)cc(=O)[nH]1)C2
REMARK SMILES IDX 11 1 10 2 9 3 7 4 8 5 6 7 4 8 5 9 81 10 80 11 82 12 95 13
REMARK SMILES IDX 83 14 84 15 3 16 2 17 1 18 85 19 86 22 87 23 88 24 94 25
REMARK SMILES IDX 89 26 92 27 90 29 91 30 93 31 12 32 13 33 14 34 15 35 16 37
REMARK SMILES IDX 17 38 18 39 79 40 19 41 78 42 20 43 21 44 22 45 72 46 23 47
REMARK SMILES IDX 77 48 71 49 73 50 24 51 76 52 70 53 69 54 25 56 57 57 37 58
REMARK SMILES IDX 56 59 38 60 41 61 55 62 74 63 39 64 40 65 54 67 75 68 42 69
REMARK SMILES IDX 26 70 27 71 35 72 28 73 34 74 36 75 33 76 29 77 30 78 31 79
REMARK SMILES IDX 32 80 58 81 59 82 67 83 60 84 66 85 68 86 65 87 61 88 62 89
REMARK SMILES IDX 63 90 64 91 43 92 44 93 52 94 45 95 51 96 53 97 50 98 46 99
REMARK SMILES IDX 47 100 48 101 49 102
REMARK H PARENT 9 6 85 20 85 21 94 28 14 36 73 55 41 66
REMARK Flexibility Score: inf
ROOT
ATOM      1  C   UNL A   1      37.285  21.824  24.543  1.00  0.00     0.023 C 
ENDROOT
BRANCH   1   2
ATOM      2  C   UNL A   1      37.371  23.018  25.520  1.00  0.00     0.116 C 
BRANCH   2   3
ATOM      3  N   UNL A   1      36.264  23.052  26.465  1.00  0.00    -0.351 N 
ATOM      4  C   UNL A   1      35.037  22.439  26.611  1.00  0.00     0.272 C 
ATOM      5  O   UNL A   1      34.494  22.726  27.689  1.00  0.00    -0.267 OA
ATOM      6  H   UNL A   1      36.438  23.685  27.198  1.00  0.00     0.163 HD
BRANCH   4   7
ATOM      7  C   UNL A   1      34.336  21.564  25.620  1.00  0.00     0.153 A 
ATOM      8  N   UNL A   1      33.246  19.759  25.077  1.00  0.00    -0.265 N 
ATOM      9  N   UNL A   1      34.058  20.296  26.010  1.00  0.00    -0.167 NA
ATOM     10  C   UNL A   1      33.074  20.594  24.012  1.00  0.00     0.043 A 
ATOM     11  C   UNL A   1      33.747  21.764  24.334  1.00  0.00     0.012 A 
ATOM     12  C   UNL A   1      32.117  20.421  22.872  1.00  0.00     0.062 C 
ATOM     13  C   UNL A   1      33.564  22.972  23.497  1.00  0.00     0.105 C 
ATOM     14  C   UNL A   1      32.061  21.670  21.981  1.00  0.00     0.072 C 
ATOM     15  C   UNL A   1      32.205  22.996  22.758  1.00  0.00     0.187 C 
BRANCH   8  16
ATOM     16  C   UNL A   1      32.631  18.464  25.403  1.00  0.00     0.171 C 
BRANCH  16  17
ATOM     17  C   UNL A   1      33.370  17.227  24.970  1.00  0.00    -0.011 C 
ATOM     18  C   UNL A   1      33.477  16.806  23.703  1.00  0.00     0.006 C 
ENDBRANCH  16  17
ENDBRANCH   8  16
BRANCH  15  19
ATOM     19  N   UNL A   1      31.009  23.380  23.574  1.00  0.00    -0.337 N 
ATOM     20  H   UNL A   1      31.265  23.327  24.560  1.00  0.00     0.346 HD
ATOM     21  H   UNL A   1      30.263  22.732  23.321  1.00  0.00     0.346 HD
BRANCH  19  22
ATOM     22  C   UNL A   1      30.496  24.733  23.305  1.00  0.00     0.337 C 
BRANCH  22  23
ATOM     23  C   UNL A   1      31.210  25.798  24.104  1.00  0.00     0.164 A 
ATOM     24  N   UNL A   1      32.071  26.561  23.510  1.00  0.00    -0.234 NA
ATOM     25  N   UNL A   1      30.837  25.949  25.406  1.00  0.00    -0.306 N 
ATOM     26  C   UNL A   1      32.586  27.610  24.221  1.00  0.00     0.045 A 
ATOM     27  C   UNL A   1      31.335  26.953  26.179  1.00  0.00     0.251 A 
ATOM     28  H   UNL A   1      30.193  25.316  25.798  1.00  0.00     0.171 HD
ATOM     29  C   UNL A   1      33.488  28.525  23.443  1.00  0.00     0.067 C 
ATOM     30  C   UNL A   1      32.272  27.864  25.499  1.00  0.00     0.095 A 
ATOM     31  O   UNL A   1      31.028  27.117  27.354  1.00  0.00    -0.270 OA
ENDBRANCH  22  23
ENDBRANCH  19  22
ENDBRANCH  15  19
ENDBRANCH   4   7
ENDBRANCH   2   3
ENDBRANCH   1   2
BRANCH   1  32
ATOM     32  C   UNL A   1      37.858  20.487  25.020  1.00  0.00     0.023 C 
BRANCH  32  33
ATOM     33  C   UNL A   1      38.980  20.632  26.043  1.00  0.00     0.116 C 
BRANCH  33  34
ATOM     34  N   UNL A   1      39.969  19.551  25.990  1.00  0.00    -0.352 N 
ATOM     35  C   UNL A   1      41.351  19.693  25.947  1.00  0.00     0.251 C 
ATOM     36  H   UNL A   1      39.618  18.631  25.982  1.00  0.00     0.163 HD
ATOM     37  O   UNL A   1      42.065  18.826  25.480  1.00  0.00    -0.269 OA
BRANCH  35  38
ATOM     38  C   UNL A   1      41.916  20.928  26.523  1.00  0.00     0.039 A 
ATOM     39  C   UNL A   1      42.347  21.991  25.725  1.00  0.00     0.014 A 
ATOM     40  C   UNL A   1      41.903  21.023  27.914  1.00  0.00     0.014 A 
ATOM     41  C   UNL A   1      42.674  23.196  26.346  1.00  0.00     0.010 A 
ATOM     42  C   UNL A   1      42.094  22.245  28.506  1.00  0.00     0.010 A 
ATOM     43  C   UNL A   1      42.520  23.326  27.739  1.00  0.00    -0.014 A 
BRANCH  43  44
ATOM     44  C   UNL A   1      42.622  24.627  28.399  1.00  0.00     0.031 A 
ATOM     45  C   UNL A   1      41.421  25.491  28.218  1.00  0.00     0.074 A 
ATOM     46  C   UNL A   1      43.590  24.926  29.296  1.00  0.00     0.049 A 
ATOM     47  N   UNL A   1      41.327  26.566  27.511  1.00  0.00    -0.248 NA
ATOM     48  C   UNL A   1      40.123  25.015  28.730  1.00  0.00     0.031 C 
ATOM     49  C   UNL A   1      44.665  24.055  29.786  1.00  0.00     0.029 A 
ATOM     50  N   UNL A   1      43.761  26.045  30.053  1.00  0.00    -0.354 N 
ATOM     51  C   UNL A   1      40.041  27.055  27.721  1.00  0.00     0.074 A 
ATOM     52  C   UNL A   1      39.294  25.953  28.260  1.00  0.00     0.031 C 
ATOM     53  C   UNL A   1      45.207  24.581  30.908  1.00  0.00     0.029 A 
ATOM     54  C   UNL A   1      44.644  25.901  31.126  1.00  0.00     0.049 A 
ATOM     55  H   UNL A   1      43.295  26.892  29.858  1.00  0.00     0.167 HD
ATOM     56  C   UNL A   1      39.791  28.395  27.693  1.00  0.00     0.034 A 
ATOM     57  C   UNL A   1      44.892  26.793  32.129  1.00  0.00     0.034 A 
ATOM     58  C   UNL A   1      40.903  29.105  27.092  1.00  0.00     0.049 A 
ATOM     59  C   UNL A   1      44.479  28.123  31.616  1.00  0.00     0.074 A 
ATOM     60  C   UNL A   1      41.553  29.033  25.873  1.00  0.00     0.029 A 
ATOM     61  N   UNL A   1      41.776  29.763  27.933  1.00  0.00    -0.354 N 
ATOM     62  N   UNL A   1      45.072  28.712  30.614  1.00  0.00    -0.248 NA
ATOM     63  C   UNL A   1      43.108  28.548  31.859  1.00  0.00     0.031 C 
ATOM     64  C   UNL A   1      42.937  29.162  26.192  1.00  0.00     0.029 A 
ATOM     65  C   UNL A   1      43.052  29.422  27.559  1.00  0.00     0.049 A 
ATOM     66  H   UNL A   1      41.528  30.369  28.668  1.00  0.00     0.167 HD
ATOM     67  C   UNL A   1      44.041  29.214  29.835  1.00  0.00     0.074 A 
ATOM     68  C   UNL A   1      42.861  29.167  30.699  1.00  0.00     0.031 C 
ATOM     69  C   UNL A   1      44.174  29.339  28.479  1.00  0.00     0.034 A 
BRANCH  56  70
ATOM     70  C   UNL A   1      38.765  29.114  28.547  1.00  0.00     0.023 A 
ATOM     71  C   UNL A   1      39.020  29.174  29.932  1.00  0.00     0.031 A 
ATOM     72  C   UNL A   1      37.455  29.471  28.156  1.00  0.00     0.131 A 
ATOM     73  C   UNL A   1      37.988  29.429  30.851  1.00  0.00     0.055 A 
ATOM     74  C   UNL A   1      36.447  29.792  29.072  1.00  0.00     0.041 A 
ATOM     75  F   UNL A   1      37.040  29.445  26.886  1.00  0.00    -0.206 F 
ATOM     76  C   UNL A   1      36.699  29.735  30.431  1.00  0.00     0.022 A 
BRANCH  73  77
ATOM     77  S   UNL A   1      38.324  29.160  32.610  1.00  0.00     0.124 S 
ATOM     78  O   UNL A   1      38.689  30.504  33.044  1.00  0.00    -0.237 OA
ATOM     79  O   UNL A   1      37.041  28.654  33.086  1.00  0.00    -0.237 OA
ATOM     80  O   UNL A   1      39.415  28.188  32.601  1.00  0.00    -0.744 OA
ENDBRANCH  73  77
ENDBRANCH  56  70
BRANCH  57  81
ATOM     81  C   UNL A   1      45.134  26.509  33.577  1.00  0.00     0.023 A 
ATOM     82  C   UNL A   1      44.113  26.514  34.559  1.00  0.00     0.031 A 
ATOM     83  C   UNL A   1      46.377  25.964  33.971  1.00  0.00     0.131 A 
ATOM     84  C   UNL A   1      44.359  25.986  35.855  1.00  0.00     0.055 A 
ATOM     85  C   UNL A   1      46.611  25.440  35.246  1.00  0.00     0.041 A 
ATOM     86  F   UNL A   1      47.388  25.839  33.097  1.00  0.00    -0.206 F 
ATOM     87  C   UNL A   1      45.599  25.440  36.191  1.00  0.00     0.022 A 
BRANCH  84  88
ATOM     88  S   UNL A   1      43.037  25.922  37.117  1.00  0.00     0.124 S 
ATOM     89  O   UNL A   1      42.240  24.783  36.676  1.00  0.00    -0.237 OA
ATOM     90  O   UNL A   1      43.789  25.750  38.354  1.00  0.00    -0.237 OA
ATOM     91  O   UNL A   1      42.373  27.220  36.984  1.00  0.00    -0.744 OA
ENDBRANCH  84  88
ENDBRANCH  57  81
BRANCH  69  92
ATOM     92  C   UNL A   1      45.559  29.205  27.871  1.00  0.00     0.023 A 
ATOM     93  C   UNL A   1      46.536  30.228  27.811  1.00  0.00     0.031 A 
ATOM     94  C   UNL A   1      45.934  27.925  27.422  1.00  0.00     0.131 A 
ATOM     95  C   UNL A   1      47.820  29.948  27.298  1.00  0.00     0.055 A 
ATOM     96  C   UNL A   1      47.211  27.647  26.940  1.00  0.00     0.041 A 
ATOM     97  F   UNL A   1      45.062  26.904  27.473  1.00  0.00    -0.206 F 
ATOM     98  C   UNL A   1      48.158  28.660  26.870  1.00  0.00     0.022 A 
BRANCH  95  99
ATOM     99  S   UNL A   1      49.077  31.262  27.142  1.00  0.00     0.124 S 
ATOM    100  O   UNL A   1      48.329  32.391  26.602  1.00  0.00    -0.237 OA
ATOM    101  O   UNL A   1      49.553  31.410  28.514  1.00  0.00    -0.237 OA
ATOM    102  O   UNL A   1      50.057  30.685  26.218  1.00  0.00    -0.744 OA
ENDBRANCH  95  99
ENDBRANCH  69  92
ENDBRANCH  43  44
ENDBRANCH  35  38
ENDBRANCH  33  34
ENDBRANCH  32  33
ENDBRANCH   1  32
TORSDOF 19
ENDMDL
MODEL 3
REMARK VINA RESULT:     -11.9      3.262      8.160
REMARK SMILES C=CCn1nc(C(=O)NCCCCNC(=O)c2ccc(-c3c4nc(c(-c5cc(S(=O)(=O)[O-])ccc5F)c5ccc([nH]5)c(-c5cc(S(=O)(=O)[O-])ccc5F)c5nc(c(-c6cc(S(=O)(=O)[O-])ccc6F)c6ccc3[nH]6)C=C5)C=C4)cc2)c2c1CC[C@@H]([NH2+]Cc1nc(C)cc(=O)[nH]1)C2
REMARK SMILES IDX 11 1 10 2 9 3 7 4 8 5 6 7 4 8 5 9 81 10 80 11 82 12 95 13
REMARK SMILES IDX 83 14 84 15 3 16 2 17 1 18 85 19 86 22 87 23 88 24 94 25
REMARK SMILES IDX 89 26 92 27 90 29 91 30 93 31 12 32 13 33 14 34 15 35 16 37
REMARK SMILES IDX 17 38 18 39 79 40 19 41 78 42 20 43 21 44 22 45 72 46 23 47
REMARK SMILES IDX 77 48 71 49 73 50 24 51 76 52 70 53 69 54 25 56 57 57 37 58
REMARK SMILES IDX 56 59 38 60 41 61 55 62 74 63 39 64 40 65 54 67 75 68 42 69
REMARK SMILES IDX 26 70 27 71 35 72 28 73 34 74 36 75 33 76 29 77 30 78 31 79
REMARK SMILES IDX 32 80 58 81 59 82 67 83 60 84 66 85 68 86 65 87 61 88 62 89
REMARK SMILES IDX 63 90 64 91 43 92 44 93 52 94 45 95 51 96 53 97 50 98 46 99
REMARK SMILES IDX 47 100 48 101 49 102
REMARK H PARENT 9 6 85 20 85 21 94 28 14 36 73 55 41 66
REMARK Flexibility Score: inf
ROOT
ATOM      1  C   UNL A   1      34.918  30.064  26.983  1.00  0.00     0.023 C 
ENDROOT
BRANCH   1   2
ATOM      2  C   UNL A   1      34.267  28.670  26.834  1.00  0.00     0.116 C 
BRANCH   2   3
ATOM      3  N   UNL A   1      32.992  28.568  27.530  1.00  0.00    -0.351 N 
ATOM      4  C   UNL A   1      31.770  27.962  27.325  1.00  0.00     0.272 C 
ATOM      5  O   UNL A   1      31.017  28.077  28.305  1.00  0.00    -0.267 OA
ATOM      6  H   UNL A   1      33.006  29.069  28.377  1.00  0.00     0.163 HD
BRANCH   4   7
ATOM      7  C   UNL A   1      31.296  27.273  26.084  1.00  0.00     0.153 A 
ATOM      8  N   UNL A   1      30.878  27.227  23.947  1.00  0.00    -0.265 N 
ATOM      9  N   UNL A   1      31.078  28.051  24.995  1.00  0.00    -0.167 NA
ATOM     10  C   UNL A   1      30.834  25.918  24.331  1.00  0.00     0.043 A 
ATOM     11  C   UNL A   1      31.113  25.912  25.691  1.00  0.00     0.012 A 
ATOM     12  C   UNL A   1      30.800  24.715  23.440  1.00  0.00     0.062 C 
ATOM     13  C   UNL A   1      31.380  24.629  26.381  1.00  0.00     0.105 C 
ATOM     14  C   UNL A   1      30.972  23.413  24.235  1.00  0.00     0.072 C 
ATOM     15  C   UNL A   1      31.935  23.537  25.434  1.00  0.00     0.187 C 
BRANCH   8  16
ATOM     16  C   UNL A   1      30.845  27.848  22.616  1.00  0.00     0.171 C 
BRANCH  16  17
ATOM     17  C   UNL A   1      29.720  28.809  22.336  1.00  0.00    -0.011 C 
ATOM     18  C   UNL A   1      28.531  28.790  22.952  1.00  0.00     0.006 C 
ENDBRANCH  16  17
ENDBRANCH   8  16
BRANCH  15  19
ATOM     19  N   UNL A   1      33.383  23.644  25.070  1.00  0.00    -0.337 N 
ATOM     20  H   UNL A   1      33.628  24.633  25.020  1.00  0.00     0.346 HD
ATOM     21  H   UNL A   1      33.495  23.160  24.179  1.00  0.00     0.346 HD
BRANCH  19  22
ATOM     22  C   UNL A   1      34.300  22.991  26.017  1.00  0.00     0.337 C 
BRANCH  22  23
ATOM     23  C   UNL A   1      34.648  21.577  25.614  1.00  0.00     0.164 A 
ATOM     24  N   UNL A   1      33.693  20.751  25.326  1.00  0.00    -0.234 NA
ATOM     25  N   UNL A   1      35.971  21.275  25.495  1.00  0.00    -0.306 N 
ATOM     26  C   UNL A   1      34.043  19.529  24.819  1.00  0.00     0.045 A 
ATOM     27  C   UNL A   1      36.388  20.067  25.027  1.00  0.00     0.251 A 
ATOM     28  H   UNL A   1      36.642  21.947  25.755  1.00  0.00     0.171 HD
ATOM     29  C   UNL A   1      32.892  18.662  24.396  1.00  0.00     0.067 C 
ATOM     30  C   UNL A   1      35.312  19.138  24.641  1.00  0.00     0.095 A 
ATOM     31  O   UNL A   1      37.568  19.757  24.912  1.00  0.00    -0.270 OA
ENDBRANCH  22  23
ENDBRANCH  19  22
ENDBRANCH  15  19
ENDBRANCH   4   7
ENDBRANCH   2   3
ENDBRANCH   1   2
BRANCH   1  32
ATOM     32  C   UNL A   1      34.110  31.140  27.711  1.00  0.00     0.023 C 
BRANCH  32  33
ATOM     33  C   UNL A   1      34.906  32.406  28.012  1.00  0.00     0.116 C 
BRANCH  33  34
ATOM     34  N   UNL A   1      34.862  32.809  29.421  1.00  0.00    -0.352 N 
ATOM     35  C   UNL A   1      35.542  32.212  30.476  1.00  0.00     0.251 C 
ATOM     36  H   UNL A   1      34.292  33.580  29.642  1.00  0.00     0.163 HD
ATOM     37  O   UNL A   1      35.144  32.302  31.621  1.00  0.00    -0.269 OA
BRANCH  35  38
ATOM     38  C   UNL A   1      36.787  31.491  30.149  1.00  0.00     0.039 A 
ATOM     39  C   UNL A   1      38.004  32.152  29.969  1.00  0.00     0.014 A 
ATOM     40  C   UNL A   1      36.707  30.099  30.130  1.00  0.00     0.014 A 
ATOM     41  C   UNL A   1      39.165  31.387  29.868  1.00  0.00     0.010 A 
ATOM     42  C   UNL A   1      37.861  29.359  30.167  1.00  0.00     0.010 A 
ATOM     43  C   UNL A   1      39.091  29.988  29.994  1.00  0.00    -0.014 A 
BRANCH  43  44
ATOM     44  C   UNL A   1      40.296  29.169  30.131  1.00  0.00     0.031 A 
ATOM     45  C   UNL A   1      40.583  28.749  31.532  1.00  0.00     0.074 A 
ATOM     46  C   UNL A   1      40.945  28.629  29.073  1.00  0.00     0.049 A 
ATOM     47  N   UNL A   1      41.541  29.160  32.292  1.00  0.00    -0.248 NA
ATOM     48  C   UNL A   1      39.594  27.916  32.239  1.00  0.00     0.031 C 
ATOM     49  C   UNL A   1      40.588  28.723  27.653  1.00  0.00     0.029 A 
ATOM     50  N   UNL A   1      42.010  27.780  29.047  1.00  0.00    -0.354 N 
ATOM     51  C   UNL A   1      41.442  28.423  33.469  1.00  0.00     0.074 A 
ATOM     52  C   UNL A   1      40.112  27.878  33.470  1.00  0.00     0.031 C 
ATOM     53  C   UNL A   1      41.260  27.783  26.948  1.00  0.00     0.029 A 
ATOM     54  C   UNL A   1      42.217  27.133  27.826  1.00  0.00     0.049 A 
ATOM     55  H   UNL A   1      42.590  27.634  29.830  1.00  0.00     0.167 HD
ATOM     56  C   UNL A   1      42.555  28.105  34.189  1.00  0.00     0.034 A 
ATOM     57  C   UNL A   1      43.100  26.130  27.552  1.00  0.00     0.034 A 
ATOM     58  C   UNL A   1      43.682  28.909  33.761  1.00  0.00     0.049 A 
ATOM     59  C   UNL A   1      44.150  26.201  28.597  1.00  0.00     0.074 A 
ATOM     60  C   UNL A   1      43.925  30.268  33.675  1.00  0.00     0.029 A 
ATOM     61  N   UNL A   1      44.619  28.318  32.940  1.00  0.00    -0.354 N 
ATOM     62  N   UNL A   1      44.962  27.215  28.718  1.00  0.00    -0.248 NA
ATOM     63  C   UNL A   1      43.956  25.417  29.808  1.00  0.00     0.031 C 
ATOM     64  C   UNL A   1      44.611  30.436  32.436  1.00  0.00     0.029 A 
ATOM     65  C   UNL A   1      44.854  29.173  31.892  1.00  0.00     0.049 A 
ATOM     66  H   UNL A   1      45.044  27.441  33.081  1.00  0.00     0.167 HD
ATOM     67  C   UNL A   1      45.011  27.472  30.080  1.00  0.00     0.074 A 
ATOM     68  C   UNL A   1      44.449  26.275  30.708  1.00  0.00     0.031 C 
ATOM     69  C   UNL A   1      45.221  28.738  30.555  1.00  0.00     0.034 A 
BRANCH  56  70
ATOM     70  C   UNL A   1      42.753  26.824  34.978  1.00  0.00     0.023 A 
ATOM     71  C   UNL A   1      43.594  25.849  34.405  1.00  0.00     0.031 A 
ATOM     72  C   UNL A   1      41.969  26.384  36.068  1.00  0.00     0.131 A 
ATOM     73  C   UNL A   1      43.531  24.505  34.810  1.00  0.00     0.055 A 
ATOM     74  C   UNL A   1      41.960  25.057  36.513  1.00  0.00     0.041 A 
ATOM     75  F   UNL A   1      41.102  27.173  36.709  1.00  0.00    -0.206 F 
ATOM     76  C   UNL A   1      42.715  24.100  35.860  1.00  0.00     0.022 A 
BRANCH  73  77
ATOM     77  S   UNL A   1      44.392  23.268  33.807  1.00  0.00     0.124 S 
ATOM     78  O   UNL A   1      44.296  22.087  34.659  1.00  0.00    -0.237 OA
ATOM     79  O   UNL A   1      43.585  23.254  32.591  1.00  0.00    -0.237 OA
ATOM     80  O   UNL A   1      45.734  23.826  33.660  1.00  0.00    -0.744 OA
ENDBRANCH  73  77
ENDBRANCH  56  70
BRANCH  57  81
ATOM     81  C   UNL A   1      42.900  24.941  26.666  1.00  0.00     0.023 A 
ATOM     82  C   UNL A   1      43.868  24.481  25.740  1.00  0.00     0.031 A 
ATOM     83  C   UNL A   1      41.815  24.071  26.919  1.00  0.00     0.131 A 
ATOM     84  C   UNL A   1      43.728  23.209  25.124  1.00  0.00     0.055 A 
ATOM     85  C   UNL A   1      41.686  22.817  26.314  1.00  0.00     0.041 A 
ATOM     86  F   UNL A   1      40.884  24.373  27.836  1.00  0.00    -0.206 F 
ATOM     87  C   UNL A   1      42.648  22.376  25.422  1.00  0.00     0.022 A 
BRANCH  84  88
ATOM     88  S   UNL A   1      44.999  22.568  23.976  1.00  0.00     0.124 S 
ATOM     89  O   UNL A   1      44.209  22.218  22.801  1.00  0.00    -0.237 OA
ATOM     90  O   UNL A   1      45.902  23.704  23.839  1.00  0.00    -0.237 OA
ATOM     91  O   UNL A   1      45.564  21.425  24.694  1.00  0.00    -0.744 OA
ENDBRANCH  84  88
ENDBRANCH  57  81
BRANCH  69  92
ATOM     92  C   UNL A   1      45.696  29.807  29.585  1.00  0.00     0.023 A 
ATOM     93  C   UNL A   1      44.887  30.477  28.637  1.00  0.00     0.031 A 
ATOM     94  C   UNL A   1      47.030  30.233  29.715  1.00  0.00     0.131 A 
ATOM     95  C   UNL A   1      45.432  31.516  27.853  1.00  0.00     0.055 A 
ATOM     96  C   UNL A   1      47.557  31.277  28.959  1.00  0.00     0.041 A 
ATOM     97  F   UNL A   1      47.845  29.655  30.613  1.00  0.00    -0.206 F 
ATOM     98  C   UNL A   1      46.761  31.919  28.019  1.00  0.00     0.022 A 
BRANCH  95  99
ATOM     99  S   UNL A   1      44.435  32.351  26.573  1.00  0.00     0.124 S 
ATOM    100  O   UNL A   1      43.810  33.456  27.290  1.00  0.00    -0.237 OA
ATOM    101  O   UNL A   1      45.439  32.720  25.580  1.00  0.00    -0.237 OA
ATOM    102  O   UNL A   1      43.504  31.306  26.135  1.00  0.00    -0.744 OA
ENDBRANCH  95  99
ENDBRANCH  69  92
ENDBRANCH  43  44
ENDBRANCH  35  38
ENDBRANCH  33  34
ENDBRANCH  32  33
ENDBRANCH   1  32
TORSDOF 19
ENDMDL
