MODEL 1
REMARK VINA RESULT:     -11.4      0.000      0.000
REMARK SMILES O=C(COc1ccc2c(c1)CCC2)N[C@@H](CO)C(=O)NCCCCNC(=O)c1ccc(-c2c3nc(c(-c4cc(S(=O)(=O)[O-])ccc4F)c4ccc([nH]4)c(-c4cc(S(=O)(=O)[O-])ccc4F)c4nc(c(-c5cc(S(=O)(=O)[O-])ccc5F)c5ccc2[nH]5)C=C4)C=C3)cc1
REMARK SMILES IDX 22 1 21 2 20 3 18 4 19 5 15 7 14 8 1 9 2 10 3 12 4 13 5 14
REMARK SMILES IDX 6 15 10 16 7 17 9 18 8 19 11 20 13 21 12 22 16 23 17 24
REMARK SMILES IDX 23 26 24 27 25 28 26 29 27 31 28 32 29 33 90 34 30 35 89 36
REMARK SMILES IDX 31 37 32 38 33 39 83 40 34 41 88 42 82 43 84 44 35 45 87 46
REMARK SMILES IDX 81 47 80 48 36 50 68 51 48 52 67 53 49 54 52 55 66 56 85 57
REMARK SMILES IDX 50 58 51 59 65 61 86 62 53 63 37 64 38 65 46 66 39 67 45 68
REMARK SMILES IDX 47 69 44 70 40 71 41 72 42 73 43 74 69 75 70 76 78 77 71 78
REMARK SMILES IDX 77 79 79 80 76 81 72 82 73 83 74 84 75 85 54 86 55 87 63 88
REMARK SMILES IDX 56 89 62 90 64 91 61 92 57 93 58 94 59 95 60 96
REMARK H PARENT 20 6 14 11 17 25 25 30 84 49 52 60
REMARK Flexibility Score: inf
ROOT
ATOM      1  C   UNL A   1      36.077  23.170  23.593  1.00  0.00     0.023 C 
ENDROOT
BRANCH   1   2
ATOM      2  C   UNL A   1      35.191  24.129  24.382  1.00  0.00     0.116 C 
BRANCH   2   3
ATOM      3  N   UNL A   1      34.282  24.877  23.533  1.00  0.00    -0.354 N 
ATOM      4  C   UNL A   1      33.374  25.845  23.851  1.00  0.00     0.244 C 
ATOM      5  O   UNL A   1      32.926  26.533  22.929  1.00  0.00    -0.273 OA
ATOM      6  H   UNL A   1      34.327  24.651  22.577  1.00  0.00     0.163 HD
BRANCH   4   7
ATOM      7  C   UNL A   1      32.952  26.129  25.303  1.00  0.00     0.197 C 
BRANCH   7   8
ATOM      8  N   UNL A   1      32.944  24.901  26.095  1.00  0.00    -0.339 N 
ATOM      9  O   UNL A   1      30.750  25.023  26.739  1.00  0.00    -0.271 OA
ATOM     10  C   UNL A   1      31.780  24.370  26.600  1.00  0.00     0.258 C 
ATOM     11  H   UNL A   1      33.796  24.441  26.273  1.00  0.00     0.164 HD
BRANCH  10  12
ATOM     12  C   UNL A   1      31.883  22.885  26.965  1.00  0.00     0.329 C 
BRANCH  12  13
ATOM     13  O   UNL A   1      33.054  22.235  26.466  1.00  0.00    -0.484 OA
BRANCH  13  14
ATOM     14  C   UNL A   1      32.803  21.332  25.463  1.00  0.00     0.120 A 
ATOM     15  C   UNL A   1      32.312  21.718  24.205  1.00  0.00     0.047 A 
ATOM     16  C   UNL A   1      33.165  20.004  25.702  1.00  0.00     0.050 A 
ATOM     17  C   UNL A   1      32.161  20.784  23.177  1.00  0.00     0.008 A 
ATOM     18  C   UNL A   1      33.011  19.084  24.676  1.00  0.00    -0.041 A 
ATOM     19  C   UNL A   1      32.520  19.473  23.426  1.00  0.00    -0.045 A 
ATOM     20  C   UNL A   1      33.283  17.612  24.700  1.00  0.00     0.036 C 
ATOM     21  C   UNL A   1      32.438  18.307  22.492  1.00  0.00     0.036 C 
ATOM     22  C   UNL A   1      33.354  17.296  23.197  1.00  0.00     0.010 C 
ENDBRANCH  13  14
ENDBRANCH  12  13
ENDBRANCH  10  12
ENDBRANCH   7   8
BRANCH   7  23
ATOM     23  C   UNL A   1      33.714  27.308  25.920  1.00  0.00     0.191 C 
BRANCH  23  24
ATOM     24  O   UNL A   1      33.980  28.362  24.996  1.00  0.00    -0.394 OA
ATOM     25  H   UNL A   1      33.655  28.112  24.118  1.00  0.00     0.210 HD
ENDBRANCH  23  24
ENDBRANCH   7  23
ENDBRANCH   4   7
ENDBRANCH   2   3
ENDBRANCH   1   2
BRANCH   1  26
ATOM     26  C   UNL A   1      36.370  21.837  24.281  1.00  0.00     0.023 C 
BRANCH  26  27
ATOM     27  C   UNL A   1      37.141  21.928  25.596  1.00  0.00     0.116 C 
BRANCH  27  28
ATOM     28  N   UNL A   1      38.257  20.996  25.672  1.00  0.00    -0.352 N 
ATOM     29  C   UNL A   1      39.533  21.195  26.148  1.00  0.00     0.251 C 
ATOM     30  H   UNL A   1      38.072  20.090  25.333  1.00  0.00     0.163 HD
ATOM     31  O   UNL A   1      40.380  20.316  26.011  1.00  0.00    -0.269 OA
BRANCH  29  32
ATOM     32  C   UNL A   1      39.886  22.482  26.781  1.00  0.00     0.039 A 
ATOM     33  C   UNL A   1      40.769  22.483  27.865  1.00  0.00     0.014 A 
ATOM     34  C   UNL A   1      39.390  23.687  26.277  1.00  0.00     0.014 A 
ATOM     35  C   UNL A   1      41.239  23.697  28.372  1.00  0.00     0.010 A 
ATOM     36  C   UNL A   1      39.911  24.893  26.739  1.00  0.00     0.010 A 
ATOM     37  C   UNL A   1      40.862  24.909  27.772  1.00  0.00    -0.014 A 
BRANCH  37  38
ATOM     38  C   UNL A   1      41.497  26.197  28.158  1.00  0.00     0.031 A 
ATOM     39  C   UNL A   1      40.687  27.273  28.826  1.00  0.00     0.074 A 
ATOM     40  C   UNL A   1      42.781  26.429  27.812  1.00  0.00     0.049 A 
ATOM     41  N   UNL A   1      41.028  28.501  29.118  1.00  0.00    -0.248 NA
ATOM     42  C   UNL A   1      39.303  26.930  29.189  1.00  0.00     0.031 C 
ATOM     43  C   UNL A   1      43.657  25.475  27.128  1.00  0.00     0.029 A 
ATOM     44  N   UNL A   1      43.569  27.543  27.968  1.00  0.00    -0.354 N 
ATOM     45  C   UNL A   1      39.899  29.086  29.682  1.00  0.00     0.074 A 
ATOM     46  C   UNL A   1      38.852  28.087  29.655  1.00  0.00     0.031 C 
ATOM     47  C   UNL A   1      44.858  26.041  26.931  1.00  0.00     0.029 A 
ATOM     48  C   UNL A   1      44.827  27.413  27.424  1.00  0.00     0.049 A 
ATOM     49  H   UNL A   1      43.261  28.359  28.425  1.00  0.00     0.167 HD
ATOM     50  C   UNL A   1      39.758  30.336  30.185  1.00  0.00     0.034 A 
ATOM     51  C   UNL A   1      45.831  28.305  27.309  1.00  0.00     0.034 A 
ATOM     52  C   UNL A   1      40.817  31.315  30.225  1.00  0.00     0.049 A 
ATOM     53  C   UNL A   1      45.630  29.700  27.848  1.00  0.00     0.074 A 
ATOM     54  C   UNL A   1      40.802  32.575  30.795  1.00  0.00     0.029 A 
ATOM     55  N   UNL A   1      42.075  31.149  29.662  1.00  0.00    -0.354 N 
ATOM     56  N   UNL A   1      44.576  30.211  28.441  1.00  0.00    -0.248 NA
ATOM     57  C   UNL A   1      46.753  30.635  27.703  1.00  0.00     0.031 C 
ATOM     58  C   UNL A   1      42.023  33.198  30.517  1.00  0.00     0.029 A 
ATOM     59  C   UNL A   1      42.827  32.301  29.834  1.00  0.00     0.049 A 
ATOM     60  H   UNL A   1      42.387  30.334  29.207  1.00  0.00     0.167 HD
ATOM     61  C   UNL A   1      44.923  31.521  28.761  1.00  0.00     0.074 A 
ATOM     62  C   UNL A   1      46.287  31.713  28.316  1.00  0.00     0.031 C 
ATOM     63  C   UNL A   1      44.181  32.481  29.370  1.00  0.00     0.034 A 
BRANCH  50  64
ATOM     64  C   UNL A   1      38.401  30.732  30.712  1.00  0.00     0.023 A 
ATOM     65  C   UNL A   1      37.430  31.323  29.887  1.00  0.00     0.031 A 
ATOM     66  C   UNL A   1      38.069  30.493  32.058  1.00  0.00     0.131 A 
ATOM     67  C   UNL A   1      36.191  31.701  30.426  1.00  0.00     0.055 A 
ATOM     68  C   UNL A   1      36.812  30.811  32.573  1.00  0.00     0.041 A 
ATOM     69  F   UNL A   1      38.965  29.948  32.895  1.00  0.00    -0.206 F 
ATOM     70  C   UNL A   1      35.866  31.427  31.757  1.00  0.00     0.022 A 
BRANCH  67  71
ATOM     71  S   UNL A   1      35.041  32.641  29.386  1.00  0.00     0.124 S 
ATOM     72  O   UNL A   1      34.173  33.256  30.387  1.00  0.00    -0.237 OA
ATOM     73  O   UNL A   1      35.931  33.547  28.670  1.00  0.00    -0.237 OA
ATOM     74  O   UNL A   1      34.403  31.614  28.565  1.00  0.00    -0.744 OA
ENDBRANCH  67  71
ENDBRANCH  50  64
BRANCH  51  75
ATOM     75  C   UNL A   1      47.105  27.939  26.624  1.00  0.00     0.023 A 
ATOM     76  C   UNL A   1      47.229  28.043  25.229  1.00  0.00     0.031 A 
ATOM     77  C   UNL A   1      48.191  27.409  27.343  1.00  0.00     0.131 A 
ATOM     78  C   UNL A   1      48.386  27.568  24.592  1.00  0.00     0.055 A 
ATOM     79  C   UNL A   1      49.363  26.993  26.710  1.00  0.00     0.041 A 
ATOM     80  F   UNL A   1      48.128  27.289  28.679  1.00  0.00    -0.206 F 
ATOM     81  C   UNL A   1      49.458  27.054  25.323  1.00  0.00     0.022 A 
BRANCH  78  82
ATOM     82  S   UNL A   1      48.421  27.526  22.778  1.00  0.00     0.124 S 
ATOM     83  O   UNL A   1      48.369  26.092  22.513  1.00  0.00    -0.237 OA
ATOM     84  O   UNL A   1      47.223  28.285  22.436  1.00  0.00    -0.237 OA
ATOM     85  O   UNL A   1      49.686  28.176  22.448  1.00  0.00    -0.744 OA
ENDBRANCH  78  82
ENDBRANCH  51  75
BRANCH  63  86
ATOM     86  C   UNL A   1      44.852  33.809  29.612  1.00  0.00     0.023 A 
ATOM     87  C   UNL A   1      44.851  34.823  28.637  1.00  0.00     0.031 A 
ATOM     88  C   UNL A   1      45.515  34.059  30.826  1.00  0.00     0.131 A 
ATOM     89  C   UNL A   1      45.544  36.019  28.873  1.00  0.00     0.055 A 
ATOM     90  C   UNL A   1      46.154  35.272  31.079  1.00  0.00     0.041 A 
ATOM     91  F   UNL A   1      45.548  33.124  31.790  1.00  0.00    -0.206 F 
ATOM     92  C   UNL A   1      46.182  36.257  30.093  1.00  0.00     0.022 A 
BRANCH  89  93
ATOM     93  S   UNL A   1      45.670  37.232  27.531  1.00  0.00     0.124 S 
ATOM     94  O   UNL A   1      46.275  36.441  26.463  1.00  0.00    -0.237 OA
ATOM     95  O   UNL A   1      44.278  37.618  27.326  1.00  0.00    -0.237 OA
ATOM     96  O   UNL A   1      46.525  38.276  28.090  1.00  0.00    -0.744 OA
ENDBRANCH  89  93
ENDBRANCH  63  86
ENDBRANCH  37  38
ENDBRANCH  29  32
ENDBRANCH  27  28
ENDBRANCH  26  27
ENDBRANCH   1  26
TORSDOF 20
ENDMDL
MODEL 2
REMARK VINA RESULT:     -11.1      5.734     10.414
REMARK SMILES O=C(COc1ccc2c(c1)CCC2)N[C@@H](CO)C(=O)NCCCCNC(=O)c1ccc(-c2c3nc(c(-c4cc(S(=O)(=O)[O-])ccc4F)c4ccc([nH]4)c(-c4cc(S(=O)(=O)[O-])ccc4F)c4nc(c(-c5cc(S(=O)(=O)[O-])ccc5F)c5ccc2[nH]5)C=C4)C=C3)cc1
REMARK SMILES IDX 22 1 21 2 20 3 18 4 19 5 15 7 14 8 1 9 2 10 3 12 4 13 5 14
REMARK SMILES IDX 6 15 10 16 7 17 9 18 8 19 11 20 13 21 12 22 16 23 17 24
REMARK SMILES IDX 23 26 24 27 25 28 26 29 27 31 28 32 29 33 90 34 30 35 89 36
REMARK SMILES IDX 31 37 32 38 33 39 83 40 34 41 88 42 82 43 84 44 35 45 87 46
REMARK SMILES IDX 81 47 80 48 36 50 68 51 48 52 67 53 49 54 52 55 66 56 85 57
REMARK SMILES IDX 50 58 51 59 65 61 86 62 53 63 37 64 38 65 46 66 39 67 45 68
REMARK SMILES IDX 47 69 44 70 40 71 41 72 42 73 43 74 69 75 70 76 78 77 71 78
REMARK SMILES IDX 77 79 79 80 76 81 72 82 73 83 74 84 75 85 54 86 55 87 63 88
REMARK SMILES IDX 56 89 62 90 64 91 61 92 57 93 58 94 59 95 60 96
REMARK H PARENT 20 6 14 11 17 25 25 30 84 49 52 60
REMARK Flexibility Score: inf
ROOT
ATOM      1  C   UNL A   1      32.650  29.507  26.954  1.00  0.00     0.023 C 
ENDROOT
BRANCH   1   2
ATOM      2  C   UNL A   1      32.603  28.796  25.605  1.00  0.00     0.116 C 
BRANCH   2   3
ATOM      3  N   UNL A   1      31.304  28.211  25.326  1.00  0.00    -0.354 N 
ATOM      4  C   UNL A   1      30.724  27.882  24.136  1.00  0.00     0.244 C 
ATOM      5  O   UNL A   1      29.739  27.137  24.168  1.00  0.00    -0.273 OA
ATOM      6  H   UNL A   1      30.755  28.024  26.121  1.00  0.00     0.163 HD
BRANCH   4   7
ATOM      7  C   UNL A   1      31.289  28.358  22.787  1.00  0.00     0.197 C 
BRANCH   7   8
ATOM      8  N   UNL A   1      31.580  27.224  21.912  1.00  0.00    -0.339 N 
ATOM      9  O   UNL A   1      33.860  27.373  22.044  1.00  0.00    -0.271 OA
ATOM     10  C   UNL A   1      32.854  26.728  21.763  1.00  0.00     0.258 C 
ATOM     11  H   UNL A   1      30.842  26.803  21.415  1.00  0.00     0.164 HD
BRANCH  10  12
ATOM     12  C   UNL A   1      32.903  25.295  21.224  1.00  0.00     0.329 C 
BRANCH  12  13
ATOM     13  O   UNL A   1      32.234  24.333  22.044  1.00  0.00    -0.484 OA
BRANCH  13  14
ATOM     14  C   UNL A   1      32.928  23.991  23.178  1.00  0.00     0.120 A 
ATOM     15  C   UNL A   1      32.427  24.227  24.469  1.00  0.00     0.047 A 
ATOM     16  C   UNL A   1      34.121  23.287  23.001  1.00  0.00     0.050 A 
ATOM     17  C   UNL A   1      33.116  23.778  25.598  1.00  0.00     0.008 A 
ATOM     18  C   UNL A   1      34.799  22.846  24.128  1.00  0.00    -0.041 A 
ATOM     19  C   UNL A   1      34.297  23.084  25.411  1.00  0.00    -0.045 A 
ATOM     20  C   UNL A   1      36.105  22.118  24.201  1.00  0.00     0.036 C 
ATOM     21  C   UNL A   1      35.205  22.521  26.459  1.00  0.00     0.036 C 
ATOM     22  C   UNL A   1      36.050  21.547  25.627  1.00  0.00     0.010 C 
ENDBRANCH  13  14
ENDBRANCH  12  13
ENDBRANCH  10  12
ENDBRANCH   7   8
BRANCH   7  23
ATOM     23  C   UNL A   1      30.455  29.480  22.160  1.00  0.00     0.191 C 
BRANCH  23  24
ATOM     24  O   UNL A   1      29.087  29.129  21.956  1.00  0.00    -0.394 OA
ATOM     25  H   UNL A   1      28.544  29.932  21.959  1.00  0.00     0.210 HD
ENDBRANCH  23  24
ENDBRANCH   7  23
ENDBRANCH   4   7
ENDBRANCH   2   3
ENDBRANCH   1   2
BRANCH   1  26
ATOM     26  C   UNL A   1      32.257  30.984  26.928  1.00  0.00     0.023 C 
BRANCH  26  27
ATOM     27  C   UNL A   1      33.342  31.964  27.368  1.00  0.00     0.116 C 
BRANCH  27  28
ATOM     28  N   UNL A   1      32.834  33.303  27.627  1.00  0.00    -0.352 N 
ATOM     29  C   UNL A   1      33.254  34.236  28.547  1.00  0.00     0.251 C 
ATOM     30  H   UNL A   1      32.078  33.583  27.061  1.00  0.00     0.163 HD
ATOM     31  O   UNL A   1      32.613  35.272  28.704  1.00  0.00    -0.269 OA
BRANCH  29  32
ATOM     32  C   UNL A   1      34.450  33.965  29.372  1.00  0.00     0.039 A 
ATOM     33  C   UNL A   1      34.296  33.276  30.578  1.00  0.00     0.014 A 
ATOM     34  C   UNL A   1      35.721  34.342  28.934  1.00  0.00     0.014 A 
ATOM     35  C   UNL A   1      35.428  32.869  31.290  1.00  0.00     0.010 A 
ATOM     36  C   UNL A   1      36.848  33.879  29.609  1.00  0.00     0.010 A 
ATOM     37  C   UNL A   1      36.712  33.115  30.778  1.00  0.00    -0.014 A 
BRANCH  37  38
ATOM     38  C   UNL A   1      37.924  32.524  31.408  1.00  0.00     0.031 A 
ATOM     39  C   UNL A   1      38.631  31.368  30.758  1.00  0.00     0.074 A 
ATOM     40  C   UNL A   1      38.321  32.969  32.619  1.00  0.00     0.049 A 
ATOM     41  N   UNL A   1      39.617  30.642  31.214  1.00  0.00    -0.248 NA
ATOM     42  C   UNL A   1      38.148  30.961  29.429  1.00  0.00     0.031 C 
ATOM     43  C   UNL A   1      37.690  34.060  33.367  1.00  0.00     0.029 A 
ATOM     44  N   UNL A   1      39.334  32.549  33.445  1.00  0.00    -0.354 N 
ATOM     45  C   UNL A   1      39.863  29.679  30.242  1.00  0.00     0.074 A 
ATOM     46  C   UNL A   1      38.896  29.893  29.186  1.00  0.00     0.031 C 
ATOM     47  C   UNL A   1      38.334  34.226  34.533  1.00  0.00     0.029 A 
ATOM     48  C   UNL A   1      39.388  33.225  34.644  1.00  0.00     0.049 A 
ATOM     49  H   UNL A   1      39.963  31.832  33.202  1.00  0.00     0.167 HD
ATOM     50  C   UNL A   1      40.817  28.716  30.229  1.00  0.00     0.034 A 
ATOM     51  C   UNL A   1      40.176  33.040  35.722  1.00  0.00     0.034 A 
ATOM     52  C   UNL A   1      41.788  28.528  31.278  1.00  0.00     0.049 A 
ATOM     53  C   UNL A   1      41.205  31.937  35.690  1.00  0.00     0.074 A 
ATOM     54  C   UNL A   1      42.851  27.643  31.318  1.00  0.00     0.029 A 
ATOM     55  N   UNL A   1      41.810  29.227  32.477  1.00  0.00    -0.354 N 
ATOM     56  N   UNL A   1      41.467  31.081  34.730  1.00  0.00    -0.248 NA
ATOM     57  C   UNL A   1      42.043  31.776  36.886  1.00  0.00     0.031 C 
ATOM     58  C   UNL A   1      43.472  27.756  32.566  1.00  0.00     0.029 A 
ATOM     59  C   UNL A   1      42.840  28.761  33.280  1.00  0.00     0.049 A 
ATOM     60  H   UNL A   1      41.185  29.947  32.722  1.00  0.00     0.167 HD
ATOM     61  C   UNL A   1      42.518  30.297  35.200  1.00  0.00     0.074 A 
ATOM     62  C   UNL A   1      42.854  30.796  36.517  1.00  0.00     0.031 C 
ATOM     63  C   UNL A   1      43.152  29.259  34.597  1.00  0.00     0.034 A 
BRANCH  50  64
ATOM     64  C   UNL A   1      40.843  27.770  29.054  1.00  0.00     0.023 A 
ATOM     65  C   UNL A   1      41.755  27.928  27.997  1.00  0.00     0.031 A 
ATOM     66  C   UNL A   1      39.953  26.682  29.004  1.00  0.00     0.131 A 
ATOM     67  C   UNL A   1      41.723  27.040  26.909  1.00  0.00     0.055 A 
ATOM     68  C   UNL A   1      39.972  25.765  27.952  1.00  0.00     0.041 A 
ATOM     69  F   UNL A   1      39.049  26.494  29.978  1.00  0.00    -0.206 F 
ATOM     70  C   UNL A   1      40.855  25.946  26.892  1.00  0.00     0.022 A 
BRANCH  67  71
ATOM     71  S   UNL A   1      42.773  27.390  25.472  1.00  0.00     0.124 S 
ATOM     72  O   UNL A   1      42.726  26.118  24.756  1.00  0.00    -0.237 OA
ATOM     73  O   UNL A   1      42.080  28.506  24.839  1.00  0.00    -0.237 OA
ATOM     74  O   UNL A   1      44.068  27.717  26.065  1.00  0.00    -0.744 OA
ENDBRANCH  67  71
ENDBRANCH  50  64
BRANCH  51  75
ATOM     75  C   UNL A   1      40.011  33.880  36.944  1.00  0.00     0.023 A 
ATOM     76  C   UNL A   1      39.347  33.381  38.076  1.00  0.00     0.031 A 
ATOM     77  C   UNL A   1      40.446  35.217  36.972  1.00  0.00     0.131 A 
ATOM     78  C   UNL A   1      39.084  34.230  39.164  1.00  0.00     0.055 A 
ATOM     79  C   UNL A   1      40.234  36.039  38.079  1.00  0.00     0.041 A 
ATOM     80  F   UNL A   1      41.087  35.744  35.917  1.00  0.00    -0.206 F 
ATOM     81  C   UNL A   1      39.533  35.551  39.178  1.00  0.00     0.022 A 
BRANCH  78  82
ATOM     82  S   UNL A   1      38.043  33.610  40.514  1.00  0.00     0.124 S 
ATOM     83  O   UNL A   1      37.769  34.831  41.264  1.00  0.00    -0.237 OA
ATOM     84  O   UNL A   1      36.915  33.037  39.786  1.00  0.00    -0.237 OA
ATOM     85  O   UNL A   1      38.904  32.642  41.189  1.00  0.00    -0.744 OA
ENDBRANCH  78  82
ENDBRANCH  51  75
BRANCH  63  86
ATOM     86  C   UNL A   1      44.289  28.624  35.354  1.00  0.00     0.023 A 
ATOM     87  C   UNL A   1      44.070  27.586  36.278  1.00  0.00     0.031 A 
ATOM     88  C   UNL A   1      45.608  29.071  35.162  1.00  0.00     0.131 A 
ATOM     89  C   UNL A   1      45.146  27.067  37.014  1.00  0.00     0.055 A 
ATOM     90  C   UNL A   1      46.682  28.511  35.853  1.00  0.00     0.041 A 
ATOM     91  F   UNL A   1      45.873  30.060  34.292  1.00  0.00    -0.206 F 
ATOM     92  C   UNL A   1      46.453  27.511  36.795  1.00  0.00     0.022 A 
BRANCH  89  93
ATOM     93  S   UNL A   1      44.804  25.856  38.319  1.00  0.00     0.124 S 
ATOM     94  O   UNL A   1      43.933  24.907  37.632  1.00  0.00    -0.237 OA
ATOM     95  O   UNL A   1      46.139  25.369  38.652  1.00  0.00    -0.237 OA
ATOM     96  O   UNL A   1      44.158  26.648  39.363  1.00  0.00    -0.744 OA
ENDBRANCH  89  93
ENDBRANCH  63  86
ENDBRANCH  37  38
ENDBRANCH  29  32
ENDBRANCH  27  28
ENDBRANCH  26  27
ENDBRANCH   1  26
TORSDOF 20
ENDMDL
MODEL 3
REMARK VINA RESULT:     -11.0      2.763      4.534
REMARK SMILES O=C(COc1ccc2c(c1)CCC2)N[C@@H](CO)C(=O)NCCCCNC(=O)c1ccc(-c2c3nc(c(-c4cc(S(=O)(=O)[O-])ccc4F)c4ccc([nH]4)c(-c4cc(S(=O)(=O)[O-])ccc4F)c4nc(c(-c5cc(S(=O)(=O)[O-])ccc5F)c5ccc2[nH]5)C=C4)C=C3)cc1
REMARK SMILES IDX 22 1 21 2 20 3 18 4 19 5 15 7 14 8 1 9 2 10 3 12 4 13 5 14
REMARK SMILES IDX 6 15 10 16 7 17 9 18 8 19 11 20 13 21 12 22 16 23 17 24
REMARK SMILES IDX 23 26 24 27 25 28 26 29 27 31 28 32 29 33 90 34 30 35 89 36
REMARK SMILES IDX 31 37 32 38 33 39 83 40 34 41 88 42 82 43 84 44 35 45 87 46
REMARK SMILES IDX 81 47 80 48 36 50 68 51 48 52 67 53 49 54 52 55 66 56 85 57
REMARK SMILES IDX 50 58 51 59 65 61 86 62 53 63 37 64 38 65 46 66 39 67 45 68
REMARK SMILES IDX 47 69 44 70 40 71 41 72 42 73 43 74 69 75 70 76 78 77 71 78
REMARK SMILES IDX 77 79 79 80 76 81 72 82 73 83 74 84 75 85 54 86 55 87 63 88
REMARK SMILES IDX 56 89 62 90 64 91 61 92 57 93 58 94 59 95 60 96
REMARK H PARENT 20 6 14 11 17 25 25 30 84 49 52 60
REMARK Flexibility Score: inf
ROOT
ATOM      1  C   UNL A   1      37.269  22.088  24.392  1.00  0.00     0.023 C 
ENDROOT
BRANCH   1   2
ATOM      2  C   UNL A   1      35.914  22.669  24.784  1.00  0.00     0.116 C 
BRANCH   2   3
ATOM      3  N   UNL A   1      34.926  22.544  23.729  1.00  0.00    -0.354 N 
ATOM      4  C   UNL A   1      33.564  22.614  23.784  1.00  0.00     0.244 C 
ATOM      5  O   UNL A   1      32.956  22.765  22.720  1.00  0.00    -0.273 OA
ATOM      6  H   UNL A   1      35.296  22.382  22.832  1.00  0.00     0.163 HD
BRANCH   4   7
ATOM      7  C   UNL A   1      32.794  22.570  25.115  1.00  0.00     0.197 C 
BRANCH   7   8
ATOM      8  N   UNL A   1      31.632  23.456  25.076  1.00  0.00    -0.339 N 
ATOM      9  O   UNL A   1      31.475  23.775  27.338  1.00  0.00    -0.271 OA
ATOM     10  C   UNL A   1      31.187  24.120  26.196  1.00  0.00     0.258 C 
ATOM     11  H   UNL A   1      31.154  23.580  24.225  1.00  0.00     0.164 HD
BRANCH  10  12
ATOM     12  C   UNL A   1      30.306  25.335  25.886  1.00  0.00     0.329 C 
BRANCH  12  13
ATOM     13  O   UNL A   1      30.118  25.588  24.493  1.00  0.00    -0.484 OA
BRANCH  13  14
ATOM     14  C   UNL A   1      29.934  26.914  24.188  1.00  0.00     0.120 A 
ATOM     15  C   UNL A   1      30.950  27.872  24.344  1.00  0.00     0.047 A 
ATOM     16  C   UNL A   1      28.716  27.265  23.602  1.00  0.00     0.050 A 
ATOM     17  C   UNL A   1      30.757  29.193  23.933  1.00  0.00     0.008 A 
ATOM     18  C   UNL A   1      28.534  28.579  23.198  1.00  0.00    -0.041 A 
ATOM     19  C   UNL A   1      29.547  29.530  23.356  1.00  0.00    -0.045 A 
ATOM     20  C   UNL A   1      27.316  29.205  22.592  1.00  0.00     0.036 C 
ATOM     21  C   UNL A   1      29.112  30.871  22.853  1.00  0.00     0.036 C 
ATOM     22  C   UNL A   1      27.908  30.485  21.982  1.00  0.00     0.010 C 
ENDBRANCH  13  14
ENDBRANCH  12  13
ENDBRANCH  10  12
ENDBRANCH   7   8
BRANCH   7  23
ATOM     23  C   UNL A   1      32.519  21.139  25.592  1.00  0.00     0.191 C 
BRANCH  23  24
ATOM     24  O   UNL A   1      32.819  20.145  24.615  1.00  0.00    -0.394 OA
ATOM     25  H   UNL A   1      32.364  19.319  24.842  1.00  0.00     0.210 HD
ENDBRANCH  23  24
ENDBRANCH   7  23
ENDBRANCH   4   7
ENDBRANCH   2   3
ENDBRANCH   1   2
BRANCH   1  26
ATOM     26  C   UNL A   1      37.743  20.908  25.241  1.00  0.00     0.023 C 
BRANCH  26  27
ATOM     27  C   UNL A   1      39.090  21.093  25.935  1.00  0.00     0.116 C 
BRANCH  27  28
ATOM     28  N   UNL A   1      39.923  19.899  25.900  1.00  0.00    -0.352 N 
ATOM     29  C   UNL A   1      41.285  19.776  26.049  1.00  0.00     0.251 C 
ATOM     30  H   UNL A   1      39.439  19.055  25.745  1.00  0.00     0.163 HD
ATOM     31  O   UNL A   1      41.826  18.690  25.859  1.00  0.00    -0.269 OA
BRANCH  29  32
ATOM     32  C   UNL A   1      42.094  20.964  26.393  1.00  0.00     0.039 A 
ATOM     33  C   UNL A   1      42.519  21.812  25.367  1.00  0.00     0.014 A 
ATOM     34  C   UNL A   1      42.389  21.267  27.724  1.00  0.00     0.014 A 
ATOM     35  C   UNL A   1      43.144  23.021  25.684  1.00  0.00     0.010 A 
ATOM     36  C   UNL A   1      42.951  22.501  28.041  1.00  0.00     0.010 A 
ATOM     37  C   UNL A   1      43.308  23.402  27.026  1.00  0.00    -0.014 A 
BRANCH  37  38
ATOM     38  C   UNL A   1      43.786  24.762  27.393  1.00  0.00     0.031 A 
ATOM     39  C   UNL A   1      42.826  25.783  27.936  1.00  0.00     0.074 A 
ATOM     40  C   UNL A   1      45.067  25.102  27.139  1.00  0.00     0.049 A 
ATOM     41  N   UNL A   1      43.025  27.050  28.189  1.00  0.00    -0.248 NA
ATOM     42  C   UNL A   1      41.455  25.324  28.205  1.00  0.00     0.031 C 
ATOM     43  C   UNL A   1      46.084  24.207  26.577  1.00  0.00     0.029 A 
ATOM     44  N   UNL A   1      45.732  26.293  27.298  1.00  0.00    -0.354 N 
ATOM     45  C   UNL A   1      41.804  27.548  28.629  1.00  0.00     0.074 A 
ATOM     46  C   UNL A   1      40.860  26.451  28.573  1.00  0.00     0.031 C 
ATOM     47  C   UNL A   1      47.239  24.878  26.447  1.00  0.00     0.029 A 
ATOM     48  C   UNL A   1      47.039  26.261  26.863  1.00  0.00     0.049 A 
ATOM     49  H   UNL A   1      45.313  27.095  27.685  1.00  0.00     0.167 HD
ATOM     50  C   UNL A   1      41.504  28.800  29.053  1.00  0.00     0.034 A 
ATOM     51  C   UNL A   1      47.961  27.240  26.781  1.00  0.00     0.034 A 
ATOM     52  C   UNL A   1      42.461  29.877  29.125  1.00  0.00     0.049 A 
ATOM     53  C   UNL A   1      47.586  28.632  27.228  1.00  0.00     0.074 A 
ATOM     54  C   UNL A   1      42.280  31.155  29.625  1.00  0.00     0.029 A 
ATOM     55  N   UNL A   1      43.772  29.809  28.673  1.00  0.00    -0.354 N 
ATOM     56  N   UNL A   1      46.444  29.065  27.707  1.00  0.00    -0.248 NA
ATOM     57  C   UNL A   1      48.626  29.664  27.124  1.00  0.00     0.031 C 
ATOM     58  C   UNL A   1      43.457  31.880  29.412  1.00  0.00     0.029 A 
ATOM     59  C   UNL A   1      44.396  31.035  28.844  1.00  0.00     0.049 A 
ATOM     60  H   UNL A   1      44.196  29.009  28.288  1.00  0.00     0.167 HD
ATOM     61  C   UNL A   1      46.638  30.416  27.984  1.00  0.00     0.074 A 
ATOM     62  C   UNL A   1      48.011  30.719  27.639  1.00  0.00     0.031 C 
ATOM     63  C   UNL A   1      45.761  31.325  28.480  1.00  0.00     0.034 A 
BRANCH  50  64
ATOM     64  C   UNL A   1      40.077  29.085  29.448  1.00  0.00     0.023 A 
ATOM     65  C   UNL A   1      39.682  29.157  30.794  1.00  0.00     0.031 A 
ATOM     66  C   UNL A   1      39.101  29.306  28.459  1.00  0.00     0.131 A 
ATOM     67  C   UNL A   1      38.336  29.396  31.115  1.00  0.00     0.055 A 
ATOM     68  C   UNL A   1      37.779  29.609  28.786  1.00  0.00     0.041 A 
ATOM     69  F   UNL A   1      39.420  29.231  27.157  1.00  0.00    -0.206 F 
ATOM     70  C   UNL A   1      37.388  29.646  30.121  1.00  0.00     0.022 A 
BRANCH  67  71
ATOM     71  S   UNL A   1      37.825  29.283  32.851  1.00  0.00     0.124 S 
ATOM     72  O   UNL A   1      36.648  30.147  32.869  1.00  0.00    -0.237 OA
ATOM     73  O   UNL A   1      37.572  27.856  33.014  1.00  0.00    -0.237 OA
ATOM     74  O   UNL A   1      38.980  29.799  33.584  1.00  0.00    -0.744 OA
ENDBRANCH  67  71
ENDBRANCH  50  64
BRANCH  51  75
ATOM     75  C   UNL A   1      49.317  26.970  26.220  1.00  0.00     0.023 A 
ATOM     76  C   UNL A   1      49.671  27.426  24.941  1.00  0.00     0.031 A 
ATOM     77  C   UNL A   1      50.251  26.187  26.922  1.00  0.00     0.131 A 
ATOM     78  C   UNL A   1      50.901  27.046  24.377  1.00  0.00     0.055 A 
ATOM     79  C   UNL A   1      51.496  25.862  26.381  1.00  0.00     0.041 A 
ATOM     80  F   UNL A   1      49.965  25.726  28.150  1.00  0.00    -0.206 F 
ATOM     81  C   UNL A   1      51.820  26.278  25.093  1.00  0.00     0.022 A 
BRANCH  78  82
ATOM     82  S   UNL A   1      51.230  27.478  22.647  1.00  0.00     0.124 S 
ATOM     83  O   UNL A   1      50.122  26.825  21.960  1.00  0.00    -0.237 OA
ATOM     84  O   UNL A   1      51.191  28.936  22.687  1.00  0.00    -0.237 OA
ATOM     85  O   UNL A   1      52.548  26.898  22.397  1.00  0.00    -0.744 OA
ENDBRANCH  78  82
ENDBRANCH  51  75
BRANCH  63  86
ATOM     86  C   UNL A   1      46.283  32.722  28.704  1.00  0.00     0.023 A 
ATOM     87  C   UNL A   1      46.313  33.671  27.667  1.00  0.00     0.031 A 
ATOM     88  C   UNL A   1      46.771  33.103  29.966  1.00  0.00     0.131 A 
ATOM     89  C   UNL A   1      46.869  34.938  27.896  1.00  0.00     0.055 A 
ATOM     90  C   UNL A   1      47.269  34.384  30.204  1.00  0.00     0.041 A 
ATOM     91  F   UNL A   1      46.767  32.235  30.990  1.00  0.00    -0.206 F 
ATOM     92  C   UNL A   1      47.332  35.307  29.162  1.00  0.00     0.022 A 
BRANCH  89  93
ATOM     93  S   UNL A   1      47.053  36.075  26.496  1.00  0.00     0.124 S 
ATOM     94  O   UNL A   1      46.441  37.296  27.014  1.00  0.00    -0.237 OA
ATOM     95  O   UNL A   1      48.500  36.117  26.313  1.00  0.00    -0.237 OA
ATOM     96  O   UNL A   1      46.313  35.419  25.421  1.00  0.00    -0.744 OA
ENDBRANCH  89  93
ENDBRANCH  63  86
ENDBRANCH  37  38
ENDBRANCH  29  32
ENDBRANCH  27  28
ENDBRANCH  26  27
ENDBRANCH   1  26
TORSDOF 20
ENDMDL
