MODEL 1
REMARK VINA RESULT:     -11.8      0.000      0.000
REMARK SMILES O=C(C[C@H]1CN(S(=O)(=O)c2ccc(F)c(F)c2)CCO1)NCCCCNC(=O)c1ccc(-c2c3nc(c(-c4cc(S(=O)(=O)[O-])ccc4F)c4ccc([nH]4)c(-c4cc(S(=O)(=O)[O-])ccc4F)c4nc(c(-c5cc(S(=O)(=O)[O-])ccc5F)c5ccc2[nH]5)C=C4)C=C3)cc1
REMARK SMILES IDX 23 1 22 2 21 3 1 4 2 5 3 7 4 8 5 9 20 10 6 11 19 12 18 13
REMARK SMILES IDX 7 14 8 15 9 16 10 17 11 18 17 19 12 20 15 21 13 22 16 23
REMARK SMILES IDX 14 24 24 25 25 26 26 27 27 28 28 30 29 31 30 32 91 33 31 34
REMARK SMILES IDX 90 35 32 36 33 37 34 38 84 39 35 40 89 41 83 42 85 43 36 44
REMARK SMILES IDX 88 45 82 46 81 47 37 49 69 50 49 51 68 52 50 53 53 54 67 55
REMARK SMILES IDX 86 56 51 57 52 58 66 60 87 61 54 62 38 63 39 64 47 65 40 66
REMARK SMILES IDX 46 67 48 68 45 69 41 70 42 71 43 72 44 73 70 74 71 75 79 76
REMARK SMILES IDX 72 77 78 78 80 79 77 80 73 81 74 82 75 83 76 84 55 85 56 86
REMARK SMILES IDX 64 87 57 88 63 89 65 90 62 91 58 92 59 93 60 94 61 95
REMARK H PARENT 21 6 26 29 85 48 53 59
REMARK Flexibility Score: inf
ROOT
ATOM      1  C   UNL A   1      31.580  27.805  27.306  1.00  0.00     0.023 C 
ENDROOT
BRANCH   1   2
ATOM      2  C   UNL A   1      31.123  26.681  26.375  1.00  0.00     0.116 C 
BRANCH   2   3
ATOM      3  N   UNL A   1      31.741  25.390  26.636  1.00  0.00    -0.356 N 
ATOM      4  O   UNL A   1      29.788  24.273  27.075  1.00  0.00    -0.275 OA
ATOM      5  C   UNL A   1      30.984  24.251  26.791  1.00  0.00     0.222 C 
ATOM      6  H   UNL A   1      32.722  25.330  26.702  1.00  0.00     0.163 HD
BRANCH   5   7
ATOM      7  C   UNL A   1      31.723  22.937  26.574  1.00  0.00     0.133 C 
BRANCH   7   8
ATOM      8  C   UNL A   1      31.307  22.083  25.351  1.00  0.00     0.142 C 
ATOM      9  C   UNL A   1      31.665  22.618  23.954  1.00  0.00     0.135 C 
ATOM     10  O   UNL A   1      31.718  20.707  25.449  1.00  0.00    -0.375 OA
ATOM     11  N   UNL A   1      33.139  22.681  23.887  1.00  0.00    -0.193 NA
ATOM     12  C   UNL A   1      33.083  20.463  25.089  1.00  0.00     0.177 C 
ATOM     13  C   UNL A   1      33.631  21.254  23.881  1.00  0.00     0.131 C 
BRANCH  11  14
ATOM     14  S   UNL A   1      33.895  23.648  22.717  1.00  0.00     0.243 S 
ATOM     15  O   UNL A   1      35.313  23.597  23.010  1.00  0.00    -0.207 OA
ATOM     16  O   UNL A   1      33.396  23.207  21.428  1.00  0.00    -0.207 OA
BRANCH  14  17
ATOM     17  C   UNL A   1      33.431  25.371  22.849  1.00  0.00     0.085 A 
ATOM     18  C   UNL A   1      34.086  26.324  23.635  1.00  0.00     0.025 A 
ATOM     19  C   UNL A   1      32.260  25.745  22.169  1.00  0.00     0.064 A 
ATOM     20  C   UNL A   1      33.536  27.597  23.823  1.00  0.00     0.044 A 
ATOM     21  C   UNL A   1      31.734  27.023  22.341  1.00  0.00     0.160 A 
ATOM     22  C   UNL A   1      32.354  27.936  23.183  1.00  0.00     0.158 A 
ATOM     23  F   UNL A   1      30.605  27.362  21.702  1.00  0.00    -0.204 F 
ATOM     24  F   UNL A   1      31.820  29.148  23.386  1.00  0.00    -0.204 F 
ENDBRANCH  14  17
ENDBRANCH  11  14
ENDBRANCH   7   8
ENDBRANCH   5   7
ENDBRANCH   2   3
ENDBRANCH   1   2
BRANCH   1  25
ATOM     25  C   UNL A   1      31.545  29.226  26.731  1.00  0.00     0.023 C 
BRANCH  25  26
ATOM     26  C   UNL A   1      32.902  29.890  26.511  1.00  0.00     0.116 C 
BRANCH  26  27
ATOM     27  N   UNL A   1      32.924  31.293  26.883  1.00  0.00    -0.352 N 
ATOM     28  C   UNL A   1      33.819  31.999  27.655  1.00  0.00     0.251 C 
ATOM     29  H   UNL A   1      32.178  31.827  26.524  1.00  0.00     0.163 HD
ATOM     30  O   UNL A   1      33.559  33.161  27.956  1.00  0.00    -0.269 OA
BRANCH  28  31
ATOM     31  C   UNL A   1      35.063  31.369  28.163  1.00  0.00     0.039 A 
ATOM     32  C   UNL A   1      36.234  32.134  28.197  1.00  0.00     0.014 A 
ATOM     33  C   UNL A   1      35.101  30.034  28.573  1.00  0.00     0.014 A 
ATOM     34  C   UNL A   1      37.412  31.591  28.722  1.00  0.00     0.010 A 
ATOM     35  C   UNL A   1      36.258  29.516  29.162  1.00  0.00     0.010 A 
ATOM     36  C   UNL A   1      37.425  30.292  29.252  1.00  0.00    -0.014 A 
BRANCH  36  37
ATOM     37  C   UNL A   1      38.638  29.738  29.919  1.00  0.00     0.031 A 
ATOM     38  C   UNL A   1      39.075  30.253  31.264  1.00  0.00     0.074 A 
ATOM     39  C   UNL A   1      39.390  28.818  29.280  1.00  0.00     0.049 A 
ATOM     40  N   UNL A   1      40.152  29.967  31.953  1.00  0.00    -0.248 NA
ATOM     41  C   UNL A   1      38.199  31.243  31.904  1.00  0.00     0.031 C 
ATOM     42  C   UNL A   1      39.102  28.263  27.956  1.00  0.00     0.029 A 
ATOM     43  N   UNL A   1      40.559  28.197  29.649  1.00  0.00    -0.354 N 
ATOM     44  C   UNL A   1      40.090  30.750  33.101  1.00  0.00     0.074 A 
ATOM     45  C   UNL A   1      38.897  31.565  32.983  1.00  0.00     0.031 C 
ATOM     46  C   UNL A   1      40.055  27.375  27.633  1.00  0.00     0.029 A 
ATOM     47  C   UNL A   1      41.050  27.329  28.700  1.00  0.00     0.049 A 
ATOM     48  H   UNL A   1      41.005  28.359  30.512  1.00  0.00     0.167 HD
ATOM     49  C   UNL A   1      40.934  30.774  34.164  1.00  0.00     0.034 A 
ATOM     50  C   UNL A   1      42.178  26.591  28.681  1.00  0.00     0.034 A 
ATOM     51  C   UNL A   1      42.114  29.949  34.276  1.00  0.00     0.049 A 
ATOM     52  C   UNL A   1      43.111  26.646  29.862  1.00  0.00     0.074 A 
ATOM     53  C   UNL A   1      43.007  29.859  35.332  1.00  0.00     0.029 A 
ATOM     54  N   UNL A   1      42.572  29.074  33.300  1.00  0.00    -0.354 N 
ATOM     55  N   UNL A   1      43.016  27.364  30.958  1.00  0.00    -0.248 NA
ATOM     56  C   UNL A   1      44.299  25.783  29.809  1.00  0.00     0.031 C 
ATOM     57  C   UNL A   1      44.035  28.980  34.968  1.00  0.00     0.029 A 
ATOM     58  C   UNL A   1      43.747  28.464  33.715  1.00  0.00     0.049 A 
ATOM     59  H   UNL A   1      42.126  28.911  32.436  1.00  0.00     0.167 HD
ATOM     60  C   UNL A   1      44.118  27.017  31.735  1.00  0.00     0.074 A 
ATOM     61  C   UNL A   1      44.854  26.017  30.990  1.00  0.00     0.031 C 
ATOM     62  C   UNL A   1      44.483  27.479  32.958  1.00  0.00     0.034 A 
BRANCH  49  63
ATOM     63  C   UNL A   1      40.619  31.747  35.276  1.00  0.00     0.023 A 
ATOM     64  C   UNL A   1      39.574  31.511  36.187  1.00  0.00     0.031 A 
ATOM     65  C   UNL A   1      41.349  32.940  35.412  1.00  0.00     0.131 A 
ATOM     66  C   UNL A   1      39.234  32.489  37.134  1.00  0.00     0.055 A 
ATOM     67  C   UNL A   1      41.060  33.872  36.413  1.00  0.00     0.041 A 
ATOM     68  F   UNL A   1      42.347  33.232  34.563  1.00  0.00    -0.206 F 
ATOM     69  C   UNL A   1      39.986  33.657  37.270  1.00  0.00     0.022 A 
BRANCH  66  70
ATOM     70  S   UNL A   1      37.699  32.279  38.078  1.00  0.00     0.124 S 
ATOM     71  O   UNL A   1      36.779  33.140  37.340  1.00  0.00    -0.237 OA
ATOM     72  O   UNL A   1      37.457  30.845  37.972  1.00  0.00    -0.237 OA
ATOM     73  O   UNL A   1      38.051  32.756  39.414  1.00  0.00    -0.744 OA
ENDBRANCH  66  70
ENDBRANCH  49  63
BRANCH  50  74
ATOM     74  C   UNL A   1      42.502  25.746  27.497  1.00  0.00     0.023 A 
ATOM     75  C   UNL A   1      42.091  24.406  27.429  1.00  0.00     0.031 A 
ATOM     76  C   UNL A   1      43.261  26.259  26.431  1.00  0.00     0.131 A 
ATOM     77  C   UNL A   1      42.477  23.611  26.338  1.00  0.00     0.055 A 
ATOM     78  C   UNL A   1      43.601  25.478  25.324  1.00  0.00     0.041 A 
ATOM     79  F   UNL A   1      43.674  27.537  26.443  1.00  0.00    -0.206 F 
ATOM     80  C   UNL A   1      43.218  24.141  25.280  1.00  0.00     0.022 A 
BRANCH  77  81
ATOM     81  S   UNL A   1      42.057  21.847  26.358  1.00  0.00     0.124 S 
ATOM     82  O   UNL A   1      42.401  21.474  27.725  1.00  0.00    -0.237 OA
ATOM     83  O   UNL A   1      40.632  21.872  26.038  1.00  0.00    -0.237 OA
ATOM     84  O   UNL A   1      42.915  21.282  25.320  1.00  0.00    -0.744 OA
ENDBRANCH  77  81
ENDBRANCH  50  74
BRANCH  62  85
ATOM     85  C   UNL A   1      45.716  26.870  33.580  1.00  0.00     0.023 A 
ATOM     86  C   UNL A   1      45.651  25.714  34.379  1.00  0.00     0.031 A 
ATOM     87  C   UNL A   1      46.974  27.468  33.382  1.00  0.00     0.131 A 
ATOM     88  C   UNL A   1      46.813  25.222  34.992  1.00  0.00     0.055 A 
ATOM     89  C   UNL A   1      48.135  26.941  33.950  1.00  0.00     0.041 A 
ATOM     90  F   UNL A   1      47.094  28.575  32.632  1.00  0.00    -0.206 F 
ATOM     91  C   UNL A   1      48.057  25.820  34.771  1.00  0.00     0.022 A 
BRANCH  88  92
ATOM     92  S   UNL A   1      46.666  23.838  36.155  1.00  0.00     0.124 S 
ATOM     93  O   UNL A   1      45.285  23.413  35.948  1.00  0.00    -0.237 OA
ATOM     94  O   UNL A   1      47.694  22.918  35.678  1.00  0.00    -0.237 OA
ATOM     95  O   UNL A   1      46.939  24.450  37.454  1.00  0.00    -0.744 OA
ENDBRANCH  88  92
ENDBRANCH  62  85
ENDBRANCH  36  37
ENDBRANCH  28  31
ENDBRANCH  26  27
ENDBRANCH  25  26
ENDBRANCH   1  25
TORSDOF 17
ENDMDL
MODEL 2
REMARK VINA RESULT:     -11.7      4.742      7.364
REMARK SMILES O=C(C[C@H]1CN(S(=O)(=O)c2ccc(F)c(F)c2)CCO1)NCCCCNC(=O)c1ccc(-c2c3nc(c(-c4cc(S(=O)(=O)[O-])ccc4F)c4ccc([nH]4)c(-c4cc(S(=O)(=O)[O-])ccc4F)c4nc(c(-c5cc(S(=O)(=O)[O-])ccc5F)c5ccc2[nH]5)C=C4)C=C3)cc1
REMARK SMILES IDX 23 1 22 2 21 3 1 4 2 5 3 7 4 8 5 9 20 10 6 11 19 12 18 13
REMARK SMILES IDX 7 14 8 15 9 16 10 17 11 18 17 19 12 20 15 21 13 22 16 23
REMARK SMILES IDX 14 24 24 25 25 26 26 27 27 28 28 30 29 31 30 32 91 33 31 34
REMARK SMILES IDX 90 35 32 36 33 37 34 38 84 39 35 40 89 41 83 42 85 43 36 44
REMARK SMILES IDX 88 45 82 46 81 47 37 49 69 50 49 51 68 52 50 53 53 54 67 55
REMARK SMILES IDX 86 56 51 57 52 58 66 60 87 61 54 62 38 63 39 64 47 65 40 66
REMARK SMILES IDX 46 67 48 68 45 69 41 70 42 71 43 72 44 73 70 74 71 75 79 76
REMARK SMILES IDX 72 77 78 78 80 79 77 80 73 81 74 82 75 83 76 84 55 85 56 86
REMARK SMILES IDX 64 87 57 88 63 89 65 90 62 91 58 92 59 93 60 94 61 95
REMARK H PARENT 21 6 26 29 85 48 53 59
REMARK Flexibility Score: inf
ROOT
ATOM      1  C   UNL A   1      35.739  23.423  24.011  1.00  0.00     0.023 C 
ENDROOT
BRANCH   1   2
ATOM      2  C   UNL A   1      34.363  23.625  23.375  1.00  0.00     0.116 C 
BRANCH   2   3
ATOM      3  N   UNL A   1      34.039  25.008  23.060  1.00  0.00    -0.356 N 
ATOM      4  O   UNL A   1      33.190  24.587  20.973  1.00  0.00    -0.275 OA
ATOM      5  C   UNL A   1      33.309  25.336  21.940  1.00  0.00     0.222 C 
ATOM      6  H   UNL A   1      34.347  25.724  23.661  1.00  0.00     0.163 HD
BRANCH   5   7
ATOM      7  C   UNL A   1      32.635  26.702  21.973  1.00  0.00     0.133 C 
BRANCH   7   8
ATOM      8  C   UNL A   1      31.092  26.728  22.101  1.00  0.00     0.142 C 
ATOM      9  C   UNL A   1      30.464  25.988  23.295  1.00  0.00     0.135 C 
ATOM     10  O   UNL A   1      30.535  28.052  22.021  1.00  0.00    -0.375 OA
ATOM     11  N   UNL A   1      30.957  26.657  24.517  1.00  0.00    -0.193 NA
ATOM     12  C   UNL A   1      30.596  28.803  23.239  1.00  0.00     0.177 C 
ATOM     13  C   UNL A   1      30.319  28.025  24.545  1.00  0.00     0.131 C 
BRANCH  11  14
ATOM     14  S   UNL A   1      30.879  25.859  26.011  1.00  0.00     0.243 S 
ATOM     15  O   UNL A   1      31.639  26.671  26.939  1.00  0.00    -0.207 OA
ATOM     16  O   UNL A   1      29.478  25.577  26.259  1.00  0.00    -0.207 OA
BRANCH  14  17
ATOM     17  C   UNL A   1      31.693  24.265  25.979  1.00  0.00     0.085 A 
ATOM     18  C   UNL A   1      31.214  23.130  25.319  1.00  0.00     0.025 A 
ATOM     19  C   UNL A   1      32.854  24.153  26.762  1.00  0.00     0.064 A 
ATOM     20  C   UNL A   1      31.820  21.882  25.509  1.00  0.00     0.044 A 
ATOM     21  C   UNL A   1      33.466  22.912  26.925  1.00  0.00     0.160 A 
ATOM     22  C   UNL A   1      32.937  21.779  26.323  1.00  0.00     0.158 A 
ATOM     23  F   UNL A   1      34.562  22.814  27.690  1.00  0.00    -0.204 F 
ATOM     24  F   UNL A   1      33.497  20.578  26.521  1.00  0.00    -0.204 F 
ENDBRANCH  14  17
ENDBRANCH  11  14
ENDBRANCH   7   8
ENDBRANCH   5   7
ENDBRANCH   2   3
ENDBRANCH   1   2
BRANCH   1  25
ATOM     25  C   UNL A   1      36.204  21.973  24.189  1.00  0.00     0.023 C 
BRANCH  25  26
ATOM     26  C   UNL A   1      36.623  21.574  25.601  1.00  0.00     0.116 C 
BRANCH  26  27
ATOM     27  N   UNL A   1      37.683  20.583  25.630  1.00  0.00    -0.352 N 
ATOM     28  C   UNL A   1      39.016  20.708  25.950  1.00  0.00     0.251 C 
ATOM     29  H   UNL A   1      37.403  19.672  25.379  1.00  0.00     0.163 HD
ATOM     30  O   UNL A   1      39.766  19.753  25.767  1.00  0.00    -0.269 OA
BRANCH  28  31
ATOM     31  C   UNL A   1      39.567  21.985  26.471  1.00  0.00     0.039 A 
ATOM     32  C   UNL A   1      40.581  21.933  27.433  1.00  0.00     0.014 A 
ATOM     33  C   UNL A   1      39.079  23.225  26.051  1.00  0.00     0.014 A 
ATOM     34  C   UNL A   1      41.163  23.115  27.904  1.00  0.00     0.010 A 
ATOM     35  C   UNL A   1      39.708  24.401  26.468  1.00  0.00     0.010 A 
ATOM     36  C   UNL A   1      40.764  24.360  27.392  1.00  0.00    -0.014 A 
BRANCH  36  37
ATOM     37  C   UNL A   1      41.451  25.620  27.797  1.00  0.00     0.031 A 
ATOM     38  C   UNL A   1      40.706  26.691  28.548  1.00  0.00     0.074 A 
ATOM     39  C   UNL A   1      42.730  25.832  27.425  1.00  0.00     0.049 A 
ATOM     40  N   UNL A   1      41.103  27.889  28.898  1.00  0.00    -0.248 NA
ATOM     41  C   UNL A   1      39.322  26.382  28.930  1.00  0.00     0.031 C 
ATOM     42  C   UNL A   1      43.556  24.895  26.662  1.00  0.00     0.029 A 
ATOM     43  N   UNL A   1      43.559  26.910  27.627  1.00  0.00    -0.354 N 
ATOM     44  C   UNL A   1      40.015  28.483  29.529  1.00  0.00     0.074 A 
ATOM     45  C   UNL A   1      38.925  27.530  29.459  1.00  0.00     0.031 C 
ATOM     46  C   UNL A   1      44.773  25.429  26.474  1.00  0.00     0.029 A 
ATOM     47  C   UNL A   1      44.805  26.765  27.060  1.00  0.00     0.049 A 
ATOM     48  H   UNL A   1      43.286  27.712  28.130  1.00  0.00     0.167 HD
ATOM     49  C   UNL A   1      39.935  29.698  30.130  1.00  0.00     0.034 A 
ATOM     50  C   UNL A   1      45.850  27.614  27.003  1.00  0.00     0.034 A 
ATOM     51  C   UNL A   1      41.032  30.635  30.203  1.00  0.00     0.049 A 
ATOM     52  C   UNL A   1      45.736  28.966  27.659  1.00  0.00     0.074 A 
ATOM     53  C   UNL A   1      41.072  31.869  30.832  1.00  0.00     0.029 A 
ATOM     54  N   UNL A   1      42.281  30.447  29.627  1.00  0.00    -0.354 N 
ATOM     55  N   UNL A   1      44.711  29.495  28.287  1.00  0.00    -0.248 NA
ATOM     56  C   UNL A   1      46.923  29.829  27.609  1.00  0.00     0.031 C 
ATOM     57  C   UNL A   1      42.320  32.452  30.582  1.00  0.00     0.029 A 
ATOM     58  C   UNL A   1      43.088  31.552  29.860  1.00  0.00     0.049 A 
ATOM     59  H   UNL A   1      42.555  29.645  29.125  1.00  0.00     0.167 HD
ATOM     60  C   UNL A   1      45.141  30.743  28.728  1.00  0.00     0.074 A 
ATOM     61  C   UNL A   1      46.520  30.881  28.309  1.00  0.00     0.031 C 
ATOM     62  C   UNL A   1      44.458  31.687  29.425  1.00  0.00     0.034 A 
BRANCH  49  63
ATOM     63  C   UNL A   1      38.604  30.087  30.729  1.00  0.00     0.023 A 
ATOM     64  C   UNL A   1      37.618  30.743  29.971  1.00  0.00     0.031 A 
ATOM     65  C   UNL A   1      38.326  29.831  32.083  1.00  0.00     0.131 A 
ATOM     66  C   UNL A   1      36.442  31.194  30.588  1.00  0.00     0.055 A 
ATOM     67  C   UNL A   1      37.116  30.207  32.672  1.00  0.00     0.041 A 
ATOM     68  F   UNL A   1      39.234  29.224  32.865  1.00  0.00    -0.206 F 
ATOM     69  C   UNL A   1      36.173  30.909  31.928  1.00  0.00     0.022 A 
BRANCH  66  70
ATOM     70  S   UNL A   1      35.344  32.294  29.654  1.00  0.00     0.124 S 
ATOM     71  O   UNL A   1      34.363  32.665  30.670  1.00  0.00    -0.237 OA
ATOM     72  O   UNL A   1      36.250  33.353  29.222  1.00  0.00    -0.237 OA
ATOM     73  O   UNL A   1      34.830  31.439  28.585  1.00  0.00    -0.744 OA
ENDBRANCH  66  70
ENDBRANCH  49  63
BRANCH  50  74
ATOM     74  C   UNL A   1      47.096  27.224  26.284  1.00  0.00     0.023 A 
ATOM     75  C   UNL A   1      48.125  26.531  26.940  1.00  0.00     0.031 A 
ATOM     76  C   UNL A   1      47.290  27.572  24.935  1.00  0.00     0.131 A 
ATOM     77  C   UNL A   1      49.319  26.245  26.260  1.00  0.00     0.055 A 
ATOM     78  C   UNL A   1      48.460  27.242  24.249  1.00  0.00     0.041 A 
ATOM     79  F   UNL A   1      46.333  28.229  24.258  1.00  0.00    -0.206 F 
ATOM     80  C   UNL A   1      49.488  26.584  24.916  1.00  0.00     0.022 A 
BRANCH  77  81
ATOM     81  S   UNL A   1      50.683  25.485  27.183  1.00  0.00     0.124 S 
ATOM     82  O   UNL A   1      50.954  26.495  28.200  1.00  0.00    -0.237 OA
ATOM     83  O   UNL A   1      50.074  24.245  27.655  1.00  0.00    -0.237 OA
ATOM     84  O   UNL A   1      51.725  25.318  26.173  1.00  0.00    -0.744 OA
ENDBRANCH  77  81
ENDBRANCH  50  74
BRANCH  62  85
ATOM     85  C   UNL A   1      45.214  32.935  29.811  1.00  0.00     0.023 A 
ATOM     86  C   UNL A   1      45.924  33.028  31.021  1.00  0.00     0.031 A 
ATOM     87  C   UNL A   1      45.209  34.054  28.959  1.00  0.00     0.131 A 
ATOM     88  C   UNL A   1      46.557  34.231  31.370  1.00  0.00     0.055 A 
ATOM     89  C   UNL A   1      45.887  35.230  29.286  1.00  0.00     0.041 A 
ATOM     90  F   UNL A   1      44.545  34.023  27.792  1.00  0.00    -0.206 F 
ATOM     91  C   UNL A   1      46.555  35.327  30.504  1.00  0.00     0.022 A 
BRANCH  88  92
ATOM     92  S   UNL A   1      47.312  34.374  33.013  1.00  0.00     0.124 S 
ATOM     93  O   UNL A   1      46.431  33.541  33.826  1.00  0.00    -0.237 OA
ATOM     94  O   UNL A   1      48.655  33.849  32.787  1.00  0.00    -0.237 OA
ATOM     95  O   UNL A   1      47.248  35.807  33.297  1.00  0.00    -0.744 OA
ENDBRANCH  88  92
ENDBRANCH  62  85
ENDBRANCH  36  37
ENDBRANCH  28  31
ENDBRANCH  26  27
ENDBRANCH  25  26
ENDBRANCH   1  25
TORSDOF 17
ENDMDL
MODEL 3
REMARK VINA RESULT:     -11.6      3.133      4.569
REMARK SMILES O=C(C[C@H]1CN(S(=O)(=O)c2ccc(F)c(F)c2)CCO1)NCCCCNC(=O)c1ccc(-c2c3nc(c(-c4cc(S(=O)(=O)[O-])ccc4F)c4ccc([nH]4)c(-c4cc(S(=O)(=O)[O-])ccc4F)c4nc(c(-c5cc(S(=O)(=O)[O-])ccc5F)c5ccc2[nH]5)C=C4)C=C3)cc1
REMARK SMILES IDX 23 1 22 2 21 3 1 4 2 5 3 7 4 8 5 9 20 10 6 11 19 12 18 13
REMARK SMILES IDX 7 14 8 15 9 16 10 17 11 18 17 19 12 20 15 21 13 22 16 23
REMARK SMILES IDX 14 24 24 25 25 26 26 27 27 28 28 30 29 31 30 32 91 33 31 34
REMARK SMILES IDX 90 35 32 36 33 37 34 38 84 39 35 40 89 41 83 42 85 43 36 44
REMARK SMILES IDX 88 45 82 46 81 47 37 49 69 50 49 51 68 52 50 53 53 54 67 55
REMARK SMILES IDX 86 56 51 57 52 58 66 60 87 61 54 62 38 63 39 64 47 65 40 66
REMARK SMILES IDX 46 67 48 68 45 69 41 70 42 71 43 72 44 73 70 74 71 75 79 76
REMARK SMILES IDX 72 77 78 78 80 79 77 80 73 81 74 82 75 83 76 84 55 85 56 86
REMARK SMILES IDX 64 87 57 88 63 89 65 90 62 91 58 92 59 93 60 94 61 95
REMARK H PARENT 21 6 26 29 85 48 53 59
REMARK Flexibility Score: inf
ROOT
ATOM      1  C   UNL A   1      34.461  32.350  28.530  1.00  0.00     0.023 C 
ENDROOT
BRANCH   1   2
ATOM      2  C   UNL A   1      34.519  31.128  27.613  1.00  0.00     0.116 C 
BRANCH   2   3
ATOM      3  N   UNL A   1      33.516  30.112  27.893  1.00  0.00    -0.356 N 
ATOM      4  O   UNL A   1      31.916  30.959  26.487  1.00  0.00    -0.275 OA
ATOM      5  C   UNL A   1      32.356  30.027  27.157  1.00  0.00     0.222 C 
ATOM      6  H   UNL A   1      33.670  29.472  28.626  1.00  0.00     0.163 HD
BRANCH   5   7
ATOM      7  C   UNL A   1      31.642  28.683  27.210  1.00  0.00     0.133 C 
BRANCH   7   8
ATOM      8  C   UNL A   1      32.264  27.517  26.403  1.00  0.00     0.142 C 
ATOM      9  C   UNL A   1      31.425  26.913  25.263  1.00  0.00     0.135 C 
ATOM     10  O   UNL A   1      33.587  27.802  25.914  1.00  0.00    -0.375 OA
ATOM     11  N   UNL A   1      31.215  27.989  24.272  1.00  0.00    -0.193 NA
ATOM     12  C   UNL A   1      33.627  28.584  24.715  1.00  0.00     0.177 C 
ATOM     13  C   UNL A   1      32.560  28.264  23.645  1.00  0.00     0.131 C 
BRANCH  11  14
ATOM     14  S   UNL A   1      29.965  27.862  23.133  1.00  0.00     0.243 S 
ATOM     15  O   UNL A   1      30.591  27.442  21.897  1.00  0.00    -0.207 OA
ATOM     16  O   UNL A   1      28.928  27.051  23.744  1.00  0.00    -0.207 OA
BRANCH  14  17
ATOM     17  C   UNL A   1      29.198  29.440  22.780  1.00  0.00     0.085 A 
ATOM     18  C   UNL A   1      28.374  29.707  21.683  1.00  0.00     0.025 A 
ATOM     19  C   UNL A   1      29.541  30.496  23.642  1.00  0.00     0.064 A 
ATOM     20  C   UNL A   1      27.977  31.016  21.388  1.00  0.00     0.044 A 
ATOM     21  C   UNL A   1      29.120  31.791  23.355  1.00  0.00     0.160 A 
ATOM     22  C   UNL A   1      28.364  32.055  22.220  1.00  0.00     0.158 A 
ATOM     23  F   UNL A   1      29.470  32.794  24.173  1.00  0.00    -0.204 F 
ATOM     24  F   UNL A   1      28.002  33.309  21.919  1.00  0.00    -0.204 F 
ENDBRANCH  14  17
ENDBRANCH  11  14
ENDBRANCH   7   8
ENDBRANCH   5   7
ENDBRANCH   2   3
ENDBRANCH   1   2
BRANCH   1  25
ATOM     25  C   UNL A   1      33.626  33.538  28.034  1.00  0.00     0.023 C 
BRANCH  25  26
ATOM     26  C   UNL A   1      34.007  34.904  28.599  1.00  0.00     0.116 C 
BRANCH  26  27
ATOM     27  N   UNL A   1      33.180  35.316  29.718  1.00  0.00    -0.352 N 
ATOM     28  C   UNL A   1      33.313  35.070  31.066  1.00  0.00     0.251 C 
ATOM     29  H   UNL A   1      32.396  35.860  29.473  1.00  0.00     0.163 HD
ATOM     30  O   UNL A   1      32.407  35.404  31.825  1.00  0.00    -0.269 OA
BRANCH  28  31
ATOM     31  C   UNL A   1      34.507  34.375  31.608  1.00  0.00     0.039 A 
ATOM     32  C   UNL A   1      34.331  33.144  32.248  1.00  0.00     0.014 A 
ATOM     33  C   UNL A   1      35.787  34.931  31.525  1.00  0.00     0.014 A 
ATOM     34  C   UNL A   1      35.441  32.434  32.721  1.00  0.00     0.010 A 
ATOM     35  C   UNL A   1      36.899  34.189  31.933  1.00  0.00     0.010 A 
ATOM     36  C   UNL A   1      36.740  32.928  32.527  1.00  0.00    -0.014 A 
BRANCH  36  37
ATOM     37  C   UNL A   1      37.938  32.132  32.921  1.00  0.00     0.031 A 
ATOM     38  C   UNL A   1      38.669  32.433  34.202  1.00  0.00     0.074 A 
ATOM     39  C   UNL A   1      38.412  31.183  32.088  1.00  0.00     0.049 A 
ATOM     40  N   UNL A   1      39.782  31.918  34.663  1.00  0.00    -0.248 NA
ATOM     41  C   UNL A   1      38.085  33.470  35.063  1.00  0.00     0.031 C 
ATOM     42  C   UNL A   1      37.823  30.818  30.799  1.00  0.00     0.029 A 
ATOM     43  N   UNL A   1      39.507  30.359  32.194  1.00  0.00    -0.354 N 
ATOM     44  C   UNL A   1      40.041  32.577  35.861  1.00  0.00     0.074 A 
ATOM     45  C   UNL A   1      38.995  33.569  36.020  1.00  0.00     0.031 C 
ATOM     46  C   UNL A   1      38.550  29.836  30.242  1.00  0.00     0.029 A 
ATOM     47  C   UNL A   1      39.685  29.531  31.108  1.00  0.00     0.049 A 
ATOM     48  H   UNL A   1      40.109  30.361  32.973  1.00  0.00     0.167 HD
ATOM     49  C   UNL A   1      41.040  32.363  36.754  1.00  0.00     0.034 A 
ATOM     50  C   UNL A   1      40.656  28.639  30.831  1.00  0.00     0.034 A 
ATOM     51  C   UNL A   1      42.069  31.364  36.589  1.00  0.00     0.049 A 
ATOM     52  C   UNL A   1      41.768  28.430  31.826  1.00  0.00     0.074 A 
ATOM     53  C   UNL A   1      43.097  31.032  37.458  1.00  0.00     0.029 A 
ATOM     54  N   UNL A   1      42.209  30.538  35.482  1.00  0.00    -0.354 N 
ATOM     55  N   UNL A   1      41.974  29.035  32.974  1.00  0.00    -0.248 NA
ATOM     56  C   UNL A   1      42.771  27.409  31.495  1.00  0.00     0.031 C 
ATOM     57  C   UNL A   1      43.891  30.052  36.849  1.00  0.00     0.029 A 
ATOM     58  C   UNL A   1      43.319  29.719  35.632  1.00  0.00     0.049 A 
ATOM     59  H   UNL A   1      41.607  30.534  34.702  1.00  0.00     0.167 HD
ATOM     60  C   UNL A   1      43.116  28.448  33.512  1.00  0.00     0.074 A 
ATOM     61  C   UNL A   1      43.544  27.433  32.572  1.00  0.00     0.031 C 
ATOM     62  C   UNL A   1      43.748  28.719  34.682  1.00  0.00     0.034 A 
BRANCH  49  63
ATOM     63  C   UNL A   1      41.077  33.251  37.976  1.00  0.00     0.023 A 
ATOM     64  C   UNL A   1      40.327  32.950  39.128  1.00  0.00     0.031 A 
ATOM     65  C   UNL A   1      41.844  34.428  37.984  1.00  0.00     0.131 A 
ATOM     66  C   UNL A   1      40.294  33.855  40.199  1.00  0.00     0.055 A 
ATOM     67  C   UNL A   1      41.874  35.282  39.089  1.00  0.00     0.041 A 
ATOM     68  F   UNL A   1      42.568  34.780  36.908  1.00  0.00    -0.206 F 
ATOM     69  C   UNL A   1      41.082  35.007  40.198  1.00  0.00     0.022 A 
BRANCH  66  70
ATOM     70  S   UNL A   1      39.085  33.579  41.523  1.00  0.00     0.124 S 
ATOM     71  O   UNL A   1      38.137  34.665  41.288  1.00  0.00    -0.237 OA
ATOM     72  O   UNL A   1      38.602  32.234  41.235  1.00  0.00    -0.237 OA
ATOM     73  O   UNL A   1      39.879  33.709  42.744  1.00  0.00    -0.744 OA
ENDBRANCH  66  70
ENDBRANCH  49  63
BRANCH  50  74
ATOM     74  C   UNL A   1      40.637  27.883  29.546  1.00  0.00     0.023 A 
ATOM     75  C   UNL A   1      41.545  28.179  28.517  1.00  0.00     0.031 A 
ATOM     76  C   UNL A   1      39.684  26.875  29.316  1.00  0.00     0.131 A 
ATOM     77  C   UNL A   1      41.454  27.505  27.289  1.00  0.00     0.055 A 
ATOM     78  C   UNL A   1      39.628  26.174  28.110  1.00  0.00     0.041 A 
ATOM     79  F   UNL A   1      38.797  26.548  30.270  1.00  0.00    -0.206 F 
ATOM     80  C   UNL A   1      40.511  26.496  27.084  1.00  0.00     0.022 A 
BRANCH  77  81
ATOM     81  S   UNL A   1      42.543  28.020  25.934  1.00  0.00     0.124 S 
ATOM     82  O   UNL A   1      42.096  27.155  24.848  1.00  0.00    -0.237 OA
ATOM     83  O   UNL A   1      42.215  29.436  25.803  1.00  0.00    -0.237 OA
ATOM     84  O   UNL A   1      43.881  27.738  26.447  1.00  0.00    -0.744 OA
ENDBRANCH  77  81
ENDBRANCH  50  74
BRANCH  62  85
ATOM     85  C   UNL A   1      44.949  27.872  35.024  1.00  0.00     0.023 A 
ATOM     86  C   UNL A   1      44.827  26.670  35.745  1.00  0.00     0.031 A 
ATOM     87  C   UNL A   1      46.236  28.283  34.636  1.00  0.00     0.131 A 
ATOM     88  C   UNL A   1      45.978  25.949  36.100  1.00  0.00     0.055 A 
ATOM     89  C   UNL A   1      47.372  27.533  34.944  1.00  0.00     0.041 A 
ATOM     90  F   UNL A   1      46.411  29.423  33.948  1.00  0.00    -0.206 F 
ATOM     91  C   UNL A   1      47.247  26.365  35.691  1.00  0.00     0.022 A 
BRANCH  88  92
ATOM     92  S   UNL A   1      45.801  24.501  37.179  1.00  0.00     0.124 S 
ATOM     93  O   UNL A   1      47.192  24.172  37.475  1.00  0.00    -0.237 OA
ATOM     94  O   UNL A   1      45.022  25.034  38.292  1.00  0.00    -0.237 OA
ATOM     95  O   UNL A   1      45.099  23.531  36.340  1.00  0.00    -0.744 OA
ENDBRANCH  88  92
ENDBRANCH  62  85
ENDBRANCH  36  37
ENDBRANCH  28  31
ENDBRANCH  26  27
ENDBRANCH  25  26
ENDBRANCH   1  25
TORSDOF 17
ENDMDL
