MODEL 1
REMARK VINA RESULT:     -12.5      0.000      0.000
REMARK SMILES Cc1nn(C(C)C)cc1-c1cnccc1C(=O)NCCCCNC(=O)c1ccc(-c2c3nc(c(-c4cc(S(=O)(=O)[O-])ccc4F)c4ccc([nH]4)c(-c4cc(S(=O)(=O)[O-])ccc4F)c4nc(c(-c5cc(S(=O)(=O)[O-])ccc5F)c5ccc2[nH]5)C=C4)C=C3)cc1
REMARK SMILES IDX 21 1 20 2 19 3 18 4 16 5 17 6 15 8 10 9 11 10 12 11 14 12
REMARK SMILES IDX 13 13 9 14 1 15 2 16 3 17 4 18 8 19 5 20 6 21 7 22 22 23
REMARK SMILES IDX 23 24 24 25 25 27 26 28 27 29 88 30 28 31 87 32 29 33 30 34
REMARK SMILES IDX 31 35 81 36 32 37 86 38 80 39 82 40 33 41 85 42 79 43 78 44
REMARK SMILES IDX 34 46 66 47 46 48 65 49 47 50 50 51 64 52 83 53 48 54 49 55
REMARK SMILES IDX 63 57 84 58 51 59 35 60 36 61 44 62 37 63 43 64 45 65 42 66
REMARK SMILES IDX 38 67 39 68 40 69 41 70 67 71 68 72 76 73 69 74 75 75 77 76
REMARK SMILES IDX 74 77 70 78 71 79 72 80 73 81 52 82 53 83 61 84 54 85 60 86
REMARK SMILES IDX 62 87 59 88 55 89 56 90 57 91 58 92
REMARK H PARENT 18 7 23 26 82 45 50 56
REMARK Flexibility Score: inf
ROOT
ATOM      1  C   UNL A   1      33.421  30.012  26.822  1.00  0.00     0.023 C 
ENDROOT
BRANCH   1   2
ATOM      2  C   UNL A   1      33.370  28.611  27.456  1.00  0.00     0.023 C 
BRANCH   2   3
ATOM      3  C   UNL A   1      32.863  27.468  26.580  1.00  0.00     0.116 C 
BRANCH   3   4
ATOM      4  N   UNL A   1      31.564  26.925  26.874  1.00  0.00    -0.352 N 
ATOM      5  C   UNL A   1      30.872  25.957  26.176  1.00  0.00     0.252 C 
ATOM      6  O   UNL A   1      29.805  25.563  26.652  1.00  0.00    -0.269 OA
ATOM      7  H   UNL A   1      31.113  27.289  27.671  1.00  0.00     0.163 HD
BRANCH   5   8
ATOM      8  C   UNL A   1      31.251  25.470  24.811  1.00  0.00     0.050 A 
ATOM      9  C   UNL A   1      31.119  26.119  23.573  1.00  0.00     0.016 A 
ATOM     10  C   UNL A   1      31.548  25.424  22.436  1.00  0.00     0.120 A 
ATOM     11  N   UNL A   1      32.085  24.183  22.433  1.00  0.00    -0.264 NA
ATOM     12  C   UNL A   1      31.856  24.197  24.825  1.00  0.00     0.034 A 
ATOM     13  C   UNL A   1      32.247  23.606  23.635  1.00  0.00     0.112 A 
BRANCH   9  14
ATOM     14  C   UNL A   1      30.577  27.437  23.334  1.00  0.00     0.025 A 
ATOM     15  C   UNL A   1      32.699  28.980  23.197  1.00  0.00     0.069 C 
ATOM     16  C   UNL A   1      31.243  28.690  23.209  1.00  0.00     0.067 A 
ATOM     17  N   UNL A   1      30.379  29.683  22.984  1.00  0.00    -0.177 NA
ATOM     18  N   UNL A   1      29.168  29.094  23.046  1.00  0.00    -0.269 N 
ATOM     19  C   UNL A   1      29.239  27.739  23.252  1.00  0.00     0.118 A 
BRANCH  18  20
ATOM     20  C   UNL A   1      27.954  29.851  22.758  1.00  0.00     0.101 C 
ATOM     21  C   UNL A   1      27.765  31.097  23.628  1.00  0.00     0.033 C 
ATOM     22  C   UNL A   1      27.977  30.287  21.309  1.00  0.00     0.033 C 
ENDBRANCH  18  20
ENDBRANCH   9  14
ENDBRANCH   5   8
ENDBRANCH   3   4
ENDBRANCH   2   3
ENDBRANCH   1   2
BRANCH   1  23
ATOM     23  C   UNL A   1      34.551  30.902  27.349  1.00  0.00     0.116 C 
BRANCH  23  24
ATOM     24  N   UNL A   1      34.295  31.428  28.689  1.00  0.00    -0.352 N 
ATOM     25  C   UNL A   1      35.150  31.677  29.743  1.00  0.00     0.251 C 
ATOM     26  H   UNL A   1      33.351  31.641  28.870  1.00  0.00     0.163 HD
ATOM     27  O   UNL A   1      34.781  32.424  30.651  1.00  0.00    -0.269 OA
BRANCH  25  28
ATOM     28  C   UNL A   1      36.501  31.077  29.782  1.00  0.00     0.039 A 
ATOM     29  C   UNL A   1      37.648  31.886  29.794  1.00  0.00     0.014 A 
ATOM     30  C   UNL A   1      36.631  29.691  29.767  1.00  0.00     0.014 A 
ATOM     31  C   UNL A   1      38.917  31.298  29.719  1.00  0.00     0.010 A 
ATOM     32  C   UNL A   1      37.868  29.121  29.539  1.00  0.00     0.010 A 
ATOM     33  C   UNL A   1      39.022  29.912  29.564  1.00  0.00    -0.014 A 
BRANCH  33  34
ATOM     34  C   UNL A   1      40.307  29.213  29.683  1.00  0.00     0.031 A 
ATOM     35  C   UNL A   1      40.704  28.913  31.097  1.00  0.00     0.074 A 
ATOM     36  C   UNL A   1      40.955  28.608  28.664  1.00  0.00     0.049 A 
ATOM     37  N   UNL A   1      41.793  29.249  31.711  1.00  0.00    -0.248 NA
ATOM     38  C   UNL A   1      39.728  28.236  31.973  1.00  0.00     0.031 C 
ATOM     39  C   UNL A   1      40.545  28.509  27.266  1.00  0.00     0.029 A 
ATOM     40  N   UNL A   1      42.071  27.817  28.705  1.00  0.00    -0.354 N 
ATOM     41  C   UNL A   1      41.711  28.662  32.973  1.00  0.00     0.074 A 
ATOM     42  C   UNL A   1      40.353  28.244  33.144  1.00  0.00     0.031 C 
ATOM     43  C   UNL A   1      41.248  27.535  26.650  1.00  0.00     0.029 A 
ATOM     44  C   UNL A   1      42.245  27.023  27.573  1.00  0.00     0.049 A 
ATOM     45  H   UNL A   1      42.696  27.810  29.466  1.00  0.00     0.167 HD
ATOM     46  C   UNL A   1      42.809  28.332  33.700  1.00  0.00     0.034 A 
ATOM     47  C   UNL A   1      43.101  25.981  27.408  1.00  0.00     0.034 A 
ATOM     48  C   UNL A   1      43.969  29.072  33.272  1.00  0.00     0.049 A 
ATOM     49  C   UNL A   1      44.168  26.119  28.423  1.00  0.00     0.074 A 
ATOM     50  C   UNL A   1      44.242  30.417  33.112  1.00  0.00     0.029 A 
ATOM     51  N   UNL A   1      44.955  28.415  32.573  1.00  0.00    -0.354 N 
ATOM     52  N   UNL A   1      45.039  27.089  28.429  1.00  0.00    -0.248 NA
ATOM     53  C   UNL A   1      44.018  25.415  29.688  1.00  0.00     0.031 C 
ATOM     54  C   UNL A   1      45.032  30.493  31.928  1.00  0.00     0.029 A 
ATOM     55  C   UNL A   1      45.240  29.189  31.476  1.00  0.00     0.049 A 
ATOM     56  H   UNL A   1      45.374  27.558  32.814  1.00  0.00     0.167 HD
ATOM     57  C   UNL A   1      45.223  27.396  29.766  1.00  0.00     0.074 A 
ATOM     58  C   UNL A   1      44.666  26.260  30.494  1.00  0.00     0.031 C 
ATOM     59  C   UNL A   1      45.553  28.661  30.164  1.00  0.00     0.034 A 
BRANCH  46  60
ATOM     60  C   UNL A   1      42.890  27.106  34.585  1.00  0.00     0.023 A 
ATOM     61  C   UNL A   1      43.644  26.018  34.114  1.00  0.00     0.031 A 
ATOM     62  C   UNL A   1      42.071  26.839  35.711  1.00  0.00     0.131 A 
ATOM     63  C   UNL A   1      43.509  24.742  34.688  1.00  0.00     0.055 A 
ATOM     64  C   UNL A   1      42.008  25.590  36.333  1.00  0.00     0.041 A 
ATOM     65  F   UNL A   1      41.210  27.733  36.214  1.00  0.00    -0.206 F 
ATOM     66  C   UNL A   1      42.705  24.522  35.803  1.00  0.00     0.022 A 
BRANCH  63  67
ATOM     67  S   UNL A   1      44.242  23.334  33.818  1.00  0.00     0.124 S 
ATOM     68  O   UNL A   1      43.384  23.236  32.642  1.00  0.00    -0.237 OA
ATOM     69  O   UNL A   1      45.604  23.804  33.587  1.00  0.00    -0.237 OA
ATOM     70  O   UNL A   1      44.110  22.241  34.777  1.00  0.00    -0.744 OA
ENDBRANCH  63  67
ENDBRANCH  46  60
BRANCH  47  71
ATOM     71  C   UNL A   1      42.893  24.749  26.600  1.00  0.00     0.023 A 
ATOM     72  C   UNL A   1      43.819  24.310  25.632  1.00  0.00     0.031 A 
ATOM     73  C   UNL A   1      41.861  23.847  26.947  1.00  0.00     0.131 A 
ATOM     74  C   UNL A   1      43.689  23.025  25.054  1.00  0.00     0.055 A 
ATOM     75  C   UNL A   1      41.730  22.585  26.364  1.00  0.00     0.041 A 
ATOM     76  F   UNL A   1      40.993  24.130  27.930  1.00  0.00    -0.206 F 
ATOM     77  C   UNL A   1      42.651  22.164  25.419  1.00  0.00     0.022 A 
BRANCH  74  78
ATOM     78  S   UNL A   1      44.946  22.411  23.888  1.00  0.00     0.124 S 
ATOM     79  O   UNL A   1      45.380  21.172  24.522  1.00  0.00    -0.237 OA
ATOM     80  O   UNL A   1      44.185  22.274  22.650  1.00  0.00    -0.237 OA
ATOM     81  O   UNL A   1      45.948  23.478  23.872  1.00  0.00    -0.744 OA
ENDBRANCH  74  78
ENDBRANCH  47  71
BRANCH  59  82
ATOM     82  C   UNL A   1      46.026  29.653  29.119  1.00  0.00     0.023 A 
ATOM     83  C   UNL A   1      45.176  30.511  28.387  1.00  0.00     0.031 A 
ATOM     84  C   UNL A   1      47.413  29.821  28.962  1.00  0.00     0.131 A 
ATOM     85  C   UNL A   1      45.724  31.481  27.525  1.00  0.00     0.055 A 
ATOM     86  C   UNL A   1      47.953  30.796  28.125  1.00  0.00     0.041 A 
ATOM     87  F   UNL A   1      48.275  29.059  29.657  1.00  0.00    -0.206 F 
ATOM     88  C   UNL A   1      47.109  31.627  27.397  1.00  0.00     0.022 A 
BRANCH  85  89
ATOM     89  S   UNL A   1      44.636  32.571  26.551  1.00  0.00     0.124 S 
ATOM     90  O   UNL A   1      43.938  33.353  27.565  1.00  0.00    -0.237 OA
ATOM     91  O   UNL A   1      45.585  33.307  25.720  1.00  0.00    -0.237 OA
ATOM     92  O   UNL A   1      43.786  31.634  25.814  1.00  0.00    -0.744 OA
ENDBRANCH  85  89
ENDBRANCH  59  82
ENDBRANCH  33  34
ENDBRANCH  25  28
ENDBRANCH  23  24
ENDBRANCH   1  23
TORSDOF 16
ENDMDL
MODEL 2
REMARK VINA RESULT:     -12.4      1.215      2.960
REMARK SMILES Cc1nn(C(C)C)cc1-c1cnccc1C(=O)NCCCCNC(=O)c1ccc(-c2c3nc(c(-c4cc(S(=O)(=O)[O-])ccc4F)c4ccc([nH]4)c(-c4cc(S(=O)(=O)[O-])ccc4F)c4nc(c(-c5cc(S(=O)(=O)[O-])ccc5F)c5ccc2[nH]5)C=C4)C=C3)cc1
REMARK SMILES IDX 21 1 20 2 19 3 18 4 16 5 17 6 15 8 10 9 11 10 12 11 14 12
REMARK SMILES IDX 13 13 9 14 1 15 2 16 3 17 4 18 8 19 5 20 6 21 7 22 22 23
REMARK SMILES IDX 23 24 24 25 25 27 26 28 27 29 88 30 28 31 87 32 29 33 30 34
REMARK SMILES IDX 31 35 81 36 32 37 86 38 80 39 82 40 33 41 85 42 79 43 78 44
REMARK SMILES IDX 34 46 66 47 46 48 65 49 47 50 50 51 64 52 83 53 48 54 49 55
REMARK SMILES IDX 63 57 84 58 51 59 35 60 36 61 44 62 37 63 43 64 45 65 42 66
REMARK SMILES IDX 38 67 39 68 40 69 41 70 67 71 68 72 76 73 69 74 75 75 77 76
REMARK SMILES IDX 74 77 70 78 71 79 72 80 73 81 52 82 53 83 61 84 54 85 60 86
REMARK SMILES IDX 62 87 59 88 55 89 56 90 57 91 58 92
REMARK H PARENT 18 7 23 26 82 45 50 56
REMARK Flexibility Score: inf
ROOT
ATOM      1  C   UNL A   1      33.094  30.377  26.550  1.00  0.00     0.023 C 
ENDROOT
BRANCH   1   2
ATOM      2  C   UNL A   1      32.098  29.361  27.135  1.00  0.00     0.023 C 
BRANCH   2   3
ATOM      3  C   UNL A   1      32.443  27.882  26.986  1.00  0.00     0.116 C 
BRANCH   3   4
ATOM      4  N   UNL A   1      31.372  26.929  27.109  1.00  0.00    -0.352 N 
ATOM      5  C   UNL A   1      30.773  26.193  26.107  1.00  0.00     0.252 C 
ATOM      6  O   UNL A   1      29.930  25.357  26.441  1.00  0.00    -0.269 OA
ATOM      7  H   UNL A   1      31.025  26.784  28.020  1.00  0.00     0.163 HD
BRANCH   5   8
ATOM      8  C   UNL A   1      30.964  26.449  24.644  1.00  0.00     0.050 A 
ATOM      9  C   UNL A   1      31.905  25.890  23.765  1.00  0.00     0.016 A 
ATOM     10  C   UNL A   1      31.872  26.318  22.433  1.00  0.00     0.120 A 
ATOM     11  N   UNL A   1      31.003  27.220  21.923  1.00  0.00    -0.264 NA
ATOM     12  C   UNL A   1      30.022  27.352  24.111  1.00  0.00     0.034 A 
ATOM     13  C   UNL A   1      30.081  27.700  22.772  1.00  0.00     0.112 A 
BRANCH   9  14
ATOM     14  C   UNL A   1      32.923  24.915  24.084  1.00  0.00     0.025 A 
ATOM     15  C   UNL A   1      31.567  22.720  24.577  1.00  0.00     0.069 C 
ATOM     16  C   UNL A   1      32.792  23.552  24.475  1.00  0.00     0.067 A 
ATOM     17  N   UNL A   1      33.984  22.984  24.677  1.00  0.00    -0.177 NA
ATOM     18  N   UNL A   1      34.867  23.987  24.499  1.00  0.00    -0.269 N 
ATOM     19  C   UNL A   1      34.273  25.169  24.137  1.00  0.00     0.118 A 
BRANCH  18  20
ATOM     20  C   UNL A   1      36.304  23.733  24.548  1.00  0.00     0.101 C 
ATOM     21  C   UNL A   1      36.874  23.600  25.964  1.00  0.00     0.033 C 
ATOM     22  C   UNL A   1      36.605  22.455  23.796  1.00  0.00     0.033 C 
ENDBRANCH  18  20
ENDBRANCH   9  14
ENDBRANCH   5   8
ENDBRANCH   3   4
ENDBRANCH   2   3
ENDBRANCH   1   2
BRANCH   1  23
ATOM     23  C   UNL A   1      34.392  30.520  27.351  1.00  0.00     0.116 C 
BRANCH  23  24
ATOM     24  N   UNL A   1      34.221  31.256  28.603  1.00  0.00    -0.352 N 
ATOM     25  C   UNL A   1      35.136  31.639  29.561  1.00  0.00     0.251 C 
ATOM     26  H   UNL A   1      33.293  31.523  28.795  1.00  0.00     0.163 HD
ATOM     27  O   UNL A   1      34.835  32.529  30.358  1.00  0.00    -0.269 OA
BRANCH  25  28
ATOM     28  C   UNL A   1      36.474  31.010  29.627  1.00  0.00     0.039 A 
ATOM     29  C   UNL A   1      37.639  31.790  29.570  1.00  0.00     0.014 A 
ATOM     30  C   UNL A   1      36.571  29.624  29.707  1.00  0.00     0.014 A 
ATOM     31  C   UNL A   1      38.893  31.167  29.522  1.00  0.00     0.010 A 
ATOM     32  C   UNL A   1      37.791  29.009  29.506  1.00  0.00     0.010 A 
ATOM     33  C   UNL A   1      38.964  29.772  29.463  1.00  0.00    -0.014 A 
BRANCH  33  34
ATOM     34  C   UNL A   1      40.233  29.052  29.616  1.00  0.00     0.031 A 
ATOM     35  C   UNL A   1      40.653  28.861  31.042  1.00  0.00     0.074 A 
ATOM     36  C   UNL A   1      40.845  28.347  28.640  1.00  0.00     0.049 A 
ATOM     37  N   UNL A   1      41.762  29.219  31.605  1.00  0.00    -0.248 NA
ATOM     38  C   UNL A   1      39.680  28.286  31.991  1.00  0.00     0.031 C 
ATOM     39  C   UNL A   1      40.402  28.142  27.263  1.00  0.00     0.029 A 
ATOM     40  N   UNL A   1      41.942  27.533  28.726  1.00  0.00    -0.354 N 
ATOM     41  C   UNL A   1      41.692  28.743  32.913  1.00  0.00     0.074 A 
ATOM     42  C   UNL A   1      40.329  28.377  33.145  1.00  0.00     0.031 C 
ATOM     43  C   UNL A   1      41.068  27.101  26.719  1.00  0.00     0.029 A 
ATOM     44  C   UNL A   1      42.072  26.642  27.662  1.00  0.00     0.049 A 
ATOM     45  H   UNL A   1      42.583  27.573  29.473  1.00  0.00     0.167 HD
ATOM     46  C   UNL A   1      42.798  28.446  33.645  1.00  0.00     0.034 A 
ATOM     47  C   UNL A   1      42.898  25.568  27.569  1.00  0.00     0.034 A 
ATOM     48  C   UNL A   1      43.966  29.117  33.133  1.00  0.00     0.049 A 
ATOM     49  C   UNL A   1      43.990  25.763  28.549  1.00  0.00     0.074 A 
ATOM     50  C   UNL A   1      44.269  30.437  32.855  1.00  0.00     0.029 A 
ATOM     51  N   UNL A   1      44.921  28.379  32.474  1.00  0.00    -0.354 N 
ATOM     52  N   UNL A   1      44.884  26.707  28.456  1.00  0.00    -0.248 NA
ATOM     53  C   UNL A   1      43.849  25.172  29.871  1.00  0.00     0.031 C 
ATOM     54  C   UNL A   1      45.035  30.392  31.655  1.00  0.00     0.029 A 
ATOM     55  C   UNL A   1      45.202  29.049  31.310  1.00  0.00     0.049 A 
ATOM     56  H   UNL A   1      45.324  27.534  32.779  1.00  0.00     0.167 HD
ATOM     57  C   UNL A   1      45.104  27.120  29.759  1.00  0.00     0.074 A 
ATOM     58  C   UNL A   1      44.535  26.064  30.591  1.00  0.00     0.031 C 
ATOM     59  C   UNL A   1      45.473  28.405  30.042  1.00  0.00     0.034 A 
BRANCH  46  60
ATOM     60  C   UNL A   1      42.867  27.297  34.628  1.00  0.00     0.023 A 
ATOM     61  C   UNL A   1      43.624  26.174  34.257  1.00  0.00     0.031 A 
ATOM     62  C   UNL A   1      42.036  27.125  35.764  1.00  0.00     0.131 A 
ATOM     63  C   UNL A   1      43.481  24.950  34.932  1.00  0.00     0.055 A 
ATOM     64  C   UNL A   1      41.964  25.932  36.486  1.00  0.00     0.041 A 
ATOM     65  F   UNL A   1      41.172  28.058  36.182  1.00  0.00    -0.206 F 
ATOM     66  C   UNL A   1      42.665  24.823  36.054  1.00  0.00     0.022 A 
BRANCH  63  67
ATOM     67  S   UNL A   1      44.221  23.474  34.189  1.00  0.00     0.124 S 
ATOM     68  O   UNL A   1      44.694  22.757  35.369  1.00  0.00    -0.237 OA
ATOM     69  O   UNL A   1      43.080  22.889  33.493  1.00  0.00    -0.237 OA
ATOM     70  O   UNL A   1      45.268  24.019  33.330  1.00  0.00    -0.744 OA
ENDBRANCH  63  67
ENDBRANCH  46  60
BRANCH  47  71
ATOM     71  C   UNL A   1      42.643  24.278  26.873  1.00  0.00     0.023 A 
ATOM     72  C   UNL A   1      43.592  23.672  26.025  1.00  0.00     0.031 A 
ATOM     73  C   UNL A   1      41.519  23.499  27.228  1.00  0.00     0.131 A 
ATOM     74  C   UNL A   1      43.395  22.348  25.567  1.00  0.00     0.055 A 
ATOM     75  C   UNL A   1      41.323  22.196  26.763  1.00  0.00     0.041 A 
ATOM     76  F   UNL A   1      40.613  23.947  28.110  1.00  0.00    -0.206 F 
ATOM     77  C   UNL A   1      42.267  21.611  25.936  1.00  0.00     0.022 A 
BRANCH  74  78
ATOM     78  S   UNL A   1      44.672  21.522  24.564  1.00  0.00     0.124 S 
ATOM     79  O   UNL A   1      44.586  22.241  23.299  1.00  0.00    -0.237 OA
ATOM     80  O   UNL A   1      45.880  21.739  25.354  1.00  0.00    -0.237 OA
ATOM     81  O   UNL A   1      44.219  20.131  24.513  1.00  0.00    -0.744 OA
ENDBRANCH  74  78
ENDBRANCH  47  71
BRANCH  59  82
ATOM     82  C   UNL A   1      45.948  29.293  28.908  1.00  0.00     0.023 A 
ATOM     83  C   UNL A   1      45.171  30.307  28.306  1.00  0.00     0.031 A 
ATOM     84  C   UNL A   1      47.295  29.186  28.518  1.00  0.00     0.131 A 
ATOM     85  C   UNL A   1      45.745  31.158  27.341  1.00  0.00     0.055 A 
ATOM     86  C   UNL A   1      47.866  30.043  27.578  1.00  0.00     0.041 A 
ATOM     87  F   UNL A   1      48.096  28.263  29.078  1.00  0.00    -0.206 F 
ATOM     88  C   UNL A   1      47.090  31.029  26.980  1.00  0.00     0.022 A 
BRANCH  85  89
ATOM     89  S   UNL A   1      44.743  32.448  26.535  1.00  0.00     0.124 S 
ATOM     90  O   UNL A   1      45.713  33.183  25.732  1.00  0.00    -0.237 OA
ATOM     91  O   UNL A   1      43.759  31.667  25.789  1.00  0.00    -0.237 OA
ATOM     92  O   UNL A   1      44.189  33.203  27.660  1.00  0.00    -0.744 OA
ENDBRANCH  85  89
ENDBRANCH  59  82
ENDBRANCH  33  34
ENDBRANCH  25  28
ENDBRANCH  23  24
ENDBRANCH   1  23
TORSDOF 16
ENDMDL
MODEL 3
REMARK VINA RESULT:     -12.2      3.835      9.705
REMARK SMILES Cc1nn(C(C)C)cc1-c1cnccc1C(=O)NCCCCNC(=O)c1ccc(-c2c3nc(c(-c4cc(S(=O)(=O)[O-])ccc4F)c4ccc([nH]4)c(-c4cc(S(=O)(=O)[O-])ccc4F)c4nc(c(-c5cc(S(=O)(=O)[O-])ccc5F)c5ccc2[nH]5)C=C4)C=C3)cc1
REMARK SMILES IDX 21 1 20 2 19 3 18 4 16 5 17 6 15 8 10 9 11 10 12 11 14 12
REMARK SMILES IDX 13 13 9 14 1 15 2 16 3 17 4 18 8 19 5 20 6 21 7 22 22 23
REMARK SMILES IDX 23 24 24 25 25 27 26 28 27 29 88 30 28 31 87 32 29 33 30 34
REMARK SMILES IDX 31 35 81 36 32 37 86 38 80 39 82 40 33 41 85 42 79 43 78 44
REMARK SMILES IDX 34 46 66 47 46 48 65 49 47 50 50 51 64 52 83 53 48 54 49 55
REMARK SMILES IDX 63 57 84 58 51 59 35 60 36 61 44 62 37 63 43 64 45 65 42 66
REMARK SMILES IDX 38 67 39 68 40 69 41 70 67 71 68 72 76 73 69 74 75 75 77 76
REMARK SMILES IDX 74 77 70 78 71 79 72 80 73 81 52 82 53 83 61 84 54 85 60 86
REMARK SMILES IDX 62 87 59 88 55 89 56 90 57 91 58 92
REMARK H PARENT 18 7 23 26 82 45 50 56
REMARK Flexibility Score: inf
ROOT
ATOM      1  C   UNL A   1      38.366  22.911  26.122  1.00  0.00     0.023 C 
ENDROOT
BRANCH   1   2
ATOM      2  C   UNL A   1      37.620  21.930  25.201  1.00  0.00     0.023 C 
BRANCH   2   3
ATOM      3  C   UNL A   1      36.109  22.105  25.074  1.00  0.00     0.116 C 
BRANCH   3   4
ATOM      4  N   UNL A   1      35.609  22.779  23.906  1.00  0.00    -0.352 N 
ATOM      5  C   UNL A   1      34.402  23.430  23.754  1.00  0.00     0.252 C 
ATOM      6  O   UNL A   1      34.205  24.027  22.694  1.00  0.00    -0.269 OA
ATOM      7  H   UNL A   1      36.201  22.775  23.118  1.00  0.00     0.163 HD
BRANCH   5   8
ATOM      8  C   UNL A   1      33.263  23.329  24.723  1.00  0.00     0.050 A 
ATOM      9  C   UNL A   1      32.505  22.203  25.081  1.00  0.00     0.016 A 
ATOM     10  C   UNL A   1      31.479  22.392  26.013  1.00  0.00     0.120 A 
ATOM     11  N   UNL A   1      31.162  23.567  26.602  1.00  0.00    -0.264 NA
ATOM     12  C   UNL A   1      32.975  24.548  25.368  1.00  0.00     0.034 A 
ATOM     13  C   UNL A   1      31.936  24.616  26.281  1.00  0.00     0.112 A 
BRANCH   9  14
ATOM     14  C   UNL A   1      32.661  20.855  24.585  1.00  0.00     0.025 A 
ATOM     15  C   UNL A   1      31.879  21.005  22.081  1.00  0.00     0.069 C 
ATOM     16  C   UNL A   1      32.357  20.311  23.304  1.00  0.00     0.067 A 
ATOM     17  N   UNL A   1      32.653  19.011  23.241  1.00  0.00    -0.177 NA
ATOM     18  N   UNL A   1      33.063  18.699  24.487  1.00  0.00    -0.269 N 
ATOM     19  C   UNL A   1      33.087  19.781  25.331  1.00  0.00     0.118 A 
BRANCH  18  20
ATOM     20  C   UNL A   1      33.565  17.365  24.796  1.00  0.00     0.101 C 
ATOM     21  C   UNL A   1      32.615  16.513  25.643  1.00  0.00     0.033 C 
ATOM     22  C   UNL A   1      33.834  16.627  23.502  1.00  0.00     0.033 C 
ENDBRANCH  18  20
ENDBRANCH   9  14
ENDBRANCH   5   8
ENDBRANCH   3   4
ENDBRANCH   2   3
ENDBRANCH   1   2
BRANCH   1  23
ATOM     23  C   UNL A   1      39.639  22.339  26.754  1.00  0.00     0.116 C 
BRANCH  23  24
ATOM     24  N   UNL A   1      40.812  22.442  25.885  1.00  0.00    -0.352 N 
ATOM     25  C   UNL A   1      41.912  23.273  25.944  1.00  0.00     0.251 C 
ATOM     26  H   UNL A   1      40.816  21.811  25.129  1.00  0.00     0.163 HD
ATOM     27  O   UNL A   1      42.927  22.969  25.316  1.00  0.00    -0.269 OA
BRANCH  25  28
ATOM     28  C   UNL A   1      41.890  24.504  26.763  1.00  0.00     0.039 A 
ATOM     29  C   UNL A   1      42.582  24.569  27.983  1.00  0.00     0.014 A 
ATOM     30  C   UNL A   1      41.141  25.595  26.333  1.00  0.00     0.014 A 
ATOM     31  C   UNL A   1      42.458  25.704  28.795  1.00  0.00     0.010 A 
ATOM     32  C   UNL A   1      40.896  26.643  27.198  1.00  0.00     0.010 A 
ATOM     33  C   UNL A   1      41.590  26.731  28.410  1.00  0.00    -0.014 A 
BRANCH  33  34
ATOM     34  C   UNL A   1      41.565  28.025  29.101  1.00  0.00     0.031 A 
ATOM     35  C   UNL A   1      42.536  29.025  28.549  1.00  0.00     0.074 A 
ATOM     36  C   UNL A   1      40.590  28.434  29.941  1.00  0.00     0.049 A 
ATOM     37  N   UNL A   1      43.471  29.664  29.176  1.00  0.00    -0.248 NA
ATOM     38  C   UNL A   1      42.534  29.278  27.095  1.00  0.00     0.031 C 
ATOM     39  C   UNL A   1      39.381  27.716  30.339  1.00  0.00     0.029 A 
ATOM     40  N   UNL A   1      40.408  29.665  30.512  1.00  0.00    -0.354 N 
ATOM     41  C   UNL A   1      44.033  30.527  28.237  1.00  0.00     0.074 A 
ATOM     42  C   UNL A   1      43.569  30.097  26.954  1.00  0.00     0.031 C 
ATOM     43  C   UNL A   1      38.494  28.578  30.880  1.00  0.00     0.029 A 
ATOM     44  C   UNL A   1      39.114  29.886  30.982  1.00  0.00     0.049 A 
ATOM     45  H   UNL A   1      41.127  30.334  30.586  1.00  0.00     0.167 HD
ATOM     46  C   UNL A   1      44.644  31.689  28.584  1.00  0.00     0.034 A 
ATOM     47  C   UNL A   1      38.560  31.062  31.377  1.00  0.00     0.034 A 
ATOM     48  C   UNL A   1      45.065  31.674  29.962  1.00  0.00     0.049 A 
ATOM     49  C   UNL A   1      39.668  31.986  31.705  1.00  0.00     0.074 A 
ATOM     50  C   UNL A   1      45.842  30.815  30.717  1.00  0.00     0.029 A 
ATOM     51  N   UNL A   1      44.381  32.443  30.874  1.00  0.00    -0.354 N 
ATOM     52  N   UNL A   1      40.484  31.809  32.705  1.00  0.00    -0.248 NA
ATOM     53  C   UNL A   1      40.143  32.894  30.672  1.00  0.00     0.031 C 
ATOM     54  C   UNL A   1      45.198  30.760  31.987  1.00  0.00     0.029 A 
ATOM     55  C   UNL A   1      44.107  31.630  31.946  1.00  0.00     0.049 A 
ATOM     56  H   UNL A   1      44.137  33.392  30.777  1.00  0.00     0.167 HD
ATOM     57  C   UNL A   1      41.719  32.223  32.237  1.00  0.00     0.074 A 
ATOM     58  C   UNL A   1      41.427  32.989  31.029  1.00  0.00     0.031 C 
ATOM     59  C   UNL A   1      42.877  31.674  32.710  1.00  0.00     0.034 A 
BRANCH  46  60
ATOM     60  C   UNL A   1      44.570  32.954  27.755  1.00  0.00     0.023 A 
ATOM     61  C   UNL A   1      43.808  34.017  28.265  1.00  0.00     0.031 A 
ATOM     62  C   UNL A   1      44.969  33.082  26.401  1.00  0.00     0.131 A 
ATOM     63  C   UNL A   1      43.409  35.082  27.440  1.00  0.00     0.055 A 
ATOM     64  C   UNL A   1      44.645  34.187  25.609  1.00  0.00     0.041 A 
ATOM     65  F   UNL A   1      45.604  32.112  25.732  1.00  0.00    -0.206 F 
ATOM     66  C   UNL A   1      43.832  35.182  26.117  1.00  0.00     0.022 A 
BRANCH  63  67
ATOM     67  S   UNL A   1      42.154  36.225  28.069  1.00  0.00     0.124 S 
ATOM     68  O   UNL A   1      42.799  36.735  29.274  1.00  0.00    -0.237 OA
ATOM     69  O   UNL A   1      42.024  37.163  26.959  1.00  0.00    -0.237 OA
ATOM     70  O   UNL A   1      40.998  35.363  28.299  1.00  0.00    -0.744 OA
ENDBRANCH  63  67
ENDBRANCH  46  60
BRANCH  47  71
ATOM     71  C   UNL A   1      37.145  31.498  31.228  1.00  0.00     0.023 A 
ATOM     72  C   UNL A   1      36.433  32.130  32.267  1.00  0.00     0.031 A 
ATOM     73  C   UNL A   1      36.541  31.501  29.950  1.00  0.00     0.131 A 
ATOM     74  C   UNL A   1      35.175  32.725  32.008  1.00  0.00     0.055 A 
ATOM     75  C   UNL A   1      35.294  32.078  29.703  1.00  0.00     0.041 A 
ATOM     76  F   UNL A   1      37.185  31.016  28.877  1.00  0.00    -0.206 F 
ATOM     77  C   UNL A   1      34.608  32.702  30.731  1.00  0.00     0.022 A 
BRANCH  74  78
ATOM     78  S   UNL A   1      34.303  33.639  33.320  1.00  0.00     0.124 S 
ATOM     79  O   UNL A   1      34.347  35.010  32.825  1.00  0.00    -0.237 OA
ATOM     80  O   UNL A   1      32.994  32.996  33.334  1.00  0.00    -0.237 OA
ATOM     81  O   UNL A   1      35.118  33.389  34.510  1.00  0.00    -0.744 OA
ENDBRANCH  74  78
ENDBRANCH  47  71
BRANCH  59  82
ATOM     82  C   UNL A   1      42.823  30.836  33.972  1.00  0.00     0.023 A 
ATOM     83  C   UNL A   1      42.340  29.510  34.035  1.00  0.00     0.031 A 
ATOM     84  C   UNL A   1      43.413  31.369  35.133  1.00  0.00     0.131 A 
ATOM     85  C   UNL A   1      42.444  28.776  35.232  1.00  0.00     0.055 A 
ATOM     86  C   UNL A   1      43.534  30.633  36.310  1.00  0.00     0.041 A 
ATOM     87  F   UNL A   1      43.922  32.613  35.129  1.00  0.00    -0.206 F 
ATOM     88  C   UNL A   1      43.042  29.334  36.366  1.00  0.00     0.022 A 
BRANCH  85  89
ATOM     89  S   UNL A   1      41.794  27.077  35.332  1.00  0.00     0.124 S 
ATOM     90  O   UNL A   1      41.229  27.005  36.675  1.00  0.00    -0.237 OA
ATOM     91  O   UNL A   1      40.832  27.039  34.233  1.00  0.00    -0.237 OA
ATOM     92  O   UNL A   1      42.981  26.245  35.126  1.00  0.00    -0.744 OA
ENDBRANCH  85  89
ENDBRANCH  59  82
ENDBRANCH  33  34
ENDBRANCH  25  28
ENDBRANCH  23  24
ENDBRANCH   1  23
TORSDOF 16
ENDMDL
