MODEL 1
REMARK VINA RESULT:     -13.0      0.000      0.000
REMARK SMILES C[C@@H](C(=O)NCCCCNC(=O)c1ccc(-c2c3nc(c(-c4cc(S(=O)(=O)[O-])ccc4F)c4ccc([nH]4)c(-c4cc(S(=O)(=O)[O-])ccc4F)c4nc(c(-c5cc(S(=O)(=O)[O-])ccc5F)c5ccc2[nH]5)C=C4)C=C3)cc1)c1ccc(C[C@H]2CCC[C@H]2O)cc1-c1ccc(O)cc1
REMARK SMILES IDX 7 1 6 2 5 3 3 4 4 5 2 7 1 8 76 9 77 10 88 11 78 12 87 13
REMARK SMILES IDX 79 14 89 15 90 16 95 17 91 18 94 19 92 20 93 21 80 23 81 24
REMARK SMILES IDX 82 25 85 26 83 27 84 28 86 29 8 31 9 32 10 33 11 34 12 36
REMARK SMILES IDX 13 37 14 38 75 39 15 40 74 41 16 42 17 43 18 44 68 45 19 46
REMARK SMILES IDX 73 47 67 48 69 49 20 50 72 51 66 52 65 53 21 55 53 56 33 57
REMARK SMILES IDX 52 58 34 59 37 60 51 61 70 62 35 63 36 64 50 66 71 67 38 68
REMARK SMILES IDX 22 69 23 70 31 71 24 72 30 73 32 74 29 75 25 76 26 77 27 78
REMARK SMILES IDX 28 79 54 80 55 81 63 82 56 83 62 84 64 85 61 86 57 87 58 88
REMARK SMILES IDX 59 89 60 90 39 91 40 92 48 93 41 94 47 95 49 96 46 97 42 98
REMARK SMILES IDX 43 99 44 100 45 101
REMARK H PARENT 5 6 93 22 86 30 10 35 69 54 37 65
REMARK Flexibility Score: inf
ROOT
ATOM      1  C   UNL A   1      31.805  29.755  26.624  1.00  0.00     0.023 C 
ENDROOT
BRANCH   1   2
ATOM      2  C   UNL A   1      33.166  29.066  26.555  1.00  0.00     0.116 C 
BRANCH   2   3
ATOM      3  N   UNL A   1      33.060  27.624  26.546  1.00  0.00    -0.356 N 
ATOM      4  C   UNL A   1      33.361  26.758  25.540  1.00  0.00     0.227 C 
ATOM      5  O   UNL A   1      33.839  25.676  25.892  1.00  0.00    -0.274 OA
ATOM      6  H   UNL A   1      32.727  27.215  27.377  1.00  0.00     0.163 HD
BRANCH   4   7
ATOM      7  C   UNL A   1      33.250  27.164  24.064  1.00  0.00     0.106 C 
ATOM      8  C   UNL A   1      34.134  28.298  23.524  1.00  0.00     0.023 C 
BRANCH   7   9
ATOM      9  C   UNL A   1      31.819  27.485  23.602  1.00  0.00    -0.028 A 
ATOM     10  C   UNL A   1      31.682  28.657  22.831  1.00  0.00     0.005 A 
ATOM     11  C   UNL A   1      30.650  26.769  23.981  1.00  0.00    -0.014 A 
ATOM     12  C   UNL A   1      30.432  29.169  22.507  1.00  0.00     0.004 A 
ATOM     13  C   UNL A   1      29.396  27.355  23.694  1.00  0.00     0.012 A 
ATOM     14  C   UNL A   1      29.279  28.575  23.009  1.00  0.00    -0.047 A 
BRANCH  11  15
ATOM     15  C   UNL A   1      30.659  25.400  24.546  1.00  0.00    -0.018 A 
ATOM     16  C   UNL A   1      31.063  24.331  23.721  1.00  0.00     0.012 A 
ATOM     17  C   UNL A   1      30.342  25.104  25.880  1.00  0.00     0.012 A 
ATOM     18  C   UNL A   1      31.219  23.037  24.226  1.00  0.00     0.047 A 
ATOM     19  C   UNL A   1      30.522  23.814  26.399  1.00  0.00     0.047 A 
ATOM     20  C   UNL A   1      30.975  22.796  25.569  1.00  0.00     0.115 A 
BRANCH  20  21
ATOM     21  O   UNL A   1      31.202  21.537  26.037  1.00  0.00    -0.508 OA
ATOM     22  H   UNL A   1      30.571  20.861  25.889  1.00  0.00     0.293 HD
ENDBRANCH  20  21
ENDBRANCH  11  15
BRANCH  14  23
ATOM     23  C   UNL A   1      27.942  29.249  22.827  1.00  0.00     0.041 C 
BRANCH  23  24
ATOM     24  C   UNL A   1      27.906  30.784  22.973  1.00  0.00     0.022 C 
ATOM     25  C   UNL A   1      28.955  31.392  23.920  1.00  0.00     0.007 C 
ATOM     26  C   UNL A   1      27.976  31.654  21.706  1.00  0.00     0.117 C 
ATOM     27  C   UNL A   1      29.234  32.804  23.394  1.00  0.00     0.003 C 
ATOM     28  C   UNL A   1      28.223  33.046  22.278  1.00  0.00     0.032 C 
BRANCH  26  29
ATOM     29  O   UNL A   1      29.039  31.352  20.819  1.00  0.00    -0.393 OA
ATOM     30  H   UNL A   1      29.846  31.176  21.328  1.00  0.00     0.210 HD
ENDBRANCH  26  29
ENDBRANCH  23  24
ENDBRANCH  14  23
ENDBRANCH   7   9
ENDBRANCH   4   7
ENDBRANCH   2   3
ENDBRANCH   1   2
BRANCH   1  31
ATOM     31  C   UNL A   1      31.845  31.279  26.488  1.00  0.00     0.023 C 
BRANCH  31  32
ATOM     32  C   UNL A   1      32.900  31.985  27.333  1.00  0.00     0.116 C 
BRANCH  32  33
ATOM     33  N   UNL A   1      32.621  33.400  27.519  1.00  0.00    -0.352 N 
ATOM     34  C   UNL A   1      33.199  34.296  28.387  1.00  0.00     0.251 C 
ATOM     35  H   UNL A   1      31.916  33.769  26.940  1.00  0.00     0.163 HD
ATOM     36  O   UNL A   1      32.736  35.422  28.494  1.00  0.00    -0.269 OA
BRANCH  34  37
ATOM     37  C   UNL A   1      34.352  33.872  29.213  1.00  0.00     0.039 A 
ATOM     38  C   UNL A   1      34.126  33.003  30.282  1.00  0.00     0.014 A 
ATOM     39  C   UNL A   1      35.649  34.303  28.918  1.00  0.00     0.014 A 
ATOM     40  C   UNL A   1      35.210  32.504  31.007  1.00  0.00     0.010 A 
ATOM     41  C   UNL A   1      36.733  33.748  29.595  1.00  0.00     0.010 A 
ATOM     42  C   UNL A   1      36.526  32.835  30.640  1.00  0.00    -0.014 A 
BRANCH  42  43
ATOM     43  C   UNL A   1      37.691  32.213  31.322  1.00  0.00     0.031 A 
ATOM     44  C   UNL A   1      38.437  31.081  30.669  1.00  0.00     0.074 A 
ATOM     45  C   UNL A   1      38.038  32.633  32.555  1.00  0.00     0.049 A 
ATOM     46  N   UNL A   1      39.434  30.373  31.134  1.00  0.00    -0.248 NA
ATOM     47  C   UNL A   1      37.986  30.676  29.329  1.00  0.00     0.031 C 
ATOM     48  C   UNL A   1      37.367  33.698  33.305  1.00  0.00     0.029 A 
ATOM     49  N   UNL A   1      39.035  32.216  33.402  1.00  0.00    -0.354 N 
ATOM     50  C   UNL A   1      39.726  29.435  30.150  1.00  0.00     0.074 A 
ATOM     51  C   UNL A   1      38.762  29.629  29.087  1.00  0.00     0.031 C 
ATOM     52  C   UNL A   1      37.985  33.866  34.485  1.00  0.00     0.029 A 
ATOM     53  C   UNL A   1      39.062  32.889  34.603  1.00  0.00     0.049 A 
ATOM     54  H   UNL A   1      39.672  31.501  33.172  1.00  0.00     0.167 HD
ATOM     55  C   UNL A   1      40.717  28.511  30.128  1.00  0.00     0.034 A 
ATOM     56  C   UNL A   1      39.852  32.725  35.684  1.00  0.00     0.034 A 
ATOM     57  C   UNL A   1      41.675  28.335  31.193  1.00  0.00     0.049 A 
ATOM     58  C   UNL A   1      40.923  31.664  35.646  1.00  0.00     0.074 A 
ATOM     59  C   UNL A   1      42.754  27.469  31.245  1.00  0.00     0.029 A 
ATOM     60  N   UNL A   1      41.666  29.028  32.397  1.00  0.00    -0.354 N 
ATOM     61  N   UNL A   1      41.223  30.825  34.681  1.00  0.00    -0.248 NA
ATOM     62  C   UNL A   1      41.771  31.534  36.839  1.00  0.00     0.031 C 
ATOM     63  C   UNL A   1      43.347  27.580  32.507  1.00  0.00     0.029 A 
ATOM     64  C   UNL A   1      42.695  28.579  33.212  1.00  0.00     0.049 A 
ATOM     65  H   UNL A   1      41.022  29.733  32.637  1.00  0.00     0.167 HD
ATOM     66  C   UNL A   1      42.316  30.093  35.140  1.00  0.00     0.074 A 
ATOM     67  C   UNL A   1      42.633  30.605  36.457  1.00  0.00     0.031 C 
ATOM     68  C   UNL A   1      42.997  29.091  34.528  1.00  0.00     0.034 A 
BRANCH  55  69
ATOM     69  C   UNL A   1      40.802  27.601  28.926  1.00  0.00     0.023 A 
ATOM     70  C   UNL A   1      41.752  27.802  27.909  1.00  0.00     0.031 A 
ATOM     71  C   UNL A   1      39.925  26.508  28.799  1.00  0.00     0.131 A 
ATOM     72  C   UNL A   1      41.763  26.963  26.784  1.00  0.00     0.055 A 
ATOM     73  C   UNL A   1      39.993  25.630  27.716  1.00  0.00     0.041 A 
ATOM     74  F   UNL A   1      38.984  26.277  29.728  1.00  0.00    -0.206 F 
ATOM     75  C   UNL A   1      40.908  25.862  26.693  1.00  0.00     0.022 A 
BRANCH  72  76
ATOM     76  S   UNL A   1      42.829  27.403  25.384  1.00  0.00     0.124 S 
ATOM     77  O   UNL A   1      42.866  26.149  24.636  1.00  0.00    -0.237 OA
ATOM     78  O   UNL A   1      42.096  28.498  24.761  1.00  0.00    -0.237 OA
ATOM     79  O   UNL A   1      44.091  27.779  26.020  1.00  0.00    -0.744 OA
ENDBRANCH  72  76
ENDBRANCH  55  69
BRANCH  56  80
ATOM     80  C   UNL A   1      39.656  33.561  36.906  1.00  0.00     0.023 A 
ATOM     81  C   UNL A   1      39.040  33.035  38.052  1.00  0.00     0.031 A 
ATOM     82  C   UNL A   1      40.019  34.921  36.920  1.00  0.00     0.131 A 
ATOM     83  C   UNL A   1      38.748  33.874  39.139  1.00  0.00     0.055 A 
ATOM     84  C   UNL A   1      39.786  35.736  38.030  1.00  0.00     0.041 A 
ATOM     85  F   UNL A   1      40.614  35.478  35.853  1.00  0.00    -0.206 F 
ATOM     86  C   UNL A   1      39.130  35.217  39.141  1.00  0.00     0.022 A 
BRANCH  83  87
ATOM     87  S   UNL A   1      37.754  33.211  40.505  1.00  0.00     0.124 S 
ATOM     88  O   UNL A   1      37.730  34.340  41.428  1.00  0.00    -0.237 OA
ATOM     89  O   UNL A   1      36.496  32.899  39.837  1.00  0.00    -0.237 OA
ATOM     90  O   UNL A   1      38.524  32.053  40.953  1.00  0.00    -0.744 OA
ENDBRANCH  83  87
ENDBRANCH  56  80
BRANCH  68  91
ATOM     91  C   UNL A   1      44.184  28.518  35.263  1.00  0.00     0.023 A 
ATOM     92  C   UNL A   1      44.043  27.491  36.214  1.00  0.00     0.031 A 
ATOM     93  C   UNL A   1      45.476  29.019  35.019  1.00  0.00     0.131 A 
ATOM     94  C   UNL A   1      45.164  27.041  36.928  1.00  0.00     0.055 A 
ATOM     95  C   UNL A   1      46.596  28.518  35.684  1.00  0.00     0.041 A 
ATOM     96  F   UNL A   1      45.671  30.002  34.126  1.00  0.00    -0.206 F 
ATOM     97  C   UNL A   1      46.442  27.534  36.655  1.00  0.00     0.022 A 
BRANCH  94  98
ATOM     98  S   UNL A   1      44.914  25.872  38.293  1.00  0.00     0.124 S 
ATOM     99  O   UNL A   1      46.275  25.412  38.551  1.00  0.00    -0.237 OA
ATOM    100  O   UNL A   1      44.319  26.717  39.323  1.00  0.00    -0.237 OA
ATOM    101  O   UNL A   1      44.018  24.866  37.724  1.00  0.00    -0.744 OA
ENDBRANCH  94  98
ENDBRANCH  68  91
ENDBRANCH  42  43
ENDBRANCH  34  37
ENDBRANCH  32  33
ENDBRANCH  31  32
ENDBRANCH   1  31
TORSDOF 20
ENDMDL
MODEL 2
REMARK VINA RESULT:     -12.5      2.928      5.570
REMARK SMILES C[C@@H](C(=O)NCCCCNC(=O)c1ccc(-c2c3nc(c(-c4cc(S(=O)(=O)[O-])ccc4F)c4ccc([nH]4)c(-c4cc(S(=O)(=O)[O-])ccc4F)c4nc(c(-c5cc(S(=O)(=O)[O-])ccc5F)c5ccc2[nH]5)C=C4)C=C3)cc1)c1ccc(C[C@H]2CCC[C@H]2O)cc1-c1ccc(O)cc1
REMARK SMILES IDX 7 1 6 2 5 3 3 4 4 5 2 7 1 8 76 9 77 10 88 11 78 12 87 13
REMARK SMILES IDX 79 14 89 15 90 16 95 17 91 18 94 19 92 20 93 21 80 23 81 24
REMARK SMILES IDX 82 25 85 26 83 27 84 28 86 29 8 31 9 32 10 33 11 34 12 36
REMARK SMILES IDX 13 37 14 38 75 39 15 40 74 41 16 42 17 43 18 44 68 45 19 46
REMARK SMILES IDX 73 47 67 48 69 49 20 50 72 51 66 52 65 53 21 55 53 56 33 57
REMARK SMILES IDX 52 58 34 59 37 60 51 61 70 62 35 63 36 64 50 66 71 67 38 68
REMARK SMILES IDX 22 69 23 70 31 71 24 72 30 73 32 74 29 75 25 76 26 77 27 78
REMARK SMILES IDX 28 79 54 80 55 81 63 82 56 83 62 84 64 85 61 86 57 87 58 88
REMARK SMILES IDX 59 89 60 90 39 91 40 92 48 93 41 94 47 95 49 96 46 97 42 98
REMARK SMILES IDX 43 99 44 100 45 101
REMARK H PARENT 5 6 93 22 86 30 10 35 69 54 37 65
REMARK Flexibility Score: inf
ROOT
ATOM      1  C   UNL A   1      32.507  27.177  26.619  1.00  0.00     0.023 C 
ENDROOT
BRANCH   1   2
ATOM      2  C   UNL A   1      32.912  26.290  25.444  1.00  0.00     0.116 C 
BRANCH   2   3
ATOM      3  N   UNL A   1      31.782  25.889  24.635  1.00  0.00    -0.356 N 
ATOM      4  C   UNL A   1      31.670  24.812  23.809  1.00  0.00     0.227 C 
ATOM      5  O   UNL A   1      30.554  24.287  23.765  1.00  0.00    -0.274 OA
ATOM      6  H   UNL A   1      30.989  26.470  24.689  1.00  0.00     0.163 HD
BRANCH   4   7
ATOM      7  C   UNL A   1      32.890  24.209  23.100  1.00  0.00     0.106 C 
ATOM      8  C   UNL A   1      33.175  24.584  21.638  1.00  0.00     0.023 C 
BRANCH   7   9
ATOM      9  C   UNL A   1      32.967  22.675  23.166  1.00  0.00    -0.028 A 
ATOM     10  C   UNL A   1      32.052  21.988  22.343  1.00  0.00     0.005 A 
ATOM     11  C   UNL A   1      33.789  21.929  24.055  1.00  0.00    -0.014 A 
ATOM     12  C   UNL A   1      31.881  20.613  22.441  1.00  0.00     0.004 A 
ATOM     13  C   UNL A   1      33.539  20.543  24.178  1.00  0.00     0.012 A 
ATOM     14  C   UNL A   1      32.555  19.890  23.419  1.00  0.00    -0.047 A 
BRANCH  11  15
ATOM     15  C   UNL A   1      34.963  22.485  24.766  1.00  0.00    -0.018 A 
ATOM     16  C   UNL A   1      36.244  22.299  24.206  1.00  0.00     0.012 A 
ATOM     17  C   UNL A   1      34.877  23.240  25.946  1.00  0.00     0.012 A 
ATOM     18  C   UNL A   1      37.376  22.906  24.756  1.00  0.00     0.047 A 
ATOM     19  C   UNL A   1      36.004  23.874  26.485  1.00  0.00     0.047 A 
ATOM     20  C   UNL A   1      37.242  23.713  25.874  1.00  0.00     0.115 A 
BRANCH  20  21
ATOM     21  O   UNL A   1      38.358  24.340  26.339  1.00  0.00    -0.508 OA
ATOM     22  H   UNL A   1      38.603  25.177  25.996  1.00  0.00     0.293 HD
ENDBRANCH  20  21
ENDBRANCH  11  15
BRANCH  14  23
ATOM     23  C   UNL A   1      32.213  18.440  23.657  1.00  0.00     0.041 C 
BRANCH  23  24
ATOM     24  C   UNL A   1      33.178  17.629  24.544  1.00  0.00     0.022 C 
ATOM     25  C   UNL A   1      32.541  16.493  25.364  1.00  0.00     0.007 C 
ATOM     26  C   UNL A   1      34.423  16.992  23.903  1.00  0.00     0.117 C 
ATOM     27  C   UNL A   1      33.636  15.439  25.553  1.00  0.00     0.003 C 
ATOM     28  C   UNL A   1      34.917  16.058  25.003  1.00  0.00     0.032 C 
BRANCH  26  29
ATOM     29  O   UNL A   1      34.180  16.213  22.745  1.00  0.00    -0.393 OA
ATOM     30  H   UNL A   1      34.993  16.149  22.221  1.00  0.00     0.210 HD
ENDBRANCH  26  29
ENDBRANCH  23  24
ENDBRANCH  14  23
ENDBRANCH   7   9
ENDBRANCH   4   7
ENDBRANCH   2   3
ENDBRANCH   1   2
BRANCH   1  31
ATOM     31  C   UNL A   1      31.855  28.506  26.229  1.00  0.00     0.023 C 
BRANCH  31  32
ATOM     32  C   UNL A   1      32.809  29.581  25.719  1.00  0.00     0.116 C 
BRANCH  32  33
ATOM     33  N   UNL A   1      32.445  30.916  26.165  1.00  0.00    -0.352 N 
ATOM     34  C   UNL A   1      33.072  31.733  27.076  1.00  0.00     0.251 C 
ATOM     35  H   UNL A   1      31.631  31.289  25.755  1.00  0.00     0.163 HD
ATOM     36  O   UNL A   1      32.539  32.776  27.425  1.00  0.00    -0.269 OA
BRANCH  34  37
ATOM     37  C   UNL A   1      34.369  31.318  27.656  1.00  0.00     0.039 A 
ATOM     38  C   UNL A   1      35.339  32.294  27.894  1.00  0.00     0.014 A 
ATOM     39  C   UNL A   1      34.616  29.983  27.991  1.00  0.00     0.014 A 
ATOM     40  C   UNL A   1      36.526  31.944  28.540  1.00  0.00     0.010 A 
ATOM     41  C   UNL A   1      35.769  29.651  28.700  1.00  0.00     0.010 A 
ATOM     42  C   UNL A   1      36.731  30.629  28.991  1.00  0.00    -0.014 A 
BRANCH  42  43
ATOM     43  C   UNL A   1      37.933  30.272  29.790  1.00  0.00     0.031 A 
ATOM     44  C   UNL A   1      38.943  29.298  29.248  1.00  0.00     0.074 A 
ATOM     45  C   UNL A   1      38.081  30.785  31.029  1.00  0.00     0.049 A 
ATOM     46  N   UNL A   1      40.017  28.818  29.821  1.00  0.00    -0.248 NA
ATOM     47  C   UNL A   1      38.701  28.777  27.894  1.00  0.00     0.031 C 
ATOM     48  C   UNL A   1      37.147  31.711  31.676  1.00  0.00     0.029 A 
ATOM     49  N   UNL A   1      39.062  30.598  31.970  1.00  0.00    -0.354 N 
ATOM     50  C   UNL A   1      40.575  27.933  28.904  1.00  0.00     0.074 A 
ATOM     51  C   UNL A   1      39.688  27.902  27.760  1.00  0.00     0.031 C 
ATOM     52  C   UNL A   1      37.615  32.029  32.894  1.00  0.00     0.029 A 
ATOM     53  C   UNL A   1      38.850  31.293  33.140  1.00  0.00     0.049 A 
ATOM     54  H   UNL A   1      39.847  30.022  31.822  1.00  0.00     0.167 HD
ATOM     55  C   UNL A   1      41.728  27.228  29.001  1.00  0.00     0.034 A 
ATOM     56  C   UNL A   1      39.559  31.319  34.287  1.00  0.00     0.034 A 
ATOM     57  C   UNL A   1      42.605  27.276  30.147  1.00  0.00     0.049 A 
ATOM     58  C   UNL A   1      40.819  30.496  34.380  1.00  0.00     0.074 A 
ATOM     59  C   UNL A   1      43.825  26.647  30.323  1.00  0.00     0.029 A 
ATOM     60  N   UNL A   1      42.353  27.983  31.316  1.00  0.00    -0.354 N 
ATOM     61  N   UNL A   1      41.363  29.711  33.479  1.00  0.00    -0.248 NA
ATOM     62  C   UNL A   1      41.568  30.570  35.642  1.00  0.00     0.031 C 
ATOM     63  C   UNL A   1      44.272  26.908  31.622  1.00  0.00     0.029 A 
ATOM     64  C   UNL A   1      43.375  27.772  32.229  1.00  0.00     0.049 A 
ATOM     65  H   UNL A   1      41.563  28.549  31.473  1.00  0.00     0.167 HD
ATOM     66  C   UNL A   1      42.535  29.227  34.055  1.00  0.00     0.074 A 
ATOM     67  C   UNL A   1      42.627  29.824  35.370  1.00  0.00     0.031 C 
ATOM     68  C   UNL A   1      43.452  28.367  33.543  1.00  0.00     0.034 A 
BRANCH  55  69
ATOM     69  C   UNL A   1      42.097  26.324  27.850  1.00  0.00     0.023 A 
ATOM     70  C   UNL A   1      41.663  24.988  27.788  1.00  0.00     0.031 A 
ATOM     71  C   UNL A   1      42.888  26.807  26.791  1.00  0.00     0.131 A 
ATOM     72  C   UNL A   1      42.070  24.167  26.725  1.00  0.00     0.055 A 
ATOM     73  C   UNL A   1      43.225  26.008  25.698  1.00  0.00     0.041 A 
ATOM     74  F   UNL A   1      43.350  28.068  26.805  1.00  0.00    -0.206 F 
ATOM     75  C   UNL A   1      42.826  24.676  25.665  1.00  0.00     0.022 A 
BRANCH  72  76
ATOM     76  S   UNL A   1      41.700  22.394  26.807  1.00  0.00     0.124 S 
ATOM     77  O   UNL A   1      40.313  22.403  27.264  1.00  0.00    -0.237 OA
ATOM     78  O   UNL A   1      41.917  21.961  25.432  1.00  0.00    -0.237 OA
ATOM     79  O   UNL A   1      42.666  21.887  27.781  1.00  0.00    -0.744 OA
ENDBRANCH  72  76
ENDBRANCH  55  69
BRANCH  56  80
ATOM     80  C   UNL A   1      39.093  32.129  35.452  1.00  0.00     0.023 A 
ATOM     81  C   UNL A   1      38.518  31.517  36.576  1.00  0.00     0.031 A 
ATOM     82  C   UNL A   1      39.155  33.535  35.430  1.00  0.00     0.131 A 
ATOM     83  C   UNL A   1      37.970  32.304  37.601  1.00  0.00     0.055 A 
ATOM     84  C   UNL A   1      38.667  34.313  36.482  1.00  0.00     0.041 A 
ATOM     85  F   UNL A   1      39.697  34.176  34.382  1.00  0.00    -0.206 F 
ATOM     86  C   UNL A   1      38.053  33.698  37.568  1.00  0.00     0.022 A 
BRANCH  83  87
ATOM     87  S   UNL A   1      37.038  31.482  38.923  1.00  0.00     0.124 S 
ATOM     88  O   UNL A   1      37.963  31.588  40.046  1.00  0.00    -0.237 OA
ATOM     89  O   UNL A   1      35.836  32.304  39.001  1.00  0.00    -0.237 OA
ATOM     90  O   UNL A   1      36.836  30.131  38.405  1.00  0.00    -0.744 OA
ENDBRANCH  83  87
ENDBRANCH  56  80
BRANCH  68  91
ATOM     91  C   UNL A   1      44.661  28.064  34.395  1.00  0.00     0.023 A 
ATOM     92  C   UNL A   1      44.673  26.999  35.313  1.00  0.00     0.031 A 
ATOM     93  C   UNL A   1      45.813  28.865  34.297  1.00  0.00     0.131 A 
ATOM     94  C   UNL A   1      45.790  26.800  36.138  1.00  0.00     0.055 A 
ATOM     95  C   UNL A   1      46.948  28.619  35.072  1.00  0.00     0.041 A 
ATOM     96  F   UNL A   1      45.858  29.898  33.441  1.00  0.00    -0.206 F 
ATOM     97  C   UNL A   1      46.935  27.591  36.010  1.00  0.00     0.022 A 
BRANCH  94  98
ATOM     98  S   UNL A   1      45.690  25.556  37.455  1.00  0.00     0.124 S 
ATOM     99  O   UNL A   1      44.809  24.556  36.860  1.00  0.00    -0.237 OA
ATOM    100  O   UNL A   1      47.085  25.161  37.620  1.00  0.00    -0.237 OA
ATOM    101  O   UNL A   1      45.119  26.294  38.581  1.00  0.00    -0.744 OA
ENDBRANCH  94  98
ENDBRANCH  68  91
ENDBRANCH  42  43
ENDBRANCH  34  37
ENDBRANCH  32  33
ENDBRANCH  31  32
ENDBRANCH   1  31
TORSDOF 20
ENDMDL
MODEL 3
REMARK VINA RESULT:     -12.5      3.143      9.044
REMARK SMILES C[C@@H](C(=O)NCCCCNC(=O)c1ccc(-c2c3nc(c(-c4cc(S(=O)(=O)[O-])ccc4F)c4ccc([nH]4)c(-c4cc(S(=O)(=O)[O-])ccc4F)c4nc(c(-c5cc(S(=O)(=O)[O-])ccc5F)c5ccc2[nH]5)C=C4)C=C3)cc1)c1ccc(C[C@H]2CCC[C@H]2O)cc1-c1ccc(O)cc1
REMARK SMILES IDX 7 1 6 2 5 3 3 4 4 5 2 7 1 8 76 9 77 10 88 11 78 12 87 13
REMARK SMILES IDX 79 14 89 15 90 16 95 17 91 18 94 19 92 20 93 21 80 23 81 24
REMARK SMILES IDX 82 25 85 26 83 27 84 28 86 29 8 31 9 32 10 33 11 34 12 36
REMARK SMILES IDX 13 37 14 38 75 39 15 40 74 41 16 42 17 43 18 44 68 45 19 46
REMARK SMILES IDX 73 47 67 48 69 49 20 50 72 51 66 52 65 53 21 55 53 56 33 57
REMARK SMILES IDX 52 58 34 59 37 60 51 61 70 62 35 63 36 64 50 66 71 67 38 68
REMARK SMILES IDX 22 69 23 70 31 71 24 72 30 73 32 74 29 75 25 76 26 77 27 78
REMARK SMILES IDX 28 79 54 80 55 81 63 82 56 83 62 84 64 85 61 86 57 87 58 88
REMARK SMILES IDX 59 89 60 90 39 91 40 92 48 93 41 94 47 95 49 96 46 97 42 98
REMARK SMILES IDX 43 99 44 100 45 101
REMARK H PARENT 5 6 93 22 86 30 10 35 69 54 37 65
REMARK Flexibility Score: inf
ROOT
ATOM      1  C   UNL A   1      33.358  28.426  25.085  1.00  0.00     0.023 C 
ENDROOT
BRANCH   1   2
ATOM      2  C   UNL A   1      33.563  26.991  25.563  1.00  0.00     0.116 C 
BRANCH   2   3
ATOM      3  N   UNL A   1      32.361  26.193  25.462  1.00  0.00    -0.356 N 
ATOM      4  C   UNL A   1      32.213  24.946  24.937  1.00  0.00     0.227 C 
ATOM      5  O   UNL A   1      31.392  24.221  25.507  1.00  0.00    -0.274 OA
ATOM      6  H   UNL A   1      31.542  26.607  25.821  1.00  0.00     0.163 HD
BRANCH   4   7
ATOM      7  C   UNL A   1      33.115  24.433  23.807  1.00  0.00     0.106 C 
ATOM      8  C   UNL A   1      32.942  24.995  22.388  1.00  0.00     0.023 C 
BRANCH   7   9
ATOM      9  C   UNL A   1      33.135  22.904  23.657  1.00  0.00    -0.028 A 
ATOM     10  C   UNL A   1      32.087  22.358  22.886  1.00  0.00     0.005 A 
ATOM     11  C   UNL A   1      34.038  22.023  24.313  1.00  0.00    -0.014 A 
ATOM     12  C   UNL A   1      31.872  20.987  22.824  1.00  0.00     0.004 A 
ATOM     13  C   UNL A   1      33.749  20.639  24.284  1.00  0.00     0.012 A 
ATOM     14  C   UNL A   1      32.643  20.120  23.591  1.00  0.00    -0.047 A 
BRANCH  11  15
ATOM     15  C   UNL A   1      35.322  22.447  24.918  1.00  0.00    -0.018 A 
ATOM     16  C   UNL A   1      36.458  21.634  24.734  1.00  0.00     0.012 A 
ATOM     17  C   UNL A   1      35.493  23.647  25.625  1.00  0.00     0.012 A 
ATOM     18  C   UNL A   1      37.724  22.039  25.167  1.00  0.00     0.047 A 
ATOM     19  C   UNL A   1      36.764  24.071  26.036  1.00  0.00     0.047 A 
ATOM     20  C   UNL A   1      37.871  23.269  25.788  1.00  0.00     0.115 A 
BRANCH  20  21
ATOM     21  O   UNL A   1      39.130  23.656  26.135  1.00  0.00    -0.508 OA
ATOM     22  H   UNL A   1      39.757  23.018  26.413  1.00  0.00     0.293 HD
ENDBRANCH  20  21
ENDBRANCH  11  15
BRANCH  14  23
ATOM     23  C   UNL A   1      32.276  18.660  23.680  1.00  0.00     0.041 C 
BRANCH  23  24
ATOM     24  C   UNL A   1      33.170  17.764  24.559  1.00  0.00     0.022 C 
ATOM     25  C   UNL A   1      32.444  16.662  25.349  1.00  0.00     0.007 C 
ATOM     26  C   UNL A   1      34.373  17.052  23.915  1.00  0.00     0.117 C 
ATOM     27  C   UNL A   1      33.459  15.528  25.527  1.00  0.00     0.003 C 
ATOM     28  C   UNL A   1      34.787  16.063  25.000  1.00  0.00     0.032 C 
BRANCH  26  29
ATOM     29  O   UNL A   1      34.085  16.315  22.740  1.00  0.00    -0.393 OA
ATOM     30  H   UNL A   1      33.610  15.503  22.975  1.00  0.00     0.210 HD
ENDBRANCH  26  29
ENDBRANCH  23  24
ENDBRANCH  14  23
ENDBRANCH   7   9
ENDBRANCH   4   7
ENDBRANCH   2   3
ENDBRANCH   1   2
BRANCH   1  31
ATOM     31  C   UNL A   1      32.080  29.098  25.592  1.00  0.00     0.023 C 
BRANCH  31  32
ATOM     32  C   UNL A   1      32.189  29.772  26.955  1.00  0.00     0.116 C 
BRANCH  32  33
ATOM     33  N   UNL A   1      32.236  31.223  26.865  1.00  0.00    -0.352 N 
ATOM     34  C   UNL A   1      33.220  32.090  27.277  1.00  0.00     0.251 C 
ATOM     35  H   UNL A   1      31.449  31.645  26.451  1.00  0.00     0.163 HD
ATOM     36  O   UNL A   1      33.021  33.296  27.241  1.00  0.00    -0.269 OA
BRANCH  34  37
ATOM     37  C   UNL A   1      34.496  31.552  27.800  1.00  0.00     0.039 A 
ATOM     38  C   UNL A   1      35.526  32.445  28.103  1.00  0.00     0.014 A 
ATOM     39  C   UNL A   1      34.666  30.181  28.017  1.00  0.00     0.014 A 
ATOM     40  C   UNL A   1      36.697  31.972  28.698  1.00  0.00     0.010 A 
ATOM     41  C   UNL A   1      35.804  29.722  28.677  1.00  0.00     0.010 A 
ATOM     42  C   UNL A   1      36.827  30.613  29.033  1.00  0.00    -0.014 A 
BRANCH  42  43
ATOM     43  C   UNL A   1      38.014  30.119  29.780  1.00  0.00     0.031 A 
ATOM     44  C   UNL A   1      38.280  30.594  31.182  1.00  0.00     0.074 A 
ATOM     45  C   UNL A   1      38.880  29.286  29.170  1.00  0.00     0.049 A 
ATOM     46  N   UNL A   1      39.292  30.326  31.967  1.00  0.00    -0.248 NA
ATOM     47  C   UNL A   1      37.292  31.512  31.770  1.00  0.00     0.031 C 
ATOM     48  C   UNL A   1      38.748  28.785  27.799  1.00  0.00     0.029 A 
ATOM     49  N   UNL A   1      40.048  28.716  29.614  1.00  0.00    -0.354 N 
ATOM     50  C   UNL A   1      39.068  31.044  33.136  1.00  0.00     0.074 A 
ATOM     51  C   UNL A   1      37.853  31.804  32.935  1.00  0.00     0.031 C 
ATOM     52  C   UNL A   1      39.776  27.966  27.526  1.00  0.00     0.029 A 
ATOM     53  C   UNL A   1      40.670  27.922  28.677  1.00  0.00     0.049 A 
ATOM     54  H   UNL A   1      40.406  28.861  30.519  1.00  0.00     0.167 HD
ATOM     55  C   UNL A   1      39.799  31.053  34.278  1.00  0.00     0.034 A 
ATOM     56  C   UNL A   1      41.838  27.250  28.732  1.00  0.00     0.034 A 
ATOM     57  C   UNL A   1      41.006  30.283  34.466  1.00  0.00     0.049 A 
ATOM     58  C   UNL A   1      42.650  27.308  30.002  1.00  0.00     0.074 A 
ATOM     59  C   UNL A   1      41.789  30.176  35.602  1.00  0.00     0.029 A 
ATOM     60  N   UNL A   1      41.611  29.498  33.493  1.00  0.00    -0.354 N 
ATOM     61  N   UNL A   1      42.391  27.946  31.121  1.00  0.00    -0.248 NA
ATOM     62  C   UNL A   1      43.906  26.546  30.023  1.00  0.00     0.031 C 
ATOM     63  C   UNL A   1      42.906  29.393  35.293  1.00  0.00     0.029 A 
ATOM     64  C   UNL A   1      42.777  28.937  33.991  1.00  0.00     0.049 A 
ATOM     65  H   UNL A   1      41.263  29.361  32.581  1.00  0.00     0.167 HD
ATOM     66  C   UNL A   1      43.436  27.632  31.987  1.00  0.00     0.074 A 
ATOM     67  C   UNL A   1      44.314  26.734  31.268  1.00  0.00     0.031 C 
ATOM     68  C   UNL A   1      43.650  28.048  33.261  1.00  0.00     0.034 A 
BRANCH  55  69
ATOM     69  C   UNL A   1      39.330  31.943  35.405  1.00  0.00     0.023 A 
ATOM     70  C   UNL A   1      39.764  33.275  35.527  1.00  0.00     0.031 A 
ATOM     71  C   UNL A   1      38.428  31.455  36.367  1.00  0.00     0.131 A 
ATOM     72  C   UNL A   1      39.343  34.052  36.617  1.00  0.00     0.055 A 
ATOM     73  C   UNL A   1      37.952  32.256  37.405  1.00  0.00     0.041 A 
ATOM     74  F   UNL A   1      37.995  30.185  36.315  1.00  0.00    -0.206 F 
ATOM     75  C   UNL A   1      38.418  33.560  37.543  1.00  0.00     0.022 A 
BRANCH  72  76
ATOM     76  S   UNL A   1      40.114  35.672  36.877  1.00  0.00     0.124 S 
ATOM     77  O   UNL A   1      39.540  36.070  38.159  1.00  0.00    -0.237 OA
ATOM     78  O   UNL A   1      41.536  35.347  36.887  1.00  0.00    -0.237 OA
ATOM     79  O   UNL A   1      39.661  36.455  35.728  1.00  0.00    -0.744 OA
ENDBRANCH  72  76
ENDBRANCH  55  69
BRANCH  56  80
ATOM     80  C   UNL A   1      42.333  26.482  27.551  1.00  0.00     0.023 A 
ATOM     81  C   UNL A   1      42.122  25.098  27.447  1.00  0.00     0.031 A 
ATOM     82  C   UNL A   1      43.083  27.110  26.540  1.00  0.00     0.131 A 
ATOM     83  C   UNL A   1      42.708  24.376  26.394  1.00  0.00     0.055 A 
ATOM     84  C   UNL A   1      43.609  26.398  25.459  1.00  0.00     0.041 A 
ATOM     85  F   UNL A   1      43.314  28.432  26.585  1.00  0.00    -0.206 F 
ATOM     86  C   UNL A   1      43.437  25.019  25.392  1.00  0.00     0.022 A 
BRANCH  83  87
ATOM     87  S   UNL A   1      42.601  22.565  26.419  1.00  0.00     0.124 S 
ATOM     88  O   UNL A   1      42.656  22.247  24.997  1.00  0.00    -0.237 OA
ATOM     89  O   UNL A   1      43.776  22.205  27.204  1.00  0.00    -0.237 OA
ATOM     90  O   UNL A   1      41.317  22.310  27.068  1.00  0.00    -0.744 OA
ENDBRANCH  83  87
ENDBRANCH  56  80
BRANCH  68  91
ATOM     91  C   UNL A   1      44.860  27.491  33.972  1.00  0.00     0.023 A 
ATOM     92  C   UNL A   1      44.801  26.294  34.709  1.00  0.00     0.031 A 
ATOM     93  C   UNL A   1      46.087  28.176  33.923  1.00  0.00     0.131 A 
ATOM     94  C   UNL A   1      45.929  25.853  35.416  1.00  0.00     0.055 A 
ATOM     95  C   UNL A   1      47.225  27.694  34.572  1.00  0.00     0.041 A 
ATOM     96  F   UNL A   1      46.202  29.325  33.238  1.00  0.00    -0.206 F 
ATOM     97  C   UNL A   1      47.146  26.534  35.335  1.00  0.00     0.022 A 
BRANCH  94  98
ATOM     98  S   UNL A   1      45.759  24.428  36.525  1.00  0.00     0.124 S 
ATOM     99  O   UNL A   1      46.739  23.496  35.976  1.00  0.00    -0.237 OA
ATOM    100  O   UNL A   1      46.084  25.003  37.826  1.00  0.00    -0.237 OA
ATOM    101  O   UNL A   1      44.362  24.027  36.358  1.00  0.00    -0.744 OA
ENDBRANCH  94  98
ENDBRANCH  68  91
ENDBRANCH  42  43
ENDBRANCH  34  37
ENDBRANCH  32  33
ENDBRANCH  31  32
ENDBRANCH   1  31
TORSDOF 20
ENDMDL
