MODEL 1
REMARK VINA RESULT:     -12.6      0.000      0.000
REMARK SMILES CC(=O)N1CCC2(CC1)C[C@H](C(=O)NCCCCNC(=O)c1ccc(-c3c4nc(c(-c5cc(S(=O)(=O)[O-])ccc5F)c5ccc([nH]5)c(-c5cc(S(=O)(=O)[O-])ccc5F)c5nc(c(-c6cc(S(=O)(=O)[O-])ccc6F)c6ccc3[nH]6)C=C5)C=C4)cc1)[N@H+](Cc1ncc[nH]1)C2
REMARK SMILES IDX 17 1 16 2 15 3 14 4 12 5 13 6 11 8 1 9 2 10 3 11 4 12 5 13
REMARK SMILES IDX 9 14 6 15 8 16 7 17 10 18 92 19 85 20 86 22 87 23 88 24
REMARK SMILES IDX 91 25 89 26 90 27 18 29 19 30 20 31 21 33 22 34 23 35 84 36
REMARK SMILES IDX 24 37 83 38 25 39 26 40 27 41 77 42 28 43 82 44 76 45 78 46
REMARK SMILES IDX 29 47 81 48 75 49 74 50 30 52 62 53 42 54 61 55 43 56 46 57
REMARK SMILES IDX 60 58 79 59 44 60 45 61 59 63 80 64 47 65 31 66 32 67 40 68
REMARK SMILES IDX 33 69 39 70 41 71 38 72 34 73 35 74 36 75 37 76 63 77 64 78
REMARK SMILES IDX 72 79 65 80 71 81 73 82 70 83 66 84 67 85 68 86 69 87 48 88
REMARK SMILES IDX 49 89 57 90 50 91 56 92 58 93 55 94 51 95 52 96 53 97 54 98
REMARK H PARENT 14 7 85 21 91 28 19 32 78 51 46 62
REMARK Flexibility Score: inf
ROOT
ATOM      1  C   UNL A   1      35.534  21.786  24.552  1.00  0.00     0.023 C 
ENDROOT
BRANCH   1   2
ATOM      2  C   UNL A   1      35.287  22.852  23.479  1.00  0.00     0.023 C 
BRANCH   2   3
ATOM      3  C   UNL A   1      33.870  22.854  22.916  1.00  0.00     0.116 C 
BRANCH   3   4
ATOM      4  N   UNL A   1      33.608  24.004  22.079  1.00  0.00    -0.351 N 
ATOM      5  C   UNL A   1      33.479  25.316  22.402  1.00  0.00     0.278 C 
ATOM      6  O   UNL A   1      33.577  26.119  21.462  1.00  0.00    -0.268 OA
ATOM      7  H   UNL A   1      33.509  23.803  21.121  1.00  0.00     0.163 HD
BRANCH   5   8
ATOM      8  C   UNL A   1      33.201  25.846  23.819  1.00  0.00     0.275 C 
ATOM      9  C   UNL A   1      33.544  31.920  27.751  1.00  0.00     0.114 C 
ATOM     10  C   UNL A   1      32.291  31.549  27.005  1.00  0.00     0.219 C 
ATOM     11  O   UNL A   1      31.551  32.429  26.563  1.00  0.00    -0.275 OA
ATOM     12  N   UNL A   1      32.095  30.206  26.737  1.00  0.00    -0.343 N 
ATOM     13  C   UNL A   1      31.396  29.853  25.512  1.00  0.00     0.120 C 
ATOM     14  C   UNL A   1      32.615  29.080  27.508  1.00  0.00     0.120 C 
ATOM     15  C   UNL A   1      32.381  29.088  24.621  1.00  0.00     0.034 C 
ATOM     16  C   UNL A   1      33.512  28.185  26.655  1.00  0.00     0.034 C 
ATOM     17  C   UNL A   1      32.875  27.788  25.298  1.00  0.00     0.029 C 
ATOM     18  C   UNL A   1      33.920  27.054  24.420  1.00  0.00     0.088 C 
ATOM     19  C   UNL A   1      31.739  26.750  25.441  1.00  0.00     0.270 C 
ATOM     20  N   UNL A   1      31.797  25.928  24.244  1.00  0.00    -0.318 N 
ATOM     21  H   UNL A   1      31.498  24.978  24.466  1.00  0.00     0.349 HD
BRANCH  20  22
ATOM     22  C   UNL A   1      30.692  25.920  23.294  1.00  0.00     0.339 C 
BRANCH  22  23
ATOM     23  C   UNL A   1      30.082  27.240  22.928  1.00  0.00     0.161 A 
ATOM     24  N   UNL A   1      30.539  28.121  22.060  1.00  0.00    -0.236 NA
ATOM     25  N   UNL A   1      28.884  27.678  23.447  1.00  0.00    -0.344 N 
ATOM     26  C   UNL A   1      29.660  29.174  22.071  1.00  0.00     0.131 A 
ATOM     27  C   UNL A   1      28.627  28.921  22.938  1.00  0.00     0.104 A 
ATOM     28  H   UNL A   1      28.312  27.182  24.077  1.00  0.00     0.167 HD
ENDBRANCH  22  23
ENDBRANCH  20  22
ENDBRANCH   5   8
ENDBRANCH   3   4
ENDBRANCH   2   3
ENDBRANCH   1   2
BRANCH   1  29
ATOM     29  C   UNL A   1      36.661  22.088  25.541  1.00  0.00     0.116 C 
BRANCH  29  30
ATOM     30  N   UNL A   1      37.706  21.074  25.576  1.00  0.00    -0.352 N 
ATOM     31  C   UNL A   1      39.010  21.212  25.999  1.00  0.00     0.251 C 
ATOM     32  H   UNL A   1      37.449  20.179  25.257  1.00  0.00     0.163 HD
ATOM     33  O   UNL A   1      39.797  20.282  25.907  1.00  0.00    -0.269 OA
BRANCH  31  34
ATOM     34  C   UNL A   1      39.446  22.524  26.522  1.00  0.00     0.039 A 
ATOM     35  C   UNL A   1      40.475  22.567  27.465  1.00  0.00     0.014 A 
ATOM     36  C   UNL A   1      38.896  23.704  26.016  1.00  0.00     0.014 A 
ATOM     37  C   UNL A   1      41.016  23.800  27.835  1.00  0.00     0.010 A 
ATOM     38  C   UNL A   1      39.478  24.927  26.339  1.00  0.00     0.010 A 
ATOM     39  C   UNL A   1      40.553  24.984  27.240  1.00  0.00    -0.014 A 
BRANCH  39  40
ATOM     40  C   UNL A   1      41.197  26.293  27.527  1.00  0.00     0.031 A 
ATOM     41  C   UNL A   1      42.581  26.579  27.014  1.00  0.00     0.074 A 
ATOM     42  C   UNL A   1      40.567  27.186  28.315  1.00  0.00     0.049 A 
ATOM     43  N   UNL A   1      43.347  27.616  27.233  1.00  0.00    -0.248 NA
ATOM     44  C   UNL A   1      43.193  25.543  26.170  1.00  0.00     0.031 C 
ATOM     45  C   UNL A   1      39.245  26.999  28.918  1.00  0.00     0.029 A 
ATOM     46  N   UNL A   1      40.959  28.424  28.760  1.00  0.00    -0.354 N 
ATOM     47  C   UNL A   1      44.538  27.354  26.565  1.00  0.00     0.074 A 
ATOM     48  C   UNL A   1      44.410  26.032  25.988  1.00  0.00     0.031 C 
ATOM     49  C   UNL A   1      38.931  28.088  29.640  1.00  0.00     0.029 A 
ATOM     50  C   UNL A   1      40.041  29.033  29.584  1.00  0.00     0.049 A 
ATOM     51  H   UNL A   1      41.818  28.838  28.512  1.00  0.00     0.167 HD
ATOM     52  C   UNL A   1      45.627  28.151  26.425  1.00  0.00     0.034 A 
ATOM     53  C   UNL A   1      40.092  30.215  30.231  1.00  0.00     0.034 A 
ATOM     54  C   UNL A   1      45.735  29.470  27.001  1.00  0.00     0.049 A 
ATOM     55  C   UNL A   1      41.312  31.084  30.063  1.00  0.00     0.074 A 
ATOM     56  C   UNL A   1      46.771  30.380  26.886  1.00  0.00     0.029 A 
ATOM     57  N   UNL A   1      44.772  30.066  27.806  1.00  0.00    -0.354 N 
ATOM     58  N   UNL A   1      42.411  30.842  29.387  1.00  0.00    -0.248 NA
ATOM     59  C   UNL A   1      41.291  32.391  30.733  1.00  0.00     0.031 C 
ATOM     60  C   UNL A   1      46.459  31.503  27.662  1.00  0.00     0.029 A 
ATOM     61  C   UNL A   1      45.200  31.322  28.209  1.00  0.00     0.049 A 
ATOM     62  H   UNL A   1      43.912  29.656  28.053  1.00  0.00     0.167 HD
ATOM     63  C   UNL A   1      43.202  31.979  29.530  1.00  0.00     0.074 A 
ATOM     64  C   UNL A   1      42.447  32.910  30.344  1.00  0.00     0.031 C 
ATOM     65  C   UNL A   1      44.438  32.234  29.030  1.00  0.00     0.034 A 
BRANCH  52  66
ATOM     66  C   UNL A   1      46.787  27.596  25.635  1.00  0.00     0.023 A 
ATOM     67  C   UNL A   1      47.057  28.031  24.325  1.00  0.00     0.031 A 
ATOM     68  C   UNL A   1      47.608  26.593  26.176  1.00  0.00     0.131 A 
ATOM     69  C   UNL A   1      48.060  27.405  23.571  1.00  0.00     0.055 A 
ATOM     70  C   UNL A   1      48.662  26.032  25.450  1.00  0.00     0.041 A 
ATOM     71  F   UNL A   1      47.390  26.124  27.415  1.00  0.00    -0.206 F 
ATOM     72  C   UNL A   1      48.881  26.426  24.133  1.00  0.00     0.022 A 
BRANCH  69  73
ATOM     73  S   UNL A   1      48.177  27.786  21.801  1.00  0.00     0.124 S 
ATOM     74  O   UNL A   1      48.390  26.460  21.228  1.00  0.00    -0.237 OA
ATOM     75  O   UNL A   1      46.883  28.400  21.525  1.00  0.00    -0.237 OA
ATOM     76  O   UNL A   1      49.326  28.686  21.719  1.00  0.00    -0.744 OA
ENDBRANCH  69  73
ENDBRANCH  52  66
BRANCH  53  77
ATOM     77  C   UNL A   1      38.965  30.647  31.104  1.00  0.00     0.023 A 
ATOM     78  C   UNL A   1      37.960  31.497  30.620  1.00  0.00     0.031 A 
ATOM     79  C   UNL A   1      38.899  30.244  32.450  1.00  0.00     0.131 A 
ATOM     80  C   UNL A   1      36.954  31.955  31.486  1.00  0.00     0.055 A 
ATOM     81  C   UNL A   1      37.871  30.665  33.296  1.00  0.00     0.041 A 
ATOM     82  F   UNL A   1      39.832  29.423  32.959  1.00  0.00    -0.206 F 
ATOM     83  C   UNL A   1      36.897  31.537  32.817  1.00  0.00     0.022 A 
BRANCH  80  84
ATOM     84  S   UNL A   1      35.759  33.170  30.864  1.00  0.00     0.124 S 
ATOM     85  O   UNL A   1      35.993  34.301  31.756  1.00  0.00    -0.237 OA
ATOM     86  O   UNL A   1      36.194  33.342  29.482  1.00  0.00    -0.237 OA
ATOM     87  O   UNL A   1      34.472  32.499  31.032  1.00  0.00    -0.744 OA
ENDBRANCH  80  84
ENDBRANCH  53  77
BRANCH  65  88
ATOM     88  C   UNL A   1      45.023  33.593  29.319  1.00  0.00     0.023 A 
ATOM     89  C   UNL A   1      44.824  34.684  28.454  1.00  0.00     0.031 A 
ATOM     90  C   UNL A   1      45.800  33.794  30.473  1.00  0.00     0.131 A 
ATOM     91  C   UNL A   1      45.439  35.914  28.731  1.00  0.00     0.055 A 
ATOM     92  C   UNL A   1      46.366  35.034  30.771  1.00  0.00     0.041 A 
ATOM     93  F   UNL A   1      46.022  32.786  31.331  1.00  0.00    -0.206 F 
ATOM     94  C   UNL A   1      46.197  36.100  29.890  1.00  0.00     0.022 A 
BRANCH  91  95
ATOM     95  S   UNL A   1      45.304  37.250  27.511  1.00  0.00     0.124 S 
ATOM     96  O   UNL A   1      46.255  36.827  26.488  1.00  0.00    -0.237 OA
ATOM     97  O   UNL A   1      43.895  37.189  27.137  1.00  0.00    -0.237 OA
ATOM     98  O   UNL A   1      45.692  38.442  28.263  1.00  0.00    -0.744 OA
ENDBRANCH  91  95
ENDBRANCH  65  88
ENDBRANCH  39  40
ENDBRANCH  31  34
ENDBRANCH  29  30
ENDBRANCH   1  29
TORSDOF 16
ENDMDL
MODEL 2
REMARK VINA RESULT:     -12.6      1.315      7.679
REMARK SMILES CC(=O)N1CCC2(CC1)C[C@H](C(=O)NCCCCNC(=O)c1ccc(-c3c4nc(c(-c5cc(S(=O)(=O)[O-])ccc5F)c5ccc([nH]5)c(-c5cc(S(=O)(=O)[O-])ccc5F)c5nc(c(-c6cc(S(=O)(=O)[O-])ccc6F)c6ccc3[nH]6)C=C5)C=C4)cc1)[N@H+](Cc1ncc[nH]1)C2
REMARK SMILES IDX 17 1 16 2 15 3 14 4 12 5 13 6 11 8 1 9 2 10 3 11 4 12 5 13
REMARK SMILES IDX 9 14 6 15 8 16 7 17 10 18 92 19 85 20 86 22 87 23 88 24
REMARK SMILES IDX 91 25 89 26 90 27 18 29 19 30 20 31 21 33 22 34 23 35 84 36
REMARK SMILES IDX 24 37 83 38 25 39 26 40 27 41 77 42 28 43 82 44 76 45 78 46
REMARK SMILES IDX 29 47 81 48 75 49 74 50 30 52 62 53 42 54 61 55 43 56 46 57
REMARK SMILES IDX 60 58 79 59 44 60 45 61 59 63 80 64 47 65 31 66 32 67 40 68
REMARK SMILES IDX 33 69 39 70 41 71 38 72 34 73 35 74 36 75 37 76 63 77 64 78
REMARK SMILES IDX 72 79 65 80 71 81 73 82 70 83 66 84 67 85 68 86 69 87 48 88
REMARK SMILES IDX 49 89 57 90 50 91 56 92 58 93 55 94 51 95 52 96 53 97 54 98
REMARK H PARENT 14 7 85 21 91 28 19 32 78 51 46 62
REMARK Flexibility Score: inf
ROOT
ATOM      1  C   UNL A   1      35.002  21.534  25.599  1.00  0.00     0.023 C 
ENDROOT
BRANCH   1   2
ATOM      2  C   UNL A   1      34.192  22.119  24.438  1.00  0.00     0.023 C 
BRANCH   2   3
ATOM      3  C   UNL A   1      32.696  22.234  24.714  1.00  0.00     0.116 C 
BRANCH   3   4
ATOM      4  N   UNL A   1      32.408  23.042  25.878  1.00  0.00    -0.351 N 
ATOM      5  C   UNL A   1      31.637  24.151  26.010  1.00  0.00     0.278 C 
ATOM      6  O   UNL A   1      31.310  24.451  27.169  1.00  0.00    -0.268 OA
ATOM      7  H   UNL A   1      32.841  22.739  26.708  1.00  0.00     0.163 HD
BRANCH   5   8
ATOM      8  C   UNL A   1      31.180  25.044  24.844  1.00  0.00     0.275 C 
ATOM      9  C   UNL A   1      27.503  31.138  23.496  1.00  0.00     0.114 C 
ATOM     10  C   UNL A   1      28.992  31.162  23.708  1.00  0.00     0.219 C 
ATOM     11  O   UNL A   1      29.530  32.148  24.214  1.00  0.00    -0.275 OA
ATOM     12  N   UNL A   1      29.684  29.996  23.432  1.00  0.00    -0.343 N 
ATOM     13  C   UNL A   1      30.865  29.703  24.228  1.00  0.00     0.120 C 
ATOM     14  C   UNL A   1      29.292  28.954  22.486  1.00  0.00     0.120 C 
ATOM     15  C   UNL A   1      30.581  28.426  25.026  1.00  0.00     0.034 C 
ATOM     16  C   UNL A   1      29.110  27.607  23.183  1.00  0.00     0.034 C 
ATOM     17  C   UNL A   1      30.301  27.220  24.098  1.00  0.00     0.029 C 
ATOM     18  C   UNL A   1      29.950  25.949  24.911  1.00  0.00     0.088 C 
ATOM     19  C   UNL A   1      31.562  26.800  23.309  1.00  0.00     0.270 C 
ATOM     20  N   UNL A   1      32.220  25.788  24.118  1.00  0.00    -0.318 N 
ATOM     21  H   UNL A   1      32.693  25.119  23.510  1.00  0.00     0.349 HD
BRANCH  20  22
ATOM     22  C   UNL A   1      33.543  26.027  24.678  1.00  0.00     0.339 C 
BRANCH  22  23
ATOM     23  C   UNL A   1      33.739  27.275  25.487  1.00  0.00     0.161 A 
ATOM     24  N   UNL A   1      34.238  28.425  25.077  1.00  0.00    -0.236 NA
ATOM     25  N   UNL A   1      33.349  27.381  26.803  1.00  0.00    -0.344 N 
ATOM     26  C   UNL A   1      34.235  29.262  26.163  1.00  0.00     0.131 A 
ATOM     27  C   UNL A   1      33.694  28.626  27.251  1.00  0.00     0.104 A 
ATOM     28  H   UNL A   1      32.900  26.681  27.330  1.00  0.00     0.167 HD
ENDBRANCH  22  23
ENDBRANCH  20  22
ENDBRANCH   5   8
ENDBRANCH   3   4
ENDBRANCH   2   3
ENDBRANCH   1   2
BRANCH   1  29
ATOM     29  C   UNL A   1      36.448  22.022  25.714  1.00  0.00     0.116 C 
BRANCH  29  30
ATOM     30  N   UNL A   1      37.441  20.962  25.609  1.00  0.00    -0.352 N 
ATOM     31  C   UNL A   1      38.778  21.016  25.937  1.00  0.00     0.251 C 
ATOM     32  H   UNL A   1      37.116  20.101  25.261  1.00  0.00     0.163 HD
ATOM     33  O   UNL A   1      39.509  20.058  25.730  1.00  0.00    -0.269 OA
BRANCH  31  34
ATOM     34  C   UNL A   1      39.316  22.273  26.499  1.00  0.00     0.039 A 
ATOM     35  C   UNL A   1      40.417  22.212  27.357  1.00  0.00     0.014 A 
ATOM     36  C   UNL A   1      38.786  23.504  26.108  1.00  0.00     0.014 A 
ATOM     37  C   UNL A   1      41.044  23.395  27.753  1.00  0.00     0.010 A 
ATOM     38  C   UNL A   1      39.450  24.678  26.454  1.00  0.00     0.010 A 
ATOM     39  C   UNL A   1      40.594  24.633  27.267  1.00  0.00    -0.014 A 
BRANCH  39  40
ATOM     40  C   UNL A   1      41.320  25.892  27.577  1.00  0.00     0.031 A 
ATOM     41  C   UNL A   1      40.639  26.980  28.360  1.00  0.00     0.074 A 
ATOM     42  C   UNL A   1      42.560  26.084  27.085  1.00  0.00     0.049 A 
ATOM     43  N   UNL A   1      41.066  28.181  28.652  1.00  0.00    -0.248 NA
ATOM     44  C   UNL A   1      39.285  26.684  28.849  1.00  0.00     0.031 C 
ATOM     45  C   UNL A   1      43.302  25.124  26.265  1.00  0.00     0.029 A 
ATOM     46  N   UNL A   1      43.409  27.157  27.187  1.00  0.00    -0.354 N 
ATOM     47  C   UNL A   1      40.029  28.792  29.349  1.00  0.00     0.074 A 
ATOM     48  C   UNL A   1      38.932  27.847  29.377  1.00  0.00     0.031 C 
ATOM     49  C   UNL A   1      44.500  25.646  25.952  1.00  0.00     0.029 A 
ATOM     50  C   UNL A   1      44.598  26.989  26.514  1.00  0.00     0.049 A 
ATOM     51  H   UNL A   1      43.188  27.972  27.694  1.00  0.00     0.167 HD
ATOM     52  C   UNL A   1      40.002  30.017  29.930  1.00  0.00     0.034 A 
ATOM     53  C   UNL A   1      45.643  27.826  26.358  1.00  0.00     0.034 A 
ATOM     54  C   UNL A   1      41.107  30.945  29.899  1.00  0.00     0.049 A 
ATOM     55  C   UNL A   1      45.592  29.183  27.012  1.00  0.00     0.074 A 
ATOM     56  C   UNL A   1      41.206  32.191  30.491  1.00  0.00     0.029 A 
ATOM     57  N   UNL A   1      42.307  30.728  29.232  1.00  0.00    -0.354 N 
ATOM     58  N   UNL A   1      44.622  29.727  27.710  1.00  0.00    -0.248 NA
ATOM     59  C   UNL A   1      46.782  30.031  26.870  1.00  0.00     0.031 C 
ATOM     60  C   UNL A   1      42.442  32.749  30.141  1.00  0.00     0.029 A 
ATOM     61  C   UNL A   1      43.142  31.825  29.384  1.00  0.00     0.049 A 
ATOM     62  H   UNL A   1      42.532  29.913  28.727  1.00  0.00     0.167 HD
ATOM     63  C   UNL A   1      45.097  30.973  28.112  1.00  0.00     0.074 A 
ATOM     64  C   UNL A   1      46.444  31.091  27.590  1.00  0.00     0.031 C 
ATOM     65  C   UNL A   1      44.479  31.930  28.849  1.00  0.00     0.034 A 
BRANCH  52  66
ATOM     66  C   UNL A   1      38.725  30.419  30.628  1.00  0.00     0.023 A 
ATOM     67  C   UNL A   1      37.689  31.075  29.940  1.00  0.00     0.031 A 
ATOM     68  C   UNL A   1      38.556  30.184  32.003  1.00  0.00     0.131 A 
ATOM     69  C   UNL A   1      36.572  31.551  30.643  1.00  0.00     0.055 A 
ATOM     70  C   UNL A   1      37.402  30.585  32.682  1.00  0.00     0.041 A 
ATOM     71  F   UNL A   1      39.517  29.578  32.717  1.00  0.00    -0.206 F 
ATOM     72  C   UNL A   1      36.410  31.288  32.004  1.00  0.00     0.022 A 
BRANCH  69  73
ATOM     73  S   UNL A   1      35.410  32.645  29.781  1.00  0.00     0.124 S 
ATOM     74  O   UNL A   1      35.008  31.814  28.649  1.00  0.00    -0.237 OA
ATOM     75  O   UNL A   1      34.389  32.882  30.794  1.00  0.00    -0.237 OA
ATOM     76  O   UNL A   1      36.227  33.807  29.434  1.00  0.00    -0.744 OA
ENDBRANCH  69  73
ENDBRANCH  52  66
BRANCH  53  77
ATOM     77  C   UNL A   1      46.822  27.417  25.545  1.00  0.00     0.023 A 
ATOM     78  C   UNL A   1      46.971  27.849  24.219  1.00  0.00     0.031 A 
ATOM     79  C   UNL A   1      47.799  26.555  26.073  1.00  0.00     0.131 A 
ATOM     80  C   UNL A   1      48.049  27.384  23.448  1.00  0.00     0.055 A 
ATOM     81  C   UNL A   1      48.895  26.131  25.318  1.00  0.00     0.041 A 
ATOM     82  F   UNL A   1      47.708  26.121  27.341  1.00  0.00    -0.206 F 
ATOM     83  C   UNL A   1      49.017  26.536  23.992  1.00  0.00     0.022 A 
BRANCH  80  84
ATOM     84  S   UNL A   1      48.126  27.844  21.695  1.00  0.00     0.124 S 
ATOM     85  O   UNL A   1      49.296  28.715  21.667  1.00  0.00    -0.237 OA
ATOM     86  O   UNL A   1      48.279  26.544  21.049  1.00  0.00    -0.237 OA
ATOM     87  O   UNL A   1      46.847  28.508  21.461  1.00  0.00    -0.744 OA
ENDBRANCH  80  84
ENDBRANCH  53  77
BRANCH  65  88
ATOM     88  C   UNL A   1      45.279  33.168  29.166  1.00  0.00     0.023 A 
ATOM     89  C   UNL A   1      45.263  34.295  28.326  1.00  0.00     0.031 A 
ATOM     90  C   UNL A   1      46.078  33.212  30.323  1.00  0.00     0.131 A 
ATOM     91  C   UNL A   1      46.072  35.401  28.629  1.00  0.00     0.055 A 
ATOM     92  C   UNL A   1      46.840  34.335  30.646  1.00  0.00     0.041 A 
ATOM     93  F   UNL A   1      46.130  32.162  31.158  1.00  0.00    -0.206 F 
ATOM     94  C   UNL A   1      46.850  35.434  29.790  1.00  0.00     0.022 A 
BRANCH  91  95
ATOM     95  S   UNL A   1      46.159  36.768  27.440  1.00  0.00     0.124 S 
ATOM     96  O   UNL A   1      47.223  36.325  26.544  1.00  0.00    -0.237 OA
ATOM     97  O   UNL A   1      44.813  36.779  26.877  1.00  0.00    -0.237 OA
ATOM     98  O   UNL A   1      46.490  37.925  28.271  1.00  0.00    -0.744 OA
ENDBRANCH  91  95
ENDBRANCH  65  88
ENDBRANCH  39  40
ENDBRANCH  31  34
ENDBRANCH  29  30
ENDBRANCH   1  29
TORSDOF 16
ENDMDL
MODEL 3
REMARK VINA RESULT:     -12.6      4.926     10.503
REMARK SMILES CC(=O)N1CCC2(CC1)C[C@H](C(=O)NCCCCNC(=O)c1ccc(-c3c4nc(c(-c5cc(S(=O)(=O)[O-])ccc5F)c5ccc([nH]5)c(-c5cc(S(=O)(=O)[O-])ccc5F)c5nc(c(-c6cc(S(=O)(=O)[O-])ccc6F)c6ccc3[nH]6)C=C5)C=C4)cc1)[N@H+](Cc1ncc[nH]1)C2
REMARK SMILES IDX 17 1 16 2 15 3 14 4 12 5 13 6 11 8 1 9 2 10 3 11 4 12 5 13
REMARK SMILES IDX 9 14 6 15 8 16 7 17 10 18 92 19 85 20 86 22 87 23 88 24
REMARK SMILES IDX 91 25 89 26 90 27 18 29 19 30 20 31 21 33 22 34 23 35 84 36
REMARK SMILES IDX 24 37 83 38 25 39 26 40 27 41 77 42 28 43 82 44 76 45 78 46
REMARK SMILES IDX 29 47 81 48 75 49 74 50 30 52 62 53 42 54 61 55 43 56 46 57
REMARK SMILES IDX 60 58 79 59 44 60 45 61 59 63 80 64 47 65 31 66 32 67 40 68
REMARK SMILES IDX 33 69 39 70 41 71 38 72 34 73 35 74 36 75 37 76 63 77 64 78
REMARK SMILES IDX 72 79 65 80 71 81 73 82 70 83 66 84 67 85 68 86 69 87 48 88
REMARK SMILES IDX 49 89 57 90 50 91 56 92 58 93 55 94 51 95 52 96 53 97 54 98
REMARK H PARENT 14 7 85 21 91 28 19 32 78 51 46 62
REMARK Flexibility Score: inf
ROOT
ATOM      1  C   UNL A   1      31.833  28.616  25.817  1.00  0.00     0.023 C 
ENDROOT
BRANCH   1   2
ATOM      2  C   UNL A   1      31.474  27.388  26.661  1.00  0.00     0.023 C 
BRANCH   2   3
ATOM      3  C   UNL A   1      30.610  26.362  25.937  1.00  0.00     0.116 C 
BRANCH   3   4
ATOM      4  N   UNL A   1      30.604  25.077  26.599  1.00  0.00    -0.351 N 
ATOM      5  C   UNL A   1      31.593  24.160  26.749  1.00  0.00     0.278 C 
ATOM      6  O   UNL A   1      31.410  23.301  27.626  1.00  0.00    -0.268 OA
ATOM      7  H   UNL A   1      29.744  24.827  27.008  1.00  0.00     0.163 HD
BRANCH   5   8
ATOM      8  C   UNL A   1      32.876  24.109  25.902  1.00  0.00     0.275 C 
ATOM      9  C   UNL A   1      39.601  21.418  25.985  1.00  0.00     0.114 C 
ATOM     10  C   UNL A   1      38.464  20.643  25.377  1.00  0.00     0.219 C 
ATOM     11  O   UNL A   1      38.469  19.412  25.405  1.00  0.00    -0.275 OA
ATOM     12  N   UNL A   1      37.382  21.374  24.919  1.00  0.00    -0.343 N 
ATOM     13  C   UNL A   1      36.066  20.762  25.001  1.00  0.00     0.120 C 
ATOM     14  C   UNL A   1      37.401  22.757  24.451  1.00  0.00     0.120 C 
ATOM     15  C   UNL A   1      35.227  21.599  25.974  1.00  0.00     0.034 C 
ATOM     16  C   UNL A   1      36.485  23.644  25.291  1.00  0.00     0.034 C 
ATOM     17  C   UNL A   1      35.062  23.057  25.481  1.00  0.00     0.029 C 
ATOM     18  C   UNL A   1      34.270  23.914  26.500  1.00  0.00     0.088 C 
ATOM     19  C   UNL A   1      34.197  23.134  24.202  1.00  0.00     0.270 C 
ATOM     20  N   UNL A   1      32.831  23.330  24.657  1.00  0.00    -0.318 N 
ATOM     21  H   UNL A   1      32.321  23.892  23.975  1.00  0.00     0.349 HD
BRANCH  20  22
ATOM     22  C   UNL A   1      31.811  22.321  24.404  1.00  0.00     0.339 C 
BRANCH  22  23
ATOM     23  C   UNL A   1      32.227  20.882  24.475  1.00  0.00     0.161 A 
ATOM     24  N   UNL A   1      32.561  20.094  23.472  1.00  0.00    -0.236 NA
ATOM     25  N   UNL A   1      32.365  20.203  25.665  1.00  0.00    -0.344 N 
ATOM     26  C   UNL A   1      32.850  18.869  24.016  1.00  0.00     0.131 A 
ATOM     27  C   UNL A   1      32.724  18.913  25.381  1.00  0.00     0.104 A 
ATOM     28  H   UNL A   1      32.228  20.580  26.564  1.00  0.00     0.167 HD
ENDBRANCH  22  23
ENDBRANCH  20  22
ENDBRANCH   5   8
ENDBRANCH   3   4
ENDBRANCH   2   3
ENDBRANCH   1   2
BRANCH   1  29
ATOM     29  C   UNL A   1      33.086  29.378  26.251  1.00  0.00     0.116 C 
BRANCH  29  30
ATOM     30  N   UNL A   1      32.845  30.776  26.581  1.00  0.00    -0.352 N 
ATOM     31  C   UNL A   1      33.620  31.611  27.355  1.00  0.00     0.251 C 
ATOM     32  H   UNL A   1      32.027  31.172  26.204  1.00  0.00     0.163 HD
ATOM     33  O   UNL A   1      33.253  32.751  27.601  1.00  0.00    -0.269 OA
BRANCH  31  34
ATOM     34  C   UNL A   1      34.880  31.083  27.920  1.00  0.00     0.039 A 
ATOM     35  C   UNL A   1      35.969  31.945  28.062  1.00  0.00     0.014 A 
ATOM     36  C   UNL A   1      34.949  29.766  28.381  1.00  0.00     0.014 A 
ATOM     37  C   UNL A   1      37.103  31.510  28.753  1.00  0.00     0.010 A 
ATOM     38  C   UNL A   1      36.054  29.356  29.122  1.00  0.00     0.010 A 
ATOM     39  C   UNL A   1      37.134  30.229  29.328  1.00  0.00    -0.014 A 
BRANCH  39  40
ATOM     40  C   UNL A   1      38.277  29.791  30.170  1.00  0.00     0.031 A 
ATOM     41  C   UNL A   1      38.451  30.353  31.553  1.00  0.00     0.074 A 
ATOM     42  C   UNL A   1      39.199  28.951  29.657  1.00  0.00     0.049 A 
ATOM     43  N   UNL A   1      39.427  30.170  32.404  1.00  0.00    -0.248 NA
ATOM     44  C   UNL A   1      37.402  31.268  32.024  1.00  0.00     0.031 C 
ATOM     45  C   UNL A   1      39.167  28.383  28.308  1.00  0.00     0.029 A 
ATOM     46  N   UNL A   1      40.350  28.441  30.203  1.00  0.00    -0.354 N 
ATOM     47  C   UNL A   1      39.118  30.956  33.508  1.00  0.00     0.074 A 
ATOM     48  C   UNL A   1      37.896  31.664  33.188  1.00  0.00     0.031 C 
ATOM     49  C   UNL A   1      40.240  27.592  28.137  1.00  0.00     0.029 A 
ATOM     50  C   UNL A   1      41.055  27.626  29.347  1.00  0.00     0.049 A 
ATOM     51  H   UNL A   1      40.644  28.640  31.122  1.00  0.00     0.167 HD
ATOM     52  C   UNL A   1      39.779  31.061  34.689  1.00  0.00     0.034 A 
ATOM     53  C   UNL A   1      42.230  26.988  29.515  1.00  0.00     0.034 A 
ATOM     54  C   UNL A   1      40.992  30.343  34.996  1.00  0.00     0.049 A 
ATOM     55  C   UNL A   1      42.948  27.118  30.834  1.00  0.00     0.074 A 
ATOM     56  C   UNL A   1      41.720  30.338  36.173  1.00  0.00     0.029 A 
ATOM     57  N   UNL A   1      41.662  29.502  34.114  1.00  0.00    -0.354 N 
ATOM     58  N   UNL A   1      42.617  27.828  31.887  1.00  0.00    -0.248 NA
ATOM     59  C   UNL A   1      44.189  26.349  30.991  1.00  0.00     0.031 C 
ATOM     60  C   UNL A   1      42.854  29.539  35.988  1.00  0.00     0.029 A 
ATOM     61  C   UNL A   1      42.802  28.992  34.716  1.00  0.00     0.049 A 
ATOM     62  H   UNL A   1      41.369  29.299  33.196  1.00  0.00     0.167 HD
ATOM     63  C   UNL A   1      43.597  27.570  32.842  1.00  0.00     0.074 A 
ATOM     64  C   UNL A   1      44.522  26.629  32.243  1.00  0.00     0.031 C 
ATOM     65  C   UNL A   1      43.719  28.062  34.101  1.00  0.00     0.034 A 
BRANCH  52  66
ATOM     66  C   UNL A   1      39.203  32.003  35.718  1.00  0.00     0.023 A 
ATOM     67  C   UNL A   1      39.628  33.341  35.806  1.00  0.00     0.031 A 
ATOM     68  C   UNL A   1      38.251  31.553  36.648  1.00  0.00     0.131 A 
ATOM     69  C   UNL A   1      39.171  34.154  36.854  1.00  0.00     0.055 A 
ATOM     70  C   UNL A   1      37.735  32.393  37.638  1.00  0.00     0.041 A 
ATOM     71  F   UNL A   1      37.819  30.283  36.626  1.00  0.00    -0.206 F 
ATOM     72  C   UNL A   1      38.208  33.697  37.755  1.00  0.00     0.022 A 
BRANCH  69  73
ATOM     73  S   UNL A   1      39.965  35.765  37.107  1.00  0.00     0.124 S 
ATOM     74  O   UNL A   1      39.278  36.247  38.303  1.00  0.00    -0.237 OA
ATOM     75  O   UNL A   1      41.366  35.403  37.277  1.00  0.00    -0.237 OA
ATOM     76  O   UNL A   1      39.653  36.498  35.881  1.00  0.00    -0.744 OA
ENDBRANCH  69  73
ENDBRANCH  52  66
BRANCH  53  77
ATOM     77  C   UNL A   1      42.812  26.175  28.410  1.00  0.00     0.023 A 
ATOM     78  C   UNL A   1      43.907  26.642  27.667  1.00  0.00     0.031 A 
ATOM     79  C   UNL A   1      42.253  24.934  28.055  1.00  0.00     0.131 A 
ATOM     80  C   UNL A   1      44.384  25.895  26.578  1.00  0.00     0.055 A 
ATOM     81  C   UNL A   1      42.760  24.172  27.000  1.00  0.00     0.041 A 
ATOM     82  F   UNL A   1      41.210  24.439  28.740  1.00  0.00    -0.206 F 
ATOM     83  C   UNL A   1      43.825  24.659  26.247  1.00  0.00     0.022 A 
BRANCH  80  84
ATOM     84  S   UNL A   1      45.703  26.600  25.552  1.00  0.00     0.124 S 
ATOM     85  O   UNL A   1      46.735  26.880  26.543  1.00  0.00    -0.237 OA
ATOM     86  O   UNL A   1      45.982  25.507  24.626  1.00  0.00    -0.237 OA
ATOM     87  O   UNL A   1      45.076  27.776  24.954  1.00  0.00    -0.744 OA
ENDBRANCH  80  84
ENDBRANCH  53  77
BRANCH  65  88
ATOM     88  C   UNL A   1      44.875  27.550  34.922  1.00  0.00     0.023 A 
ATOM     89  C   UNL A   1      44.771  26.383  35.700  1.00  0.00     0.031 A 
ATOM     90  C   UNL A   1      46.095  28.249  34.933  1.00  0.00     0.131 A 
ATOM     91  C   UNL A   1      45.853  25.979  36.498  1.00  0.00     0.055 A 
ATOM     92  C   UNL A   1      47.185  27.813  35.688  1.00  0.00     0.041 A 
ATOM     93  F   UNL A   1      46.247  29.369  34.209  1.00  0.00    -0.206 F 
ATOM     94  C   UNL A   1      47.063  26.678  36.486  1.00  0.00     0.022 A 
BRANCH  91  95
ATOM     95  S   UNL A   1      45.630  24.569  37.617  1.00  0.00     0.124 S 
ATOM     96  O   UNL A   1      46.944  24.469  38.246  1.00  0.00    -0.237 OA
ATOM     97  O   UNL A   1      44.543  25.022  38.479  1.00  0.00    -0.237 OA
ATOM     98  O   UNL A   1      45.287  23.467  36.718  1.00  0.00    -0.744 OA
ENDBRANCH  91  95
ENDBRANCH  65  88
ENDBRANCH  39  40
ENDBRANCH  31  34
ENDBRANCH  29  30
ENDBRANCH   1  29
TORSDOF 16
ENDMDL
