MODEL 1
REMARK VINA RESULT:     -10.1      0.000      0.000
REMARK SMILES CCOc1ccc(-c2cc(Cl)cc3c2O[C@H](C(F)(F)F)C(C(=O)NCCCCNC(=O)c2ccc(-c4c5nc(c(-c6cc(S(=O)(=O)[O-])ccc6F)c6ccc([nH]6)c(-c6cc(S(=O)(=O)[O-])ccc6F)c6nc(c(-c7cc(S(=O)(=O)[O-])ccc7F)c7ccc4[nH]7)C=C6)C=C5)cc2)=C3)cc1
REMARK SMILES IDX 26 1 25 2 24 3 22 4 23 5 21 7 8 8 9 9 14 10 10 11 13 12
REMARK SMILES IDX 15 13 11 14 12 15 95 16 16 17 7 18 4 19 5 20 97 21 6 22
REMARK SMILES IDX 96 23 3 24 2 25 1 26 17 27 18 28 19 29 20 30 27 31 28 32
REMARK SMILES IDX 29 33 30 34 31 36 32 37 33 38 94 39 34 40 93 41 35 42 36 43
REMARK SMILES IDX 37 44 87 45 38 46 92 47 86 48 88 49 39 50 91 51 85 52 84 53
REMARK SMILES IDX 40 55 72 56 52 57 71 58 53 59 56 60 70 61 89 62 54 63 55 64
REMARK SMILES IDX 69 66 90 67 57 68 41 69 42 70 50 71 43 72 49 73 51 74 48 75
REMARK SMILES IDX 44 76 45 77 46 78 47 79 73 80 74 81 82 82 75 83 81 84 83 85
REMARK SMILES IDX 80 86 76 87 77 88 78 89 79 90 58 91 59 92 67 93 60 94 66 95
REMARK SMILES IDX 68 96 65 97 61 98 62 99 63 100 64 101
REMARK H PARENT 24 6 29 35 88 54 56 65
REMARK Flexibility Score: inf
ROOT
ATOM      1  C   UNL A   1      36.963  33.196  28.465  1.00  0.00     0.023 C 
ENDROOT
BRANCH   1   2
ATOM      2  C   UNL A   1      37.306  34.258  29.520  1.00  0.00     0.116 C 
BRANCH   2   3
ATOM      3  N   UNL A   1      38.235  33.706  30.482  1.00  0.00    -0.352 N 
ATOM      4  C   UNL A   1      38.111  33.601  31.825  1.00  0.00     0.251 C 
ATOM      5  O   UNL A   1      39.118  33.702  32.516  1.00  0.00    -0.270 OA
ATOM      6  H   UNL A   1      39.076  33.358  30.106  1.00  0.00     0.163 HD
BRANCH   4   7
ATOM      7  C   UNL A   1      36.773  33.248  32.393  1.00  0.00     0.067 C 
ATOM      8  C   UNL A   1      37.972  32.078  36.111  1.00  0.00     0.026 A 
ATOM      9  C   UNL A   1      39.118  31.265  35.922  1.00  0.00     0.033 A 
ATOM     10  C   UNL A   1      37.216  32.365  34.958  1.00  0.00     0.135 A 
ATOM     11  C   UNL A   1      39.381  30.609  34.722  1.00  0.00     0.042 A 
ATOM     12  C   UNL A   1      37.429  31.597  33.786  1.00  0.00     0.019 A 
ATOM     13  O   UNL A   1      36.305  33.411  34.880  1.00  0.00    -0.475 OA
ATOM     14  Cl  UNL A   1      40.797  29.649  34.568  1.00  0.00    -0.084 Cl
ATOM     15  C   UNL A   1      38.490  30.703  33.671  1.00  0.00     0.032 A 
ATOM     16  C   UNL A   1      36.623  31.923  32.589  1.00  0.00     0.025 C 
ATOM     17  C   UNL A   1      36.322  34.122  33.559  1.00  0.00     0.314 C 
BRANCH   8  18
ATOM     18  C   UNL A   1      37.594  32.293  37.536  1.00  0.00    -0.014 A 
ATOM     19  C   UNL A   1      37.797  32.159  40.371  1.00  0.00     0.119 A 
ATOM     20  C   UNL A   1      38.260  33.280  39.688  1.00  0.00     0.047 A 
ATOM     21  C   UNL A   1      37.130  31.163  39.664  1.00  0.00     0.047 A 
ATOM     22  C   UNL A   1      38.150  33.352  38.288  1.00  0.00     0.013 A 
ATOM     23  C   UNL A   1      37.025  31.231  38.263  1.00  0.00     0.013 A 
BRANCH  19  24
ATOM     24  O   UNL A   1      37.923  32.148  41.733  1.00  0.00    -0.494 OA
BRANCH  24  25
ATOM     25  C   UNL A   1      37.230  31.088  42.408  1.00  0.00     0.226 C 
ATOM     26  C   UNL A   1      38.175  29.966  42.811  1.00  0.00     0.049 C 
ENDBRANCH  24  25
ENDBRANCH  19  24
ENDBRANCH   8  18
BRANCH  17  27
ATOM     27  C   UNL A   1      34.937  34.714  33.209  1.00  0.00     0.429 C 
ATOM     28  F   UNL A   1      34.734  35.931  33.762  1.00  0.00    -0.167 F 
ATOM     29  F   UNL A   1      34.782  34.844  31.868  1.00  0.00    -0.167 F 
ATOM     30  F   UNL A   1      33.911  33.926  33.630  1.00  0.00    -0.167 F 
ENDBRANCH  17  27
ENDBRANCH   4   7
ENDBRANCH   2   3
ENDBRANCH   1   2
BRANCH   1  31
ATOM     31  C   UNL A   1      35.475  33.098  28.093  1.00  0.00     0.023 C 
BRANCH  31  32
ATOM     32  C   UNL A   1      34.618  32.304  29.071  1.00  0.00     0.116 C 
BRANCH  32  33
ATOM     33  N   UNL A   1      34.062  31.111  28.456  1.00  0.00    -0.352 N 
ATOM     34  C   UNL A   1      34.706  29.981  28.015  1.00  0.00     0.251 C 
ATOM     35  H   UNL A   1      33.084  31.113  28.338  1.00  0.00     0.163 HD
ATOM     36  O   UNL A   1      34.093  29.166  27.324  1.00  0.00    -0.269 OA
BRANCH  34  37
ATOM     37  C   UNL A   1      36.131  29.759  28.343  1.00  0.00     0.039 A 
ATOM     38  C   UNL A   1      36.469  29.314  29.623  1.00  0.00     0.014 A 
ATOM     39  C   UNL A   1      37.133  29.984  27.393  1.00  0.00     0.014 A 
ATOM     40  C   UNL A   1      37.802  29.027  29.926  1.00  0.00     0.010 A 
ATOM     41  C   UNL A   1      38.450  29.625  27.675  1.00  0.00     0.010 A 
ATOM     42  C   UNL A   1      38.800  29.139  28.944  1.00  0.00    -0.014 A 
BRANCH  42  43
ATOM     43  C   UNL A   1      40.204  28.734  29.226  1.00  0.00     0.031 A 
ATOM     44  C   UNL A   1      41.067  29.560  30.141  1.00  0.00     0.074 A 
ATOM     45  C   UNL A   1      40.716  27.646  28.615  1.00  0.00     0.049 A 
ATOM     46  N   UNL A   1      42.323  29.393  30.467  1.00  0.00    -0.248 NA
ATOM     47  C   UNL A   1      40.443  30.746  30.746  1.00  0.00     0.031 C 
ATOM     48  C   UNL A   1      39.992  26.787  27.674  1.00  0.00     0.029 A 
ATOM     49  N   UNL A   1      41.962  27.076  28.688  1.00  0.00    -0.354 N 
ATOM     50  C   UNL A   1      42.643  30.453  31.310  1.00  0.00     0.074 A 
ATOM     51  C   UNL A   1      41.466  31.291  31.388  1.00  0.00     0.031 C 
ATOM     52  C   UNL A   1      40.795  25.785  27.285  1.00  0.00     0.029 A 
ATOM     53  C   UNL A   1      42.105  25.953  27.903  1.00  0.00     0.049 A 
ATOM     54  H   UNL A   1      42.687  27.435  29.249  1.00  0.00     0.167 HD
ATOM     55  C   UNL A   1      43.802  30.691  31.974  1.00  0.00     0.034 A 
ATOM     56  C   UNL A   1      43.174  25.157  27.693  1.00  0.00     0.034 A 
ATOM     57  C   UNL A   1      44.967  29.842  31.886  1.00  0.00     0.049 A 
ATOM     58  C   UNL A   1      44.462  25.465  28.413  1.00  0.00     0.074 A 
ATOM     59  C   UNL A   1      46.171  29.962  32.557  1.00  0.00     0.029 A 
ATOM     60  N   UNL A   1      45.080  28.724  31.070  1.00  0.00    -0.354 N 
ATOM     61  N   UNL A   1      44.728  26.440  29.252  1.00  0.00    -0.248 NA
ATOM     62  C   UNL A   1      45.591  24.558  28.166  1.00  0.00     0.031 C 
ATOM     63  C   UNL A   1      47.037  28.968  32.089  1.00  0.00     0.029 A 
ATOM     64  C   UNL A   1      46.346  28.170  31.191  1.00  0.00     0.049 A 
ATOM     65  H   UNL A   1      44.365  28.375  30.489  1.00  0.00     0.167 HD
ATOM     66  C   UNL A   1      46.047  26.244  29.655  1.00  0.00     0.074 A 
ATOM     67  C   UNL A   1      46.511  25.047  28.984  1.00  0.00     0.031 C 
ATOM     68  C   UNL A   1      46.805  26.984  30.504  1.00  0.00     0.034 A 
BRANCH  55  69
ATOM     69  C   UNL A   1      43.871  31.935  32.831  1.00  0.00     0.023 A 
ATOM     70  C   UNL A   1      43.495  31.923  34.186  1.00  0.00     0.031 A 
ATOM     71  C   UNL A   1      44.302  33.156  32.282  1.00  0.00     0.131 A 
ATOM     72  C   UNL A   1      43.483  33.117  34.922  1.00  0.00     0.055 A 
ATOM     73  C   UNL A   1      44.370  34.324  33.044  1.00  0.00     0.041 A 
ATOM     74  F   UNL A   1      44.653  33.240  30.989  1.00  0.00    -0.206 F 
ATOM     75  C   UNL A   1      43.944  34.313  34.369  1.00  0.00     0.022 A 
BRANCH  72  76
ATOM     76  S   UNL A   1      42.713  33.112  36.566  1.00  0.00     0.124 S 
ATOM     77  O   UNL A   1      41.489  33.871  36.319  1.00  0.00    -0.237 OA
ATOM     78  O   UNL A   1      42.542  31.689  36.830  1.00  0.00    -0.237 OA
ATOM     79  O   UNL A   1      43.698  33.791  37.406  1.00  0.00    -0.744 OA
ENDBRANCH  72  76
ENDBRANCH  55  69
BRANCH  56  80
ATOM     80  C   UNL A   1      43.085  24.002  26.752  1.00  0.00     0.023 A 
ATOM     81  C   UNL A   1      42.393  22.832  27.105  1.00  0.00     0.031 A 
ATOM     82  C   UNL A   1      43.731  24.033  25.504  1.00  0.00     0.131 A 
ATOM     83  C   UNL A   1      42.408  21.723  26.246  1.00  0.00     0.055 A 
ATOM     84  C   UNL A   1      43.692  22.948  24.625  1.00  0.00     0.041 A 
ATOM     85  F   UNL A   1      44.405  25.126  25.114  1.00  0.00    -0.206 F 
ATOM     86  C   UNL A   1      43.039  21.779  25.001  1.00  0.00     0.022 A 
BRANCH  83  87
ATOM     87  S   UNL A   1      41.671  20.168  26.819  1.00  0.00     0.124 S 
ATOM     88  O   UNL A   1      42.756  19.599  27.610  1.00  0.00    -0.237 OA
ATOM     89  O   UNL A   1      40.511  20.642  27.568  1.00  0.00    -0.237 OA
ATOM     90  O   UNL A   1      41.363  19.459  25.579  1.00  0.00    -0.744 OA
ENDBRANCH  83  87
ENDBRANCH  56  80
BRANCH  68  91
ATOM     91  C   UNL A   1      48.206  26.489  30.782  1.00  0.00     0.023 A 
ATOM     92  C   UNL A   1      48.468  25.521  31.767  1.00  0.00     0.031 A 
ATOM     93  C   UNL A   1      49.297  27.011  30.064  1.00  0.00     0.131 A 
ATOM     94  C   UNL A   1      49.791  25.153  32.053  1.00  0.00     0.055 A 
ATOM     95  C   UNL A   1      50.605  26.590  30.305  1.00  0.00     0.041 A 
ATOM     96  F   UNL A   1      49.109  27.942  29.115  1.00  0.00    -0.206 F 
ATOM     97  C   UNL A   1      50.860  25.667  31.315  1.00  0.00     0.022 A 
BRANCH  94  98
ATOM     98  S   UNL A   1      50.107  24.079  33.480  1.00  0.00     0.124 S 
ATOM     99  O   UNL A   1      48.756  23.809  33.962  1.00  0.00    -0.237 OA
ATOM    100  O   UNL A   1      50.803  22.949  32.871  1.00  0.00    -0.237 OA
ATOM    101  O   UNL A   1      50.926  24.909  34.361  1.00  0.00    -0.744 OA
ENDBRANCH  94  98
ENDBRANCH  68  91
ENDBRANCH  42  43
ENDBRANCH  34  37
ENDBRANCH  32  33
ENDBRANCH  31  32
ENDBRANCH   1  31
TORSDOF 18
ENDMDL
MODEL 2
REMARK VINA RESULT:     -10.0      9.310     13.610
REMARK SMILES CCOc1ccc(-c2cc(Cl)cc3c2O[C@H](C(F)(F)F)C(C(=O)NCCCCNC(=O)c2ccc(-c4c5nc(c(-c6cc(S(=O)(=O)[O-])ccc6F)c6ccc([nH]6)c(-c6cc(S(=O)(=O)[O-])ccc6F)c6nc(c(-c7cc(S(=O)(=O)[O-])ccc7F)c7ccc4[nH]7)C=C6)C=C5)cc2)=C3)cc1
REMARK SMILES IDX 26 1 25 2 24 3 22 4 23 5 21 7 8 8 9 9 14 10 10 11 13 12
REMARK SMILES IDX 15 13 11 14 12 15 95 16 16 17 7 18 4 19 5 20 97 21 6 22
REMARK SMILES IDX 96 23 3 24 2 25 1 26 17 27 18 28 19 29 20 30 27 31 28 32
REMARK SMILES IDX 29 33 30 34 31 36 32 37 33 38 94 39 34 40 93 41 35 42 36 43
REMARK SMILES IDX 37 44 87 45 38 46 92 47 86 48 88 49 39 50 91 51 85 52 84 53
REMARK SMILES IDX 40 55 72 56 52 57 71 58 53 59 56 60 70 61 89 62 54 63 55 64
REMARK SMILES IDX 69 66 90 67 57 68 41 69 42 70 50 71 43 72 49 73 51 74 48 75
REMARK SMILES IDX 44 76 45 77 46 78 47 79 73 80 74 81 82 82 75 83 81 84 83 85
REMARK SMILES IDX 80 86 76 87 77 88 78 89 79 90 58 91 59 92 67 93 60 94 66 95
REMARK SMILES IDX 68 96 65 97 61 98 62 99 63 100 64 101
REMARK H PARENT 24 6 29 35 88 54 56 65
REMARK Flexibility Score: inf
ROOT
ATOM      1  C   UNL A   1      47.756  39.806  27.106  1.00  0.00     0.023 C 
ENDROOT
BRANCH   1   2
ATOM      2  C   UNL A   1      46.740  40.591  26.264  1.00  0.00     0.116 C 
BRANCH   2   3
ATOM      3  N   UNL A   1      47.166  40.612  24.882  1.00  0.00    -0.352 N 
ATOM      4  C   UNL A   1      46.584  41.211  23.818  1.00  0.00     0.251 C 
ATOM      5  O   UNL A   1      46.674  40.672  22.721  1.00  0.00    -0.270 OA
ATOM      6  H   UNL A   1      47.997  40.121  24.688  1.00  0.00     0.163 HD
BRANCH   4   7
ATOM      7  C   UNL A   1      45.960  42.557  24.008  1.00  0.00     0.067 C 
ATOM      8  C   UNL A   1      46.278  43.930  20.182  1.00  0.00     0.026 A 
ATOM      9  C   UNL A   1      47.583  43.590  19.744  1.00  0.00     0.033 A 
ATOM     10  C   UNL A   1      46.035  43.811  21.564  1.00  0.00     0.135 A 
ATOM     11  C   UNL A   1      48.632  43.354  20.630  1.00  0.00     0.042 A 
ATOM     12  C   UNL A   1      47.136  43.690  22.449  1.00  0.00     0.019 A 
ATOM     13  O   UNL A   1      44.761  43.742  22.114  1.00  0.00    -0.475 OA
ATOM     14  Cl  UNL A   1      50.183  42.938  20.021  1.00  0.00    -0.084 Cl
ATOM     15  C   UNL A   1      48.434  43.487  21.989  1.00  0.00     0.032 A 
ATOM     16  C   UNL A   1      46.850  43.564  23.895  1.00  0.00     0.025 C 
ATOM     17  C   UNL A   1      44.653  42.771  23.252  1.00  0.00     0.314 C 
BRANCH   8  18
ATOM     18  C   UNL A   1      45.438  44.608  19.154  1.00  0.00    -0.014 A 
ATOM     19  C   UNL A   1      43.225  46.032  18.074  1.00  0.00     0.119 A 
ATOM     20  C   UNL A   1      44.371  46.715  18.471  1.00  0.00     0.047 A 
ATOM     21  C   UNL A   1      43.222  44.641  18.102  1.00  0.00     0.047 A 
ATOM     22  C   UNL A   1      45.469  46.010  18.995  1.00  0.00     0.013 A 
ATOM     23  C   UNL A   1      44.318  43.936  18.632  1.00  0.00     0.013 A 
BRANCH  19  24
ATOM     24  O   UNL A   1      42.190  46.768  17.564  1.00  0.00    -0.494 OA
BRANCH  24  25
ATOM     25  C   UNL A   1      42.573  47.908  16.781  1.00  0.00     0.226 C 
ATOM     26  C   UNL A   1      41.424  48.409  15.919  1.00  0.00     0.049 C 
ENDBRANCH  24  25
ENDBRANCH  19  24
ENDBRANCH   8  18
BRANCH  17  27
ATOM     27  C   UNL A   1      43.573  43.200  24.272  1.00  0.00     0.429 C 
ATOM     28  F   UNL A   1      43.022  44.399  23.975  1.00  0.00    -0.167 F 
ATOM     29  F   UNL A   1      42.567  42.292  24.334  1.00  0.00    -0.167 F 
ATOM     30  F   UNL A   1      44.061  43.305  25.537  1.00  0.00    -0.167 F 
ENDBRANCH  17  27
ENDBRANCH   4   7
ENDBRANCH   2   3
ENDBRANCH   1   2
BRANCH   1  31
ATOM     31  C   UNL A   1      47.971  38.345  26.680  1.00  0.00     0.023 C 
BRANCH  31  32
ATOM     32  C   UNL A   1      48.008  37.340  27.826  1.00  0.00     0.116 C 
BRANCH  32  33
ATOM     33  N   UNL A   1      47.286  37.823  28.991  1.00  0.00    -0.352 N 
ATOM     34  C   UNL A   1      46.206  37.269  29.633  1.00  0.00     0.251 C 
ATOM     35  H   UNL A   1      47.617  38.667  29.374  1.00  0.00     0.163 HD
ATOM     36  O   UNL A   1      45.595  37.933  30.471  1.00  0.00    -0.269 OA
BRANCH  34  37
ATOM     37  C   UNL A   1      45.763  35.897  29.299  1.00  0.00     0.039 A 
ATOM     38  C   UNL A   1      46.136  34.844  30.136  1.00  0.00     0.014 A 
ATOM     39  C   UNL A   1      44.979  35.648  28.167  1.00  0.00     0.014 A 
ATOM     40  C   UNL A   1      45.665  33.554  29.878  1.00  0.00     0.010 A 
ATOM     41  C   UNL A   1      44.449  34.376  27.957  1.00  0.00     0.010 A 
ATOM     42  C   UNL A   1      44.782  33.315  28.811  1.00  0.00    -0.014 A 
BRANCH  42  43
ATOM     43  C   UNL A   1      44.190  31.967  28.593  1.00  0.00     0.031 A 
ATOM     44  C   UNL A   1      42.869  31.604  29.215  1.00  0.00     0.074 A 
ATOM     45  C   UNL A   1      44.871  31.052  27.873  1.00  0.00     0.049 A 
ATOM     46  N   UNL A   1      42.221  30.468  29.176  1.00  0.00    -0.248 NA
ATOM     47  C   UNL A   1      42.202  32.647  30.008  1.00  0.00     0.031 C 
ATOM     48  C   UNL A   1      46.182  31.270  27.255  1.00  0.00     0.029 A 
ATOM     49  N   UNL A   1      44.564  29.756  27.541  1.00  0.00    -0.354 N 
ATOM     50  C   UNL A   1      41.075  30.656  29.942  1.00  0.00     0.074 A 
ATOM     51  C   UNL A   1      41.154  31.995  30.486  1.00  0.00     0.031 C 
ATOM     52  C   UNL A   1      46.547  30.161  26.593  1.00  0.00     0.029 A 
ATOM     53  C   UNL A   1      45.529  29.134  26.781  1.00  0.00     0.049 A 
ATOM     54  H   UNL A   1      43.730  29.313  27.820  1.00  0.00     0.167 HD
ATOM     55  C   UNL A   1      40.043  29.800  30.152  1.00  0.00     0.034 A 
ATOM     56  C   UNL A   1      45.593  27.876  26.300  1.00  0.00     0.034 A 
ATOM     57  C   UNL A   1      39.980  28.468  29.600  1.00  0.00     0.049 A 
ATOM     58  C   UNL A   1      44.451  26.931  26.580  1.00  0.00     0.074 A 
ATOM     59  C   UNL A   1      38.958  27.540  29.706  1.00  0.00     0.029 A 
ATOM     60  N   UNL A   1      40.981  27.867  28.848  1.00  0.00    -0.354 N 
ATOM     61  N   UNL A   1      43.348  27.146  27.258  1.00  0.00    -0.248 NA
ATOM     62  C   UNL A   1      44.560  25.578  26.019  1.00  0.00     0.031 C 
ATOM     63  C   UNL A   1      39.374  26.355  29.089  1.00  0.00     0.029 A 
ATOM     64  C   UNL A   1      40.618  26.569  28.519  1.00  0.00     0.049 A 
ATOM     65  H   UNL A   1      41.827  28.299  28.587  1.00  0.00     0.167 HD
ATOM     66  C   UNL A   1      42.618  25.962  27.179  1.00  0.00     0.074 A 
ATOM     67  C   UNL A   1      43.398  25.049  26.369  1.00  0.00     0.031 C 
ATOM     68  C   UNL A   1      41.412  25.658  27.724  1.00  0.00     0.034 A 
BRANCH  55  69
ATOM     69  C   UNL A   1      38.914  30.275  31.040  1.00  0.00     0.023 A 
ATOM     70  C   UNL A   1      37.896  31.116  30.556  1.00  0.00     0.031 A 
ATOM     71  C   UNL A   1      38.864  29.896  32.393  1.00  0.00     0.131 A 
ATOM     72  C   UNL A   1      36.919  31.611  31.433  1.00  0.00     0.055 A 
ATOM     73  C   UNL A   1      37.839  30.322  33.241  1.00  0.00     0.041 A 
ATOM     74  F   UNL A   1      39.818  29.113  32.921  1.00  0.00    -0.206 F 
ATOM     75  C   UNL A   1      36.867  31.197  32.766  1.00  0.00     0.022 A 
BRANCH  72  76
ATOM     76  S   UNL A   1      35.809  32.918  30.842  1.00  0.00     0.124 S 
ATOM     77  O   UNL A   1      34.497  32.355  31.157  1.00  0.00    -0.237 OA
ATOM     78  O   UNL A   1      36.220  34.067  31.640  1.00  0.00    -0.237 OA
ATOM     79  O   UNL A   1      36.113  33.006  29.415  1.00  0.00    -0.744 OA
ENDBRANCH  72  76
ENDBRANCH  55  69
BRANCH  56  80
ATOM     80  C   UNL A   1      46.781  27.423  25.519  1.00  0.00     0.023 A 
ATOM     81  C   UNL A   1      46.988  27.855  24.199  1.00  0.00     0.031 A 
ATOM     82  C   UNL A   1      47.705  26.514  26.065  1.00  0.00     0.131 A 
ATOM     83  C   UNL A   1      48.057  27.338  23.451  1.00  0.00     0.055 A 
ATOM     84  C   UNL A   1      48.802  26.049  25.338  1.00  0.00     0.041 A 
ATOM     85  F   UNL A   1      47.558  26.070  27.323  1.00  0.00    -0.206 F 
ATOM     86  C   UNL A   1      48.974  26.450  24.017  1.00  0.00     0.022 A 
BRANCH  83  87
ATOM     87  S   UNL A   1      48.178  27.768  21.693  1.00  0.00     0.124 S 
ATOM     88  O   UNL A   1      49.317  28.677  21.688  1.00  0.00    -0.237 OA
ATOM     89  O   UNL A   1      48.395  26.463  21.077  1.00  0.00    -0.237 OA
ATOM     90  O   UNL A   1      46.884  28.384  21.404  1.00  0.00    -0.744 OA
ENDBRANCH  83  87
ENDBRANCH  56  80
BRANCH  68  91
ATOM     91  C   UNL A   1      40.848  24.289  27.422  1.00  0.00     0.023 A 
ATOM     92  C   UNL A   1      39.735  24.115  26.581  1.00  0.00     0.031 A 
ATOM     93  C   UNL A   1      41.422  23.143  28.003  1.00  0.00     0.131 A 
ATOM     94  C   UNL A   1      39.190  22.835  26.397  1.00  0.00     0.055 A 
ATOM     95  C   UNL A   1      40.919  21.865  27.759  1.00  0.00     0.041 A 
ATOM     96  F   UNL A   1      42.484  23.249  28.818  1.00  0.00    -0.206 F 
ATOM     97  C   UNL A   1      39.787  21.706  26.966  1.00  0.00     0.022 A 
BRANCH  94  98
ATOM     98  S   UNL A   1      37.624  22.676  25.497  1.00  0.00     0.124 S 
ATOM     99  O   UNL A   1      37.480  24.002  24.902  1.00  0.00    -0.237 OA
ATOM    100  O   UNL A   1      37.908  21.589  24.566  1.00  0.00    -0.237 OA
ATOM    101  O   UNL A   1      36.655  22.358  26.544  1.00  0.00    -0.744 OA
ENDBRANCH  94  98
ENDBRANCH  68  91
ENDBRANCH  42  43
ENDBRANCH  34  37
ENDBRANCH  32  33
ENDBRANCH  31  32
ENDBRANCH   1  31
TORSDOF 18
ENDMDL
MODEL 3
REMARK VINA RESULT:      -9.9      5.616     11.715
REMARK SMILES CCOc1ccc(-c2cc(Cl)cc3c2O[C@H](C(F)(F)F)C(C(=O)NCCCCNC(=O)c2ccc(-c4c5nc(c(-c6cc(S(=O)(=O)[O-])ccc6F)c6ccc([nH]6)c(-c6cc(S(=O)(=O)[O-])ccc6F)c6nc(c(-c7cc(S(=O)(=O)[O-])ccc7F)c7ccc4[nH]7)C=C6)C=C5)cc2)=C3)cc1
REMARK SMILES IDX 26 1 25 2 24 3 22 4 23 5 21 7 8 8 9 9 14 10 10 11 13 12
REMARK SMILES IDX 15 13 11 14 12 15 95 16 16 17 7 18 4 19 5 20 97 21 6 22
REMARK SMILES IDX 96 23 3 24 2 25 1 26 17 27 18 28 19 29 20 30 27 31 28 32
REMARK SMILES IDX 29 33 30 34 31 36 32 37 33 38 94 39 34 40 93 41 35 42 36 43
REMARK SMILES IDX 37 44 87 45 38 46 92 47 86 48 88 49 39 50 91 51 85 52 84 53
REMARK SMILES IDX 40 55 72 56 52 57 71 58 53 59 56 60 70 61 89 62 54 63 55 64
REMARK SMILES IDX 69 66 90 67 57 68 41 69 42 70 50 71 43 72 49 73 51 74 48 75
REMARK SMILES IDX 44 76 45 77 46 78 47 79 73 80 74 81 82 82 75 83 81 84 83 85
REMARK SMILES IDX 80 86 76 87 77 88 78 89 79 90 58 91 59 92 67 93 60 94 66 95
REMARK SMILES IDX 68 96 65 97 61 98 62 99 63 100 64 101
REMARK H PARENT 24 6 29 35 88 54 56 65
REMARK Flexibility Score: inf
ROOT
ATOM      1  C   UNL A   1      36.877  20.630  25.363  1.00  0.00     0.023 C 
ENDROOT
BRANCH   1   2
ATOM      2  C   UNL A   1      35.695  19.738  24.960  1.00  0.00     0.116 C 
BRANCH   2   3
ATOM      3  N   UNL A   1      34.526  20.099  25.732  1.00  0.00    -0.352 N 
ATOM      4  C   UNL A   1      33.889  21.289  25.811  1.00  0.00     0.251 C 
ATOM      5  O   UNL A   1      33.368  21.606  26.874  1.00  0.00    -0.270 OA
ATOM      6  H   UNL A   1      34.139  19.376  26.278  1.00  0.00     0.163 HD
BRANCH   4   7
ATOM      7  C   UNL A   1      33.748  22.108  24.566  1.00  0.00     0.067 C 
ATOM      8  C   UNL A   1      31.341  25.053  26.036  1.00  0.00     0.026 A 
ATOM      9  C   UNL A   1      30.346  24.405  26.810  1.00  0.00     0.033 A 
ATOM     10  C   UNL A   1      32.115  24.226  25.200  1.00  0.00     0.135 A 
ATOM     11  C   UNL A   1      29.998  23.070  26.617  1.00  0.00     0.042 A 
ATOM     12  C   UNL A   1      31.668  22.908  24.929  1.00  0.00     0.019 A 
ATOM     13  O   UNL A   1      33.339  24.608  24.665  1.00  0.00    -0.475 OA
ATOM     14  Cl  UNL A   1      28.789  22.353  27.604  1.00  0.00    -0.084 Cl
ATOM     15  C   UNL A   1      30.600  22.336  25.614  1.00  0.00     0.032 A 
ATOM     16  C   UNL A   1      32.503  22.061  24.050  1.00  0.00     0.025 C 
ATOM     17  C   UNL A   1      34.355  23.504  24.646  1.00  0.00     0.314 C 
BRANCH   8  18
ATOM     18  C   UNL A   1      31.247  26.540  26.028  1.00  0.00    -0.014 A 
ATOM     19  C   UNL A   1      32.135  29.243  26.092  1.00  0.00     0.119 A 
ATOM     20  C   UNL A   1      31.901  28.610  24.874  1.00  0.00     0.047 A 
ATOM     21  C   UNL A   1      31.817  28.577  27.271  1.00  0.00     0.047 A 
ATOM     22  C   UNL A   1      31.451  27.278  24.842  1.00  0.00     0.013 A 
ATOM     23  C   UNL A   1      31.373  27.243  27.240  1.00  0.00     0.013 A 
BRANCH  19  24
ATOM     24  O   UNL A   1      32.563  30.542  26.062  1.00  0.00    -0.494 OA
BRANCH  24  25
ATOM     25  C   UNL A   1      31.681  31.496  26.669  1.00  0.00     0.226 C 
ATOM     26  C   UNL A   1      30.611  31.971  25.697  1.00  0.00     0.049 C 
ENDBRANCH  24  25
ENDBRANCH  19  24
ENDBRANCH   8  18
BRANCH  17  27
ATOM     27  C   UNL A   1      35.353  23.663  23.476  1.00  0.00     0.429 C 
ATOM     28  F   UNL A   1      36.601  23.978  23.893  1.00  0.00    -0.167 F 
ATOM     29  F   UNL A   1      35.441  22.524  22.746  1.00  0.00    -0.167 F 
ATOM     30  F   UNL A   1      34.983  24.639  22.604  1.00  0.00    -0.167 F 
ENDBRANCH  17  27
ENDBRANCH   4   7
ENDBRANCH   2   3
ENDBRANCH   1   2
BRANCH   1  31
ATOM     31  C   UNL A   1      38.264  20.098  24.971  1.00  0.00     0.023 C 
BRANCH  31  32
ATOM     32  C   UNL A   1      39.385  20.448  25.944  1.00  0.00     0.116 C 
BRANCH  32  33
ATOM     33  N   UNL A   1      40.438  19.446  25.937  1.00  0.00    -0.352 N 
ATOM     34  C   UNL A   1      41.798  19.616  26.007  1.00  0.00     0.251 C 
ATOM     35  H   UNL A   1      40.132  18.512  25.872  1.00  0.00     0.163 HD
ATOM     36  O   UNL A   1      42.540  18.662  25.769  1.00  0.00    -0.269 OA
BRANCH  34  37
ATOM     37  C   UNL A   1      42.368  20.941  26.338  1.00  0.00     0.039 A 
ATOM     38  C   UNL A   1      42.709  21.808  25.298  1.00  0.00     0.014 A 
ATOM     39  C   UNL A   1      42.562  21.331  27.667  1.00  0.00     0.014 A 
ATOM     40  C   UNL A   1      43.178  23.092  25.593  1.00  0.00     0.010 A 
ATOM     41  C   UNL A   1      42.956  22.636  27.957  1.00  0.00     0.010 A 
ATOM     42  C   UNL A   1      43.266  23.533  26.923  1.00  0.00    -0.014 A 
BRANCH  42  43
ATOM     43  C   UNL A   1      43.661  24.932  27.243  1.00  0.00     0.031 A 
ATOM     44  C   UNL A   1      45.099  25.362  27.138  1.00  0.00     0.074 A 
ATOM     45  C   UNL A   1      42.727  25.802  27.679  1.00  0.00     0.049 A 
ATOM     46  N   UNL A   1      45.639  26.520  27.419  1.00  0.00    -0.248 NA
ATOM     47  C   UNL A   1      46.061  24.347  26.682  1.00  0.00     0.031 C 
ATOM     48  C   UNL A   1      41.306  25.492  27.864  1.00  0.00     0.029 A 
ATOM     49  N   UNL A   1      42.827  27.120  28.049  1.00  0.00    -0.354 N 
ATOM     50  C   UNL A   1      47.002  26.374  27.181  1.00  0.00     0.074 A 
ATOM     51  C   UNL A   1      47.211  24.994  26.796  1.00  0.00     0.031 C 
ATOM     52  C   UNL A   1      40.665  26.596  28.279  1.00  0.00     0.029 A 
ATOM     53  C   UNL A   1      41.630  27.677  28.443  1.00  0.00     0.049 A 
ATOM     54  H   UNL A   1      43.674  27.620  28.034  1.00  0.00     0.167 HD
ATOM     55  C   UNL A   1      47.983  27.308  27.254  1.00  0.00     0.034 A 
ATOM     56  C   UNL A   1      41.344  28.915  28.897  1.00  0.00     0.034 A 
ATOM     57  C   UNL A   1      47.756  28.682  27.637  1.00  0.00     0.049 A 
ATOM     58  C   UNL A   1      42.459  29.925  29.005  1.00  0.00     0.074 A 
ATOM     59  C   UNL A   1      48.668  29.722  27.692  1.00  0.00     0.029 A 
ATOM     60  N   UNL A   1      46.536  29.206  28.043  1.00  0.00    -0.354 N 
ATOM     61  N   UNL A   1      43.733  29.784  28.720  1.00  0.00    -0.248 NA
ATOM     62  C   UNL A   1      42.094  31.264  29.486  1.00  0.00     0.031 C 
ATOM     63  C   UNL A   1      48.019  30.849  28.205  1.00  0.00     0.029 A 
ATOM     64  C   UNL A   1      46.680  30.542  28.387  1.00  0.00     0.049 A 
ATOM     65  H   UNL A   1      45.690  28.702  28.082  1.00  0.00     0.167 HD
ATOM     66  C   UNL A   1      44.315  31.027  28.960  1.00  0.00     0.074 A 
ATOM     67  C   UNL A   1      43.247  31.907  29.390  1.00  0.00     0.031 C 
ATOM     68  C   UNL A   1      45.611  31.408  28.833  1.00  0.00     0.034 A 
BRANCH  55  69
ATOM     69  C   UNL A   1      49.393  26.864  26.937  1.00  0.00     0.023 A 
ATOM     70  C   UNL A   1      50.031  27.225  25.737  1.00  0.00     0.031 A 
ATOM     71  C   UNL A   1      50.105  26.054  27.840  1.00  0.00     0.131 A 
ATOM     72  C   UNL A   1      51.304  26.716  25.438  1.00  0.00     0.055 A 
ATOM     73  C   UNL A   1      51.406  25.621  27.574  1.00  0.00     0.041 A 
ATOM     74  F   UNL A   1      49.543  25.656  28.992  1.00  0.00    -0.206 F 
ATOM     75  C   UNL A   1      52.008  25.939  26.360  1.00  0.00     0.022 A 
BRANCH  72  76
ATOM     76  S   UNL A   1      51.962  26.960  23.765  1.00  0.00     0.124 S 
ATOM     77  O   UNL A   1      50.738  26.987  22.968  1.00  0.00    -0.237 OA
ATOM     78  O   UNL A   1      52.674  28.227  23.887  1.00  0.00    -0.237 OA
ATOM     79  O   UNL A   1      52.807  25.786  23.555  1.00  0.00    -0.744 OA
ENDBRANCH  72  76
ENDBRANCH  55  69
BRANCH  56  80
ATOM     80  C   UNL A   1      39.953  29.271  29.299  1.00  0.00     0.023 A 
ATOM     81  C   UNL A   1      39.597  29.391  30.652  1.00  0.00     0.031 A 
ATOM     82  C   UNL A   1      38.944  29.450  28.336  1.00  0.00     0.131 A 
ATOM     83  C   UNL A   1      38.260  29.628  31.007  1.00  0.00     0.055 A 
ATOM     84  C   UNL A   1      37.626  29.746  28.692  1.00  0.00     0.041 A 
ATOM     85  F   UNL A   1      39.227  29.349  27.028  1.00  0.00    -0.206 F 
ATOM     86  C   UNL A   1      37.276  29.822  30.036  1.00  0.00     0.022 A 
BRANCH  83  87
ATOM     87  S   UNL A   1      37.806  29.582  32.762  1.00  0.00     0.124 S 
ATOM     88  O   UNL A   1      37.431  28.184  32.936  1.00  0.00    -0.237 OA
ATOM     89  O   UNL A   1      39.047  29.999  33.407  1.00  0.00    -0.237 OA
ATOM     90  O   UNL A   1      36.705  30.540  32.855  1.00  0.00    -0.744 OA
ENDBRANCH  83  87
ENDBRANCH  56  80
BRANCH  68  91
ATOM     91  C   UNL A   1      45.934  32.855  29.128  1.00  0.00     0.023 A 
ATOM     92  C   UNL A   1      45.846  33.851  28.140  1.00  0.00     0.031 A 
ATOM     93  C   UNL A   1      46.357  33.238  30.414  1.00  0.00     0.131 A 
ATOM     94  C   UNL A   1      46.238  35.165  28.434  1.00  0.00     0.055 A 
ATOM     95  C   UNL A   1      46.678  34.560  30.719  1.00  0.00     0.041 A 
ATOM     96  F   UNL A   1      46.465  32.329  31.397  1.00  0.00    -0.206 F 
ATOM     97  C   UNL A   1      46.635  35.531  29.722  1.00  0.00     0.022 A 
BRANCH  94  98
ATOM     98  S   UNL A   1      46.330  36.369  27.080  1.00  0.00     0.124 S 
ATOM     99  O   UNL A   1      46.785  35.541  25.968  1.00  0.00    -0.237 OA
ATOM    100  O   UNL A   1      44.955  36.849  26.995  1.00  0.00    -0.237 OA
ATOM    101  O   UNL A   1      47.301  37.351  27.560  1.00  0.00    -0.744 OA
ENDBRANCH  94  98
ENDBRANCH  68  91
ENDBRANCH  42  43
ENDBRANCH  34  37
ENDBRANCH  32  33
ENDBRANCH  31  32
ENDBRANCH   1  31
TORSDOF 18
ENDMDL
