MODEL 1
REMARK VINA RESULT:     -13.3      0.000      0.000
REMARK SMILES Cc1c(C(=O)NC(=S)Nc2ccccc2C(=O)NCCCCNC(=O)c2ccc(-c3c4nc(c(-c5cc(S(=O)(=O)[O-])ccc5F)c5ccc([nH]5)c(-c5cc(S(=O)(=O)[O-])ccc5F)c5nc(c(-c6cc(S(=O)(=O)[O-])ccc6F)c6ccc3[nH]6)C=C5)C=C4)cc2)cccc1[N+](=O)[O-]
REMARK SMILES IDX 19 1 18 2 16 3 17 4 15 6 10 7 11 8 12 9 14 10 13 11 9 12
REMARK SMILES IDX 7 14 8 15 6 16 4 17 5 18 3 20 1 21 2 22 92 23 89 24 91 25
REMARK SMILES IDX 90 26 93 27 94 28 95 29 20 30 21 31 22 32 23 33 24 34 25 36
REMARK SMILES IDX 26 37 27 38 88 39 28 40 87 41 29 42 30 43 31 44 81 45 32 46
REMARK SMILES IDX 86 47 80 48 82 49 33 50 85 51 79 52 78 53 34 55 66 56 46 57
REMARK SMILES IDX 65 58 47 59 50 60 64 61 83 62 48 63 49 64 63 66 84 67 51 68
REMARK SMILES IDX 35 69 36 70 44 71 37 72 43 73 45 74 42 75 38 76 39 77 40 78
REMARK SMILES IDX 41 79 67 80 68 81 76 82 69 83 75 84 77 85 74 86 70 87 71 88
REMARK SMILES IDX 72 89 73 90 52 91 53 92 61 93 54 94 60 95 62 96 59 97 55 98
REMARK SMILES IDX 56 99 57 100 58 101
REMARK H PARENT 18 5 9 13 6 19 23 35 82 54 50 65
REMARK Flexibility Score: inf
ROOT
ATOM      1  C   UNL A   1      32.243  30.009  25.254  1.00  0.00     0.116 C 
ENDROOT
BRANCH   1   2
ATOM      2  N   UNL A   1      33.203  29.391  24.285  1.00  0.00    -0.352 N 
ATOM      3  C   UNL A   1      33.053  28.723  23.021  1.00  0.00     0.253 C 
ATOM      4  O   UNL A   1      34.061  28.562  22.333  1.00  0.00    -0.269 OA
ATOM      5  H   UNL A   1      34.141  29.458  24.575  1.00  0.00     0.163 HD
BRANCH   3   6
ATOM      6  C   UNL A   1      31.726  28.091  22.539  1.00  0.00     0.063 A 
ATOM      7  C   UNL A   1      31.024  26.631  23.317  1.00  0.00     0.053 A 
ATOM      8  C   UNL A   1      29.217  26.440  23.615  1.00  0.00     0.027 A 
ATOM      9  C   UNL A   1      28.240  28.032  23.567  1.00  0.00     0.002 A 
ATOM     10  C   UNL A   1      30.839  29.349  22.074  1.00  0.00     0.016 A 
ATOM     11  C   UNL A   1      29.252  29.541  22.697  1.00  0.00     0.001 A 
BRANCH   7  12
ATOM     12  N   UNL A   1      31.773  26.377  24.551  1.00  0.00    -0.332 N 
ATOM     13  H   UNL A   1      31.845  27.146  25.163  1.00  0.00     0.169 HD
BRANCH  12  14
ATOM     14  C   UNL A   1      32.402  25.207  24.993  1.00  0.00     0.177 C 
ATOM     15  S   UNL A   1      34.076  25.278  25.191  1.00  0.00    -0.040 S 
BRANCH  14  16
ATOM     16  N   UNL A   1      31.786  23.877  25.127  1.00  0.00    -0.299 N 
ATOM     17  C   UNL A   1      31.904  22.326  25.305  1.00  0.00     0.257 C 
ATOM     18  O   UNL A   1      30.969  21.721  25.823  1.00  0.00    -0.269 OA
ATOM     19  H   UNL A   1      30.817  24.048  25.085  1.00  0.00     0.172 HD
BRANCH  17  20
ATOM     20  C   UNL A   1      33.224  21.617  25.013  1.00  0.00     0.049 A 
ATOM     21  C   UNL A   1      32.375  21.366  22.912  1.00  0.00     0.053 C 
ATOM     22  C   UNL A   1      32.666  20.175  24.427  1.00  0.00     0.039 A 
ATOM     23  C   UNL A   1      33.724  18.439  24.343  1.00  0.00     0.273 A 
ATOM     24  C   UNL A   1      34.949  21.724  25.166  1.00  0.00     0.014 A 
ATOM     25  C   UNL A   1      35.538  18.654  24.592  1.00  0.00     0.086 A 
ATOM     26  C   UNL A   1      36.090  20.333  24.949  1.00  0.00     0.008 A 
BRANCH  23  27
ATOM     27  N   UNL A   1      33.519  17.014  23.791  1.00  0.00     0.063 N 
ATOM     28  O   UNL A   1      33.927  16.823  22.634  1.00  0.00    -0.258 OA
ATOM     29  O   UNL A   1      32.990  16.137  24.485  1.00  0.00    -0.258 OA
ENDBRANCH  23  27
ENDBRANCH  17  20
ENDBRANCH  14  16
ENDBRANCH  12  14
ENDBRANCH   7  12
ENDBRANCH   3   6
ENDBRANCH   1   2
BRANCH   1  30
ATOM     30  C   UNL A   1      32.330  29.799  26.771  1.00  0.00     0.023 C 
BRANCH  30  31
ATOM     31  C   UNL A   1      33.316  30.613  27.558  1.00  0.00     0.023 C 
BRANCH  31  32
ATOM     32  C   UNL A   1      34.744  30.217  27.302  1.00  0.00     0.116 C 
BRANCH  32  33
ATOM     33  N   UNL A   1      35.760  31.197  27.615  1.00  0.00    -0.352 N 
ATOM     34  C   UNL A   1      36.924  30.981  28.337  1.00  0.00     0.251 C 
ATOM     35  H   UNL A   1      35.611  32.111  27.281  1.00  0.00     0.163 HD
ATOM     36  O   UNL A   1      37.507  31.916  28.881  1.00  0.00    -0.269 OA
BRANCH  34  37
ATOM     37  C   UNL A   1      37.594  29.644  28.277  1.00  0.00     0.039 A 
ATOM     38  C   UNL A   1      37.462  28.836  29.418  1.00  0.00     0.014 A 
ATOM     39  C   UNL A   1      38.651  29.415  27.410  1.00  0.00     0.014 A 
ATOM     40  C   UNL A   1      38.546  28.086  29.841  1.00  0.00     0.010 A 
ATOM     41  C   UNL A   1      39.792  28.903  27.924  1.00  0.00     0.010 A 
ATOM     42  C   UNL A   1      39.737  28.282  29.164  1.00  0.00    -0.014 A 
BRANCH  42  43
ATOM     43  C   UNL A   1      41.003  27.682  29.475  1.00  0.00     0.031 A 
ATOM     44  C   UNL A   1      41.103  26.293  29.002  1.00  0.00     0.074 A 
ATOM     45  C   UNL A   1      41.970  28.575  29.791  1.00  0.00     0.049 A 
ATOM     46  N   UNL A   1      42.027  25.480  29.326  1.00  0.00    -0.248 NA
ATOM     47  C   UNL A   1      40.107  25.661  28.115  1.00  0.00     0.031 C 
ATOM     48  C   UNL A   1      43.422  28.481  29.754  1.00  0.00     0.029 A 
ATOM     49  N   UNL A   1      41.746  29.785  30.457  1.00  0.00    -0.354 N 
ATOM     50  C   UNL A   1      42.003  24.454  28.404  1.00  0.00     0.074 A 
ATOM     51  C   UNL A   1      40.706  24.510  27.797  1.00  0.00     0.031 C 
ATOM     52  C   UNL A   1      43.932  29.340  30.663  1.00  0.00     0.029 A 
ATOM     53  C   UNL A   1      42.807  29.931  31.372  1.00  0.00     0.049 A 
ATOM     54  H   UNL A   1      40.997  30.408  30.315  1.00  0.00     0.167 HD
ATOM     55  C   UNL A   1      43.182  23.823  28.160  1.00  0.00     0.034 A 
ATOM     56  C   UNL A   1      42.524  29.752  32.700  1.00  0.00     0.034 A 
ATOM     57  C   UNL A   1      44.199  24.404  29.036  1.00  0.00     0.049 A 
ATOM     58  C   UNL A   1      43.123  28.437  33.177  1.00  0.00     0.074 A 
ATOM     59  C   UNL A   1      45.151  25.390  28.851  1.00  0.00     0.029 A 
ATOM     60  N   UNL A   1      44.007  24.287  30.401  1.00  0.00    -0.354 N 
ATOM     61  N   UNL A   1      43.317  27.383  32.420  1.00  0.00    -0.248 NA
ATOM     62  C   UNL A   1      43.709  28.288  34.503  1.00  0.00     0.031 C 
ATOM     63  C   UNL A   1      45.458  25.926  30.139  1.00  0.00     0.029 A 
ATOM     64  C   UNL A   1      44.693  25.263  31.085  1.00  0.00     0.049 A 
ATOM     65  H   UNL A   1      43.452  23.595  30.828  1.00  0.00     0.167 HD
ATOM     66  C   UNL A   1      44.108  26.475  33.087  1.00  0.00     0.074 A 
ATOM     67  C   UNL A   1      44.315  27.094  34.388  1.00  0.00     0.031 C 
ATOM     68  C   UNL A   1      44.586  25.312  32.534  1.00  0.00     0.034 A 
BRANCH  55  69
ATOM     69  C   UNL A   1      43.540  22.885  27.040  1.00  0.00     0.023 A 
ATOM     70  C   UNL A   1      42.921  21.618  27.057  1.00  0.00     0.031 A 
ATOM     71  C   UNL A   1      44.437  23.103  25.980  1.00  0.00     0.131 A 
ATOM     72  C   UNL A   1      43.210  20.633  26.104  1.00  0.00     0.055 A 
ATOM     73  C   UNL A   1      44.724  22.120  25.017  1.00  0.00     0.041 A 
ATOM     74  F   UNL A   1      45.071  24.267  25.804  1.00  0.00    -0.206 F 
ATOM     75  C   UNL A   1      44.113  20.875  25.077  1.00  0.00     0.022 A 
BRANCH  72  76
ATOM     76  S   UNL A   1      42.381  19.031  26.257  1.00  0.00     0.124 S 
ATOM     77  O   UNL A   1      42.447  18.790  27.695  1.00  0.00    -0.237 OA
ATOM     78  O   UNL A   1      41.059  19.312  25.709  1.00  0.00    -0.237 OA
ATOM     79  O   UNL A   1      43.211  18.144  25.443  1.00  0.00    -0.744 OA
ENDBRANCH  72  76
ENDBRANCH  55  69
BRANCH  56  80
ATOM     80  C   UNL A   1      41.174  30.353  33.026  1.00  0.00     0.023 A 
ATOM     81  C   UNL A   1      41.104  31.772  32.955  1.00  0.00     0.031 A 
ATOM     82  C   UNL A   1      39.986  29.642  32.815  1.00  0.00     0.131 A 
ATOM     83  C   UNL A   1      39.977  32.398  32.387  1.00  0.00     0.055 A 
ATOM     84  C   UNL A   1      38.825  30.293  32.365  1.00  0.00     0.041 A 
ATOM     85  F   UNL A   1      39.969  28.303  32.874  1.00  0.00    -0.206 F 
ATOM     86  C   UNL A   1      38.842  31.659  32.067  1.00  0.00     0.022 A 
BRANCH  83  87
ATOM     87  S   UNL A   1      40.155  34.115  31.794  1.00  0.00     0.124 S 
ATOM     88  O   UNL A   1      38.857  34.363  31.175  1.00  0.00    -0.237 OA
ATOM     89  O   UNL A   1      40.419  34.854  33.029  1.00  0.00    -0.237 OA
ATOM     90  O   UNL A   1      41.290  34.072  30.876  1.00  0.00    -0.744 OA
ENDBRANCH  83  87
ENDBRANCH  56  80
BRANCH  68  91
ATOM     91  C   UNL A   1      45.057  24.095  33.316  1.00  0.00     0.023 A 
ATOM     92  C   UNL A   1      46.338  24.012  33.859  1.00  0.00     0.031 A 
ATOM     93  C   UNL A   1      44.204  23.001  33.635  1.00  0.00     0.131 A 
ATOM     94  C   UNL A   1      46.772  22.870  34.547  1.00  0.00     0.055 A 
ATOM     95  C   UNL A   1      44.597  21.923  34.432  1.00  0.00     0.041 A 
ATOM     96  F   UNL A   1      42.936  22.919  33.212  1.00  0.00    -0.206 F 
ATOM     97  C   UNL A   1      45.905  21.834  34.868  1.00  0.00     0.022 A 
BRANCH  94  98
ATOM     98  S   UNL A   1      48.537  22.752  34.902  1.00  0.00     0.124 S 
ATOM     99  O   UNL A   1      49.086  23.775  34.015  1.00  0.00    -0.237 OA
ATOM    100  O   UNL A   1      48.590  23.062  36.328  1.00  0.00    -0.237 OA
ATOM    101  O   UNL A   1      48.867  21.375  34.548  1.00  0.00    -0.744 OA
ENDBRANCH  94  98
ENDBRANCH  68  91
ENDBRANCH  42  43
ENDBRANCH  34  37
ENDBRANCH  32  33
ENDBRANCH  31  32
ENDBRANCH  30  31
ENDBRANCH   1  30
TORSDOF 19
ENDMDL
MODEL 2
REMARK VINA RESULT:     -13.2      3.489      5.001
REMARK SMILES Cc1c(C(=O)NC(=S)Nc2ccccc2C(=O)NCCCCNC(=O)c2ccc(-c3c4nc(c(-c5cc(S(=O)(=O)[O-])ccc5F)c5ccc([nH]5)c(-c5cc(S(=O)(=O)[O-])ccc5F)c5nc(c(-c6cc(S(=O)(=O)[O-])ccc6F)c6ccc3[nH]6)C=C5)C=C4)cc2)cccc1[N+](=O)[O-]
REMARK SMILES IDX 19 1 18 2 16 3 17 4 15 6 10 7 11 8 12 9 14 10 13 11 9 12
REMARK SMILES IDX 7 14 8 15 6 16 4 17 5 18 3 20 1 21 2 22 92 23 89 24 91 25
REMARK SMILES IDX 90 26 93 27 94 28 95 29 20 30 21 31 22 32 23 33 24 34 25 36
REMARK SMILES IDX 26 37 27 38 88 39 28 40 87 41 29 42 30 43 31 44 81 45 32 46
REMARK SMILES IDX 86 47 80 48 82 49 33 50 85 51 79 52 78 53 34 55 66 56 46 57
REMARK SMILES IDX 65 58 47 59 50 60 64 61 83 62 48 63 49 64 63 66 84 67 51 68
REMARK SMILES IDX 35 69 36 70 44 71 37 72 43 73 45 74 42 75 38 76 39 77 40 78
REMARK SMILES IDX 41 79 67 80 68 81 76 82 69 83 75 84 77 85 74 86 70 87 71 88
REMARK SMILES IDX 72 89 73 90 52 91 53 92 61 93 54 94 60 95 62 96 59 97 55 98
REMARK SMILES IDX 56 99 57 100 58 101
REMARK H PARENT 18 5 9 13 6 19 23 35 82 54 50 65
REMARK Flexibility Score: inf
ROOT
ATOM      1  C   UNL A   1      33.769  30.801  27.204  1.00  0.00     0.116 C 
ENDROOT
BRANCH   1   2
ATOM      2  N   UNL A   1      32.711  29.762  27.414  1.00  0.00    -0.352 N 
ATOM      3  C   UNL A   1      31.997  28.873  26.539  1.00  0.00     0.253 C 
ATOM      4  O   UNL A   1      31.374  27.942  27.049  1.00  0.00    -0.269 OA
ATOM      5  H   UNL A   1      32.447  29.666  28.358  1.00  0.00     0.163 HD
BRANCH   3   6
ATOM      6  C   UNL A   1      31.871  29.095  25.013  1.00  0.00     0.063 A 
ATOM      7  C   UNL A   1      31.752  27.727  23.854  1.00  0.00     0.053 A 
ATOM      8  C   UNL A   1      30.630  27.760  22.394  1.00  0.00     0.027 A 
ATOM      9  C   UNL A   1      29.258  29.025  22.486  1.00  0.00     0.002 A 
ATOM     10  C   UNL A   1      30.989  30.432  24.883  1.00  0.00     0.016 A 
ATOM     11  C   UNL A   1      29.587  30.428  23.894  1.00  0.00     0.001 A 
BRANCH   7  12
ATOM     12  N   UNL A   1      31.543  26.500  24.629  1.00  0.00    -0.332 N 
ATOM     13  H   UNL A   1      30.850  26.559  25.327  1.00  0.00     0.169 HD
BRANCH  12  14
ATOM     14  C   UNL A   1      32.179  25.257  24.528  1.00  0.00     0.177 C 
ATOM     15  S   UNL A   1      33.698  25.244  23.793  1.00  0.00    -0.040 S 
BRANCH  14  16
ATOM     16  N   UNL A   1      31.589  23.942  24.830  1.00  0.00    -0.299 N 
ATOM     17  C   UNL A   1      31.739  22.426  25.193  1.00  0.00     0.257 C 
ATOM     18  O   UNL A   1      30.820  21.872  25.791  1.00  0.00    -0.269 OA
ATOM     19  H   UNL A   1      30.617  24.090  24.779  1.00  0.00     0.172 HD
BRANCH  17  20
ATOM     20  C   UNL A   1      33.069  21.710  24.972  1.00  0.00     0.049 A 
ATOM     21  C   UNL A   1      32.343  21.482  22.823  1.00  0.00     0.053 C 
ATOM     22  C   UNL A   1      32.537  20.277  24.343  1.00  0.00     0.039 A 
ATOM     23  C   UNL A   1      33.586  18.535  24.307  1.00  0.00     0.273 A 
ATOM     24  C   UNL A   1      34.782  21.805  25.227  1.00  0.00     0.014 A 
ATOM     25  C   UNL A   1      35.384  18.735  24.663  1.00  0.00     0.086 A 
ATOM     26  C   UNL A   1      35.926  20.408  25.066  1.00  0.00     0.008 A 
BRANCH  23  27
ATOM     27  N   UNL A   1      33.405  17.115  23.732  1.00  0.00     0.063 N 
ATOM     28  O   UNL A   1      33.293  16.207  24.571  1.00  0.00    -0.258 OA
ATOM     29  O   UNL A   1      33.366  16.928  22.510  1.00  0.00    -0.258 OA
ENDBRANCH  23  27
ENDBRANCH  17  20
ENDBRANCH  14  16
ENDBRANCH  12  14
ENDBRANCH   7  12
ENDBRANCH   3   6
ENDBRANCH   1   2
BRANCH   1  30
ATOM     30  C   UNL A   1      35.032  30.901  28.069  1.00  0.00     0.023 C 
BRANCH  30  31
ATOM     31  C   UNL A   1      35.295  32.173  28.821  1.00  0.00     0.023 C 
BRANCH  31  32
ATOM     32  C   UNL A   1      34.735  32.159  30.216  1.00  0.00     0.116 C 
BRANCH  32  33
ATOM     33  N   UNL A   1      34.091  33.371  30.675  1.00  0.00    -0.352 N 
ATOM     34  C   UNL A   1      34.377  34.071  31.837  1.00  0.00     0.251 C 
ATOM     35  H   UNL A   1      33.378  33.737  30.103  1.00  0.00     0.163 HD
ATOM     36  O   UNL A   1      33.545  34.828  32.332  1.00  0.00    -0.269 OA
BRANCH  34  37
ATOM     37  C   UNL A   1      35.774  34.074  32.374  1.00  0.00     0.039 A 
ATOM     38  C   UNL A   1      36.767  34.558  31.508  1.00  0.00     0.014 A 
ATOM     39  C   UNL A   1      36.139  33.228  33.410  1.00  0.00     0.014 A 
ATOM     40  C   UNL A   1      37.999  33.929  31.477  1.00  0.00     0.010 A 
ATOM     41  C   UNL A   1      37.225  32.441  33.232  1.00  0.00     0.010 A 
ATOM     42  C   UNL A   1      38.124  32.775  32.229  1.00  0.00    -0.014 A 
BRANCH  42  43
ATOM     43  C   UNL A   1      39.272  31.914  32.287  1.00  0.00     0.031 A 
ATOM     44  C   UNL A   1      39.049  30.627  31.611  1.00  0.00     0.074 A 
ATOM     45  C   UNL A   1      40.423  32.555  32.600  1.00  0.00     0.049 A 
ATOM     46  N   UNL A   1      39.821  29.620  31.695  1.00  0.00    -0.248 NA
ATOM     47  C   UNL A   1      37.865  30.339  30.778  1.00  0.00     0.031 C 
ATOM     48  C   UNL A   1      41.817  32.209  32.364  1.00  0.00     0.029 A 
ATOM     49  N   UNL A   1      40.508  33.659  33.454  1.00  0.00    -0.354 N 
ATOM     50  C   UNL A   1      39.505  28.780  30.646  1.00  0.00     0.074 A 
ATOM     51  C   UNL A   1      38.190  29.167  30.225  1.00  0.00     0.031 C 
ATOM     52  C   UNL A   1      42.574  32.802  33.313  1.00  0.00     0.029 A 
ATOM     53  C   UNL A   1      41.662  33.460  34.237  1.00  0.00     0.049 A 
ATOM     54  H   UNL A   1      39.887  34.422  33.501  1.00  0.00     0.167 HD
ATOM     55  C   UNL A   1      40.506  27.997  30.165  1.00  0.00     0.034 A 
ATOM     56  C   UNL A   1      41.482  33.120  35.552  1.00  0.00     0.034 A 
ATOM     57  C   UNL A   1      41.699  28.234  30.978  1.00  0.00     0.049 A 
ATOM     58  C   UNL A   1      41.854  31.657  35.755  1.00  0.00     0.074 A 
ATOM     59  C   UNL A   1      42.804  29.049  30.815  1.00  0.00     0.029 A 
ATOM     60  N   UNL A   1      41.624  27.930  32.326  1.00  0.00    -0.354 N 
ATOM     61  N   UNL A   1      41.761  30.726  34.837  1.00  0.00    -0.248 NA
ATOM     62  C   UNL A   1      42.528  31.190  36.960  1.00  0.00     0.031 C 
ATOM     63  C   UNL A   1      43.337  29.303  32.116  1.00  0.00     0.029 A 
ATOM     64  C   UNL A   1      42.553  28.641  33.048  1.00  0.00     0.049 A 
ATOM     65  H   UNL A   1      40.988  27.289  32.717  1.00  0.00     0.167 HD
ATOM     66  C   UNL A   1      42.419  29.593  35.261  1.00  0.00     0.074 A 
ATOM     67  C   UNL A   1      42.872  29.942  36.599  1.00  0.00     0.031 C 
ATOM     68  C   UNL A   1      42.601  28.470  34.491  1.00  0.00     0.034 A 
BRANCH  55  69
ATOM     69  C   UNL A   1      40.560  27.207  28.887  1.00  0.00     0.023 A 
ATOM     70  C   UNL A   1      41.583  27.547  27.978  1.00  0.00     0.031 A 
ATOM     71  C   UNL A   1      39.701  26.176  28.468  1.00  0.00     0.131 A 
ATOM     72  C   UNL A   1      41.710  26.926  26.729  1.00  0.00     0.055 A 
ATOM     73  C   UNL A   1      39.829  25.545  27.219  1.00  0.00     0.041 A 
ATOM     74  F   UNL A   1      38.708  25.713  29.235  1.00  0.00    -0.206 F 
ATOM     75  C   UNL A   1      40.835  25.921  26.339  1.00  0.00     0.022 A 
BRANCH  72  76
ATOM     76  S   UNL A   1      43.039  27.480  25.633  1.00  0.00     0.124 S 
ATOM     77  O   UNL A   1      42.310  28.267  24.642  1.00  0.00    -0.237 OA
ATOM     78  O   UNL A   1      43.900  28.227  26.544  1.00  0.00    -0.237 OA
ATOM     79  O   UNL A   1      43.607  26.229  25.134  1.00  0.00    -0.744 OA
ENDBRANCH  72  76
ENDBRANCH  55  69
BRANCH  56  80
ATOM     80  C   UNL A   1      40.317  33.891  36.130  1.00  0.00     0.023 A 
ATOM     81  C   UNL A   1      39.191  33.106  36.507  1.00  0.00     0.031 A 
ATOM     82  C   UNL A   1      40.503  35.106  36.801  1.00  0.00     0.131 A 
ATOM     83  C   UNL A   1      38.502  33.385  37.703  1.00  0.00     0.055 A 
ATOM     84  C   UNL A   1      39.726  35.438  37.924  1.00  0.00     0.041 A 
ATOM     85  F   UNL A   1      41.535  35.906  36.496  1.00  0.00    -0.206 F 
ATOM     86  C   UNL A   1      38.781  34.540  38.429  1.00  0.00     0.022 A 
BRANCH  83  87
ATOM     87  S   UNL A   1      37.476  32.064  38.433  1.00  0.00     0.124 S 
ATOM     88  O   UNL A   1      36.166  32.701  38.516  1.00  0.00    -0.237 OA
ATOM     89  O   UNL A   1      37.596  30.987  37.451  1.00  0.00    -0.237 OA
ATOM     90  O   UNL A   1      38.113  31.770  39.715  1.00  0.00    -0.744 OA
ENDBRANCH  83  87
ENDBRANCH  56  80
BRANCH  68  91
ATOM     91  C   UNL A   1      42.898  27.076  35.025  1.00  0.00     0.023 A 
ATOM     92  C   UNL A   1      43.945  26.300  34.532  1.00  0.00     0.031 A 
ATOM     93  C   UNL A   1      42.199  26.502  36.124  1.00  0.00     0.131 A 
ATOM     94  C   UNL A   1      44.186  25.003  35.007  1.00  0.00     0.055 A 
ATOM     95  C   UNL A   1      42.525  25.264  36.683  1.00  0.00     0.041 A 
ATOM     96  F   UNL A   1      41.175  27.113  36.734  1.00  0.00    -0.206 F 
ATOM     97  C   UNL A   1      43.506  24.486  36.102  1.00  0.00     0.022 A 
BRANCH  94  98
ATOM     98  S   UNL A   1      45.342  23.989  34.063  1.00  0.00     0.124 S 
ATOM     99  O   UNL A   1      46.328  24.981  33.641  1.00  0.00    -0.237 OA
ATOM    100  O   UNL A   1      45.803  23.030  35.063  1.00  0.00    -0.237 OA
ATOM    101  O   UNL A   1      44.518  23.433  32.994  1.00  0.00    -0.744 OA
ENDBRANCH  94  98
ENDBRANCH  68  91
ENDBRANCH  42  43
ENDBRANCH  34  37
ENDBRANCH  32  33
ENDBRANCH  31  32
ENDBRANCH  30  31
ENDBRANCH   1  30
TORSDOF 19
ENDMDL
MODEL 3
REMARK VINA RESULT:     -12.9      2.386      2.741
REMARK SMILES Cc1c(C(=O)NC(=S)Nc2ccccc2C(=O)NCCCCNC(=O)c2ccc(-c3c4nc(c(-c5cc(S(=O)(=O)[O-])ccc5F)c5ccc([nH]5)c(-c5cc(S(=O)(=O)[O-])ccc5F)c5nc(c(-c6cc(S(=O)(=O)[O-])ccc6F)c6ccc3[nH]6)C=C5)C=C4)cc2)cccc1[N+](=O)[O-]
REMARK SMILES IDX 19 1 18 2 16 3 17 4 15 6 10 7 11 8 12 9 14 10 13 11 9 12
REMARK SMILES IDX 7 14 8 15 6 16 4 17 5 18 3 20 1 21 2 22 92 23 89 24 91 25
REMARK SMILES IDX 90 26 93 27 94 28 95 29 20 30 21 31 22 32 23 33 24 34 25 36
REMARK SMILES IDX 26 37 27 38 88 39 28 40 87 41 29 42 30 43 31 44 81 45 32 46
REMARK SMILES IDX 86 47 80 48 82 49 33 50 85 51 79 52 78 53 34 55 66 56 46 57
REMARK SMILES IDX 65 58 47 59 50 60 64 61 83 62 48 63 49 64 63 66 84 67 51 68
REMARK SMILES IDX 35 69 36 70 44 71 37 72 43 73 45 74 42 75 38 76 39 77 40 78
REMARK SMILES IDX 41 79 67 80 68 81 76 82 69 83 75 84 77 85 74 86 70 87 71 88
REMARK SMILES IDX 72 89 73 90 52 91 53 92 61 93 54 94 60 95 62 96 59 97 55 98
REMARK SMILES IDX 56 99 57 100 58 101
REMARK H PARENT 18 5 9 13 6 19 23 35 82 54 50 65
REMARK Flexibility Score: inf
ROOT
ATOM      1  C   UNL A   1      31.700  30.346  25.270  1.00  0.00     0.116 C 
ENDROOT
BRANCH   1   2
ATOM      2  N   UNL A   1      32.681  29.694  24.346  1.00  0.00    -0.352 N 
ATOM      3  C   UNL A   1      32.556  28.943  23.126  1.00  0.00     0.253 C 
ATOM      4  O   UNL A   1      33.573  28.765  22.454  1.00  0.00    -0.269 OA
ATOM      5  H   UNL A   1      33.615  29.803  24.636  1.00  0.00     0.163 HD
BRANCH   3   6
ATOM      6  C   UNL A   1      31.249  28.248  22.679  1.00  0.00     0.063 A 
ATOM      7  C   UNL A   1      30.343  27.130  23.756  1.00  0.00     0.053 A 
ATOM      8  C   UNL A   1      28.504  27.115  23.846  1.00  0.00     0.027 A 
ATOM      9  C   UNL A   1      27.672  28.652  23.186  1.00  0.00     0.002 A 
ATOM     10  C   UNL A   1      30.528  29.335  21.739  1.00  0.00     0.016 A 
ATOM     11  C   UNL A   1      28.900  29.775  22.050  1.00  0.00     0.001 A 
BRANCH   7  12
ATOM     12  N   UNL A   1      30.918  27.241  25.101  1.00  0.00    -0.332 N 
ATOM     13  H   UNL A   1      30.746  28.095  25.560  1.00  0.00     0.169 HD
BRANCH  12  14
ATOM     14  C   UNL A   1      31.673  26.316  25.831  1.00  0.00     0.177 C 
ATOM     15  S   UNL A   1      33.331  26.610  25.937  1.00  0.00    -0.040 S 
BRANCH  14  16
ATOM     16  N   UNL A   1      31.204  25.024  26.361  1.00  0.00    -0.299 N 
ATOM     17  C   UNL A   1      31.454  23.520  26.717  1.00  0.00     0.257 C 
ATOM     18  O   UNL A   1      30.775  23.006  27.602  1.00  0.00    -0.269 OA
ATOM     19  H   UNL A   1      30.269  25.188  26.622  1.00  0.00     0.172 HD
BRANCH  17  20
ATOM     20  C   UNL A   1      32.636  22.772  26.106  1.00  0.00     0.049 A 
ATOM     21  C   UNL A   1      31.453  22.926  24.164  1.00  0.00     0.053 C 
ATOM     22  C   UNL A   1      31.854  21.489  25.417  1.00  0.00     0.039 A 
ATOM     23  C   UNL A   1      32.709  19.716  24.903  1.00  0.00     0.273 A 
ATOM     24  C   UNL A   1      34.366  22.725  25.983  1.00  0.00     0.014 A 
ATOM     25  C   UNL A   1      34.552  19.752  24.873  1.00  0.00     0.086 A 
ATOM     26  C   UNL A   1      35.316  21.306  25.376  1.00  0.00     0.008 A 
BRANCH  23  27
ATOM     27  N   UNL A   1      32.281  18.417  24.189  1.00  0.00     0.063 N 
ATOM     28  O   UNL A   1      31.981  17.469  24.934  1.00  0.00    -0.258 OA
ATOM     29  O   UNL A   1      32.238  18.358  22.954  1.00  0.00    -0.258 OA
ENDBRANCH  23  27
ENDBRANCH  17  20
ENDBRANCH  14  16
ENDBRANCH  12  14
ENDBRANCH   7  12
ENDBRANCH   3   6
ENDBRANCH   1   2
BRANCH   1  30
ATOM     30  C   UNL A   1      31.809  30.274  26.798  1.00  0.00     0.023 C 
BRANCH  30  31
ATOM     31  C   UNL A   1      32.742  31.218  27.501  1.00  0.00     0.023 C 
BRANCH  31  32
ATOM     32  C   UNL A   1      34.164  30.730  27.527  1.00  0.00     0.116 C 
BRANCH  32  33
ATOM     33  N   UNL A   1      35.200  31.738  27.583  1.00  0.00    -0.352 N 
ATOM     34  C   UNL A   1      36.401  31.654  28.271  1.00  0.00     0.251 C 
ATOM     35  H   UNL A   1      35.036  32.569  27.080  1.00  0.00     0.163 HD
ATOM     36  O   UNL A   1      37.016  32.670  28.584  1.00  0.00    -0.269 OA
BRANCH  34  37
ATOM     37  C   UNL A   1      37.061  30.322  28.445  1.00  0.00     0.039 A 
ATOM     38  C   UNL A   1      37.249  29.895  29.769  1.00  0.00     0.014 A 
ATOM     39  C   UNL A   1      37.861  29.789  27.446  1.00  0.00     0.014 A 
ATOM     40  C   UNL A   1      38.421  29.241  30.106  1.00  0.00     0.010 A 
ATOM     41  C   UNL A   1      39.108  29.386  27.782  1.00  0.00     0.010 A 
ATOM     42  C   UNL A   1      39.391  29.161  29.122  1.00  0.00    -0.014 A 
BRANCH  42  43
ATOM     43  C   UNL A   1      40.707  28.607  29.265  1.00  0.00     0.031 A 
ATOM     44  C   UNL A   1      40.729  27.147  29.096  1.00  0.00     0.074 A 
ATOM     45  C   UNL A   1      41.701  29.520  29.155  1.00  0.00     0.049 A 
ATOM     46  N   UNL A   1      41.719  26.398  29.374  1.00  0.00    -0.248 NA
ATOM     47  C   UNL A   1      39.574  26.366  28.613  1.00  0.00     0.031 C 
ATOM     48  C   UNL A   1      43.109  29.380  28.816  1.00  0.00     0.029 A 
ATOM     49  N   UNL A   1      41.605  30.851  29.574  1.00  0.00    -0.354 N 
ATOM     50  C   UNL A   1      41.512  25.197  28.726  1.00  0.00     0.074 A 
ATOM     51  C   UNL A   1      40.110  25.156  28.428  1.00  0.00     0.031 C 
ATOM     52  C   UNL A   1      43.791  30.401  29.378  1.00  0.00     0.029 A 
ATOM     53  C   UNL A   1      42.840  31.162  30.175  1.00  0.00     0.049 A 
ATOM     54  H   UNL A   1      40.830  31.450  29.471  1.00  0.00     0.167 HD
ATOM     55  C   UNL A   1      42.619  24.495  28.368  1.00  0.00     0.034 A 
ATOM     56  C   UNL A   1      42.866  31.285  31.539  1.00  0.00     0.034 A 
ATOM     57  C   UNL A   1      43.794  25.224  28.848  1.00  0.00     0.049 A 
ATOM     58  C   UNL A   1      43.586  30.087  32.144  1.00  0.00     0.074 A 
ATOM     59  C   UNL A   1      44.659  26.119  28.245  1.00  0.00     0.029 A 
ATOM     60  N   UNL A   1      43.916  25.411  30.213  1.00  0.00    -0.354 N 
ATOM     61  N   UNL A   1      43.628  28.890  31.611  1.00  0.00    -0.248 NA
ATOM     62  C   UNL A   1      44.457  30.213  33.305  1.00  0.00     0.031 C 
ATOM     63  C   UNL A   1      45.235  26.913  29.282  1.00  0.00     0.029 A 
ATOM     64  C   UNL A   1      44.716  26.492  30.497  1.00  0.00     0.049 A 
ATOM     65  H   UNL A   1      43.485  24.844  30.893  1.00  0.00     0.167 HD
ATOM     66  C   UNL A   1      44.568  28.126  32.266  1.00  0.00     0.074 A 
ATOM     67  C   UNL A   1      45.048  29.006  33.321  1.00  0.00     0.031 C 
ATOM     68  C   UNL A   1      44.935  26.858  31.886  1.00  0.00     0.034 A 
BRANCH  55  69
ATOM     69  C   UNL A   1      42.738  23.327  27.429  1.00  0.00     0.023 A 
ATOM     70  C   UNL A   1      43.750  23.405  26.450  1.00  0.00     0.031 A 
ATOM     71  C   UNL A   1      41.948  22.164  27.387  1.00  0.00     0.131 A 
ATOM     72  C   UNL A   1      43.931  22.410  25.481  1.00  0.00     0.055 A 
ATOM     73  C   UNL A   1      42.131  21.160  26.421  1.00  0.00     0.041 A 
ATOM     74  F   UNL A   1      40.976  21.925  28.273  1.00  0.00    -0.206 F 
ATOM     75  C   UNL A   1      43.124  21.281  25.458  1.00  0.00     0.022 A 
BRANCH  72  76
ATOM     76  S   UNL A   1      45.239  22.646  24.252  1.00  0.00     0.124 S 
ATOM     77  O   UNL A   1      46.312  21.810  24.784  1.00  0.00    -0.237 OA
ATOM     78  O   UNL A   1      44.601  22.176  23.028  1.00  0.00    -0.237 OA
ATOM     79  O   UNL A   1      45.493  24.085  24.303  1.00  0.00    -0.744 OA
ENDBRANCH  72  76
ENDBRANCH  55  69
BRANCH  56  80
ATOM     80  C   UNL A   1      41.612  31.979  32.019  1.00  0.00     0.023 A 
ATOM     81  C   UNL A   1      40.773  31.207  32.870  1.00  0.00     0.031 A 
ATOM     82  C   UNL A   1      41.552  33.372  32.155  1.00  0.00     0.131 A 
ATOM     83  C   UNL A   1      40.168  31.799  33.996  1.00  0.00     0.055 A 
ATOM     84  C   UNL A   1      40.841  33.965  33.212  1.00  0.00     0.041 A 
ATOM     85  F   UNL A   1      42.304  34.169  31.382  1.00  0.00    -0.206 F 
ATOM     86  C   UNL A   1      40.219  33.177  34.185  1.00  0.00     0.022 A 
BRANCH  83  87
ATOM     87  S   UNL A   1      39.601  30.705  35.342  1.00  0.00     0.124 S 
ATOM     88  O   UNL A   1      38.362  30.162  34.796  1.00  0.00    -0.237 OA
ATOM     89  O   UNL A   1      40.707  29.756  35.470  1.00  0.00    -0.237 OA
ATOM     90  O   UNL A   1      39.444  31.591  36.494  1.00  0.00    -0.744 OA
ENDBRANCH  83  87
ENDBRANCH  56  80
BRANCH  68  91
ATOM     91  C   UNL A   1      45.596  25.827  32.790  1.00  0.00     0.023 A 
ATOM     92  C   UNL A   1      44.873  24.808  33.407  1.00  0.00     0.031 A 
ATOM     93  C   UNL A   1      47.004  25.764  32.993  1.00  0.00     0.131 A 
ATOM     94  C   UNL A   1      45.488  23.886  34.266  1.00  0.00     0.055 A 
ATOM     95  C   UNL A   1      47.631  24.766  33.743  1.00  0.00     0.041 A 
ATOM     96  F   UNL A   1      47.856  26.650  32.463  1.00  0.00    -0.206 F 
ATOM     97  C   UNL A   1      46.867  23.833  34.417  1.00  0.00     0.022 A 
BRANCH  94  98
ATOM     98  S   UNL A   1      44.400  22.840  35.255  1.00  0.00     0.124 S 
ATOM     99  O   UNL A   1      44.851  23.143  36.610  1.00  0.00    -0.237 OA
ATOM    100  O   UNL A   1      43.076  23.347  34.904  1.00  0.00    -0.237 OA
ATOM    101  O   UNL A   1      44.700  21.492  34.783  1.00  0.00    -0.744 OA
ENDBRANCH  94  98
ENDBRANCH  68  91
ENDBRANCH  42  43
ENDBRANCH  34  37
ENDBRANCH  32  33
ENDBRANCH  31  32
ENDBRANCH  30  31
ENDBRANCH   1  30
TORSDOF 19
ENDMDL
