MODEL 1
REMARK VINA RESULT:     -13.6      0.000      0.000
REMARK SMILES O=C(NCCCCNC(=O)[C@H](c1c[nH]c2ccc(Cl)cc12)[NH+]1CCN(c2cccc(Cl)c2)CC1)c1ccc(-c2c3nc(c(-c4cc(S(=O)(=O)[O-])ccc4F)c4ccc([nH]4)c(-c4cc(S(=O)(=O)[O-])ccc4F)c4nc(c(-c5cc(S(=O)(=O)[O-])ccc5F)c5ccc2[nH]5)C=C4)C=C3)cc1
REMARK SMILES IDX 5 1 4 2 3 3 1 4 2 5 35 7 36 8 97 9 37 10 96 11 38 12 39 13
REMARK SMILES IDX 40 14 90 15 41 16 95 17 89 18 91 19 42 20 94 21 88 22 87 23
REMARK SMILES IDX 43 25 75 26 55 27 74 28 56 29 59 30 73 31 92 32 57 33 58 34
REMARK SMILES IDX 72 36 93 37 60 38 44 39 45 40 53 41 46 42 52 43 54 44 51 45
REMARK SMILES IDX 47 46 48 47 49 48 50 49 76 50 77 51 85 52 78 53 84 54 86 55
REMARK SMILES IDX 83 56 79 57 80 58 81 59 82 60 61 61 62 62 70 63 63 64 69 65
REMARK SMILES IDX 71 66 68 67 64 68 65 69 66 70 67 71 6 72 7 73 8 74 9 75
REMARK SMILES IDX 10 77 11 78 22 79 23 80 34 81 24 83 33 84 25 85 26 86 27 87
REMARK SMILES IDX 32 88 28 89 30 90 29 91 31 92 12 93 13 94 21 95 14 96 15 97
REMARK SMILES IDX 20 98 16 100 18 101 17 102 19 103
REMARK H PARENT 3 6 91 24 59 35 8 76 22 82 14 99
REMARK Flexibility Score: inf
ROOT
ATOM      1  C   UNL A   1      31.745  31.564  26.862  1.00  0.00     0.023 C 
ENDROOT
BRANCH   1   2
ATOM      2  C   UNL A   1      32.932  32.386  27.358  1.00  0.00     0.116 C 
BRANCH   2   3
ATOM      3  N   UNL A   1      32.608  33.772  27.663  1.00  0.00    -0.352 N 
ATOM      4  O   UNL A   1      32.669  35.727  28.778  1.00  0.00    -0.269 OA
ATOM      5  C   UNL A   1      33.153  34.617  28.609  1.00  0.00     0.251 C 
ATOM      6  H   UNL A   1      31.893  34.166  27.111  1.00  0.00     0.163 HD
BRANCH   5   7
ATOM      7  C   UNL A   1      34.299  34.170  29.438  1.00  0.00     0.039 A 
ATOM      8  C   UNL A   1      35.614  34.396  29.028  1.00  0.00     0.014 A 
ATOM      9  C   UNL A   1      34.054  33.511  30.647  1.00  0.00     0.014 A 
ATOM     10  C   UNL A   1      36.677  33.854  29.742  1.00  0.00     0.010 A 
ATOM     11  C   UNL A   1      35.125  33.007  31.394  1.00  0.00     0.010 A 
ATOM     12  C   UNL A   1      36.442  33.142  30.924  1.00  0.00    -0.014 A 
BRANCH  12  13
ATOM     13  C   UNL A   1      37.584  32.521  31.637  1.00  0.00     0.031 A 
ATOM     14  C   UNL A   1      38.335  31.383  31.006  1.00  0.00     0.074 A 
ATOM     15  C   UNL A   1      37.974  33.021  32.824  1.00  0.00     0.049 A 
ATOM     16  N   UNL A   1      39.348  30.698  31.470  1.00  0.00    -0.248 NA
ATOM     17  C   UNL A   1      37.883  30.961  29.672  1.00  0.00     0.031 C 
ATOM     18  C   UNL A   1      37.348  34.158  33.502  1.00  0.00     0.029 A 
ATOM     19  N   UNL A   1      38.989  32.646  33.666  1.00  0.00    -0.354 N 
ATOM     20  C   UNL A   1      39.655  29.760  30.491  1.00  0.00     0.074 A 
ATOM     21  C   UNL A   1      38.693  29.943  29.423  1.00  0.00     0.031 C 
ATOM     22  C   UNL A   1      38.000  34.394  34.651  1.00  0.00     0.029 A 
ATOM     23  C   UNL A   1      39.048  33.391  34.820  1.00  0.00     0.049 A 
ATOM     24  H   UNL A   1      39.615  31.914  33.464  1.00  0.00     0.167 HD
ATOM     25  C   UNL A   1      40.652  28.839  30.484  1.00  0.00     0.034 A 
ATOM     26  C   UNL A   1      39.835  33.260  35.906  1.00  0.00     0.034 A 
ATOM     27  C   UNL A   1      41.584  28.663  31.573  1.00  0.00     0.049 A 
ATOM     28  C   UNL A   1      40.870  32.164  35.920  1.00  0.00     0.074 A 
ATOM     29  C   UNL A   1      42.630  27.763  31.678  1.00  0.00     0.029 A 
ATOM     30  N   UNL A   1      41.574  29.395  32.756  1.00  0.00    -0.354 N 
ATOM     31  N   UNL A   1      41.147  31.277  34.991  1.00  0.00    -0.248 NA
ATOM     32  C   UNL A   1      41.699  32.054  37.126  1.00  0.00     0.031 C 
ATOM     33  C   UNL A   1      43.197  27.894  32.951  1.00  0.00     0.029 A 
ATOM     34  C   UNL A   1      42.569  28.939  33.609  1.00  0.00     0.049 A 
ATOM     35  H   UNL A   1      40.952  30.131  32.959  1.00  0.00     0.167 HD
ATOM     36  C   UNL A   1      42.207  30.525  35.490  1.00  0.00     0.074 A 
ATOM     37  C   UNL A   1      42.521  31.069  36.796  1.00  0.00     0.031 C 
ATOM     38  C   UNL A   1      42.865  29.484  34.916  1.00  0.00     0.034 A 
BRANCH  25  39
ATOM     39  C   UNL A   1      40.730  27.914  29.291  1.00  0.00     0.023 A 
ATOM     40  C   UNL A   1      41.663  28.112  28.256  1.00  0.00     0.031 A 
ATOM     41  C   UNL A   1      39.827  26.843  29.162  1.00  0.00     0.131 A 
ATOM     42  C   UNL A   1      41.614  27.310  27.105  1.00  0.00     0.055 A 
ATOM     43  C   UNL A   1      39.842  25.993  28.054  1.00  0.00     0.041 A 
ATOM     44  F   UNL A   1      38.899  26.615  30.105  1.00  0.00    -0.206 F 
ATOM     45  C   UNL A   1      40.727  26.235  27.008  1.00  0.00     0.022 A 
BRANCH  42  46
ATOM     46  S   UNL A   1      42.611  27.794  25.669  1.00  0.00     0.124 S 
ATOM     47  O   UNL A   1      42.094  29.131  25.386  1.00  0.00    -0.237 OA
ATOM     48  O   UNL A   1      43.971  27.733  26.193  1.00  0.00    -0.237 OA
ATOM     49  O   UNL A   1      42.282  26.783  24.665  1.00  0.00    -0.744 OA
ENDBRANCH  42  46
ENDBRANCH  25  39
BRANCH  26  50
ATOM     50  C   UNL A   1      39.643  34.156  37.082  1.00  0.00     0.023 A 
ATOM     51  C   UNL A   1      39.068  33.687  38.272  1.00  0.00     0.031 A 
ATOM     52  C   UNL A   1      40.012  35.514  37.017  1.00  0.00     0.131 A 
ATOM     53  C   UNL A   1      38.843  34.576  39.336  1.00  0.00     0.055 A 
ATOM     54  C   UNL A   1      39.838  36.379  38.096  1.00  0.00     0.041 A 
ATOM     55  F   UNL A   1      40.565  36.015  35.900  1.00  0.00    -0.206 F 
ATOM     56  C   UNL A   1      39.239  35.914  39.262  1.00  0.00     0.022 A 
BRANCH  53  57
ATOM     57  S   UNL A   1      37.951  33.976  40.797  1.00  0.00     0.124 S 
ATOM     58  O   UNL A   1      36.918  33.143  40.192  1.00  0.00    -0.237 OA
ATOM     59  O   UNL A   1      39.001  33.270  41.524  1.00  0.00    -0.237 OA
ATOM     60  O   UNL A   1      37.473  35.202  41.431  1.00  0.00    -0.744 OA
ENDBRANCH  53  57
ENDBRANCH  26  50
BRANCH  38  61
ATOM     61  C   UNL A   1      44.028  28.902  35.682  1.00  0.00     0.023 A 
ATOM     62  C   UNL A   1      43.883  27.789  36.529  1.00  0.00     0.031 A 
ATOM     63  C   UNL A   1      45.306  29.479  35.564  1.00  0.00     0.131 A 
ATOM     64  C   UNL A   1      44.983  27.323  37.265  1.00  0.00     0.055 A 
ATOM     65  C   UNL A   1      46.411  28.970  36.247  1.00  0.00     0.041 A 
ATOM     66  F   UNL A   1      45.503  30.546  34.772  1.00  0.00    -0.206 F 
ATOM     67  C   UNL A   1      46.250  27.893  37.114  1.00  0.00     0.022 A 
BRANCH  64  68
ATOM     68  S   UNL A   1      44.721  26.014  38.494  1.00  0.00     0.124 S 
ATOM     69  O   UNL A   1      44.414  26.784  39.695  1.00  0.00    -0.237 OA
ATOM     70  O   UNL A   1      43.612  25.261  37.917  1.00  0.00    -0.237 OA
ATOM     71  O   UNL A   1      46.001  25.307  38.521  1.00  0.00    -0.744 OA
ENDBRANCH  64  68
ENDBRANCH  38  61
ENDBRANCH  12  13
ENDBRANCH   5   7
ENDBRANCH   2   3
ENDBRANCH   1   2
BRANCH   1  72
ATOM     72  C   UNL A   1      32.050  30.449  25.860  1.00  0.00     0.023 C 
BRANCH  72  73
ATOM     73  C   UNL A   1      32.487  29.118  26.461  1.00  0.00     0.116 C 
BRANCH  73  74
ATOM     74  N   UNL A   1      31.430  28.146  26.632  1.00  0.00    -0.351 N 
ATOM     75  C   UNL A   1      31.231  26.976  25.933  1.00  0.00     0.283 C 
ATOM     76  H   UNL A   1      30.772  28.345  27.335  1.00  0.00     0.163 HD
ATOM     77  O   UNL A   1      30.464  26.152  26.442  1.00  0.00    -0.268 OA
BRANCH  75  78
ATOM     78  C   UNL A   1      31.962  26.734  24.582  1.00  0.00     0.307 C 
BRANCH  78  79
ATOM     79  N   UNL A   1      31.707  25.418  23.962  1.00  0.00    -0.318 N 
ATOM     80  C   UNL A   1      32.640  24.958  22.927  1.00  0.00     0.284 C 
ATOM     81  C   UNL A   1      31.267  24.317  24.829  1.00  0.00     0.284 C 
ATOM     82  H   UNL A   1      30.867  25.700  23.459  1.00  0.00     0.349 HD
ATOM     83  C   UNL A   1      33.718  23.912  23.307  1.00  0.00     0.178 C 
ATOM     84  C   UNL A   1      32.400  23.459  25.418  1.00  0.00     0.178 C 
ATOM     85  N   UNL A   1      33.271  22.992  24.345  1.00  0.00    -0.360 N 
BRANCH  85  86
ATOM     86  C   UNL A   1      33.932  21.793  24.512  1.00  0.00     0.038 A 
ATOM     87  C   UNL A   1      35.310  21.833  24.753  1.00  0.00     0.026 A 
ATOM     88  C   UNL A   1      33.296  20.550  24.445  1.00  0.00     0.046 A 
ATOM     89  C   UNL A   1      36.047  20.666  24.938  1.00  0.00     0.004 A 
ATOM     90  C   UNL A   1      34.038  19.380  24.625  1.00  0.00     0.043 A 
ATOM     91  C   UNL A   1      35.407  19.434  24.875  1.00  0.00     0.020 A 
ATOM     92  Cl  UNL A   1      33.283  17.838  24.539  1.00  0.00    -0.084 Cl
ENDBRANCH  85  86
ENDBRANCH  78  79
BRANCH  78  93
ATOM     93  C   UNL A   1      31.623  27.798  23.538  1.00  0.00     0.044 A 
ATOM     94  C   UNL A   1      32.499  28.533  22.753  1.00  0.00     0.094 A 
ATOM     95  C   UNL A   1      30.304  28.269  23.192  1.00  0.00     0.011 A 
ATOM     96  N   UNL A   1      31.794  29.464  22.046  1.00  0.00    -0.361 N 
ATOM     97  C   UNL A   1      30.451  29.334  22.300  1.00  0.00     0.046 A 
ATOM     98  C   UNL A   1      28.996  27.899  23.572  1.00  0.00     0.031 A 
ATOM     99  H   UNL A   1      32.192  30.132  21.443  1.00  0.00     0.166 HD
ATOM    100  C   UNL A   1      29.373  30.077  21.806  1.00  0.00     0.028 A 
ATOM    101  C   UNL A   1      27.908  28.617  23.063  1.00  0.00     0.041 A 
ATOM    102  C   UNL A   1      28.090  29.698  22.205  1.00  0.00     0.022 A 
ATOM    103  Cl  UNL A   1      26.308  28.155  23.509  1.00  0.00    -0.084 Cl
ENDBRANCH  78  93
ENDBRANCH  75  78
ENDBRANCH  73  74
ENDBRANCH  72  73
ENDBRANCH   1  72
TORSDOF 17
ENDMDL
MODEL 2
REMARK VINA RESULT:     -13.5      5.698      8.496
REMARK SMILES O=C(NCCCCNC(=O)[C@H](c1c[nH]c2ccc(Cl)cc12)[NH+]1CCN(c2cccc(Cl)c2)CC1)c1ccc(-c2c3nc(c(-c4cc(S(=O)(=O)[O-])ccc4F)c4ccc([nH]4)c(-c4cc(S(=O)(=O)[O-])ccc4F)c4nc(c(-c5cc(S(=O)(=O)[O-])ccc5F)c5ccc2[nH]5)C=C4)C=C3)cc1
REMARK SMILES IDX 5 1 4 2 3 3 1 4 2 5 35 7 36 8 97 9 37 10 96 11 38 12 39 13
REMARK SMILES IDX 40 14 90 15 41 16 95 17 89 18 91 19 42 20 94 21 88 22 87 23
REMARK SMILES IDX 43 25 75 26 55 27 74 28 56 29 59 30 73 31 92 32 57 33 58 34
REMARK SMILES IDX 72 36 93 37 60 38 44 39 45 40 53 41 46 42 52 43 54 44 51 45
REMARK SMILES IDX 47 46 48 47 49 48 50 49 76 50 77 51 85 52 78 53 84 54 86 55
REMARK SMILES IDX 83 56 79 57 80 58 81 59 82 60 61 61 62 62 70 63 63 64 69 65
REMARK SMILES IDX 71 66 68 67 64 68 65 69 66 70 67 71 6 72 7 73 8 74 9 75
REMARK SMILES IDX 10 77 11 78 22 79 23 80 34 81 24 83 33 84 25 85 26 86 27 87
REMARK SMILES IDX 32 88 28 89 30 90 29 91 31 92 12 93 13 94 21 95 14 96 15 97
REMARK SMILES IDX 20 98 16 100 18 101 17 102 19 103
REMARK H PARENT 3 6 91 24 59 35 8 76 22 82 14 99
REMARK Flexibility Score: inf
ROOT
ATOM      1  C   UNL A   1      36.979  21.668  23.927  1.00  0.00     0.023 C 
ENDROOT
BRANCH   1   2
ATOM      2  C   UNL A   1      37.404  21.779  25.388  1.00  0.00     0.116 C 
BRANCH   2   3
ATOM      3  N   UNL A   1      38.437  20.830  25.779  1.00  0.00    -0.352 N 
ATOM      4  O   UNL A   1      40.429  20.124  26.554  1.00  0.00    -0.269 OA
ATOM      5  C   UNL A   1      39.650  21.054  26.399  1.00  0.00     0.251 C 
ATOM      6  H   UNL A   1      38.240  19.888  25.571  1.00  0.00     0.163 HD
BRANCH   5   7
ATOM      7  C   UNL A   1      40.020  22.419  26.847  1.00  0.00     0.039 A 
ATOM      8  C   UNL A   1      39.495  23.548  26.216  1.00  0.00     0.014 A 
ATOM      9  C   UNL A   1      40.910  22.572  27.914  1.00  0.00     0.014 A 
ATOM     10  C   UNL A   1      39.951  24.818  26.552  1.00  0.00     0.010 A 
ATOM     11  C   UNL A   1      41.334  23.853  28.288  1.00  0.00     0.010 A 
ATOM     12  C   UNL A   1      40.886  24.981  27.582  1.00  0.00    -0.014 A 
BRANCH  12  13
ATOM     13  C   UNL A   1      41.405  26.337  27.883  1.00  0.00     0.031 A 
ATOM     14  C   UNL A   1      42.802  26.715  27.475  1.00  0.00     0.074 A 
ATOM     15  C   UNL A   1      40.599  27.239  28.471  1.00  0.00     0.049 A 
ATOM     16  N   UNL A   1      43.444  27.839  27.659  1.00  0.00    -0.248 NA
ATOM     17  C   UNL A   1      43.577  25.687  26.766  1.00  0.00     0.031 C 
ATOM     18  C   UNL A   1      39.209  26.993  28.861  1.00  0.00     0.029 A 
ATOM     19  N   UNL A   1      40.824  28.541  28.839  1.00  0.00    -0.354 N 
ATOM     20  C   UNL A   1      44.701  27.657  27.093  1.00  0.00     0.074 A 
ATOM     21  C   UNL A   1      44.740  26.297  26.594  1.00  0.00     0.031 C 
ATOM     22  C   UNL A   1      38.703  28.112  29.403  1.00  0.00     0.029 A 
ATOM     23  C   UNL A   1      39.747  29.131  29.455  1.00  0.00     0.049 A 
ATOM     24  H   UNL A   1      41.676  29.007  28.678  1.00  0.00     0.167 HD
ATOM     25  C   UNL A   1      45.722  28.546  26.995  1.00  0.00     0.034 A 
ATOM     26  C   UNL A   1      39.625  30.345  30.028  1.00  0.00     0.034 A 
ATOM     27  C   UNL A   1      45.664  29.890  27.522  1.00  0.00     0.049 A 
ATOM     28  C   UNL A   1      40.806  31.281  29.997  1.00  0.00     0.074 A 
ATOM     29  C   UNL A   1      46.636  30.875  27.484  1.00  0.00     0.029 A 
ATOM     30  N   UNL A   1      44.577  30.434  28.197  1.00  0.00    -0.354 N 
ATOM     31  N   UNL A   1      41.993  31.095  29.465  1.00  0.00    -0.248 NA
ATOM     32  C   UNL A   1      40.630  32.589  30.638  1.00  0.00     0.031 C 
ATOM     33  C   UNL A   1      46.169  31.980  28.204  1.00  0.00     0.029 A 
ATOM     34  C   UNL A   1      44.870  31.725  28.614  1.00  0.00     0.049 A 
ATOM     35  H   UNL A   1      43.723  29.971  28.357  1.00  0.00     0.167 HD
ATOM     36  C   UNL A   1      42.694  32.279  29.681  1.00  0.00     0.074 A 
ATOM     37  C   UNL A   1      41.793  33.170  30.383  1.00  0.00     0.031 C 
ATOM     38  C   UNL A   1      43.965  32.601  29.324  1.00  0.00     0.034 A 
BRANCH  25  39
ATOM     39  C   UNL A   1      47.002  28.060  26.354  1.00  0.00     0.023 A 
ATOM     40  C   UNL A   1      47.232  28.173  24.971  1.00  0.00     0.031 A 
ATOM     41  C   UNL A   1      47.991  27.431  27.132  1.00  0.00     0.131 A 
ATOM     42  C   UNL A   1      48.374  27.591  24.399  1.00  0.00     0.055 A 
ATOM     43  C   UNL A   1      49.168  26.932  26.569  1.00  0.00     0.041 A 
ATOM     44  F   UNL A   1      47.822  27.272  28.454  1.00  0.00    -0.206 F 
ATOM     45  C   UNL A   1      49.356  26.994  25.193  1.00  0.00     0.022 A 
BRANCH  42  46
ATOM     46  S   UNL A   1      48.477  27.478  22.591  1.00  0.00     0.124 S 
ATOM     47  O   UNL A   1      48.425  26.034  22.381  1.00  0.00    -0.237 OA
ATOM     48  O   UNL A   1      47.302  28.228  22.160  1.00  0.00    -0.237 OA
ATOM     49  O   UNL A   1      49.764  28.098  22.281  1.00  0.00    -0.744 OA
ENDBRANCH  42  46
ENDBRANCH  25  39
BRANCH  26  50
ATOM     50  C   UNL A   1      38.358  30.724  30.716  1.00  0.00     0.023 A 
ATOM     51  C   UNL A   1      37.346  31.430  30.049  1.00  0.00     0.031 A 
ATOM     52  C   UNL A   1      38.156  30.405  32.073  1.00  0.00     0.131 A 
ATOM     53  C   UNL A   1      36.195  31.826  30.749  1.00  0.00     0.055 A 
ATOM     54  C   UNL A   1      36.987  30.753  32.748  1.00  0.00     0.041 A 
ATOM     55  F   UNL A   1      39.094  29.732  32.760  1.00  0.00    -0.206 F 
ATOM     56  C   UNL A   1      36.001  31.478  32.088  1.00  0.00     0.022 A 
BRANCH  53  57
ATOM     57  S   UNL A   1      34.981  32.876  29.903  1.00  0.00     0.124 S 
ATOM     58  O   UNL A   1      34.397  31.942  28.947  1.00  0.00    -0.237 OA
ATOM     59  O   UNL A   1      34.119  33.290  31.005  1.00  0.00    -0.237 OA
ATOM     60  O   UNL A   1      35.797  33.938  29.320  1.00  0.00    -0.744 OA
ENDBRANCH  53  57
ENDBRANCH  26  50
BRANCH  38  61
ATOM     61  C   UNL A   1      44.433  34.000  29.644  1.00  0.00     0.023 A 
ATOM     62  C   UNL A   1      44.224  35.076  28.763  1.00  0.00     0.031 A 
ATOM     63  C   UNL A   1      45.106  34.258  30.852  1.00  0.00     0.131 A 
ATOM     64  C   UNL A   1      44.730  36.346  29.080  1.00  0.00     0.055 A 
ATOM     65  C   UNL A   1      45.549  35.536  31.192  1.00  0.00     0.041 A 
ATOM     66  F   UNL A   1      45.337  33.267  31.730  1.00  0.00    -0.206 F 
ATOM     67  C   UNL A   1      45.373  36.587  30.297  1.00  0.00     0.022 A 
BRANCH  64  68
ATOM     68  S   UNL A   1      44.617  37.665  27.839  1.00  0.00     0.124 S 
ATOM     69  O   UNL A   1      45.660  37.281  26.893  1.00  0.00    -0.237 OA
ATOM     70  O   UNL A   1      43.244  37.532  27.365  1.00  0.00    -0.237 OA
ATOM     71  O   UNL A   1      44.892  38.881  28.605  1.00  0.00    -0.744 OA
ENDBRANCH  64  68
ENDBRANCH  38  61
ENDBRANCH  12  13
ENDBRANCH   5   7
ENDBRANCH   2   3
ENDBRANCH   1   2
BRANCH   1  72
ATOM     72  C   UNL A   1      36.724  22.979  23.181  1.00  0.00     0.023 C 
BRANCH  72  73
ATOM     73  C   UNL A   1      35.468  23.740  23.586  1.00  0.00     0.116 C 
BRANCH  73  74
ATOM     74  N   UNL A   1      35.336  23.995  25.004  1.00  0.00    -0.351 N 
ATOM     75  C   UNL A   1      34.179  24.155  25.733  1.00  0.00     0.283 C 
ATOM     76  H   UNL A   1      36.177  24.061  25.509  1.00  0.00     0.163 HD
ATOM     77  O   UNL A   1      34.280  24.051  26.960  1.00  0.00    -0.268 OA
BRANCH  75  78
ATOM     78  C   UNL A   1      32.830  24.441  25.014  1.00  0.00     0.307 C 
BRANCH  78  79
ATOM     79  N   UNL A   1      31.955  23.263  24.839  1.00  0.00    -0.318 N 
ATOM     80  C   UNL A   1      31.787  22.733  23.482  1.00  0.00     0.284 C 
ATOM     81  C   UNL A   1      32.027  22.191  25.840  1.00  0.00     0.284 C 
ATOM     82  H   UNL A   1      31.083  23.749  25.046  1.00  0.00     0.349 HD
ATOM     83  C   UNL A   1      32.582  21.467  23.073  1.00  0.00     0.178 C 
ATOM     84  C   UNL A   1      33.044  21.078  25.529  1.00  0.00     0.178 C 
ATOM     85  N   UNL A   1      32.805  20.556  24.188  1.00  0.00    -0.360 N 
BRANCH  85  86
ATOM     86  C   UNL A   1      33.133  19.242  23.930  1.00  0.00     0.038 A 
ATOM     87  C   UNL A   1      32.520  18.617  22.837  1.00  0.00     0.026 A 
ATOM     88  C   UNL A   1      34.035  18.508  24.706  1.00  0.00     0.046 A 
ATOM     89  C   UNL A   1      32.802  17.294  22.507  1.00  0.00     0.004 A 
ATOM     90  C   UNL A   1      34.312  17.178  24.377  1.00  0.00     0.043 A 
ATOM     91  C   UNL A   1      33.703  16.572  23.280  1.00  0.00     0.020 A 
ATOM     92  Cl  UNL A   1      35.410  16.251  25.319  1.00  0.00    -0.084 Cl
ENDBRANCH  85  86
ENDBRANCH  78  79
BRANCH  78  93
ATOM     93  C   UNL A   1      32.006  25.513  25.726  1.00  0.00     0.044 A 
ATOM     94  C   UNL A   1      30.644  25.509  25.988  1.00  0.00     0.094 A 
ATOM     95  C   UNL A   1      32.495  26.770  26.238  1.00  0.00     0.011 A 
ATOM     96  N   UNL A   1      30.287  26.711  26.528  1.00  0.00    -0.361 N 
ATOM     97  C   UNL A   1      31.395  27.507  26.684  1.00  0.00     0.046 A 
ATOM     98  C   UNL A   1      33.774  27.359  26.344  1.00  0.00     0.031 A 
ATOM     99  H   UNL A   1      29.369  26.970  26.770  1.00  0.00     0.166 HD
ATOM    100  C   UNL A   1      31.495  28.810  27.185  1.00  0.00     0.028 A 
ATOM    101  C   UNL A   1      33.889  28.651  26.869  1.00  0.00     0.041 A 
ATOM    102  C   UNL A   1      32.769  29.374  27.269  1.00  0.00     0.022 A 
ATOM    103  Cl  UNL A   1      35.451  29.365  27.018  1.00  0.00    -0.084 Cl
ENDBRANCH  78  93
ENDBRANCH  75  78
ENDBRANCH  73  74
ENDBRANCH  72  73
ENDBRANCH   1  72
TORSDOF 17
ENDMDL
MODEL 3
REMARK VINA RESULT:     -13.3      1.584      7.453
REMARK SMILES O=C(NCCCCNC(=O)[C@H](c1c[nH]c2ccc(Cl)cc12)[NH+]1CCN(c2cccc(Cl)c2)CC1)c1ccc(-c2c3nc(c(-c4cc(S(=O)(=O)[O-])ccc4F)c4ccc([nH]4)c(-c4cc(S(=O)(=O)[O-])ccc4F)c4nc(c(-c5cc(S(=O)(=O)[O-])ccc5F)c5ccc2[nH]5)C=C4)C=C3)cc1
REMARK SMILES IDX 5 1 4 2 3 3 1 4 2 5 35 7 36 8 97 9 37 10 96 11 38 12 39 13
REMARK SMILES IDX 40 14 90 15 41 16 95 17 89 18 91 19 42 20 94 21 88 22 87 23
REMARK SMILES IDX 43 25 75 26 55 27 74 28 56 29 59 30 73 31 92 32 57 33 58 34
REMARK SMILES IDX 72 36 93 37 60 38 44 39 45 40 53 41 46 42 52 43 54 44 51 45
REMARK SMILES IDX 47 46 48 47 49 48 50 49 76 50 77 51 85 52 78 53 84 54 86 55
REMARK SMILES IDX 83 56 79 57 80 58 81 59 82 60 61 61 62 62 70 63 63 64 69 65
REMARK SMILES IDX 71 66 68 67 64 68 65 69 66 70 67 71 6 72 7 73 8 74 9 75
REMARK SMILES IDX 10 77 11 78 22 79 23 80 34 81 24 83 33 84 25 85 26 86 27 87
REMARK SMILES IDX 32 88 28 89 30 90 29 91 31 92 12 93 13 94 21 95 14 96 15 97
REMARK SMILES IDX 20 98 16 100 18 101 17 102 19 103
REMARK H PARENT 3 6 91 24 59 35 8 76 22 82 14 99
REMARK Flexibility Score: inf
ROOT
ATOM      1  C   UNL A   1      31.691  31.550  26.827  1.00  0.00     0.023 C 
ENDROOT
BRANCH   1   2
ATOM      2  C   UNL A   1      32.989  32.261  27.197  1.00  0.00     0.116 C 
BRANCH   2   3
ATOM      3  N   UNL A   1      32.808  33.641  27.627  1.00  0.00    -0.352 N 
ATOM      4  O   UNL A   1      33.110  35.489  28.876  1.00  0.00    -0.269 OA
ATOM      5  C   UNL A   1      33.484  34.360  28.591  1.00  0.00     0.251 C 
ATOM      6  H   UNL A   1      32.096  34.135  27.158  1.00  0.00     0.163 HD
BRANCH   5   7
ATOM      7  C   UNL A   1      34.638  33.756  29.302  1.00  0.00     0.039 A 
ATOM      8  C   UNL A   1      35.949  34.092  28.959  1.00  0.00     0.014 A 
ATOM      9  C   UNL A   1      34.404  32.834  30.327  1.00  0.00     0.014 A 
ATOM     10  C   UNL A   1      37.021  33.421  29.536  1.00  0.00     0.010 A 
ATOM     11  C   UNL A   1      35.484  32.191  30.944  1.00  0.00     0.010 A 
ATOM     12  C   UNL A   1      36.798  32.454  30.523  1.00  0.00    -0.014 A 
BRANCH  12  13
ATOM     13  C   UNL A   1      37.952  31.706  31.081  1.00  0.00     0.031 A 
ATOM     14  C   UNL A   1      38.434  31.998  32.474  1.00  0.00     0.074 A 
ATOM     15  C   UNL A   1      38.523  30.731  30.351  1.00  0.00     0.049 A 
ATOM     16  N   UNL A   1      39.429  31.467  33.135  1.00  0.00    -0.248 NA
ATOM     17  C   UNL A   1      37.693  33.025  33.221  1.00  0.00     0.031 C 
ATOM     18  C   UNL A   1      38.099  30.331  29.008  1.00  0.00     0.029 A 
ATOM     19  N   UNL A   1      39.574  29.896  30.634  1.00  0.00    -0.354 N 
ATOM     20  C   UNL A   1      39.442  32.097  34.375  1.00  0.00     0.074 A 
ATOM     21  C   UNL A   1      38.374  33.076  34.356  1.00  0.00     0.031 C 
ATOM     22  C   UNL A   1      38.877  29.320  28.588  1.00  0.00     0.029 A 
ATOM     23  C   UNL A   1      39.889  29.043  29.603  1.00  0.00     0.049 A 
ATOM     24  H   UNL A   1      40.056  29.908  31.492  1.00  0.00     0.167 HD
ATOM     25  C   UNL A   1      40.264  31.870  35.431  1.00  0.00     0.034 A 
ATOM     26  C   UNL A   1      40.899  28.160  29.478  1.00  0.00     0.034 A 
ATOM     27  C   UNL A   1      41.336  30.902  35.415  1.00  0.00     0.049 A 
ATOM     28  C   UNL A   1      41.863  27.997  30.625  1.00  0.00     0.074 A 
ATOM     29  C   UNL A   1      42.232  30.590  36.423  1.00  0.00     0.029 A 
ATOM     30  N   UNL A   1      41.666  30.098  34.330  1.00  0.00    -0.354 N 
ATOM     31  N   UNL A   1      41.870  28.603  31.791  1.00  0.00    -0.248 NA
ATOM     32  C   UNL A   1      42.952  27.030  30.442  1.00  0.00     0.031 C 
ATOM     33  C   UNL A   1      43.151  29.661  35.920  1.00  0.00     0.029 A 
ATOM     34  C   UNL A   1      42.776  29.321  34.631  1.00  0.00     0.049 A 
ATOM     35  H   UNL A   1      41.184  30.082  33.472  1.00  0.00     0.167 HD
ATOM     36  C   UNL A   1      42.945  28.064  32.493  1.00  0.00     0.074 A 
ATOM     37  C   UNL A   1      43.555  27.080  31.620  1.00  0.00     0.031 C 
ATOM     38  C   UNL A   1      43.383  28.351  33.746  1.00  0.00     0.034 A 
BRANCH  25  39
ATOM     39  C   UNL A   1      40.071  32.736  36.656  1.00  0.00     0.023 A 
ATOM     40  C   UNL A   1      39.241  32.343  37.721  1.00  0.00     0.031 A 
ATOM     41  C   UNL A   1      40.691  33.996  36.739  1.00  0.00     0.131 A 
ATOM     42  C   UNL A   1      38.985  33.233  38.776  1.00  0.00     0.055 A 
ATOM     43  C   UNL A   1      40.503  34.841  37.835  1.00  0.00     0.041 A 
ATOM     44  F   UNL A   1      41.477  34.438  35.745  1.00  0.00    -0.206 F 
ATOM     45  C   UNL A   1      39.631  34.469  38.854  1.00  0.00     0.022 A 
BRANCH  42  46
ATOM     46  S   UNL A   1      37.671  32.821  39.958  1.00  0.00     0.124 S 
ATOM     47  O   UNL A   1      37.696  33.982  40.845  1.00  0.00    -0.237 OA
ATOM     48  O   UNL A   1      36.500  32.700  39.099  1.00  0.00    -0.237 OA
ATOM     49  O   UNL A   1      38.134  31.575  40.566  1.00  0.00    -0.744 OA
ENDBRANCH  42  46
ENDBRANCH  25  39
BRANCH  26  50
ATOM     50  C   UNL A   1      41.077  27.402  28.207  1.00  0.00     0.023 A 
ATOM     51  C   UNL A   1      40.786  26.032  28.125  1.00  0.00     0.031 A 
ATOM     52  C   UNL A   1      41.573  28.041  27.054  1.00  0.00     0.131 A 
ATOM     53  C   UNL A   1      41.029  25.338  26.930  1.00  0.00     0.055 A 
ATOM     54  C   UNL A   1      41.759  27.358  25.853  1.00  0.00     0.041 A 
ATOM     55  F   UNL A   1      41.870  29.351  27.078  1.00  0.00    -0.206 F 
ATOM     56  C   UNL A   1      41.497  25.994  25.789  1.00  0.00     0.022 A 
BRANCH  53  57
ATOM     57  S   UNL A   1      40.796  23.539  26.906  1.00  0.00     0.124 S 
ATOM     58  O   UNL A   1      41.096  23.183  28.289  1.00  0.00    -0.237 OA
ATOM     59  O   UNL A   1      39.400  23.419  26.502  1.00  0.00    -0.237 OA
ATOM     60  O   UNL A   1      41.771  23.082  25.918  1.00  0.00    -0.744 OA
ENDBRANCH  53  57
ENDBRANCH  26  50
BRANCH  38  61
ATOM     61  C   UNL A   1      44.551  27.547  34.265  1.00  0.00     0.023 A 
ATOM     62  C   UNL A   1      44.374  26.346  34.974  1.00  0.00     0.031 A 
ATOM     63  C   UNL A   1      45.866  27.998  34.049  1.00  0.00     0.131 A 
ATOM     64  C   UNL A   1      45.489  25.666  35.486  1.00  0.00     0.055 A 
ATOM     65  C   UNL A   1      46.975  27.284  34.505  1.00  0.00     0.041 A 
ATOM     66  F   UNL A   1      46.094  29.142  33.383  1.00  0.00    -0.206 F 
ATOM     67  C   UNL A   1      46.789  26.117  35.239  1.00  0.00     0.022 A 
BRANCH  64  68
ATOM     68  S   UNL A   1      45.219  24.229  36.560  1.00  0.00     0.124 S 
ATOM     69  O   UNL A   1      44.395  23.370  35.715  1.00  0.00    -0.237 OA
ATOM     70  O   UNL A   1      46.580  23.763  36.808  1.00  0.00    -0.237 OA
ATOM     71  O   UNL A   1      44.537  24.794  37.724  1.00  0.00    -0.744 OA
ENDBRANCH  64  68
ENDBRANCH  38  61
ENDBRANCH  12  13
ENDBRANCH   5   7
ENDBRANCH   2   3
ENDBRANCH   1   2
BRANCH   1  72
ATOM     72  C   UNL A   1      31.784  30.457  25.760  1.00  0.00     0.023 C 
BRANCH  72  73
ATOM     73  C   UNL A   1      32.372  29.128  26.221  1.00  0.00     0.116 C 
BRANCH  73  74
ATOM     74  N   UNL A   1      31.400  28.102  26.528  1.00  0.00    -0.351 N 
ATOM     75  C   UNL A   1      31.229  26.882  25.912  1.00  0.00     0.283 C 
ATOM     76  H   UNL A   1      30.785  28.300  27.270  1.00  0.00     0.163 HD
ATOM     77  O   UNL A   1      30.561  26.042  26.524  1.00  0.00    -0.268 OA
BRANCH  75  78
ATOM     78  C   UNL A   1      31.870  26.608  24.522  1.00  0.00     0.307 C 
BRANCH  78  79
ATOM     79  N   UNL A   1      31.487  25.323  23.901  1.00  0.00    -0.318 N 
ATOM     80  C   UNL A   1      32.348  24.796  22.837  1.00  0.00     0.284 C 
ATOM     81  C   UNL A   1      30.981  24.256  24.773  1.00  0.00     0.284 C 
ATOM     82  H   UNL A   1      30.660  25.680  23.424  1.00  0.00     0.349 HD
ATOM     83  C   UNL A   1      33.345  23.660  23.179  1.00  0.00     0.178 C 
ATOM     84  C   UNL A   1      32.054  23.301  25.324  1.00  0.00     0.178 C 
ATOM     85  N   UNL A   1      32.852  22.771  24.223  1.00  0.00    -0.360 N 
BRANCH  85  86
ATOM     86  C   UNL A   1      33.413  21.520  24.364  1.00  0.00     0.038 A 
ATOM     87  C   UNL A   1      34.732  21.442  24.827  1.00  0.00     0.026 A 
ATOM     88  C   UNL A   1      32.735  20.336  24.060  1.00  0.00     0.046 A 
ATOM     89  C   UNL A   1      35.368  20.216  25.001  1.00  0.00     0.004 A 
ATOM     90  C   UNL A   1      33.377  19.106  24.230  1.00  0.00     0.043 A 
ATOM     91  C   UNL A   1      34.686  19.042  24.702  1.00  0.00     0.020 A 
ATOM     92  Cl  UNL A   1      32.570  17.635  23.856  1.00  0.00    -0.084 Cl
ENDBRANCH  85  86
ENDBRANCH  78  79
BRANCH  78  93
ATOM     93  C   UNL A   1      31.556  27.709  23.509  1.00  0.00     0.044 A 
ATOM     94  C   UNL A   1      32.449  28.444  22.743  1.00  0.00     0.094 A 
ATOM     95  C   UNL A   1      30.250  28.223  23.179  1.00  0.00     0.011 A 
ATOM     96  N   UNL A   1      31.768  29.413  22.065  1.00  0.00    -0.361 N 
ATOM     97  C   UNL A   1      30.423  29.309  22.317  1.00  0.00     0.046 A 
ATOM     98  C   UNL A   1      28.932  27.876  23.551  1.00  0.00     0.031 A 
ATOM     99  H   UNL A   1      32.182  30.087  21.479  1.00  0.00     0.166 HD
ATOM    100  C   UNL A   1      29.363  30.093  21.847  1.00  0.00     0.028 A 
ATOM    101  C   UNL A   1      27.862  28.635  23.064  1.00  0.00     0.041 A 
ATOM    102  C   UNL A   1      28.072  29.736  22.238  1.00  0.00     0.022 A 
ATOM    103  Cl  UNL A   1      26.252  28.202  23.501  1.00  0.00    -0.084 Cl
ENDBRANCH  78  93
ENDBRANCH  75  78
ENDBRANCH  73  74
ENDBRANCH  72  73
ENDBRANCH   1  72
TORSDOF 17
ENDMDL
