MODEL 1
REMARK VINA RESULT:     -11.5      0.000      0.000
REMARK SMILES C[C@H](Nc1ccc(N(C)C)cc1)[C@@H](C)C(=O)NCCCCNC(=O)c1ccc(-c2c3nc(c(-c4cc(S(=O)(=O)[O-])ccc4F)c4ccc([nH]4)c(-c4cc(S(=O)(=O)[O-])ccc4F)c4nc(c(-c5cc(S(=O)(=O)[O-])ccc5F)c5ccc2[nH]5)C=C4)C=C3)cc1
REMARK SMILES IDX 19 1 18 2 17 3 15 4 16 5 13 7 14 8 2 9 1 10 3 11 4 13 5 14
REMARK SMILES IDX 12 15 6 16 11 17 7 18 8 19 9 20 10 21 20 22 21 23 22 24
REMARK SMILES IDX 23 25 24 27 25 28 26 29 87 30 27 31 86 32 28 33 29 34 30 35
REMARK SMILES IDX 80 36 31 37 85 38 79 39 81 40 32 41 84 42 78 43 77 44 33 46
REMARK SMILES IDX 65 47 45 48 64 49 46 50 49 51 63 52 82 53 47 54 48 55 62 57
REMARK SMILES IDX 83 58 50 59 34 60 35 61 43 62 36 63 42 64 44 65 41 66 37 67
REMARK SMILES IDX 38 68 39 69 40 70 66 71 67 72 75 73 68 74 74 75 76 76 73 77
REMARK SMILES IDX 69 78 70 79 71 80 72 81 51 82 52 83 60 84 53 85 59 86 61 87
REMARK SMILES IDX 58 88 54 89 55 90 56 91 57 92
REMARK H PARENT 17 6 3 12 22 26 81 45 49 56
REMARK Flexibility Score: inf
ROOT
ATOM      1  C   UNL A   1      33.885  20.704  25.592  1.00  0.00     0.023 C 
ENDROOT
BRANCH   1   2
ATOM      2  C   UNL A   1      32.422  21.040  25.301  1.00  0.00     0.116 C 
BRANCH   2   3
ATOM      3  N   UNL A   1      31.862  21.929  26.301  1.00  0.00    -0.356 N 
ATOM      4  C   UNL A   1      31.789  23.287  26.358  1.00  0.00     0.224 C 
ATOM      5  O   UNL A   1      31.255  23.785  27.353  1.00  0.00    -0.275 OA
ATOM      6  H   UNL A   1      31.462  21.470  27.075  1.00  0.00     0.163 HD
BRANCH   4   7
ATOM      7  C   UNL A   1      32.317  24.185  25.241  1.00  0.00     0.097 C 
ATOM      8  C   UNL A   1      33.307  25.195  25.829  1.00  0.00     0.020 C 
BRANCH   7   9
ATOM      9  C   UNL A   1      31.188  24.771  24.360  1.00  0.00     0.088 C 
ATOM     10  C   UNL A   1      30.692  23.720  23.359  1.00  0.00     0.031 C 
BRANCH   9  11
ATOM     11  N   UNL A   1      31.599  26.057  23.771  1.00  0.00    -0.382 N 
ATOM     12  H   UNL A   1      32.567  26.181  23.636  1.00  0.00     0.160 HD
BRANCH  11  13
ATOM     13  C   UNL A   1      30.797  27.107  23.387  1.00  0.00     0.034 A 
ATOM     14  C   UNL A   1      29.428  27.060  23.639  1.00  0.00     0.028 A 
ATOM     15  C   UNL A   1      31.280  28.248  22.763  1.00  0.00     0.028 A 
ATOM     16  C   UNL A   1      28.583  28.136  23.310  1.00  0.00     0.028 A 
ATOM     17  C   UNL A   1      30.438  29.322  22.443  1.00  0.00     0.028 A 
ATOM     18  C   UNL A   1      29.062  29.310  22.713  1.00  0.00     0.036 A 
BRANCH  18  19
ATOM     19  N   UNL A   1      28.250  30.387  22.386  1.00  0.00    -0.378 N 
ATOM     20  C   UNL A   1      27.678  31.297  23.369  1.00  0.00     0.143 C 
ATOM     21  C   UNL A   1      28.084  30.778  20.989  1.00  0.00     0.143 C 
ENDBRANCH  18  19
ENDBRANCH  11  13
ENDBRANCH   9  11
ENDBRANCH   7   9
ENDBRANCH   4   7
ENDBRANCH   2   3
ENDBRANCH   1   2
BRANCH   1  22
ATOM     22  C   UNL A   1      34.897  21.609  24.892  1.00  0.00     0.023 C 
BRANCH  22  23
ATOM     23  C   UNL A   1      36.150  21.916  25.702  1.00  0.00     0.116 C 
BRANCH  23  24
ATOM     24  N   UNL A   1      37.147  20.859  25.625  1.00  0.00    -0.352 N 
ATOM     25  C   UNL A   1      38.506  20.941  25.792  1.00  0.00     0.251 C 
ATOM     26  H   UNL A   1      36.798  19.961  25.425  1.00  0.00     0.163 HD
ATOM     27  O   UNL A   1      39.208  19.964  25.541  1.00  0.00    -0.269 OA
BRANCH  25  28
ATOM     28  C   UNL A   1      39.116  22.212  26.236  1.00  0.00     0.039 A 
ATOM     29  C   UNL A   1      40.259  22.165  27.035  1.00  0.00     0.014 A 
ATOM     30  C   UNL A   1      38.576  23.444  25.854  1.00  0.00     0.014 A 
ATOM     31  C   UNL A   1      40.891  23.353  27.403  1.00  0.00     0.010 A 
ATOM     32  C   UNL A   1      39.258  24.622  26.147  1.00  0.00     0.010 A 
ATOM     33  C   UNL A   1      40.417  24.590  26.933  1.00  0.00    -0.014 A 
BRANCH  33  34
ATOM     34  C   UNL A   1      41.128  25.852  27.268  1.00  0.00     0.031 A 
ATOM     35  C   UNL A   1      40.457  26.898  28.117  1.00  0.00     0.074 A 
ATOM     36  C   UNL A   1      42.368  26.062  26.784  1.00  0.00     0.049 A 
ATOM     37  N   UNL A   1      40.916  28.057  28.517  1.00  0.00    -0.248 NA
ATOM     38  C   UNL A   1      39.079  26.619  28.549  1.00  0.00     0.031 C 
ATOM     39  C   UNL A   1      43.099  25.142  25.910  1.00  0.00     0.029 A 
ATOM     40  N   UNL A   1      43.237  27.109  26.963  1.00  0.00    -0.354 N 
ATOM     41  C   UNL A   1      39.885  28.643  29.244  1.00  0.00     0.074 A 
ATOM     42  C   UNL A   1      38.754  27.745  29.163  1.00  0.00     0.031 C 
ATOM     43  C   UNL A   1      44.321  25.644  25.667  1.00  0.00     0.029 A 
ATOM     44  C   UNL A   1      44.445  26.940  26.325  1.00  0.00     0.049 A 
ATOM     45  H   UNL A   1      43.017  27.906  27.497  1.00  0.00     0.167 HD
ATOM     46  C   UNL A   1      39.892  29.808  29.940  1.00  0.00     0.034 A 
ATOM     47  C   UNL A   1      45.528  27.740  26.274  1.00  0.00     0.034 A 
ATOM     48  C   UNL A   1      41.032  30.690  30.010  1.00  0.00     0.049 A 
ATOM     49  C   UNL A   1      45.502  29.042  27.034  1.00  0.00     0.074 A 
ATOM     50  C   UNL A   1      41.165  31.871  30.719  1.00  0.00     0.029 A 
ATOM     51  N   UNL A   1      42.234  30.495  29.339  1.00  0.00    -0.354 N 
ATOM     52  N   UNL A   1      44.539  29.554  27.767  1.00  0.00    -0.248 NA
ATOM     53  C   UNL A   1      46.716  29.865  26.973  1.00  0.00     0.031 C 
ATOM     54  C   UNL A   1      42.412  32.428  30.416  1.00  0.00     0.029 A 
ATOM     55  C   UNL A   1      43.098  31.551  29.591  1.00  0.00     0.049 A 
ATOM     56  H   UNL A   1      42.441  29.721  28.767  1.00  0.00     0.167 HD
ATOM     57  C   UNL A   1      45.047  30.745  28.281  1.00  0.00     0.074 A 
ATOM     58  C   UNL A   1      46.407  30.858  27.792  1.00  0.00     0.031 C 
ATOM     59  C   UNL A   1      44.447  31.661  29.084  1.00  0.00     0.034 A 
BRANCH  46  60
ATOM     60  C   UNL A   1      38.618  30.199  30.654  1.00  0.00     0.023 A 
ATOM     61  C   UNL A   1      37.592  30.908  30.002  1.00  0.00     0.031 A 
ATOM     62  C   UNL A   1      38.434  29.883  32.011  1.00  0.00     0.131 A 
ATOM     63  C   UNL A   1      36.470  31.344  30.725  1.00  0.00     0.055 A 
ATOM     64  C   UNL A   1      37.275  30.242  32.702  1.00  0.00     0.041 A 
ATOM     65  F   UNL A   1      39.385  29.229  32.697  1.00  0.00    -0.206 F 
ATOM     66  C   UNL A   1      36.291  30.991  32.063  1.00  0.00     0.022 A 
BRANCH  63  67
ATOM     67  S   UNL A   1      35.328  32.507  29.930  1.00  0.00     0.124 S 
ATOM     68  O   UNL A   1      34.364  32.752  31.000  1.00  0.00    -0.237 OA
ATOM     69  O   UNL A   1      36.201  33.624  29.588  1.00  0.00    -0.237 OA
ATOM     70  O   UNL A   1      34.806  31.751  28.793  1.00  0.00    -0.744 OA
ENDBRANCH  63  67
ENDBRANCH  46  60
BRANCH  47  71
ATOM     71  C   UNL A   1      46.729  27.342  25.481  1.00  0.00     0.023 A 
ATOM     72  C   UNL A   1      46.928  27.821  24.176  1.00  0.00     0.031 A 
ATOM     73  C   UNL A   1      47.671  26.436  26.000  1.00  0.00     0.131 A 
ATOM     74  C   UNL A   1      48.009  27.352  23.415  1.00  0.00     0.055 A 
ATOM     75  C   UNL A   1      48.780  26.019  25.260  1.00  0.00     0.041 A 
ATOM     76  F   UNL A   1      47.532  25.949  27.243  1.00  0.00    -0.206 F 
ATOM     77  C   UNL A   1      48.945  26.466  23.954  1.00  0.00     0.022 A 
BRANCH  74  78
ATOM     78  S   UNL A   1      48.121  27.839  21.671  1.00  0.00     0.124 S 
ATOM     79  O   UNL A   1      46.827  28.476  21.457  1.00  0.00    -0.237 OA
ATOM     80  O   UNL A   1      49.280  28.726  21.679  1.00  0.00    -0.237 OA
ATOM     81  O   UNL A   1      48.315  26.569  20.976  1.00  0.00    -0.744 OA
ENDBRANCH  74  78
ENDBRANCH  47  71
BRANCH  59  82
ATOM     82  C   UNL A   1      45.284  32.843  29.518  1.00  0.00     0.023 A 
ATOM     83  C   UNL A   1      45.287  34.053  28.801  1.00  0.00     0.031 A 
ATOM     84  C   UNL A   1      46.119  32.743  30.646  1.00  0.00     0.131 A 
ATOM     85  C   UNL A   1      46.166  35.082  29.170  1.00  0.00     0.055 A 
ATOM     86  C   UNL A   1      46.933  33.801  31.054  1.00  0.00     0.041 A 
ATOM     87  F   UNL A   1      46.161  31.613  31.368  1.00  0.00    -0.206 F 
ATOM     88  C   UNL A   1      46.975  34.971  30.304  1.00  0.00     0.022 A 
BRANCH  85  89
ATOM     89  S   UNL A   1      46.334  36.515  28.071  1.00  0.00     0.124 S 
ATOM     90  O   UNL A   1      46.484  35.880  26.766  1.00  0.00    -0.237 OA
ATOM     91  O   UNL A   1      45.081  37.228  28.293  1.00  0.00    -0.237 OA
ATOM     92  O   UNL A   1      47.530  37.192  28.572  1.00  0.00    -0.744 OA
ENDBRANCH  85  89
ENDBRANCH  59  82
ENDBRANCH  33  34
ENDBRANCH  25  28
ENDBRANCH  23  24
ENDBRANCH  22  23
ENDBRANCH   1  22
TORSDOF 18
ENDMDL
MODEL 2
REMARK VINA RESULT:     -11.5      5.138      8.143
REMARK SMILES C[C@H](Nc1ccc(N(C)C)cc1)[C@@H](C)C(=O)NCCCCNC(=O)c1ccc(-c2c3nc(c(-c4cc(S(=O)(=O)[O-])ccc4F)c4ccc([nH]4)c(-c4cc(S(=O)(=O)[O-])ccc4F)c4nc(c(-c5cc(S(=O)(=O)[O-])ccc5F)c5ccc2[nH]5)C=C4)C=C3)cc1
REMARK SMILES IDX 19 1 18 2 17 3 15 4 16 5 13 7 14 8 2 9 1 10 3 11 4 13 5 14
REMARK SMILES IDX 12 15 6 16 11 17 7 18 8 19 9 20 10 21 20 22 21 23 22 24
REMARK SMILES IDX 23 25 24 27 25 28 26 29 87 30 27 31 86 32 28 33 29 34 30 35
REMARK SMILES IDX 80 36 31 37 85 38 79 39 81 40 32 41 84 42 78 43 77 44 33 46
REMARK SMILES IDX 65 47 45 48 64 49 46 50 49 51 63 52 82 53 47 54 48 55 62 57
REMARK SMILES IDX 83 58 50 59 34 60 35 61 43 62 36 63 42 64 44 65 41 66 37 67
REMARK SMILES IDX 38 68 39 69 40 70 66 71 67 72 75 73 68 74 74 75 76 76 73 77
REMARK SMILES IDX 69 78 70 79 71 80 72 81 51 82 52 83 60 84 53 85 59 86 61 87
REMARK SMILES IDX 58 88 54 89 55 90 56 91 57 92
REMARK H PARENT 17 6 3 12 22 26 81 45 49 56
REMARK Flexibility Score: inf
ROOT
ATOM      1  C   UNL A   1      32.845  29.208  23.611  1.00  0.00     0.023 C 
ENDROOT
BRANCH   1   2
ATOM      2  C   UNL A   1      31.886  28.489  22.660  1.00  0.00     0.116 C 
BRANCH   2   3
ATOM      3  N   UNL A   1      32.561  27.473  21.876  1.00  0.00    -0.356 N 
ATOM      4  C   UNL A   1      32.919  26.195  22.175  1.00  0.00     0.224 C 
ATOM      5  O   UNL A   1      33.503  25.549  21.301  1.00  0.00    -0.275 OA
ATOM      6  H   UNL A   1      32.803  27.757  20.965  1.00  0.00     0.163 HD
BRANCH   4   7
ATOM      7  C   UNL A   1      32.603  25.549  23.524  1.00  0.00     0.097 C 
ATOM      8  C   UNL A   1      33.816  25.691  24.449  1.00  0.00     0.020 C 
BRANCH   7   9
ATOM      9  C   UNL A   1      32.017  24.124  23.382  1.00  0.00     0.088 C 
ATOM     10  C   UNL A   1      31.120  23.793  24.580  1.00  0.00     0.031 C 
BRANCH   9  11
ATOM     11  N   UNL A   1      33.083  23.146  23.104  1.00  0.00    -0.382 N 
ATOM     12  H   UNL A   1      33.801  23.449  22.502  1.00  0.00     0.160 HD
BRANCH  11  13
ATOM     13  C   UNL A   1      33.198  21.861  23.581  1.00  0.00     0.034 A 
ATOM     14  C   UNL A   1      32.315  20.878  23.142  1.00  0.00     0.028 A 
ATOM     15  C   UNL A   1      34.176  21.466  24.484  1.00  0.00     0.028 A 
ATOM     16  C   UNL A   1      32.433  19.541  23.566  1.00  0.00     0.028 A 
ATOM     17  C   UNL A   1      34.296  20.133  24.899  1.00  0.00     0.028 A 
ATOM     18  C   UNL A   1      33.437  19.120  24.448  1.00  0.00     0.036 A 
BRANCH  18  19
ATOM     19  N   UNL A   1      33.579  17.807  24.874  1.00  0.00    -0.378 N 
ATOM     20  C   UNL A   1      32.570  17.091  25.642  1.00  0.00     0.143 C 
ATOM     21  C   UNL A   1      34.699  17.002  24.393  1.00  0.00     0.143 C 
ENDBRANCH  18  19
ENDBRANCH  11  13
ENDBRANCH   9  11
ENDBRANCH   7   9
ENDBRANCH   4   7
ENDBRANCH   2   3
ENDBRANCH   1   2
BRANCH   1  22
ATOM     22  C   UNL A   1      32.305  29.411  25.025  1.00  0.00     0.023 C 
BRANCH  22  23
ATOM     23  C   UNL A   1      33.349  29.814  26.058  1.00  0.00     0.116 C 
BRANCH  23  24
ATOM     24  N   UNL A   1      33.108  31.135  26.619  1.00  0.00    -0.352 N 
ATOM     25  C   UNL A   1      33.824  31.809  27.576  1.00  0.00     0.251 C 
ATOM     26  H   UNL A   1      32.324  31.610  26.264  1.00  0.00     0.163 HD
ATOM     27  O   UNL A   1      33.383  32.859  28.036  1.00  0.00    -0.269 OA
BRANCH  25  28
ATOM     28  C   UNL A   1      35.099  31.247  28.071  1.00  0.00     0.039 A 
ATOM     29  C   UNL A   1      36.235  32.058  28.072  1.00  0.00     0.014 A 
ATOM     30  C   UNL A   1      35.172  29.935  28.548  1.00  0.00     0.014 A 
ATOM     31  C   UNL A   1      37.429  31.570  28.603  1.00  0.00     0.010 A 
ATOM     32  C   UNL A   1      36.339  29.482  29.158  1.00  0.00     0.010 A 
ATOM     33  C   UNL A   1      37.483  30.292  29.183  1.00  0.00    -0.014 A 
BRANCH  33  34
ATOM     34  C   UNL A   1      38.736  29.795  29.809  1.00  0.00     0.031 A 
ATOM     35  C   UNL A   1      39.162  30.301  31.162  1.00  0.00     0.074 A 
ATOM     36  C   UNL A   1      39.501  28.906  29.145  1.00  0.00     0.049 A 
ATOM     37  N   UNL A   1      40.217  29.984  31.868  1.00  0.00    -0.248 NA
ATOM     38  C   UNL A   1      38.305  31.318  31.789  1.00  0.00     0.031 C 
ATOM     39  C   UNL A   1      39.215  28.382  27.807  1.00  0.00     0.029 A 
ATOM     40  N   UNL A   1      40.668  28.279  29.502  1.00  0.00    -0.354 N 
ATOM     41  C   UNL A   1      40.152  30.762  33.019  1.00  0.00     0.074 A 
ATOM     42  C   UNL A   1      38.995  31.620  32.877  1.00  0.00     0.031 C 
ATOM     43  C   UNL A   1      40.155  27.481  27.478  1.00  0.00     0.029 A 
ATOM     44  C   UNL A   1      41.135  27.397  28.556  1.00  0.00     0.049 A 
ATOM     45  H   UNL A   1      41.128  28.446  30.357  1.00  0.00     0.167 HD
ATOM     46  C   UNL A   1      40.963  30.741  34.105  1.00  0.00     0.034 A 
ATOM     47  C   UNL A   1      42.230  26.612  28.554  1.00  0.00     0.034 A 
ATOM     48  C   UNL A   1      42.112  29.877  34.229  1.00  0.00     0.049 A 
ATOM     49  C   UNL A   1      43.132  26.626  29.762  1.00  0.00     0.074 A 
ATOM     50  C   UNL A   1      42.978  29.741  35.300  1.00  0.00     0.029 A 
ATOM     51  N   UNL A   1      42.565  29.007  33.243  1.00  0.00    -0.354 N 
ATOM     52  N   UNL A   1      43.022  27.325  30.870  1.00  0.00    -0.248 NA
ATOM     53  C   UNL A   1      44.295  25.732  29.726  1.00  0.00     0.031 C 
ATOM     54  C   UNL A   1      43.994  28.851  34.935  1.00  0.00     0.029 A 
ATOM     55  C   UNL A   1      43.715  28.358  33.670  1.00  0.00     0.049 A 
ATOM     56  H   UNL A   1      42.132  28.871  32.369  1.00  0.00     0.167 HD
ATOM     57  C   UNL A   1      44.086  26.927  31.675  1.00  0.00     0.074 A 
ATOM     58  C   UNL A   1      44.808  25.912  30.934  1.00  0.00     0.031 C 
ATOM     59  C   UNL A   1      44.436  27.359  32.915  1.00  0.00     0.034 A 
BRANCH  46  60
ATOM     60  C   UNL A   1      40.646  31.702  35.230  1.00  0.00     0.023 A 
ATOM     61  C   UNL A   1      39.572  31.478  36.112  1.00  0.00     0.031 A 
ATOM     62  C   UNL A   1      41.408  32.869  35.409  1.00  0.00     0.131 A 
ATOM     63  C   UNL A   1      39.245  32.442  37.078  1.00  0.00     0.055 A 
ATOM     64  C   UNL A   1      41.131  33.781  36.429  1.00  0.00     0.041 A 
ATOM     65  F   UNL A   1      42.430  33.152  34.586  1.00  0.00    -0.206 F 
ATOM     66  C   UNL A   1      40.034  33.579  37.262  1.00  0.00     0.022 A 
BRANCH  63  67
ATOM     67  S   UNL A   1      37.684  32.263  37.984  1.00  0.00     0.124 S 
ATOM     68  O   UNL A   1      38.078  32.661  39.333  1.00  0.00    -0.237 OA
ATOM     69  O   UNL A   1      36.801  33.185  37.279  1.00  0.00    -0.237 OA
ATOM     70  O   UNL A   1      37.359  30.846  37.831  1.00  0.00    -0.744 OA
ENDBRANCH  63  67
ENDBRANCH  46  60
BRANCH  47  71
ATOM     71  C   UNL A   1      42.542  25.746  27.378  1.00  0.00     0.023 A 
ATOM     72  C   UNL A   1      42.084  24.421  27.311  1.00  0.00     0.031 A 
ATOM     73  C   UNL A   1      43.345  26.218  26.325  1.00  0.00     0.131 A 
ATOM     74  C   UNL A   1      42.475  23.597  26.245  1.00  0.00     0.055 A 
ATOM     75  C   UNL A   1      43.682  25.413  25.235  1.00  0.00     0.041 A 
ATOM     76  F   UNL A   1      43.808  27.478  26.336  1.00  0.00    -0.206 F 
ATOM     77  C   UNL A   1      43.259  24.089  25.198  1.00  0.00     0.022 A 
BRANCH  74  78
ATOM     78  S   UNL A   1      42.028  21.840  26.294  1.00  0.00     0.124 S 
ATOM     79  O   UNL A   1      42.398  21.477  27.657  1.00  0.00    -0.237 OA
ATOM     80  O   UNL A   1      40.599  21.883  26.006  1.00  0.00    -0.237 OA
ATOM     81  O   UNL A   1      42.856  21.249  25.244  1.00  0.00    -0.744 OA
ENDBRANCH  74  78
ENDBRANCH  47  71
BRANCH  59  82
ATOM     82  C   UNL A   1      45.630  26.694  33.559  1.00  0.00     0.023 A 
ATOM     83  C   UNL A   1      45.504  25.517  34.319  1.00  0.00     0.031 A 
ATOM     84  C   UNL A   1      46.910  27.266  33.440  1.00  0.00     0.131 A 
ATOM     85  C   UNL A   1      46.618  24.998  34.996  1.00  0.00     0.055 A 
ATOM     86  C   UNL A   1      48.029  26.700  34.052  1.00  0.00     0.041 A 
ATOM     87  F   UNL A   1      47.093  28.391  32.731  1.00  0.00    -0.206 F 
ATOM     88  C   UNL A   1      47.884  25.571  34.851  1.00  0.00     0.022 A 
BRANCH  85  89
ATOM     89  S   UNL A   1      46.363  23.642  36.174  1.00  0.00     0.124 S 
ATOM     90  O   UNL A   1      46.768  24.257  37.434  1.00  0.00    -0.237 OA
ATOM     91  O   UNL A   1      44.938  23.366  36.029  1.00  0.00    -0.237 OA
ATOM     92  O   UNL A   1      47.253  22.591  35.683  1.00  0.00    -0.744 OA
ENDBRANCH  85  89
ENDBRANCH  59  82
ENDBRANCH  33  34
ENDBRANCH  25  28
ENDBRANCH  23  24
ENDBRANCH  22  23
ENDBRANCH   1  22
TORSDOF 18
ENDMDL
MODEL 3
REMARK VINA RESULT:     -11.4      0.688      7.611
REMARK SMILES C[C@H](Nc1ccc(N(C)C)cc1)[C@@H](C)C(=O)NCCCCNC(=O)c1ccc(-c2c3nc(c(-c4cc(S(=O)(=O)[O-])ccc4F)c4ccc([nH]4)c(-c4cc(S(=O)(=O)[O-])ccc4F)c4nc(c(-c5cc(S(=O)(=O)[O-])ccc5F)c5ccc2[nH]5)C=C4)C=C3)cc1
REMARK SMILES IDX 19 1 18 2 17 3 15 4 16 5 13 7 14 8 2 9 1 10 3 11 4 13 5 14
REMARK SMILES IDX 12 15 6 16 11 17 7 18 8 19 9 20 10 21 20 22 21 23 22 24
REMARK SMILES IDX 23 25 24 27 25 28 26 29 87 30 27 31 86 32 28 33 29 34 30 35
REMARK SMILES IDX 80 36 31 37 85 38 79 39 81 40 32 41 84 42 78 43 77 44 33 46
REMARK SMILES IDX 65 47 45 48 64 49 46 50 49 51 63 52 82 53 47 54 48 55 62 57
REMARK SMILES IDX 83 58 50 59 34 60 35 61 43 62 36 63 42 64 44 65 41 66 37 67
REMARK SMILES IDX 38 68 39 69 40 70 66 71 67 72 75 73 68 74 74 75 76 76 73 77
REMARK SMILES IDX 69 78 70 79 71 80 72 81 51 82 52 83 60 84 53 85 59 86 61 87
REMARK SMILES IDX 58 88 54 89 55 90 56 91 57 92
REMARK H PARENT 17 6 3 12 22 26 81 45 49 56
REMARK Flexibility Score: inf
ROOT
ATOM      1  C   UNL A   1      34.510  20.545  25.019  1.00  0.00     0.023 C 
ENDROOT
BRANCH   1   2
ATOM      2  C   UNL A   1      33.033  20.880  24.806  1.00  0.00     0.116 C 
BRANCH   2   3
ATOM      3  N   UNL A   1      32.474  21.605  25.931  1.00  0.00    -0.356 N 
ATOM      4  C   UNL A   1      32.292  22.936  26.143  1.00  0.00     0.224 C 
ATOM      5  O   UNL A   1      31.792  23.277  27.219  1.00  0.00    -0.275 OA
ATOM      6  H   UNL A   1      32.171  21.032  26.673  1.00  0.00     0.163 HD
BRANCH   4   7
ATOM      7  C   UNL A   1      32.662  23.991  25.101  1.00  0.00     0.097 C 
ATOM      8  C   UNL A   1      33.625  25.005  25.727  1.00  0.00     0.020 C 
BRANCH   7   9
ATOM      9  C   UNL A   1      31.425  24.579  24.381  1.00  0.00     0.088 C 
ATOM     10  C   UNL A   1      30.726  23.497  23.550  1.00  0.00     0.031 C 
BRANCH   9  11
ATOM     11  N   UNL A   1      31.783  25.805  23.646  1.00  0.00    -0.382 N 
ATOM     12  H   UNL A   1      32.702  25.846  23.296  1.00  0.00     0.160 HD
BRANCH  11  13
ATOM     13  C   UNL A   1      30.990  26.900  23.390  1.00  0.00     0.034 A 
ATOM     14  C   UNL A   1      31.526  28.003  22.731  1.00  0.00     0.028 A 
ATOM     15  C   UNL A   1      29.649  26.972  23.741  1.00  0.00     0.028 A 
ATOM     16  C   UNL A   1      30.736  29.120  22.403  1.00  0.00     0.028 A 
ATOM     17  C   UNL A   1      28.861  28.081  23.408  1.00  0.00     0.028 A 
ATOM     18  C   UNL A   1      29.372  29.191  22.718  1.00  0.00     0.036 A 
BRANCH  18  19
ATOM     19  N   UNL A   1      28.570  30.278  22.399  1.00  0.00    -0.378 N 
ATOM     20  C   UNL A   1      28.586  30.943  21.104  1.00  0.00     0.143 C 
ATOM     21  C   UNL A   1      27.508  30.693  23.312  1.00  0.00     0.143 C 
ENDBRANCH  18  19
ENDBRANCH  11  13
ENDBRANCH   9  11
ENDBRANCH   7   9
ENDBRANCH   4   7
ENDBRANCH   2   3
ENDBRANCH   1   2
BRANCH   1  22
ATOM     22  C   UNL A   1      35.476  21.673  24.664  1.00  0.00     0.023 C 
BRANCH  22  23
ATOM     23  C   UNL A   1      36.548  21.952  25.709  1.00  0.00     0.116 C 
BRANCH  23  24
ATOM     24  N   UNL A   1      37.583  20.930  25.743  1.00  0.00    -0.352 N 
ATOM     25  C   UNL A   1      38.919  21.065  26.025  1.00  0.00     0.251 C 
ATOM     26  H   UNL A   1      37.284  20.016  25.534  1.00  0.00     0.163 HD
ATOM     27  O   UNL A   1      39.673  20.109  25.858  1.00  0.00    -0.269 OA
BRANCH  25  28
ATOM     28  C   UNL A   1      39.444  22.365  26.491  1.00  0.00     0.039 A 
ATOM     29  C   UNL A   1      40.496  22.375  27.408  1.00  0.00     0.014 A 
ATOM     30  C   UNL A   1      38.915  23.569  26.015  1.00  0.00     0.014 A 
ATOM     31  C   UNL A   1      41.053  23.592  27.803  1.00  0.00     0.010 A 
ATOM     32  C   UNL A   1      39.530  24.774  26.341  1.00  0.00     0.010 A 
ATOM     33  C   UNL A   1      40.600  24.800  27.246  1.00  0.00    -0.014 A 
BRANCH  33  34
ATOM     34  C   UNL A   1      41.236  26.091  27.615  1.00  0.00     0.031 A 
ATOM     35  C   UNL A   1      42.634  26.408  27.157  1.00  0.00     0.074 A 
ATOM     36  C   UNL A   1      40.559  26.966  28.385  1.00  0.00     0.049 A 
ATOM     37  N   UNL A   1      43.353  27.479  27.374  1.00  0.00    -0.248 NA
ATOM     38  C   UNL A   1      43.326  25.371  26.377  1.00  0.00     0.031 C 
ATOM     39  C   UNL A   1      39.217  26.748  28.931  1.00  0.00     0.029 A 
ATOM     40  N   UNL A   1      40.899  28.217  28.837  1.00  0.00    -0.354 N 
ATOM     41  C   UNL A   1      44.579  27.246  26.761  1.00  0.00     0.074 A 
ATOM     42  C   UNL A   1      44.531  25.901  26.230  1.00  0.00     0.031 C 
ATOM     43  C   UNL A   1      38.832  27.844  29.604  1.00  0.00     0.029 A 
ATOM     44  C   UNL A   1      39.913  28.824  29.580  1.00  0.00     0.049 A 
ATOM     45  H   UNL A   1      41.768  28.639  28.647  1.00  0.00     0.167 HD
ATOM     46  C   UNL A   1      45.635  28.087  26.626  1.00  0.00     0.034 A 
ATOM     47  C   UNL A   1      39.884  30.032  30.178  1.00  0.00     0.034 A 
ATOM     48  C   UNL A   1      45.664  29.426  27.162  1.00  0.00     0.049 A 
ATOM     49  C   UNL A   1      41.081  30.937  30.037  1.00  0.00     0.074 A 
ATOM     50  C   UNL A   1      46.662  30.379  27.048  1.00  0.00     0.029 A 
ATOM     51  N   UNL A   1      44.653  30.003  27.922  1.00  0.00    -0.354 N 
ATOM     52  N   UNL A   1      42.211  30.724  29.400  1.00  0.00    -0.248 NA
ATOM     53  C   UNL A   1      40.990  32.253  30.679  1.00  0.00     0.031 C 
ATOM     54  C   UNL A   1      46.290  31.497  27.801  1.00  0.00     0.029 A 
ATOM     55  C   UNL A   1      45.019  31.283  28.311  1.00  0.00     0.049 A 
ATOM     56  H   UNL A   1      43.802  29.565  28.152  1.00  0.00     0.167 HD
ATOM     57  C   UNL A   1      42.951  31.895  29.540  1.00  0.00     0.074 A 
ATOM     58  C   UNL A   1      42.127  32.815  30.299  1.00  0.00     0.031 C 
ATOM     59  C   UNL A   1      44.197  32.186  29.083  1.00  0.00     0.034 A 
BRANCH  46  60
ATOM     60  C   UNL A   1      46.851  27.565  25.893  1.00  0.00     0.023 A 
ATOM     61  C   UNL A   1      47.135  27.946  24.568  1.00  0.00     0.031 A 
ATOM     62  C   UNL A   1      47.724  26.655  26.513  1.00  0.00     0.131 A 
ATOM     63  C   UNL A   1      48.214  27.362  23.886  1.00  0.00     0.055 A 
ATOM     64  C   UNL A   1      48.847  26.145  25.858  1.00  0.00     0.041 A 
ATOM     65  F   UNL A   1      47.495  26.233  27.767  1.00  0.00    -0.206 F 
ATOM     66  C   UNL A   1      49.089  26.486  24.531  1.00  0.00     0.022 A 
BRANCH  63  67
ATOM     67  S   UNL A   1      48.363  27.646  22.100  1.00  0.00     0.124 S 
ATOM     68  O   UNL A   1      47.076  28.263  21.791  1.00  0.00    -0.237 OA
ATOM     69  O   UNL A   1      49.528  28.519  22.015  1.00  0.00    -0.237 OA
ATOM     70  O   UNL A   1      48.548  26.302  21.555  1.00  0.00    -0.744 OA
ENDBRANCH  63  67
ENDBRANCH  46  60
BRANCH  47  71
ATOM     71  C   UNL A   1      38.689  30.461  30.963  1.00  0.00     0.023 A 
ATOM     72  C   UNL A   1      37.622  31.136  30.350  1.00  0.00     0.031 A 
ATOM     73  C   UNL A   1      38.619  30.244  32.351  1.00  0.00     0.131 A 
ATOM     74  C   UNL A   1      36.558  31.618  31.128  1.00  0.00     0.055 A 
ATOM     75  C   UNL A   1      37.530  30.672  33.112  1.00  0.00     0.041 A 
ATOM     76  F   UNL A   1      39.610  29.601  32.989  1.00  0.00    -0.206 F 
ATOM     77  C   UNL A   1      36.498  31.378  32.502  1.00  0.00     0.022 A 
BRANCH  74  78
ATOM     78  S   UNL A   1      35.300  32.655  30.333  1.00  0.00     0.124 S 
ATOM     79  O   UNL A   1      34.375  32.897  31.434  1.00  0.00    -0.237 OA
ATOM     80  O   UNL A   1      36.087  33.801  29.892  1.00  0.00    -0.237 OA
ATOM     81  O   UNL A   1      34.787  31.804  29.261  1.00  0.00    -0.744 OA
ENDBRANCH  74  78
ENDBRANCH  47  71
BRANCH  59  82
ATOM     82  C   UNL A   1      44.718  33.578  29.357  1.00  0.00     0.023 A 
ATOM     83  C   UNL A   1      44.449  34.655  28.493  1.00  0.00     0.031 A 
ATOM     84  C   UNL A   1      45.525  33.823  30.483  1.00  0.00     0.131 A 
ATOM     85  C   UNL A   1      45.049  35.902  28.722  1.00  0.00     0.055 A 
ATOM     86  C   UNL A   1      46.054  35.087  30.748  1.00  0.00     0.041 A 
ATOM     87  F   UNL A   1      45.819  32.835  31.342  1.00  0.00    -0.206 F 
ATOM     88  C   UNL A   1      45.833  36.131  29.856  1.00  0.00     0.022 A 
BRANCH  85  89
ATOM     89  S   UNL A   1      44.896  37.186  27.449  1.00  0.00     0.124 S 
ATOM     90  O   UNL A   1      45.979  36.835  26.535  1.00  0.00    -0.237 OA
ATOM     91  O   UNL A   1      43.544  36.969  26.947  1.00  0.00    -0.237 OA
ATOM     92  O   UNL A   1      45.091  38.430  28.192  1.00  0.00    -0.744 OA
ENDBRANCH  85  89
ENDBRANCH  59  82
ENDBRANCH  33  34
ENDBRANCH  25  28
ENDBRANCH  23  24
ENDBRANCH  22  23
ENDBRANCH   1  22
TORSDOF 18
ENDMDL
