MODEL 1
REMARK VINA RESULT:     -11.2      0.000      0.000
REMARK SMILES COc1cc(/C=C2/SC(=O)N(c3ccc(O)cc3C)C2=O)ccc1OCC(=O)NCCCCNC(=O)c1ccc(-c2c3nc(c(-c4cc(S(=O)(=O)[O-])ccc4F)c4ccc([nH]4)c(-c4cc(S(=O)(=O)[O-])ccc4F)c4nc(c(-c5cc(S(=O)(=O)[O-])ccc5F)c5ccc2[nH]5)C=C4)C=C3)cc1
REMARK SMILES IDX 30 1 29 2 27 3 28 4 26 6 25 7 24 8 3 9 4 10 5 11 23 12 22 13
REMARK SMILES IDX 2 14 1 15 6 16 7 17 8 18 20 19 9 20 11 21 21 22 10 23 12 24
REMARK SMILES IDX 13 25 18 26 14 27 17 28 19 29 15 30 16 31 31 33 32 34 33 35
REMARK SMILES IDX 34 36 35 37 36 39 37 40 38 41 99 42 39 43 98 44 40 45 41 46
REMARK SMILES IDX 42 47 92 48 43 49 97 50 91 51 93 52 44 53 96 54 90 55 89 56
REMARK SMILES IDX 45 58 77 59 57 60 76 61 58 62 61 63 75 64 94 65 59 66 60 67
REMARK SMILES IDX 74 69 95 70 62 71 46 72 47 73 55 74 48 75 54 76 56 77 53 78
REMARK SMILES IDX 49 79 50 80 51 81 52 82 78 83 79 84 87 85 80 86 86 87 88 88
REMARK SMILES IDX 85 89 81 90 82 91 83 92 84 93 63 94 64 95 72 96 65 97 71 98
REMARK SMILES IDX 73 99 70 100 66 101 67 102 68 103 69 104
REMARK H PARENT 29 5 16 32 34 38 93 57 61 68
REMARK Flexibility Score: inf
ROOT
ATOM      1  C   UNL A   1      41.163  22.237  26.513  1.00  0.00     0.116 C 
ENDROOT
BRANCH   1   2
ATOM      2  N   UNL A   1      40.821  20.837  26.357  1.00  0.00    -0.353 N 
ATOM      3  C   UNL A   1      39.665  20.293  25.873  1.00  0.00     0.257 C 
ATOM      4  O   UNL A   1      39.651  19.084  25.631  1.00  0.00    -0.271 OA
ATOM      5  H   UNL A   1      41.513  20.194  26.637  1.00  0.00     0.163 HD
BRANCH   3   6
ATOM      6  C   UNL A   1      38.466  21.196  25.573  1.00  0.00     0.329 C 
BRANCH   6   7
ATOM      7  O   UNL A   1      37.317  20.572  25.034  1.00  0.00    -0.480 OA
BRANCH   7   8
ATOM      8  C   UNL A   1      36.272  21.324  24.575  1.00  0.00     0.161 A 
ATOM      9  C   UNL A   1      34.900  21.114  24.741  1.00  0.00     0.161 A 
ATOM     10  C   UNL A   1      33.979  21.936  24.072  1.00  0.00     0.058 A 
ATOM     11  C   UNL A   1      34.421  22.987  23.263  1.00  0.00    -0.020 A 
ATOM     12  C   UNL A   1      36.699  22.411  23.799  1.00  0.00     0.051 A 
ATOM     13  C   UNL A   1      35.788  23.255  23.167  1.00  0.00     0.012 A 
BRANCH   9  14
ATOM     14  O   UNL A   1      34.433  20.020  25.420  1.00  0.00    -0.493 OA
ATOM     15  C   UNL A   1      33.007  19.940  25.406  1.00  0.00     0.278 C 
ENDBRANCH   9  14
BRANCH  11  16
ATOM     16  C   UNL A   1      33.479  23.676  22.377  1.00  0.00     0.029 C 
ATOM     17  C   UNL A   1      33.019  24.912  22.635  1.00  0.00     0.083 C 
ATOM     18  S   UNL A   1      31.887  25.733  21.630  1.00  0.00    -0.022 SA
ATOM     19  C   UNL A   1      33.357  25.765  23.818  1.00  0.00     0.272 C 
ATOM     20  C   UNL A   1      31.798  27.121  22.709  1.00  0.00     0.298 C 
ATOM     21  N   UNL A   1      32.582  26.911  23.819  1.00  0.00    -0.236 N 
ATOM     22  O   UNL A   1      34.177  25.453  24.668  1.00  0.00    -0.268 OA
ATOM     23  O   UNL A   1      31.146  28.113  22.410  1.00  0.00    -0.260 OA
BRANCH  21  24
ATOM     24  C   UNL A   1      32.657  27.841  24.896  1.00  0.00     0.056 A 
ATOM     25  C   UNL A   1      33.658  28.831  24.867  1.00  0.00     0.031 A 
ATOM     26  C   UNL A   1      31.811  27.763  26.025  1.00  0.00    -0.023 A 
ATOM     27  C   UNL A   1      33.805  29.748  25.908  1.00  0.00     0.048 A 
ATOM     28  C   UNL A   1      31.963  28.708  27.062  1.00  0.00     0.051 A 
ATOM     29  C   UNL A   1      30.786  26.681  26.241  1.00  0.00     0.047 C 
ATOM     30  C   UNL A   1      32.955  29.680  26.997  1.00  0.00     0.115 A 
BRANCH  30  31
ATOM     31  O   UNL A   1      33.138  30.580  28.003  1.00  0.00    -0.508 OA
ATOM     32  H   UNL A   1      32.912  31.480  27.875  1.00  0.00     0.293 HD
ENDBRANCH  30  31
ENDBRANCH  21  24
ENDBRANCH  11  16
ENDBRANCH   7   8
ENDBRANCH   6   7
ENDBRANCH   3   6
ENDBRANCH   1   2
BRANCH   1  33
ATOM     33  C   UNL A   1      40.752  22.808  27.868  1.00  0.00     0.023 C 
BRANCH  33  34
ATOM     34  C   UNL A   1      40.480  24.313  27.900  1.00  0.00     0.023 C 
BRANCH  34  35
ATOM     35  C   UNL A   1      40.271  24.978  26.546  1.00  0.00     0.116 C 
BRANCH  35  36
ATOM     36  N   UNL A   1      41.439  24.907  25.687  1.00  0.00    -0.352 N 
ATOM     37  C   UNL A   1      42.469  25.806  25.539  1.00  0.00     0.251 C 
ATOM     38  H   UNL A   1      41.504  24.097  25.131  1.00  0.00     0.163 HD
ATOM     39  O   UNL A   1      43.322  25.614  24.678  1.00  0.00    -0.269 OA
BRANCH  37  40
ATOM     40  C   UNL A   1      42.514  27.019  26.384  1.00  0.00     0.039 A 
ATOM     41  C   UNL A   1      43.352  27.022  27.502  1.00  0.00     0.014 A 
ATOM     42  C   UNL A   1      41.762  28.152  26.066  1.00  0.00     0.014 A 
ATOM     43  C   UNL A   1      43.489  28.187  28.260  1.00  0.00     0.010 A 
ATOM     44  C   UNL A   1      41.959  29.334  26.774  1.00  0.00     0.010 A 
ATOM     45  C   UNL A   1      42.825  29.365  27.878  1.00  0.00    -0.014 A 
BRANCH  45  46
ATOM     46  C   UNL A   1      43.029  30.636  28.622  1.00  0.00     0.031 A 
ATOM     47  C   UNL A   1      44.146  31.566  28.236  1.00  0.00     0.074 A 
ATOM     48  C   UNL A   1      42.255  30.915  29.689  1.00  0.00     0.049 A 
ATOM     49  N   UNL A   1      44.529  32.682  28.802  1.00  0.00    -0.248 NA
ATOM     50  C   UNL A   1      44.960  31.167  27.080  1.00  0.00     0.031 C 
ATOM     51  C   UNL A   1      41.177  30.063  30.195  1.00  0.00     0.029 A 
ATOM     52  N   UNL A   1      42.264  31.984  30.550  1.00  0.00    -0.354 N 
ATOM     53  C   UNL A   1      45.641  33.109  28.085  1.00  0.00     0.074 A 
ATOM     54  C   UNL A   1      45.906  32.092  27.087  1.00  0.00     0.031 C 
ATOM     55  C   UNL A   1      40.618  30.650  31.266  1.00  0.00     0.029 A 
ATOM     56  C   UNL A   1      41.324  31.895  31.550  1.00  0.00     0.049 A 
ATOM     57  H   UNL A   1      42.885  32.742  30.460  1.00  0.00     0.167 HD
ATOM     58  C   UNL A   1      46.360  34.251  28.231  1.00  0.00     0.034 A 
ATOM     59  C   UNL A   1      41.067  32.714  32.589  1.00  0.00     0.034 A 
ATOM     60  C   UNL A   1      46.073  35.253  29.229  1.00  0.00     0.049 A 
ATOM     61  C   UNL A   1      41.879  33.973  32.741  1.00  0.00     0.074 A 
ATOM     62  C   UNL A   1      46.683  36.480  29.420  1.00  0.00     0.029 A 
ATOM     63  N   UNL A   1      45.103  35.136  30.220  1.00  0.00    -0.354 N 
ATOM     64  N   UNL A   1      42.883  34.403  32.010  1.00  0.00    -0.248 NA
ATOM     65  C   UNL A   1      41.516  34.865  33.850  1.00  0.00     0.031 C 
ATOM     66  C   UNL A   1      46.138  37.069  30.567  1.00  0.00     0.029 A 
ATOM     67  C   UNL A   1      45.128  36.250  31.047  1.00  0.00     0.049 A 
ATOM     68  H   UNL A   1      44.489  34.373  30.319  1.00  0.00     0.167 HD
ATOM     69  C   UNL A   1      43.255  35.627  32.557  1.00  0.00     0.074 A 
ATOM     70  C   UNL A   1      42.358  35.872  33.670  1.00  0.00     0.031 C 
ATOM     71  C   UNL A   1      44.244  36.474  32.169  1.00  0.00     0.034 A 
BRANCH  58  72
ATOM     72  C   UNL A   1      47.543  34.445  27.308  1.00  0.00     0.023 A 
ATOM     73  C   UNL A   1      48.846  34.069  27.684  1.00  0.00     0.031 A 
ATOM     74  C   UNL A   1      47.379  35.066  26.058  1.00  0.00     0.131 A 
ATOM     75  C   UNL A   1      49.938  34.412  26.874  1.00  0.00     0.055 A 
ATOM     76  C   UNL A   1      48.461  35.317  25.210  1.00  0.00     0.041 A 
ATOM     77  F   UNL A   1      46.166  35.465  25.647  1.00  0.00    -0.206 F 
ATOM     78  C   UNL A   1      49.753  35.010  25.626  1.00  0.00     0.022 A 
BRANCH  75  79
ATOM     79  S   UNL A   1      51.610  34.237  27.559  1.00  0.00     0.124 S 
ATOM     80  O   UNL A   1      51.375  34.487  28.979  1.00  0.00    -0.237 OA
ATOM     81  O   UNL A   1      51.955  32.866  27.200  1.00  0.00    -0.237 OA
ATOM     82  O   UNL A   1      52.373  35.276  26.871  1.00  0.00    -0.744 OA
ENDBRANCH  75  79
ENDBRANCH  58  72
BRANCH  59  83
ATOM     83  C   UNL A   1      40.004  32.358  33.571  1.00  0.00     0.023 A 
ATOM     84  C   UNL A   1      38.753  32.994  33.552  1.00  0.00     0.031 A 
ATOM     85  C   UNL A   1      40.229  31.368  34.544  1.00  0.00     0.131 A 
ATOM     86  C   UNL A   1      37.782  32.652  34.507  1.00  0.00     0.055 A 
ATOM     87  C   UNL A   1      39.245  30.999  35.462  1.00  0.00     0.041 A 
ATOM     88  F   UNL A   1      41.406  30.724  34.597  1.00  0.00    -0.206 F 
ATOM     89  C   UNL A   1      38.015  31.650  35.452  1.00  0.00     0.022 A 
BRANCH  86  90
ATOM     90  S   UNL A   1      36.218  33.569  34.526  1.00  0.00     0.124 S 
ATOM     91  O   UNL A   1      35.900  33.583  35.950  1.00  0.00    -0.237 OA
ATOM     92  O   UNL A   1      36.607  34.847  33.942  1.00  0.00    -0.237 OA
ATOM     93  O   UNL A   1      35.334  32.752  33.698  1.00  0.00    -0.744 OA
ENDBRANCH  86  90
ENDBRANCH  59  83
BRANCH  71  94
ATOM     94  C   UNL A   1      44.381  37.767  32.939  1.00  0.00     0.023 A 
ATOM     95  C   UNL A   1      43.631  38.910  32.612  1.00  0.00     0.031 A 
ATOM     96  C   UNL A   1      45.284  37.855  34.014  1.00  0.00     0.131 A 
ATOM     97  C   UNL A   1      43.836  40.106  33.316  1.00  0.00     0.055 A 
ATOM     98  C   UNL A   1      45.437  39.030  34.752  1.00  0.00     0.041 A 
ATOM     99  F   UNL A   1      46.030  36.796  34.369  1.00  0.00    -0.206 F 
ATOM    100  C   UNL A   1      44.720  40.168  34.396  1.00  0.00     0.022 A 
BRANCH  97 101
ATOM    101  S   UNL A   1      43.000  41.610  32.743  1.00  0.00     0.124 S 
ATOM    102  O   UNL A   1      44.031  42.624  32.941  1.00  0.00    -0.237 OA
ATOM    103  O   UNL A   1      42.686  41.284  31.356  1.00  0.00    -0.237 OA
ATOM    104  O   UNL A   1      41.844  41.721  33.630  1.00  0.00    -0.744 OA
ENDBRANCH  97 101
ENDBRANCH  71  94
ENDBRANCH  45  46
ENDBRANCH  37  40
ENDBRANCH  35  36
ENDBRANCH  34  35
ENDBRANCH  33  34
ENDBRANCH   1  33
TORSDOF 20
ENDMDL
MODEL 2
REMARK VINA RESULT:     -10.9      7.373     15.428
REMARK SMILES COc1cc(/C=C2/SC(=O)N(c3ccc(O)cc3C)C2=O)ccc1OCC(=O)NCCCCNC(=O)c1ccc(-c2c3nc(c(-c4cc(S(=O)(=O)[O-])ccc4F)c4ccc([nH]4)c(-c4cc(S(=O)(=O)[O-])ccc4F)c4nc(c(-c5cc(S(=O)(=O)[O-])ccc5F)c5ccc2[nH]5)C=C4)C=C3)cc1
REMARK SMILES IDX 30 1 29 2 27 3 28 4 26 6 25 7 24 8 3 9 4 10 5 11 23 12 22 13
REMARK SMILES IDX 2 14 1 15 6 16 7 17 8 18 20 19 9 20 11 21 21 22 10 23 12 24
REMARK SMILES IDX 13 25 18 26 14 27 17 28 19 29 15 30 16 31 31 33 32 34 33 35
REMARK SMILES IDX 34 36 35 37 36 39 37 40 38 41 99 42 39 43 98 44 40 45 41 46
REMARK SMILES IDX 42 47 92 48 43 49 97 50 91 51 93 52 44 53 96 54 90 55 89 56
REMARK SMILES IDX 45 58 77 59 57 60 76 61 58 62 61 63 75 64 94 65 59 66 60 67
REMARK SMILES IDX 74 69 95 70 62 71 46 72 47 73 55 74 48 75 54 76 56 77 53 78
REMARK SMILES IDX 49 79 50 80 51 81 52 82 78 83 79 84 87 85 80 86 86 87 88 88
REMARK SMILES IDX 85 89 81 90 82 91 83 92 84 93 63 94 64 95 72 96 65 97 71 98
REMARK SMILES IDX 73 99 70 100 66 101 67 102 68 103 69 104
REMARK H PARENT 29 5 16 32 34 38 93 57 61 68
REMARK Flexibility Score: inf
ROOT
ATOM      1  C   UNL A   1      48.904  40.125  34.576  1.00  0.00     0.116 C 
ENDROOT
BRANCH   1   2
ATOM      2  N   UNL A   1      47.858  40.339  35.557  1.00  0.00    -0.353 N 
ATOM      3  C   UNL A   1      46.509  40.192  35.407  1.00  0.00     0.257 C 
ATOM      4  O   UNL A   1      45.806  40.225  36.420  1.00  0.00    -0.271 OA
ATOM      5  H   UNL A   1      48.161  40.628  36.449  1.00  0.00     0.163 HD
BRANCH   3   6
ATOM      6  C   UNL A   1      45.922  39.914  34.020  1.00  0.00     0.329 C 
BRANCH   6   7
ATOM      7  O   UNL A   1      44.548  40.197  33.839  1.00  0.00    -0.480 OA
BRANCH   7   8
ATOM      8  C   UNL A   1      44.041  40.394  32.586  1.00  0.00     0.161 A 
ATOM      9  C   UNL A   1      43.371  41.511  32.076  1.00  0.00     0.161 A 
ATOM     10  C   UNL A   1      42.807  41.462  30.792  1.00  0.00     0.058 A 
ATOM     11  C   UNL A   1      42.937  40.316  30.000  1.00  0.00    -0.020 A 
ATOM     12  C   UNL A   1      44.205  39.271  31.764  1.00  0.00     0.051 A 
ATOM     13  C   UNL A   1      43.682  39.234  30.472  1.00  0.00     0.012 A 
BRANCH   9  14
ATOM     14  O   UNL A   1      43.115  42.599  32.867  1.00  0.00    -0.493 OA
ATOM     15  C   UNL A   1      43.898  43.735  32.496  1.00  0.00     0.278 C 
ENDBRANCH   9  14
BRANCH  11  16
ATOM     16  C   UNL A   1      42.142  40.177  28.778  1.00  0.00     0.029 C 
ATOM     17  C   UNL A   1      42.552  40.660  27.593  1.00  0.00     0.083 C 
ATOM     18  S   UNL A   1      41.627  40.539  26.146  1.00  0.00    -0.022 SA
ATOM     19  C   UNL A   1      43.825  41.400  27.319  1.00  0.00     0.272 C 
ATOM     20  C   UNL A   1      42.803  41.454  25.209  1.00  0.00     0.298 C 
ATOM     21  N   UNL A   1      43.835  41.868  26.017  1.00  0.00    -0.236 N 
ATOM     22  O   UNL A   1      44.696  41.585  28.155  1.00  0.00    -0.268 OA
ATOM     23  O   UNL A   1      42.667  41.608  24.001  1.00  0.00    -0.260 OA
BRANCH  21  24
ATOM     24  C   UNL A   1      44.905  42.683  25.544  1.00  0.00     0.056 A 
ATOM     25  C   UNL A   1      44.716  44.077  25.478  1.00  0.00     0.031 A 
ATOM     26  C   UNL A   1      46.122  42.140  25.076  1.00  0.00    -0.023 A 
ATOM     27  C   UNL A   1      45.712  44.924  24.993  1.00  0.00     0.048 A 
ATOM     28  C   UNL A   1      47.125  43.011  24.603  1.00  0.00     0.051 A 
ATOM     29  C   UNL A   1      46.406  40.664  24.975  1.00  0.00     0.047 C 
ATOM     30  C   UNL A   1      46.910  44.385  24.560  1.00  0.00     0.115 A 
BRANCH  30  31
ATOM     31  O   UNL A   1      47.854  45.239  24.077  1.00  0.00    -0.508 OA
ATOM     32  H   UNL A   1      47.792  46.156  24.255  1.00  0.00     0.293 HD
ENDBRANCH  30  31
ENDBRANCH  21  24
ENDBRANCH  11  16
ENDBRANCH   7   8
ENDBRANCH   6   7
ENDBRANCH   3   6
ENDBRANCH   1   2
BRANCH   1  33
ATOM     33  C   UNL A   1      49.710  38.853  34.827  1.00  0.00     0.023 C 
BRANCH  33  34
ATOM     34  C   UNL A   1      49.327  37.644  33.973  1.00  0.00     0.023 C 
BRANCH  34  35
ATOM     35  C   UNL A   1      50.021  36.336  34.328  1.00  0.00     0.116 C 
BRANCH  35  36
ATOM     36  N   UNL A   1      50.153  36.128  35.759  1.00  0.00    -0.352 N 
ATOM     37  C   UNL A   1      49.186  35.833  36.690  1.00  0.00     0.251 C 
ATOM     38  H   UNL A   1      51.067  36.210  36.114  1.00  0.00     0.163 HD
ATOM     39  O   UNL A   1      49.481  35.797  37.881  1.00  0.00    -0.269 OA
BRANCH  37  40
ATOM     40  C   UNL A   1      47.789  35.607  36.256  1.00  0.00     0.039 A 
ATOM     41  C   UNL A   1      46.901  36.685  36.283  1.00  0.00     0.014 A 
ATOM     42  C   UNL A   1      47.365  34.357  35.800  1.00  0.00     0.014 A 
ATOM     43  C   UNL A   1      45.605  36.525  35.786  1.00  0.00     0.010 A 
ATOM     44  C   UNL A   1      46.101  34.220  35.233  1.00  0.00     0.010 A 
ATOM     45  C   UNL A   1      45.208  35.303  35.220  1.00  0.00    -0.014 A 
BRANCH  45  46
ATOM     46  C   UNL A   1      43.863  35.142  34.606  1.00  0.00     0.031 A 
ATOM     47  C   UNL A   1      42.666  34.862  35.473  1.00  0.00     0.074 A 
ATOM     48  C   UNL A   1      43.734  35.175  33.265  1.00  0.00     0.049 A 
ATOM     49  N   UNL A   1      41.428  34.622  35.124  1.00  0.00    -0.248 NA
ATOM     50  C   UNL A   1      42.905  34.811  36.921  1.00  0.00     0.031 C 
ATOM     51  C   UNL A   1      44.831  35.382  32.318  1.00  0.00     0.029 A 
ATOM     52  N   UNL A   1      42.630  35.021  32.465  1.00  0.00    -0.354 N 
ATOM     53  C   UNL A   1      40.743  34.371  36.307  1.00  0.00     0.074 A 
ATOM     54  C   UNL A   1      41.722  34.424  37.373  1.00  0.00     0.031 C 
ATOM     55  C   UNL A   1      44.342  35.359  31.067  1.00  0.00     0.029 A 
ATOM     56  C   UNL A   1      42.909  35.091  31.120  1.00  0.00     0.049 A 
ATOM     57  H   UNL A   1      41.724  34.872  32.821  1.00  0.00     0.167 HD
ATOM     58  C   UNL A   1      39.417  34.141  36.490  1.00  0.00     0.034 A 
ATOM     59  C   UNL A   1      42.106  34.942  30.049  1.00  0.00     0.034 A 
ATOM     60  C   UNL A   1      38.458  34.100  35.412  1.00  0.00     0.049 A 
ATOM     61  C   UNL A   1      40.639  34.679  30.268  1.00  0.00     0.074 A 
ATOM     62  C   UNL A   1      37.084  33.951  35.486  1.00  0.00     0.029 A 
ATOM     63  N   UNL A   1      38.774  34.189  34.060  1.00  0.00    -0.354 N 
ATOM     64  N   UNL A   1      39.989  34.518  31.398  1.00  0.00    -0.248 NA
ATOM     65  C   UNL A   1      39.796  34.592  29.069  1.00  0.00     0.031 C 
ATOM     66  C   UNL A   1      36.580  33.874  34.182  1.00  0.00     0.029 A 
ATOM     67  C   UNL A   1      37.626  34.058  33.291  1.00  0.00     0.049 A 
ATOM     68  H   UNL A   1      39.680  34.325  33.702  1.00  0.00     0.167 HD
ATOM     69  C   UNL A   1      38.655  34.334  31.046  1.00  0.00     0.074 A 
ATOM     70  C   UNL A   1      38.594  34.418  29.600  1.00  0.00     0.031 C 
ATOM     71  C   UNL A   1      37.579  34.120  31.848  1.00  0.00     0.034 A 
BRANCH  58  72
ATOM     72  C   UNL A   1      38.950  33.881  37.905  1.00  0.00     0.023 A 
ATOM     73  C   UNL A   1      38.477  32.619  38.310  1.00  0.00     0.031 A 
ATOM     74  C   UNL A   1      38.922  34.921  38.850  1.00  0.00     0.131 A 
ATOM     75  C   UNL A   1      37.901  32.458  39.578  1.00  0.00     0.055 A 
ATOM     76  C   UNL A   1      38.437  34.729  40.147  1.00  0.00     0.041 A 
ATOM     77  F   UNL A   1      39.342  36.153  38.524  1.00  0.00    -0.206 F 
ATOM     78  C   UNL A   1      37.901  33.497  40.510  1.00  0.00     0.022 A 
BRANCH  75  79
ATOM     79  S   UNL A   1      36.983  30.930  39.922  1.00  0.00     0.124 S 
ATOM     80  O   UNL A   1      35.717  31.454  40.430  1.00  0.00    -0.237 OA
ATOM     81  O   UNL A   1      36.931  30.293  38.611  1.00  0.00    -0.237 OA
ATOM     82  O   UNL A   1      37.810  30.250  40.916  1.00  0.00    -0.744 OA
ENDBRANCH  75  79
ENDBRANCH  58  72
BRANCH  59  83
ATOM     83  C   UNL A   1      42.677  35.025  28.674  1.00  0.00     0.023 A 
ATOM     84  C   UNL A   1      43.389  33.953  28.116  1.00  0.00     0.031 A 
ATOM     85  C   UNL A   1      42.513  36.186  27.898  1.00  0.00     0.131 A 
ATOM     86  C   UNL A   1      43.935  34.073  26.828  1.00  0.00     0.055 A 
ATOM     87  C   UNL A   1      43.018  36.285  26.601  1.00  0.00     0.041 A 
ATOM     88  F   UNL A   1      41.831  37.237  28.384  1.00  0.00    -0.206 F 
ATOM     89  C   UNL A   1      43.742  35.226  26.062  1.00  0.00     0.022 A 
BRANCH  86  90
ATOM     90  S   UNL A   1      44.944  32.713  26.178  1.00  0.00     0.124 S 
ATOM     91  O   UNL A   1      44.531  31.604  27.029  1.00  0.00    -0.237 OA
ATOM     92  O   UNL A   1      44.510  32.652  24.786  1.00  0.00    -0.237 OA
ATOM     93  O   UNL A   1      46.314  33.180  26.380  1.00  0.00    -0.744 OA
ENDBRANCH  86  90
ENDBRANCH  59  83
BRANCH  71  94
ATOM     94  C   UNL A   1      36.233  34.000  31.171  1.00  0.00     0.023 A 
ATOM     95  C   UNL A   1      35.276  35.028  31.233  1.00  0.00     0.031 A 
ATOM     96  C   UNL A   1      35.904  32.833  30.460  1.00  0.00     0.131 A 
ATOM     97  C   UNL A   1      34.017  34.848  30.640  1.00  0.00     0.055 A 
ATOM     98  C   UNL A   1      34.672  32.684  29.819  1.00  0.00     0.041 A 
ATOM     99  F   UNL A   1      36.776  31.816  30.372  1.00  0.00    -0.206 F 
ATOM    100  C   UNL A   1      33.716  33.690  29.918  1.00  0.00     0.022 A 
BRANCH  97 101
ATOM    101  S   UNL A   1      32.739  36.107  30.906  1.00  0.00     0.124 S 
ATOM    102  O   UNL A   1      32.324  36.411  29.540  1.00  0.00    -0.237 OA
ATOM    103  O   UNL A   1      31.764  35.395  31.725  1.00  0.00    -0.237 OA
ATOM    104  O   UNL A   1      33.453  37.184  31.590  1.00  0.00    -0.744 OA
ENDBRANCH  97 101
ENDBRANCH  71  94
ENDBRANCH  45  46
ENDBRANCH  37  40
ENDBRANCH  35  36
ENDBRANCH  34  35
ENDBRANCH  33  34
ENDBRANCH   1  33
TORSDOF 20
ENDMDL
MODEL 3
REMARK VINA RESULT:     -10.7      5.437      7.793
REMARK SMILES COc1cc(/C=C2/SC(=O)N(c3ccc(O)cc3C)C2=O)ccc1OCC(=O)NCCCCNC(=O)c1ccc(-c2c3nc(c(-c4cc(S(=O)(=O)[O-])ccc4F)c4ccc([nH]4)c(-c4cc(S(=O)(=O)[O-])ccc4F)c4nc(c(-c5cc(S(=O)(=O)[O-])ccc5F)c5ccc2[nH]5)C=C4)C=C3)cc1
REMARK SMILES IDX 30 1 29 2 27 3 28 4 26 6 25 7 24 8 3 9 4 10 5 11 23 12 22 13
REMARK SMILES IDX 2 14 1 15 6 16 7 17 8 18 20 19 9 20 11 21 21 22 10 23 12 24
REMARK SMILES IDX 13 25 18 26 14 27 17 28 19 29 15 30 16 31 31 33 32 34 33 35
REMARK SMILES IDX 34 36 35 37 36 39 37 40 38 41 99 42 39 43 98 44 40 45 41 46
REMARK SMILES IDX 42 47 92 48 43 49 97 50 91 51 93 52 44 53 96 54 90 55 89 56
REMARK SMILES IDX 45 58 77 59 57 60 76 61 58 62 61 63 75 64 94 65 59 66 60 67
REMARK SMILES IDX 74 69 95 70 62 71 46 72 47 73 55 74 48 75 54 76 56 77 53 78
REMARK SMILES IDX 49 79 50 80 51 81 52 82 78 83 79 84 87 85 80 86 86 87 88 88
REMARK SMILES IDX 85 89 81 90 82 91 83 92 84 93 63 94 64 95 72 96 65 97 71 98
REMARK SMILES IDX 73 99 70 100 66 101 67 102 68 103 69 104
REMARK H PARENT 29 5 16 32 34 38 93 57 61 68
REMARK Flexibility Score: inf
ROOT
ATOM      1  C   UNL A   1      41.165  22.241  27.527  1.00  0.00     0.116 C 
ENDROOT
BRANCH   1   2
ATOM      2  N   UNL A   1      40.932  20.896  27.039  1.00  0.00    -0.353 N 
ATOM      3  C   UNL A   1      39.996  20.466  26.143  1.00  0.00     0.257 C 
ATOM      4  O   UNL A   1      40.096  19.318  25.706  1.00  0.00    -0.271 OA
ATOM      5  H   UNL A   1      41.529  20.201  27.401  1.00  0.00     0.163 HD
BRANCH   3   6
ATOM      6  C   UNL A   1      38.913  21.431  25.652  1.00  0.00     0.329 C 
BRANCH   6   7
ATOM      7  O   UNL A   1      37.579  20.961  25.679  1.00  0.00    -0.480 OA
BRANCH   7   8
ATOM      8  C   UNL A   1      36.572  21.706  25.135  1.00  0.00     0.161 A 
ATOM      9  C   UNL A   1      35.215  21.728  25.474  1.00  0.00     0.161 A 
ATOM     10  C   UNL A   1      34.311  22.471  24.698  1.00  0.00     0.058 A 
ATOM     11  C   UNL A   1      34.760  23.219  23.604  1.00  0.00    -0.020 A 
ATOM     12  C   UNL A   1      37.013  22.498  24.066  1.00  0.00     0.051 A 
ATOM     13  C   UNL A   1      36.125  23.270  23.319  1.00  0.00     0.012 A 
BRANCH   9  14
ATOM     14  O   UNL A   1      34.722  20.910  26.455  1.00  0.00    -0.493 OA
ATOM     15  C   UNL A   1      33.339  20.607  26.265  1.00  0.00     0.278 C 
ENDBRANCH   9  14
BRANCH  11  16
ATOM     16  C   UNL A   1      33.794  23.782  22.658  1.00  0.00     0.029 C 
ATOM     17  C   UNL A   1      33.237  24.993  22.832  1.00  0.00     0.083 C 
ATOM     18  S   UNL A   1      32.077  25.668  21.753  1.00  0.00    -0.022 SA
ATOM     19  C   UNL A   1      33.478  25.935  23.970  1.00  0.00     0.272 C 
ATOM     20  C   UNL A   1      31.855  27.104  22.746  1.00  0.00     0.298 C 
ATOM     21  N   UNL A   1      32.620  27.017  23.885  1.00  0.00    -0.236 N 
ATOM     22  O   UNL A   1      34.295  25.734  24.856  1.00  0.00    -0.268 OA
ATOM     23  O   UNL A   1      31.139  28.026  22.374  1.00  0.00    -0.260 OA
BRANCH  21  24
ATOM     24  C   UNL A   1      32.596  28.009  24.908  1.00  0.00     0.056 A 
ATOM     25  C   UNL A   1      33.487  29.096  24.817  1.00  0.00     0.031 A 
ATOM     26  C   UNL A   1      31.761  27.908  26.043  1.00  0.00    -0.023 A 
ATOM     27  C   UNL A   1      33.536  30.081  25.804  1.00  0.00     0.048 A 
ATOM     28  C   UNL A   1      31.812  28.921  27.024  1.00  0.00     0.051 A 
ATOM     29  C   UNL A   1      30.855  26.738  26.324  1.00  0.00     0.047 C 
ATOM     30  C   UNL A   1      32.697  29.987  26.899  1.00  0.00     0.115 A 
BRANCH  30  31
ATOM     31  O   UNL A   1      32.783  30.957  27.852  1.00  0.00    -0.508 OA
ATOM     32  H   UNL A   1      33.592  31.406  27.991  1.00  0.00     0.293 HD
ENDBRANCH  30  31
ENDBRANCH  21  24
ENDBRANCH  11  16
ENDBRANCH   7   8
ENDBRANCH   6   7
ENDBRANCH   3   6
ENDBRANCH   1   2
BRANCH   1  33
ATOM     33  C   UNL A   1      42.540  22.787  27.152  1.00  0.00     0.023 C 
BRANCH  33  34
ATOM     34  C   UNL A   1      42.599  23.617  25.869  1.00  0.00     0.023 C 
BRANCH  34  35
ATOM     35  C   UNL A   1      43.686  24.683  25.820  1.00  0.00     0.116 C 
BRANCH  35  36
ATOM     36  N   UNL A   1      45.012  24.162  26.104  1.00  0.00    -0.352 N 
ATOM     37  C   UNL A   1      45.824  24.390  27.189  1.00  0.00     0.251 C 
ATOM     38  H   UNL A   1      45.381  23.557  25.421  1.00  0.00     0.163 HD
ATOM     39  O   UNL A   1      46.965  23.936  27.198  1.00  0.00    -0.269 OA
BRANCH  37  40
ATOM     40  C   UNL A   1      45.336  25.219  28.313  1.00  0.00     0.039 A 
ATOM     41  C   UNL A   1      45.513  26.603  28.246  1.00  0.00     0.014 A 
ATOM     42  C   UNL A   1      44.687  24.645  29.408  1.00  0.00     0.014 A 
ATOM     43  C   UNL A   1      44.975  27.418  29.245  1.00  0.00     0.010 A 
ATOM     44  C   UNL A   1      44.084  25.462  30.360  1.00  0.00     0.010 A 
ATOM     45  C   UNL A   1      44.221  26.857  30.289  1.00  0.00    -0.014 A 
BRANCH  45  46
ATOM     46  C   UNL A   1      43.568  27.716  31.311  1.00  0.00     0.031 A 
ATOM     47  C   UNL A   1      42.216  28.317  31.040  1.00  0.00     0.074 A 
ATOM     48  C   UNL A   1      44.225  28.015  32.449  1.00  0.00     0.049 A 
ATOM     49  N   UNL A   1      41.515  29.145  31.772  1.00  0.00    -0.248 NA
ATOM     50  C   UNL A   1      41.588  27.964  29.760  1.00  0.00     0.031 C 
ATOM     51  C   UNL A   1      45.565  27.539  32.799  1.00  0.00     0.029 A 
ATOM     52  N   UNL A   1      43.863  28.800  33.515  1.00  0.00    -0.354 N 
ATOM     53  C   UNL A   1      40.372  29.429  31.033  1.00  0.00     0.074 A 
ATOM     54  C   UNL A   1      40.512  28.735  29.769  1.00  0.00     0.031 C 
ATOM     55  C   UNL A   1      45.904  28.028  34.002  1.00  0.00     0.029 A 
ATOM     56  C   UNL A   1      44.829  28.886  34.490  1.00  0.00     0.049 A 
ATOM     57  H   UNL A   1      42.995  29.259  33.575  1.00  0.00     0.167 HD
ATOM     58  C   UNL A   1      39.297  30.180  31.384  1.00  0.00     0.034 A 
ATOM     59  C   UNL A   1      44.856  29.587  35.640  1.00  0.00     0.034 A 
ATOM     60  C   UNL A   1      39.177  30.858  32.653  1.00  0.00     0.049 A 
ATOM     61  C   UNL A   1      43.659  30.422  36.012  1.00  0.00     0.074 A 
ATOM     62  C   UNL A   1      38.106  31.581  33.146  1.00  0.00     0.029 A 
ATOM     63  N   UNL A   1      40.171  30.912  33.625  1.00  0.00    -0.354 N 
ATOM     64  N   UNL A   1      42.550  30.624  35.336  1.00  0.00    -0.248 NA
ATOM     65  C   UNL A   1      43.710  31.113  37.306  1.00  0.00     0.031 C 
ATOM     66  C   UNL A   1      38.478  32.135  34.377  1.00  0.00     0.029 A 
ATOM     67  C   UNL A   1      39.752  31.690  34.695  1.00  0.00     0.049 A 
ATOM     68  H   UNL A   1      41.045  30.465  33.561  1.00  0.00     0.167 HD
ATOM     69  C   UNL A   1      41.762  31.446  36.136  1.00  0.00     0.074 A 
ATOM     70  C   UNL A   1      42.518  31.690  37.348  1.00  0.00     0.031 C 
ATOM     71  C   UNL A   1      40.523  31.947  35.890  1.00  0.00     0.034 A 
BRANCH  58  72
ATOM     72  C   UNL A   1      38.194  30.329  30.360  1.00  0.00     0.023 A 
ATOM     73  C   UNL A   1      37.781  31.591  29.894  1.00  0.00     0.031 A 
ATOM     74  C   UNL A   1      37.505  29.200  29.883  1.00  0.00     0.131 A 
ATOM     75  C   UNL A   1      36.649  31.701  29.071  1.00  0.00     0.055 A 
ATOM     76  C   UNL A   1      36.440  29.309  28.985  1.00  0.00     0.041 A 
ATOM     77  F   UNL A   1      37.837  27.969  30.301  1.00  0.00    -0.206 F 
ATOM     78  C   UNL A   1      35.992  30.567  28.591  1.00  0.00     0.022 A 
BRANCH  75  79
ATOM     79  S   UNL A   1      35.940  33.348  28.794  1.00  0.00     0.124 S 
ATOM     80  O   UNL A   1      35.215  33.150  27.541  1.00  0.00    -0.237 OA
ATOM     81  O   UNL A   1      35.121  33.542  29.984  1.00  0.00    -0.237 OA
ATOM     82  O   UNL A   1      37.114  34.214  28.694  1.00  0.00    -0.744 OA
ENDBRANCH  75  79
ENDBRANCH  58  72
BRANCH  59  83
ATOM     83  C   UNL A   1      46.063  29.539  36.513  1.00  0.00     0.023 A 
ATOM     84  C   UNL A   1      46.166  28.614  37.562  1.00  0.00     0.031 A 
ATOM     85  C   UNL A   1      47.136  30.422  36.301  1.00  0.00     0.131 A 
ATOM     86  C   UNL A   1      47.307  28.612  38.381  1.00  0.00     0.055 A 
ATOM     87  C   UNL A   1      48.288  30.386  37.089  1.00  0.00     0.041 A 
ATOM     88  F   UNL A   1      47.090  31.320  35.303  1.00  0.00    -0.206 F 
ATOM     89  C   UNL A   1      48.374  29.481  38.142  1.00  0.00     0.022 A 
BRANCH  86  90
ATOM     90  S   UNL A   1      47.362  27.480  39.797  1.00  0.00     0.124 S 
ATOM     91  O   UNL A   1      48.798  27.310  39.986  1.00  0.00    -0.237 OA
ATOM     92  O   UNL A   1      46.665  28.246  40.825  1.00  0.00    -0.237 OA
ATOM     93  O   UNL A   1      46.651  26.298  39.316  1.00  0.00    -0.744 OA
ENDBRANCH  86  90
ENDBRANCH  59  83
BRANCH  71  94
ATOM     94  C   UNL A   1      39.894  32.785  36.980  1.00  0.00     0.023 A 
ATOM     95  C   UNL A   1      38.943  32.254  37.869  1.00  0.00     0.031 A 
ATOM     96  C   UNL A   1      40.250  34.138  37.123  1.00  0.00     0.131 A 
ATOM     97  C   UNL A   1      38.341  33.084  38.826  1.00  0.00     0.055 A 
ATOM     98  C   UNL A   1      39.693  34.943  38.118  1.00  0.00     0.041 A 
ATOM     99  F   UNL A   1      41.149  34.700  36.299  1.00  0.00    -0.206 F 
ATOM    100  C   UNL A   1      38.724  34.421  38.969  1.00  0.00     0.022 A 
BRANCH  97 101
ATOM    101  S   UNL A   1      36.979  32.422  39.824  1.00  0.00     0.124 S 
ATOM    102  O   UNL A   1      35.843  32.563  38.919  1.00  0.00    -0.237 OA
ATOM    103  O   UNL A   1      37.419  31.056  40.086  1.00  0.00    -0.237 OA
ATOM    104  O   UNL A   1      36.952  33.298  40.993  1.00  0.00    -0.744 OA
ENDBRANCH  97 101
ENDBRANCH  71  94
ENDBRANCH  45  46
ENDBRANCH  37  40
ENDBRANCH  35  36
ENDBRANCH  34  35
ENDBRANCH  33  34
ENDBRANCH   1  33
TORSDOF 20
ENDMDL
