MODEL 1
REMARK VINA RESULT:     -12.0      0.000      0.000
REMARK SMILES Cc1cc2nc(SCC(=O)NCCCCNC(=O)c3ccc(-c4c5nc(c(-c6cc(S(=O)(=O)[O-])ccc6F)c6ccc([nH]6)c(-c6cc(S(=O)(=O)[O-])ccc6F)c6nc(c(-c7cc(S(=O)(=O)[O-])ccc7F)c7ccc4[nH]7)C=C6)C=C5)cc3)[nH]c(=O)c2[nH]1
REMARK SMILES IDX 14 1 13 2 12 3 11 4 9 5 10 6 8 8 7 9 6 10 1 11 2 12 3 13
REMARK SMILES IDX 86 14 4 15 85 16 5 18 83 19 82 20 84 21 15 23 16 24 17 25
REMARK SMILES IDX 18 27 19 28 20 29 81 30 21 31 80 32 22 33 23 34 24 35 74 36
REMARK SMILES IDX 25 37 79 38 73 39 75 40 26 41 78 42 72 43 71 44 27 46 59 47
REMARK SMILES IDX 39 48 58 49 40 50 43 51 57 52 76 53 41 54 42 55 56 57 77 58
REMARK SMILES IDX 44 59 28 60 29 61 37 62 30 63 36 64 38 65 35 66 31 67 32 68
REMARK SMILES IDX 33 69 34 70 60 71 61 72 69 73 62 74 68 75 70 76 67 77 63 78
REMARK SMILES IDX 64 79 65 80 66 81 45 82 46 83 54 84 47 85 53 86 55 87 52 88
REMARK SMILES IDX 48 89 49 90 50 91 51 92
REMARK H PARENT 11 7 86 17 82 22 16 26 75 45 43 56
REMARK Flexibility Score: inf
ROOT
ATOM      1  C   UNL A   1      32.419  30.350  26.740  1.00  0.00     0.023 C 
ENDROOT
BRANCH   1   2
ATOM      2  C   UNL A   1      31.800  29.033  27.232  1.00  0.00     0.023 C 
BRANCH   2   3
ATOM      3  C   UNL A   1      32.004  27.825  26.309  1.00  0.00     0.116 C 
BRANCH   3   4
ATOM      4  N   UNL A   1      31.704  26.582  26.999  1.00  0.00    -0.355 N 
ATOM      5  C   UNL A   1      31.694  25.314  26.508  1.00  0.00     0.230 C 
ATOM      6  O   UNL A   1      31.161  24.416  27.163  1.00  0.00    -0.274 OA
ATOM      7  H   UNL A   1      31.477  26.669  27.953  1.00  0.00     0.163 HD
BRANCH   5   8
ATOM      8  C   UNL A   1      32.315  24.985  25.171  1.00  0.00     0.178 C 
BRANCH   8   9
ATOM      9  S   UNL A   1      31.529  23.623  24.308  1.00  0.00    -0.078 SA
BRANCH   9  10
ATOM     10  C   UNL A   1      32.518  22.200  24.525  1.00  0.00     0.169 A 
ATOM     11  C   UNL A   1      34.075  16.522  23.913  1.00  0.00     0.064 C 
ATOM     12  C   UNL A   1      33.787  17.968  24.070  1.00  0.00     0.014 A 
ATOM     13  C   UNL A   1      32.720  18.724  23.604  1.00  0.00     0.052 A 
ATOM     14  N   UNL A   1      34.616  18.810  24.788  1.00  0.00    -0.353 N 
ATOM     15  C   UNL A   1      32.915  20.024  24.088  1.00  0.00     0.097 A 
ATOM     16  C   UNL A   1      34.070  20.062  24.805  1.00  0.00     0.131 A 
ATOM     17  H   UNL A   1      35.463  18.549  25.216  1.00  0.00     0.166 HD
ATOM     18  N   UNL A   1      32.093  21.132  23.915  1.00  0.00    -0.222 NA
ATOM     19  C   UNL A   1      34.542  21.243  25.449  1.00  0.00     0.275 A 
ATOM     20  N   UNL A   1      33.674  22.300  25.267  1.00  0.00    -0.300 N 
ATOM     21  O   UNL A   1      35.584  21.323  26.069  1.00  0.00    -0.267 OA
ATOM     22  H   UNL A   1      33.891  23.164  25.687  1.00  0.00     0.172 HD
ENDBRANCH   9  10
ENDBRANCH   8   9
ENDBRANCH   5   8
ENDBRANCH   3   4
ENDBRANCH   2   3
ENDBRANCH   1   2
BRANCH   1  23
ATOM     23  C   UNL A   1      33.827  30.613  27.259  1.00  0.00     0.116 C 
BRANCH  23  24
ATOM     24  N   UNL A   1      33.859  31.701  28.232  1.00  0.00    -0.352 N 
ATOM     25  C   UNL A   1      34.722  31.877  29.291  1.00  0.00     0.251 C 
ATOM     26  H   UNL A   1      33.174  32.399  28.116  1.00  0.00     0.163 HD
ATOM     27  O   UNL A   1      34.407  32.611  30.223  1.00  0.00    -0.269 OA
BRANCH  25  28
ATOM     28  C   UNL A   1      36.027  31.190  29.294  1.00  0.00     0.039 A 
ATOM     29  C   UNL A   1      37.208  31.920  29.124  1.00  0.00     0.014 A 
ATOM     30  C   UNL A   1      36.063  29.802  29.424  1.00  0.00     0.014 A 
ATOM     31  C   UNL A   1      38.427  31.247  29.136  1.00  0.00     0.010 A 
ATOM     32  C   UNL A   1      37.268  29.150  29.543  1.00  0.00     0.010 A 
ATOM     33  C   UNL A   1      38.447  29.862  29.352  1.00  0.00    -0.014 A 
BRANCH  33  34
ATOM     34  C   UNL A   1      39.712  29.152  29.468  1.00  0.00     0.031 A 
ATOM     35  C   UNL A   1      40.121  28.839  30.862  1.00  0.00     0.074 A 
ATOM     36  C   UNL A   1      40.340  28.603  28.408  1.00  0.00     0.049 A 
ATOM     37  N   UNL A   1      41.082  29.363  31.548  1.00  0.00    -0.248 NA
ATOM     38  C   UNL A   1      39.253  27.940  31.639  1.00  0.00     0.031 C 
ATOM     39  C   UNL A   1      39.861  28.505  27.024  1.00  0.00     0.029 A 
ATOM     40  N   UNL A   1      41.507  27.906  28.373  1.00  0.00    -0.354 N 
ATOM     41  C   UNL A   1      41.082  28.691  32.770  1.00  0.00     0.074 A 
ATOM     42  C   UNL A   1      39.819  28.003  32.845  1.00  0.00     0.031 C 
ATOM     43  C   UNL A   1      40.611  27.606  26.350  1.00  0.00     0.029 A 
ATOM     44  C   UNL A   1      41.720  27.203  27.195  1.00  0.00     0.049 A 
ATOM     45  H   UNL A   1      42.147  27.902  29.120  1.00  0.00     0.167 HD
ATOM     46  C   UNL A   1      42.221  28.539  33.506  1.00  0.00     0.034 A 
ATOM     47  C   UNL A   1      42.715  26.315  26.953  1.00  0.00     0.034 A 
ATOM     48  C   UNL A   1      43.278  29.376  33.005  1.00  0.00     0.049 A 
ATOM     49  C   UNL A   1      43.781  26.554  27.954  1.00  0.00     0.074 A 
ATOM     50  C   UNL A   1      43.474  30.735  32.870  1.00  0.00     0.029 A 
ATOM     51  N   UNL A   1      44.199  28.770  32.185  1.00  0.00    -0.354 N 
ATOM     52  N   UNL A   1      44.520  27.627  27.995  1.00  0.00    -0.248 NA
ATOM     53  C   UNL A   1      43.752  25.766  29.176  1.00  0.00     0.031 C 
ATOM     54  C   UNL A   1      44.204  30.885  31.657  1.00  0.00     0.029 A 
ATOM     55  C   UNL A   1      44.467  29.613  31.141  1.00  0.00     0.049 A 
ATOM     56  H   UNL A   1      44.597  27.881  32.325  1.00  0.00     0.167 HD
ATOM     57  C   UNL A   1      44.671  27.889  29.348  1.00  0.00     0.074 A 
ATOM     58  C   UNL A   1      44.297  26.647  30.019  1.00  0.00     0.031 C 
ATOM     59  C   UNL A   1      44.804  29.169  29.802  1.00  0.00     0.034 A 
BRANCH  46  60
ATOM     60  C   UNL A   1      42.501  27.357  34.409  1.00  0.00     0.023 A 
ATOM     61  C   UNL A   1      43.219  26.225  33.983  1.00  0.00     0.031 A 
ATOM     62  C   UNL A   1      42.264  27.442  35.797  1.00  0.00     0.131 A 
ATOM     63  C   UNL A   1      43.649  25.239  34.881  1.00  0.00     0.055 A 
ATOM     64  C   UNL A   1      42.754  26.494  36.705  1.00  0.00     0.041 A 
ATOM     65  F   UNL A   1      41.602  28.486  36.321  1.00  0.00    -0.206 F 
ATOM     66  C   UNL A   1      43.452  25.383  36.249  1.00  0.00     0.022 A 
BRANCH  63  67
ATOM     67  S   UNL A   1      44.508  23.764  34.267  1.00  0.00     0.124 S 
ATOM     68  O   UNL A   1      43.741  22.690  34.888  1.00  0.00    -0.237 OA
ATOM     69  O   UNL A   1      44.345  23.910  32.823  1.00  0.00    -0.237 OA
ATOM     70  O   UNL A   1      45.873  23.937  34.755  1.00  0.00    -0.744 OA
ENDBRANCH  63  67
ENDBRANCH  46  60
BRANCH  47  71
ATOM     71  C   UNL A   1      42.624  25.040  26.206  1.00  0.00     0.023 A 
ATOM     72  C   UNL A   1      41.667  24.078  26.575  1.00  0.00     0.031 A 
ATOM     73  C   UNL A   1      43.671  24.623  25.365  1.00  0.00     0.131 A 
ATOM     74  C   UNL A   1      41.808  22.743  26.172  1.00  0.00     0.055 A 
ATOM     75  C   UNL A   1      43.803  23.293  24.953  1.00  0.00     0.041 A 
ATOM     76  F   UNL A   1      44.628  25.486  24.992  1.00  0.00    -0.206 F 
ATOM     77  C   UNL A   1      42.879  22.341  25.372  1.00  0.00     0.022 A 
BRANCH  74  78
ATOM     78  S   UNL A   1      40.630  21.491  26.749  1.00  0.00     0.124 S 
ATOM     79  O   UNL A   1      41.154  20.266  26.147  1.00  0.00    -0.237 OA
ATOM     80  O   UNL A   1      40.773  21.591  28.196  1.00  0.00    -0.237 OA
ATOM     81  O   UNL A   1      39.356  21.947  26.200  1.00  0.00    -0.744 OA
ENDBRANCH  74  78
ENDBRANCH  47  71
BRANCH  59  82
ATOM     82  C   UNL A   1      45.099  30.263  28.801  1.00  0.00     0.023 A 
ATOM     83  C   UNL A   1      46.448  30.611  28.628  1.00  0.00     0.031 A 
ATOM     84  C   UNL A   1      44.129  31.090  28.206  1.00  0.00     0.131 A 
ATOM     85  C   UNL A   1      46.794  31.771  27.928  1.00  0.00     0.055 A 
ATOM     86  C   UNL A   1      44.481  32.214  27.451  1.00  0.00     0.041 A 
ATOM     87  F   UNL A   1      42.820  30.887  28.400  1.00  0.00    -0.206 F 
ATOM     88  C   UNL A   1      45.819  32.570  27.323  1.00  0.00     0.022 A 
BRANCH  85  89
ATOM     89  S   UNL A   1      48.512  32.338  27.904  1.00  0.00     0.124 S 
ATOM     90  O   UNL A   1      49.062  31.715  29.105  1.00  0.00    -0.237 OA
ATOM     91  O   UNL A   1      48.997  31.792  26.638  1.00  0.00    -0.237 OA
ATOM     92  O   UNL A   1      48.407  33.794  27.950  1.00  0.00    -0.744 OA
ENDBRANCH  85  89
ENDBRANCH  59  82
ENDBRANCH  33  34
ENDBRANCH  25  28
ENDBRANCH  23  24
ENDBRANCH   1  23
TORSDOF 16
ENDMDL
MODEL 2
REMARK VINA RESULT:     -12.0      3.408      8.591
REMARK SMILES Cc1cc2nc(SCC(=O)NCCCCNC(=O)c3ccc(-c4c5nc(c(-c6cc(S(=O)(=O)[O-])ccc6F)c6ccc([nH]6)c(-c6cc(S(=O)(=O)[O-])ccc6F)c6nc(c(-c7cc(S(=O)(=O)[O-])ccc7F)c7ccc4[nH]7)C=C6)C=C5)cc3)[nH]c(=O)c2[nH]1
REMARK SMILES IDX 14 1 13 2 12 3 11 4 9 5 10 6 8 8 7 9 6 10 1 11 2 12 3 13
REMARK SMILES IDX 86 14 4 15 85 16 5 18 83 19 82 20 84 21 15 23 16 24 17 25
REMARK SMILES IDX 18 27 19 28 20 29 81 30 21 31 80 32 22 33 23 34 24 35 74 36
REMARK SMILES IDX 25 37 79 38 73 39 75 40 26 41 78 42 72 43 71 44 27 46 59 47
REMARK SMILES IDX 39 48 58 49 40 50 43 51 57 52 76 53 41 54 42 55 56 57 77 58
REMARK SMILES IDX 44 59 28 60 29 61 37 62 30 63 36 64 38 65 35 66 31 67 32 68
REMARK SMILES IDX 33 69 34 70 60 71 61 72 69 73 62 74 68 75 70 76 67 77 63 78
REMARK SMILES IDX 64 79 65 80 66 81 45 82 46 83 54 84 47 85 53 86 55 87 52 88
REMARK SMILES IDX 48 89 49 90 50 91 51 92
REMARK H PARENT 11 7 86 17 82 22 16 26 75 45 43 56
REMARK Flexibility Score: inf
ROOT
ATOM      1  C   UNL A   1      38.426  22.263  25.537  1.00  0.00     0.023 C 
ENDROOT
BRANCH   1   2
ATOM      2  C   UNL A   1      37.511  23.443  25.900  1.00  0.00     0.023 C 
BRANCH   2   3
ATOM      3  C   UNL A   1      36.021  23.102  26.036  1.00  0.00     0.116 C 
BRANCH   3   4
ATOM      4  N   UNL A   1      35.189  24.191  25.556  1.00  0.00    -0.355 N 
ATOM      5  C   UNL A   1      34.342  24.214  24.492  1.00  0.00     0.230 C 
ATOM      6  O   UNL A   1      33.922  25.296  24.077  1.00  0.00    -0.274 OA
ATOM      7  H   UNL A   1      35.246  25.028  26.071  1.00  0.00     0.163 HD
BRANCH   5   8
ATOM      8  C   UNL A   1      33.912  22.940  23.804  1.00  0.00     0.178 C 
BRANCH   8   9
ATOM      9  S   UNL A   1      32.401  22.224  24.453  1.00  0.00    -0.078 SA
BRANCH   9  10
ATOM     10  C   UNL A   1      32.465  20.498  24.198  1.00  0.00     0.169 A 
ATOM     11  C   UNL A   1      32.871  14.793  25.725  1.00  0.00     0.064 C 
ATOM     12  C   UNL A   1      32.709  16.193  25.262  1.00  0.00     0.014 A 
ATOM     13  C   UNL A   1      32.697  17.378  25.983  1.00  0.00     0.052 A 
ATOM     14  N   UNL A   1      32.560  16.513  23.925  1.00  0.00    -0.353 N 
ATOM     15  C   UNL A   1      32.571  18.411  25.045  1.00  0.00     0.097 A 
ATOM     16  C   UNL A   1      32.489  17.872  23.800  1.00  0.00     0.131 A 
ATOM     17  H   UNL A   1      32.511  15.866  23.185  1.00  0.00     0.166 HD
ATOM     18  N   UNL A   1      32.547  19.781  25.281  1.00  0.00    -0.222 NA
ATOM     19  C   UNL A   1      32.372  18.663  22.620  1.00  0.00     0.275 A 
ATOM     20  N   UNL A   1      32.382  20.011  22.912  1.00  0.00    -0.300 N 
ATOM     21  O   UNL A   1      32.263  18.216  21.495  1.00  0.00    -0.267 OA
ATOM     22  H   UNL A   1      32.327  20.654  22.169  1.00  0.00     0.172 HD
ENDBRANCH   9  10
ENDBRANCH   8   9
ENDBRANCH   5   8
ENDBRANCH   3   4
ENDBRANCH   2   3
ENDBRANCH   1   2
BRANCH   1  23
ATOM     23  C   UNL A   1      39.470  21.930  26.595  1.00  0.00     0.116 C 
BRANCH  23  24
ATOM     24  N   UNL A   1      40.815  21.851  26.034  1.00  0.00    -0.352 N 
ATOM     25  C   UNL A   1      41.725  22.867  25.842  1.00  0.00     0.251 C 
ATOM     26  H   UNL A   1      41.109  20.954  25.755  1.00  0.00     0.163 HD
ATOM     27  O   UNL A   1      42.640  22.727  25.038  1.00  0.00    -0.269 OA
BRANCH  25  28
ATOM     28  C   UNL A   1      41.600  24.117  26.616  1.00  0.00     0.039 A 
ATOM     29  C   UNL A   1      42.224  24.240  27.862  1.00  0.00     0.014 A 
ATOM     30  C   UNL A   1      40.816  25.153  26.109  1.00  0.00     0.014 A 
ATOM     31  C   UNL A   1      42.094  25.433  28.569  1.00  0.00     0.010 A 
ATOM     32  C   UNL A   1      40.775  26.367  26.754  1.00  0.00     0.010 A 
ATOM     33  C   UNL A   1      41.371  26.492  28.004  1.00  0.00    -0.014 A 
BRANCH  33  34
ATOM     34  C   UNL A   1      41.305  27.781  28.677  1.00  0.00     0.031 A 
ATOM     35  C   UNL A   1      42.240  28.807  28.146  1.00  0.00     0.074 A 
ATOM     36  C   UNL A   1      40.318  28.104  29.538  1.00  0.00     0.049 A 
ATOM     37  N   UNL A   1      43.301  29.286  28.706  1.00  0.00    -0.248 NA
ATOM     38  C   UNL A   1      42.052  29.239  26.752  1.00  0.00     0.031 C 
ATOM     39  C   UNL A   1      39.116  27.328  29.868  1.00  0.00     0.029 A 
ATOM     40  N   UNL A   1      40.124  29.264  30.220  1.00  0.00    -0.354 N 
ATOM     41  C   UNL A   1      43.788  30.252  27.826  1.00  0.00     0.074 A 
ATOM     42  C   UNL A   1      43.120  30.018  26.571  1.00  0.00     0.031 C 
ATOM     43  C   UNL A   1      38.225  28.125  30.498  1.00  0.00     0.029 A 
ATOM     44  C   UNL A   1      38.857  29.403  30.769  1.00  0.00     0.049 A 
ATOM     45  H   UNL A   1      40.825  29.947  30.317  1.00  0.00     0.167 HD
ATOM     46  C   UNL A   1      44.503  31.328  28.264  1.00  0.00     0.034 A 
ATOM     47  C   UNL A   1      38.350  30.511  31.362  1.00  0.00     0.034 A 
ATOM     48  C   UNL A   1      44.900  31.161  29.637  1.00  0.00     0.049 A 
ATOM     49  C   UNL A   1      39.490  31.378  31.739  1.00  0.00     0.074 A 
ATOM     50  C   UNL A   1      45.698  30.273  30.328  1.00  0.00     0.029 A 
ATOM     51  N   UNL A   1      44.123  31.795  30.577  1.00  0.00    -0.354 N 
ATOM     52  N   UNL A   1      40.364  31.081  32.658  1.00  0.00    -0.248 NA
ATOM     53  C   UNL A   1      39.898  32.408  30.796  1.00  0.00     0.031 C 
ATOM     54  C   UNL A   1      45.059  30.106  31.589  1.00  0.00     0.029 A 
ATOM     55  C   UNL A   1      43.938  30.940  31.628  1.00  0.00     0.049 A 
ATOM     56  H   UNL A   1      43.762  32.708  30.504  1.00  0.00     0.167 HD
ATOM     57  C   UNL A   1      41.570  31.536  32.146  1.00  0.00     0.074 A 
ATOM     58  C   UNL A   1      41.203  32.456  31.073  1.00  0.00     0.031 C 
ATOM     59  C   UNL A   1      42.742  30.904  32.448  1.00  0.00     0.034 A 
BRANCH  46  60
ATOM     60  C   UNL A   1      44.497  32.685  27.595  1.00  0.00     0.023 A 
ATOM     61  C   UNL A   1      43.607  33.712  27.959  1.00  0.00     0.031 A 
ATOM     62  C   UNL A   1      45.551  33.066  26.737  1.00  0.00     0.131 A 
ATOM     63  C   UNL A   1      43.751  35.021  27.480  1.00  0.00     0.055 A 
ATOM     64  C   UNL A   1      45.737  34.390  26.314  1.00  0.00     0.041 A 
ATOM     65  F   UNL A   1      46.470  32.174  26.335  1.00  0.00    -0.206 F 
ATOM     66  C   UNL A   1      44.833  35.377  26.685  1.00  0.00     0.022 A 
BRANCH  63  67
ATOM     67  S   UNL A   1      42.532  36.289  27.925  1.00  0.00     0.124 S 
ATOM     68  O   UNL A   1      41.457  35.485  28.495  1.00  0.00    -0.237 OA
ATOM     69  O   UNL A   1      43.289  37.102  28.874  1.00  0.00    -0.237 OA
ATOM     70  O   UNL A   1      42.237  36.939  26.653  1.00  0.00    -0.744 OA
ENDBRANCH  63  67
ENDBRANCH  46  60
BRANCH  47  71
ATOM     71  C   UNL A   1      36.974  31.044  31.249  1.00  0.00     0.023 A 
ATOM     72  C   UNL A   1      36.439  31.343  29.984  1.00  0.00     0.031 A 
ATOM     73  C   UNL A   1      36.312  31.571  32.373  1.00  0.00     0.131 A 
ATOM     74  C   UNL A   1      35.333  32.196  29.863  1.00  0.00     0.055 A 
ATOM     75  C   UNL A   1      35.201  32.412  32.251  1.00  0.00     0.041 A 
ATOM     76  F   UNL A   1      36.782  31.340  33.609  1.00  0.00    -0.206 F 
ATOM     77  C   UNL A   1      34.717  32.744  30.989  1.00  0.00     0.022 A 
BRANCH  74  78
ATOM     78  S   UNL A   1      34.724  32.665  28.220  1.00  0.00     0.124 S 
ATOM     79  O   UNL A   1      34.343  31.376  27.646  1.00  0.00    -0.237 OA
ATOM     80  O   UNL A   1      33.620  33.555  28.555  1.00  0.00    -0.237 OA
ATOM     81  O   UNL A   1      35.885  33.294  27.596  1.00  0.00    -0.744 OA
ENDBRANCH  74  78
ENDBRANCH  47  71
BRANCH  59  82
ATOM     82  C   UNL A   1      42.752  29.908  33.585  1.00  0.00     0.023 A 
ATOM     83  C   UNL A   1      43.187  30.381  34.833  1.00  0.00     0.031 A 
ATOM     84  C   UNL A   1      42.573  28.520  33.438  1.00  0.00     0.131 A 
ATOM     85  C   UNL A   1      43.474  29.484  35.867  1.00  0.00     0.055 A 
ATOM     86  C   UNL A   1      42.799  27.631  34.494  1.00  0.00     0.041 A 
ATOM     87  F   UNL A   1      42.254  27.976  32.257  1.00  0.00    -0.206 F 
ATOM     88  C   UNL A   1      43.269  28.110  35.712  1.00  0.00     0.022 A 
BRANCH  85  89
ATOM     89  S   UNL A   1      44.249  30.075  37.392  1.00  0.00     0.124 S 
ATOM     90  O   UNL A   1      43.195  30.900  37.976  1.00  0.00    -0.237 OA
ATOM     91  O   UNL A   1      44.529  28.826  38.097  1.00  0.00    -0.237 OA
ATOM     92  O   UNL A   1      45.428  30.804  36.932  1.00  0.00    -0.744 OA
ENDBRANCH  85  89
ENDBRANCH  59  82
ENDBRANCH  33  34
ENDBRANCH  25  28
ENDBRANCH  23  24
ENDBRANCH   1  23
TORSDOF 16
ENDMDL
MODEL 3
REMARK VINA RESULT:     -12.0      1.309      1.890
REMARK SMILES Cc1cc2nc(SCC(=O)NCCCCNC(=O)c3ccc(-c4c5nc(c(-c6cc(S(=O)(=O)[O-])ccc6F)c6ccc([nH]6)c(-c6cc(S(=O)(=O)[O-])ccc6F)c6nc(c(-c7cc(S(=O)(=O)[O-])ccc7F)c7ccc4[nH]7)C=C6)C=C5)cc3)[nH]c(=O)c2[nH]1
REMARK SMILES IDX 14 1 13 2 12 3 11 4 9 5 10 6 8 8 7 9 6 10 1 11 2 12 3 13
REMARK SMILES IDX 86 14 4 15 85 16 5 18 83 19 82 20 84 21 15 23 16 24 17 25
REMARK SMILES IDX 18 27 19 28 20 29 81 30 21 31 80 32 22 33 23 34 24 35 74 36
REMARK SMILES IDX 25 37 79 38 73 39 75 40 26 41 78 42 72 43 71 44 27 46 59 47
REMARK SMILES IDX 39 48 58 49 40 50 43 51 57 52 76 53 41 54 42 55 56 57 77 58
REMARK SMILES IDX 44 59 28 60 29 61 37 62 30 63 36 64 38 65 35 66 31 67 32 68
REMARK SMILES IDX 33 69 34 70 60 71 61 72 69 73 62 74 68 75 70 76 67 77 63 78
REMARK SMILES IDX 64 79 65 80 66 81 45 82 46 83 54 84 47 85 53 86 55 87 52 88
REMARK SMILES IDX 48 89 49 90 50 91 51 92
REMARK H PARENT 11 7 86 17 82 22 16 26 75 45 43 56
REMARK Flexibility Score: inf
ROOT
ATOM      1  C   UNL A   1      32.593  30.104  27.176  1.00  0.00     0.023 C 
ENDROOT
BRANCH   1   2
ATOM      2  C   UNL A   1      31.788  30.364  25.893  1.00  0.00     0.023 C 
BRANCH   2   3
ATOM      3  C   UNL A   1      31.886  29.270  24.822  1.00  0.00     0.116 C 
BRANCH   3   4
ATOM      4  N   UNL A   1      30.987  29.541  23.714  1.00  0.00    -0.355 N 
ATOM      5  C   UNL A   1      30.273  28.662  22.960  1.00  0.00     0.230 C 
ATOM      6  O   UNL A   1      29.774  29.043  21.898  1.00  0.00    -0.274 OA
ATOM      7  H   UNL A   1      30.880  30.490  23.475  1.00  0.00     0.163 HD
BRANCH   5   8
ATOM      8  C   UNL A   1      30.087  27.227  23.392  1.00  0.00     0.178 C 
BRANCH   8   9
ATOM      9  S   UNL A   1      31.271  26.083  22.679  1.00  0.00    -0.078 SA
BRANCH   9  10
ATOM     10  C   UNL A   1      31.372  24.686  23.722  1.00  0.00     0.169 A 
ATOM     11  C   UNL A   1      32.686  19.114  25.227  1.00  0.00     0.064 C 
ATOM     12  C   UNL A   1      32.375  20.537  24.950  1.00  0.00     0.014 A 
ATOM     13  C   UNL A   1      32.543  21.281  23.790  1.00  0.00     0.052 A 
ATOM     14  N   UNL A   1      31.803  21.364  25.899  1.00  0.00    -0.353 N 
ATOM     15  C   UNL A   1      32.029  22.556  24.060  1.00  0.00     0.097 A 
ATOM     16  C   UNL A   1      31.583  22.593  25.344  1.00  0.00     0.131 A 
ATOM     17  H   UNL A   1      31.591  21.108  26.826  1.00  0.00     0.166 HD
ATOM     18  N   UNL A   1      31.943  23.642  23.195  1.00  0.00    -0.222 NA
ATOM     19  C   UNL A   1      30.983  23.749  25.922  1.00  0.00     0.275 A 
ATOM     20  N   UNL A   1      30.899  24.784  25.012  1.00  0.00    -0.300 N 
ATOM     21  O   UNL A   1      30.604  23.829  27.074  1.00  0.00    -0.267 OA
ATOM     22  H   UNL A   1      30.481  25.628  25.298  1.00  0.00     0.172 HD
ENDBRANCH   9  10
ENDBRANCH   8   9
ENDBRANCH   5   8
ENDBRANCH   3   4
ENDBRANCH   2   3
ENDBRANCH   1   2
BRANCH   1  23
ATOM     23  C   UNL A   1      33.952  30.790  27.214  1.00  0.00     0.116 C 
BRANCH  23  24
ATOM     24  N   UNL A   1      33.996  31.869  28.195  1.00  0.00    -0.352 N 
ATOM     25  C   UNL A   1      34.850  32.021  29.265  1.00  0.00     0.251 C 
ATOM     26  H   UNL A   1      33.327  32.582  28.077  1.00  0.00     0.163 HD
ATOM     27  O   UNL A   1      34.539  32.755  30.198  1.00  0.00    -0.269 OA
BRANCH  25  28
ATOM     28  C   UNL A   1      36.141  31.308  29.278  1.00  0.00     0.039 A 
ATOM     29  C   UNL A   1      37.341  32.020  29.178  1.00  0.00     0.014 A 
ATOM     30  C   UNL A   1      36.146  29.915  29.345  1.00  0.00     0.014 A 
ATOM     31  C   UNL A   1      38.546  31.323  29.197  1.00  0.00     0.010 A 
ATOM     32  C   UNL A   1      37.334  29.234  29.472  1.00  0.00     0.010 A 
ATOM     33  C   UNL A   1      38.532  29.929  29.350  1.00  0.00    -0.014 A 
BRANCH  33  34
ATOM     34  C   UNL A   1      39.779  29.189  29.473  1.00  0.00     0.031 A 
ATOM     35  C   UNL A   1      40.168  28.858  30.869  1.00  0.00     0.074 A 
ATOM     36  C   UNL A   1      40.404  28.631  28.416  1.00  0.00     0.049 A 
ATOM     37  N   UNL A   1      41.135  29.355  31.567  1.00  0.00    -0.248 NA
ATOM     38  C   UNL A   1      39.272  27.975  31.633  1.00  0.00     0.031 C 
ATOM     39  C   UNL A   1      39.934  28.553  27.027  1.00  0.00     0.029 A 
ATOM     40  N   UNL A   1      41.554  27.907  28.387  1.00  0.00    -0.354 N 
ATOM     41  C   UNL A   1      41.108  28.676  32.785  1.00  0.00     0.074 A 
ATOM     42  C   UNL A   1      39.828  28.017  32.844  1.00  0.00     0.031 C 
ATOM     43  C   UNL A   1      40.670  27.640  26.354  1.00  0.00     0.029 A 
ATOM     44  C   UNL A   1      41.761  27.206  27.207  1.00  0.00     0.049 A 
ATOM     45  H   UNL A   1      42.186  27.884  29.140  1.00  0.00     0.167 HD
ATOM     46  C   UNL A   1      42.236  28.492  33.530  1.00  0.00     0.034 A 
ATOM     47  C   UNL A   1      42.737  26.296  26.968  1.00  0.00     0.034 A 
ATOM     48  C   UNL A   1      43.316  29.308  33.043  1.00  0.00     0.049 A 
ATOM     49  C   UNL A   1      43.799  26.504  27.980  1.00  0.00     0.074 A 
ATOM     50  C   UNL A   1      43.546  30.662  32.919  1.00  0.00     0.029 A 
ATOM     51  N   UNL A   1      44.230  28.685  32.228  1.00  0.00    -0.354 N 
ATOM     52  N   UNL A   1      44.563  27.559  28.034  1.00  0.00    -0.248 NA
ATOM     53  C   UNL A   1      43.741  25.710  29.197  1.00  0.00     0.031 C 
ATOM     54  C   UNL A   1      44.290  30.802  31.713  1.00  0.00     0.029 A 
ATOM     55  C   UNL A   1      44.528  29.527  31.192  1.00  0.00     0.049 A 
ATOM     56  H   UNL A   1      44.607  27.785  32.367  1.00  0.00     0.167 HD
ATOM     57  C   UNL A   1      44.708  27.809  29.390  1.00  0.00     0.074 A 
ATOM     58  C   UNL A   1      44.299  26.573  30.050  1.00  0.00     0.031 C 
ATOM     59  C   UNL A   1      44.866  29.084  29.853  1.00  0.00     0.034 A 
BRANCH  46  60
ATOM     60  C   UNL A   1      42.480  27.299  34.428  1.00  0.00     0.023 A 
ATOM     61  C   UNL A   1      43.247  26.189  34.031  1.00  0.00     0.031 A 
ATOM     62  C   UNL A   1      42.149  27.353  35.798  1.00  0.00     0.131 A 
ATOM     63  C   UNL A   1      43.637  25.195  34.937  1.00  0.00     0.055 A 
ATOM     64  C   UNL A   1      42.597  26.397  36.720  1.00  0.00     0.041 A 
ATOM     65  F   UNL A   1      41.432  28.373  36.295  1.00  0.00    -0.206 F 
ATOM     66  C   UNL A   1      43.346  25.308  36.291  1.00  0.00     0.022 A 
BRANCH  63  67
ATOM     67  S   UNL A   1      44.566  23.749  34.356  1.00  0.00     0.124 S 
ATOM     68  O   UNL A   1      44.391  23.841  32.911  1.00  0.00    -0.237 OA
ATOM     69  O   UNL A   1      45.907  24.043  34.854  1.00  0.00    -0.237 OA
ATOM     70  O   UNL A   1      43.896  22.629  35.009  1.00  0.00    -0.744 OA
ENDBRANCH  63  67
ENDBRANCH  46  60
BRANCH  47  71
ATOM     71  C   UNL A   1      42.622  25.029  26.213  1.00  0.00     0.023 A 
ATOM     72  C   UNL A   1      41.659  24.074  26.586  1.00  0.00     0.031 A 
ATOM     73  C   UNL A   1      43.654  24.606  25.356  1.00  0.00     0.131 A 
ATOM     74  C   UNL A   1      41.781  22.741  26.171  1.00  0.00     0.055 A 
ATOM     75  C   UNL A   1      43.767  23.278  24.931  1.00  0.00     0.041 A 
ATOM     76  F   UNL A   1      44.617  25.461  24.977  1.00  0.00    -0.206 F 
ATOM     77  C   UNL A   1      42.837  22.333  25.355  1.00  0.00     0.022 A 
BRANCH  74  78
ATOM     78  S   UNL A   1      40.596  21.498  26.752  1.00  0.00     0.124 S 
ATOM     79  O   UNL A   1      39.323  22.021  26.259  1.00  0.00    -0.237 OA
ATOM     80  O   UNL A   1      41.080  20.293  26.090  1.00  0.00    -0.237 OA
ATOM     81  O   UNL A   1      40.752  21.535  28.203  1.00  0.00    -0.744 OA
ENDBRANCH  74  78
ENDBRANCH  47  71
BRANCH  59  82
ATOM     82  C   UNL A   1      45.197  30.175  28.862  1.00  0.00     0.023 A 
ATOM     83  C   UNL A   1      46.555  30.493  28.703  1.00  0.00     0.031 A 
ATOM     84  C   UNL A   1      44.252  31.029  28.264  1.00  0.00     0.131 A 
ATOM     85  C   UNL A   1      46.935  31.649  28.014  1.00  0.00     0.055 A 
ATOM     86  C   UNL A   1      44.637  32.149  27.518  1.00  0.00     0.041 A 
ATOM     87  F   UNL A   1      42.937  30.856  28.444  1.00  0.00    -0.206 F 
ATOM     88  C   UNL A   1      45.985  32.474  27.405  1.00  0.00     0.022 A 
BRANCH  85  89
ATOM     89  S   UNL A   1      48.666  32.175  28.008  1.00  0.00     0.124 S 
ATOM     90  O   UNL A   1      49.252  31.325  29.041  1.00  0.00    -0.237 OA
ATOM     91  O   UNL A   1      49.075  31.869  26.639  1.00  0.00    -0.237 OA
ATOM     92  O   UNL A   1      48.606  33.597  28.333  1.00  0.00    -0.744 OA
ENDBRANCH  85  89
ENDBRANCH  59  82
ENDBRANCH  33  34
ENDBRANCH  25  28
ENDBRANCH  23  24
ENDBRANCH   1  23
TORSDOF 16
ENDMDL
