MODEL 1
REMARK VINA RESULT:     -13.0      0.000      0.000
REMARK SMILES C[C@@H]1CCC[C@H](C)[N@H+]1Cc1cc2c(cc1Cl)C=C(C(=O)NCCCCNC(=O)c1ccc(-c3c4nc(c(-c5cc(S(=O)(=O)[O-])ccc5F)c5ccc([nH]5)c(-c5cc(S(=O)(=O)[O-])ccc5F)c5nc(c(-c6cc(S(=O)(=O)[O-])ccc6F)c6ccc3[nH]6)C=C5)C=C4)cc1)[C@@H](C(F)(F)F)O2
REMARK SMILES IDX 24 1 23 2 22 3 21 4 19 5 20 6 18 8 10 9 11 10 15 11 12 12
REMARK SMILES IDX 14 13 16 14 13 15 97 16 17 17 92 18 9 19 8 20 7 21 6 22 5 23
REMARK SMILES IDX 4 24 2 25 3 27 1 28 93 29 94 30 95 31 96 32 25 33 26 34
REMARK SMILES IDX 27 35 28 37 29 38 30 39 91 40 31 41 90 42 32 43 33 44 34 45
REMARK SMILES IDX 84 46 35 47 89 48 83 49 85 50 36 51 88 52 82 53 81 54 37 56
REMARK SMILES IDX 69 57 49 58 68 59 50 60 53 61 67 62 86 63 51 64 52 65 66 67
REMARK SMILES IDX 87 68 54 69 38 70 39 71 47 72 40 73 46 74 48 75 45 76 41 77
REMARK SMILES IDX 42 78 43 79 44 80 70 81 71 82 79 83 72 84 78 85 80 86 77 87
REMARK SMILES IDX 73 88 74 89 75 90 76 91 55 92 56 93 64 94 57 95 63 96 65 97
REMARK SMILES IDX 62 98 58 99 59 100 60 101 61 102
REMARK H PARENT 21 7 8 26 26 36 85 55 53 66
REMARK Flexibility Score: inf
ROOT
ATOM      1  C   UNL A   1      36.950  20.591  24.564  1.00  0.00     0.023 C 
ENDROOT
BRANCH   1   2
ATOM      2  C   UNL A   1      36.417  19.253  25.070  1.00  0.00     0.023 C 
BRANCH   2   3
ATOM      3  C   UNL A   1      35.364  18.620  24.166  1.00  0.00     0.116 C 
BRANCH   3   4
ATOM      4  N   UNL A   1      34.133  18.346  24.883  1.00  0.00    -0.352 N 
ATOM      5  C   UNL A   1      33.059  19.061  25.291  1.00  0.00     0.251 C 
ATOM      6  O   UNL A   1      32.163  18.410  25.838  1.00  0.00    -0.270 OA
ATOM      7  H   UNL A   1      34.060  17.397  25.137  1.00  0.00     0.163 HD
BRANCH   5   8
ATOM      8  C   UNL A   1      32.910  20.536  25.152  1.00  0.00     0.067 C 
ATOM      9  C   UNL A   1      31.697  25.035  23.222  1.00  0.00     0.029 A 
ATOM     10  C   UNL A   1      31.557  24.431  24.483  1.00  0.00     0.058 A 
ATOM     11  C   UNL A   1      32.476  24.372  22.257  1.00  0.00     0.050 A 
ATOM     12  C   UNL A   1      32.039  23.147  24.709  1.00  0.00     0.128 A 
ATOM     13  C   UNL A   1      32.926  23.063  22.477  1.00  0.00     0.033 A 
ATOM     14  Cl  UNL A   1      32.918  25.100  20.753  1.00  0.00    -0.084 Cl
ATOM     15  C   UNL A   1      32.664  22.431  23.689  1.00  0.00     0.019 A 
ATOM     16  O   UNL A   1      31.807  22.604  25.943  1.00  0.00    -0.475 OA
ATOM     17  C   UNL A   1      32.939  21.014  23.893  1.00  0.00     0.025 C 
ATOM     18  C   UNL A   1      32.688  21.494  26.287  1.00  0.00     0.314 C 
BRANCH   9  19
ATOM     19  C   UNL A   1      30.933  26.315  22.949  1.00  0.00     0.301 C 
BRANCH  19  20
ATOM     20  N   UNL A   1      31.570  27.575  23.400  1.00  0.00    -0.327 N 
ATOM     21  C   UNL A   1      33.566  28.905  22.804  1.00  0.00     0.075 C 
ATOM     22  C   UNL A   1      33.042  27.583  23.386  1.00  0.00     0.181 C 
ATOM     23  C   UNL A   1      33.707  27.299  24.744  1.00  0.00     0.065 C 
ATOM     24  C   UNL A   1      33.082  28.071  25.897  1.00  0.00     0.012 C 
ATOM     25  C   UNL A   1      30.918  28.210  24.556  1.00  0.00     0.181 C 
ATOM     26  H   UNL A   1      31.365  28.233  22.648  1.00  0.00     0.348 HD
ATOM     27  C   UNL A   1      31.572  27.885  25.908  1.00  0.00     0.065 C 
ATOM     28  C   UNL A   1      30.793  29.727  24.357  1.00  0.00     0.075 C 
ENDBRANCH  19  20
ENDBRANCH   9  19
BRANCH  18  29
ATOM     29  C   UNL A   1      34.019  22.029  26.860  1.00  0.00     0.429 C 
ATOM     30  F   UNL A   1      34.850  22.407  25.857  1.00  0.00    -0.167 F 
ATOM     31  F   UNL A   1      33.842  23.116  27.648  1.00  0.00    -0.167 F 
ATOM     32  F   UNL A   1      34.681  21.115  27.606  1.00  0.00    -0.167 F 
ENDBRANCH  18  29
ENDBRANCH   5   8
ENDBRANCH   3   4
ENDBRANCH   2   3
ENDBRANCH   1   2
BRANCH   1  33
ATOM     33  C   UNL A   1      38.110  21.173  25.366  1.00  0.00     0.116 C 
BRANCH  33  34
ATOM     34  N   UNL A   1      39.165  20.212  25.674  1.00  0.00    -0.352 N 
ATOM     35  C   UNL A   1      40.295  20.427  26.433  1.00  0.00     0.251 C 
ATOM     36  H   UNL A   1      39.057  19.310  25.297  1.00  0.00     0.163 HD
ATOM     37  O   UNL A   1      41.140  19.550  26.570  1.00  0.00    -0.269 OA
BRANCH  35  38
ATOM     38  C   UNL A   1      40.476  21.765  27.024  1.00  0.00     0.039 A 
ATOM     39  C   UNL A   1      39.848  22.864  26.433  1.00  0.00     0.014 A 
ATOM     40  C   UNL A   1      41.409  21.933  28.048  1.00  0.00     0.014 A 
ATOM     41  C   UNL A   1      40.298  24.141  26.739  1.00  0.00     0.010 A 
ATOM     42  C   UNL A   1      41.795  23.224  28.413  1.00  0.00     0.010 A 
ATOM     43  C   UNL A   1      41.291  24.334  27.716  1.00  0.00    -0.014 A 
BRANCH  43  44
ATOM     44  C   UNL A   1      41.797  25.705  27.978  1.00  0.00     0.031 A 
ATOM     45  C   UNL A   1      43.135  26.148  27.452  1.00  0.00     0.074 A 
ATOM     46  C   UNL A   1      41.007  26.570  28.641  1.00  0.00     0.049 A 
ATOM     47  N   UNL A   1      43.719  27.314  27.571  1.00  0.00    -0.248 NA
ATOM     48  C   UNL A   1      43.924  25.160  26.697  1.00  0.00     0.031 C 
ATOM     49  C   UNL A   1      39.683  26.248  29.173  1.00  0.00     0.029 A 
ATOM     50  N   UNL A   1      41.181  27.894  28.956  1.00  0.00    -0.354 N 
ATOM     51  C   UNL A   1      44.945  27.195  26.925  1.00  0.00     0.074 A 
ATOM     52  C   UNL A   1      45.037  25.837  26.442  1.00  0.00     0.031 C 
ATOM     53  C   UNL A   1      39.139  27.353  29.695  1.00  0.00     0.029 A 
ATOM     54  C   UNL A   1      40.104  28.447  29.609  1.00  0.00     0.049 A 
ATOM     55  H   UNL A   1      41.997  28.398  28.736  1.00  0.00     0.167 HD
ATOM     56  C   UNL A   1      45.898  28.142  26.746  1.00  0.00     0.034 A 
ATOM     57  C   UNL A   1      39.917  29.688  30.101  1.00  0.00     0.034 A 
ATOM     58  C   UNL A   1      45.778  29.500  27.214  1.00  0.00     0.049 A 
ATOM     59  C   UNL A   1      41.008  30.708  29.923  1.00  0.00     0.074 A 
ATOM     60  C   UNL A   1      46.676  30.540  27.056  1.00  0.00     0.029 A 
ATOM     61  N   UNL A   1      44.698  30.009  27.922  1.00  0.00    -0.354 N 
ATOM     62  N   UNL A   1      42.152  30.587  29.290  1.00  0.00    -0.248 NA
ATOM     63  C   UNL A   1      40.795  32.029  30.529  1.00  0.00     0.031 C 
ATOM     64  C   UNL A   1      46.165  31.662  27.712  1.00  0.00     0.029 A 
ATOM     65  C   UNL A   1      44.920  31.341  28.231  1.00  0.00     0.049 A 
ATOM     66  H   UNL A   1      43.893  29.499  28.168  1.00  0.00     0.167 HD
ATOM     67  C   UNL A   1      42.792  31.814  29.418  1.00  0.00     0.074 A 
ATOM     68  C   UNL A   1      41.893  32.676  30.159  1.00  0.00     0.031 C 
ATOM     69  C   UNL A   1      44.018  32.189  28.972  1.00  0.00     0.034 A 
BRANCH  56  70
ATOM     70  C   UNL A   1      47.158  27.771  26.003  1.00  0.00     0.023 A 
ATOM     71  C   UNL A   1      47.238  27.962  24.611  1.00  0.00     0.031 A 
ATOM     72  C   UNL A   1      48.223  27.117  26.648  1.00  0.00     0.131 A 
ATOM     73  C   UNL A   1      48.345  27.475  23.904  1.00  0.00     0.055 A 
ATOM     74  C   UNL A   1      49.339  26.663  25.943  1.00  0.00     0.041 A 
ATOM     75  F   UNL A   1      48.195  26.915  27.975  1.00  0.00    -0.206 F 
ATOM     76  C   UNL A   1      49.397  26.831  24.562  1.00  0.00     0.022 A 
BRANCH  73  77
ATOM     77  S   UNL A   1      48.439  27.606  22.097  1.00  0.00     0.124 S 
ATOM     78  O   UNL A   1      49.579  28.504  21.922  1.00  0.00    -0.237 OA
ATOM     79  O   UNL A   1      48.670  26.220  21.700  1.00  0.00    -0.237 OA
ATOM     80  O   UNL A   1      47.145  28.164  21.717  1.00  0.00    -0.744 OA
ENDBRANCH  73  77
ENDBRANCH  56  70
BRANCH  57  81
ATOM     81  C   UNL A   1      38.624  30.010  30.770  1.00  0.00     0.023 A 
ATOM     82  C   UNL A   1      37.602  30.684  30.076  1.00  0.00     0.031 A 
ATOM     83  C   UNL A   1      38.446  29.773  32.143  1.00  0.00     0.131 A 
ATOM     84  C   UNL A   1      36.492  31.177  30.774  1.00  0.00     0.055 A 
ATOM     85  C   UNL A   1      37.303  30.198  32.820  1.00  0.00     0.041 A 
ATOM     86  F   UNL A   1      39.399  29.143  32.849  1.00  0.00    -0.206 F 
ATOM     87  C   UNL A   1      36.329  30.924  32.140  1.00  0.00     0.022 A 
BRANCH  84  88
ATOM     88  S   UNL A   1      35.315  32.299  29.969  1.00  0.00     0.124 S 
ATOM     89  O   UNL A   1      34.377  32.580  31.051  1.00  0.00    -0.237 OA
ATOM     90  O   UNL A   1      36.180  33.409  29.577  1.00  0.00    -0.237 OA
ATOM     91  O   UNL A   1      34.787  31.506  28.864  1.00  0.00    -0.744 OA
ENDBRANCH  84  88
ENDBRANCH  57  81
BRANCH  69  92
ATOM     92  C   UNL A   1      44.493  33.587  29.278  1.00  0.00     0.023 A 
ATOM     93  C   UNL A   1      44.148  34.655  28.428  1.00  0.00     0.031 A 
ATOM     94  C   UNL A   1      45.401  33.830  30.323  1.00  0.00     0.131 A 
ATOM     95  C   UNL A   1      44.743  35.909  28.613  1.00  0.00     0.055 A 
ATOM     96  C   UNL A   1      45.958  35.093  30.529  1.00  0.00     0.041 A 
ATOM     97  F   UNL A   1      45.764  32.840  31.154  1.00  0.00    -0.206 F 
ATOM     98  C   UNL A   1      45.639  36.136  29.663  1.00  0.00     0.022 A 
BRANCH  95  99
ATOM     99  S   UNL A   1      44.438  37.269  27.451  1.00  0.00     0.124 S 
ATOM    100  O   UNL A   1      43.302  36.763  26.685  1.00  0.00    -0.237 OA
ATOM    101  O   UNL A   1      44.139  38.380  28.351  1.00  0.00    -0.237 OA
ATOM    102  O   UNL A   1      45.688  37.384  26.707  1.00  0.00    -0.744 OA
ENDBRANCH  95  99
ENDBRANCH  69  92
ENDBRANCH  43  44
ENDBRANCH  35  38
ENDBRANCH  33  34
ENDBRANCH   1  33
TORSDOF 17
ENDMDL
MODEL 2
REMARK VINA RESULT:     -13.0      5.124     10.706
REMARK SMILES C[C@@H]1CCC[C@H](C)[N@H+]1Cc1cc2c(cc1Cl)C=C(C(=O)NCCCCNC(=O)c1ccc(-c3c4nc(c(-c5cc(S(=O)(=O)[O-])ccc5F)c5ccc([nH]5)c(-c5cc(S(=O)(=O)[O-])ccc5F)c5nc(c(-c6cc(S(=O)(=O)[O-])ccc6F)c6ccc3[nH]6)C=C5)C=C4)cc1)[C@@H](C(F)(F)F)O2
REMARK SMILES IDX 24 1 23 2 22 3 21 4 19 5 20 6 18 8 10 9 11 10 15 11 12 12
REMARK SMILES IDX 14 13 16 14 13 15 97 16 17 17 92 18 9 19 8 20 7 21 6 22 5 23
REMARK SMILES IDX 4 24 2 25 3 27 1 28 93 29 94 30 95 31 96 32 25 33 26 34
REMARK SMILES IDX 27 35 28 37 29 38 30 39 91 40 31 41 90 42 32 43 33 44 34 45
REMARK SMILES IDX 84 46 35 47 89 48 83 49 85 50 36 51 88 52 82 53 81 54 37 56
REMARK SMILES IDX 69 57 49 58 68 59 50 60 53 61 67 62 86 63 51 64 52 65 66 67
REMARK SMILES IDX 87 68 54 69 38 70 39 71 47 72 40 73 46 74 48 75 45 76 41 77
REMARK SMILES IDX 42 78 43 79 44 80 70 81 71 82 79 83 72 84 78 85 80 86 77 87
REMARK SMILES IDX 73 88 74 89 75 90 76 91 55 92 56 93 64 94 57 95 63 96 65 97
REMARK SMILES IDX 62 98 58 99 59 100 60 101 61 102
REMARK H PARENT 21 7 8 26 26 36 85 55 53 66
REMARK Flexibility Score: inf
ROOT
ATOM      1  C   UNL A   1      31.486  31.924  26.921  1.00  0.00     0.023 C 
ENDROOT
BRANCH   1   2
ATOM      2  C   UNL A   1      32.032  30.498  26.948  1.00  0.00     0.023 C 
BRANCH   2   3
ATOM      3  C   UNL A   1      32.434  29.960  25.579  1.00  0.00     0.116 C 
BRANCH   3   4
ATOM      4  N   UNL A   1      31.390  30.158  24.592  1.00  0.00    -0.352 N 
ATOM      5  C   UNL A   1      30.584  29.366  23.847  1.00  0.00     0.251 C 
ATOM      6  O   UNL A   1      29.755  29.958  23.148  1.00  0.00    -0.270 OA
ATOM      7  H   UNL A   1      31.224  31.114  24.421  1.00  0.00     0.163 HD
BRANCH   5   8
ATOM      8  C   UNL A   1      30.655  27.880  23.798  1.00  0.00     0.067 C 
ATOM      9  C   UNL A   1      32.490  23.220  23.197  1.00  0.00     0.029 A 
ATOM     10  C   UNL A   1      31.706  23.854  24.176  1.00  0.00     0.058 A 
ATOM     11  C   UNL A   1      32.741  23.917  22.001  1.00  0.00     0.050 A 
ATOM     12  C   UNL A   1      31.331  25.185  24.029  1.00  0.00     0.128 A 
ATOM     13  C   UNL A   1      32.395  25.269  21.875  1.00  0.00     0.033 A 
ATOM     14  Cl  UNL A   1      33.491  23.178  20.631  1.00  0.00    -0.084 Cl
ATOM     15  C   UNL A   1      31.731  25.918  22.912  1.00  0.00     0.019 A 
ATOM     16  O   UNL A   1      30.624  25.749  25.055  1.00  0.00    -0.475 OA
ATOM     17  C   UNL A   1      31.523  27.361  22.908  1.00  0.00     0.025 C 
ATOM     18  C   UNL A   1      29.880  26.947  24.685  1.00  0.00     0.314 C 
BRANCH   9  19
ATOM     19  C   UNL A   1      33.088  21.866  23.521  1.00  0.00     0.301 C 
BRANCH  19  20
ATOM     20  N   UNL A   1      34.505  21.854  23.953  1.00  0.00    -0.327 N 
ATOM     21  C   UNL A   1      36.050  20.258  25.038  1.00  0.00     0.075 C 
ATOM     22  C   UNL A   1      34.784  21.114  25.194  1.00  0.00     0.181 C 
ATOM     23  C   UNL A   1      34.884  21.983  26.461  1.00  0.00     0.065 C 
ATOM     24  C   UNL A   1      35.725  23.237  26.270  1.00  0.00     0.012 C 
ATOM     25  C   UNL A   1      35.210  23.132  23.775  1.00  0.00     0.181 C 
ATOM     26  H   UNL A   1      34.964  21.257  23.265  1.00  0.00     0.348 HD
ATOM     27  C   UNL A   1      35.267  24.006  25.038  1.00  0.00     0.065 C 
ATOM     28  C   UNL A   1      36.614  22.915  23.193  1.00  0.00     0.075 C 
ENDBRANCH  19  20
ENDBRANCH   9  19
BRANCH  18  29
ATOM     29  C   UNL A   1      28.520  26.559  24.064  1.00  0.00     0.429 C 
ATOM     30  F   UNL A   1      27.925  27.643  23.508  1.00  0.00    -0.167 F 
ATOM     31  F   UNL A   1      28.646  25.637  23.080  1.00  0.00    -0.167 F 
ATOM     32  F   UNL A   1      27.652  26.045  24.966  1.00  0.00    -0.167 F 
ENDBRANCH  18  29
ENDBRANCH   5   8
ENDBRANCH   3   4
ENDBRANCH   2   3
ENDBRANCH   1   2
BRANCH   1  33
ATOM     33  C   UNL A   1      32.533  33.016  26.723  1.00  0.00     0.116 C 
BRANCH  33  34
ATOM     34  N   UNL A   1      32.403  34.142  27.641  1.00  0.00    -0.352 N 
ATOM     35  C   UNL A   1      33.252  34.481  28.673  1.00  0.00     0.251 C 
ATOM     36  H   UNL A   1      31.621  34.726  27.510  1.00  0.00     0.163 HD
ATOM     37  O   UNL A   1      33.000  35.424  29.415  1.00  0.00    -0.269 OA
BRANCH  35  38
ATOM     38  C   UNL A   1      34.440  33.636  28.885  1.00  0.00     0.039 A 
ATOM     39  C   UNL A   1      34.288  32.376  29.467  1.00  0.00     0.014 A 
ATOM     40  C   UNL A   1      35.707  34.181  28.666  1.00  0.00     0.014 A 
ATOM     41  C   UNL A   1      35.401  31.744  30.004  1.00  0.00     0.010 A 
ATOM     42  C   UNL A   1      36.831  33.498  29.133  1.00  0.00     0.010 A 
ATOM     43  C   UNL A   1      36.681  32.308  29.862  1.00  0.00    -0.014 A 
BRANCH  43  44
ATOM     44  C   UNL A   1      37.844  31.642  30.500  1.00  0.00     0.031 A 
ATOM     45  C   UNL A   1      38.216  31.936  31.928  1.00  0.00     0.074 A 
ATOM     46  C   UNL A   1      38.527  30.718  29.798  1.00  0.00     0.049 A 
ATOM     47  N   UNL A   1      39.186  31.429  32.646  1.00  0.00    -0.248 NA
ATOM     48  C   UNL A   1      37.396  32.926  32.648  1.00  0.00     0.031 C 
ATOM     49  C   UNL A   1      38.235  30.342  28.414  1.00  0.00     0.029 A 
ATOM     50  N   UNL A   1      39.577  29.909  30.149  1.00  0.00    -0.354 N 
ATOM     51  C   UNL A   1      39.107  32.048  33.889  1.00  0.00     0.074 A 
ATOM     52  C   UNL A   1      38.013  32.990  33.822  1.00  0.00     0.031 C 
ATOM     53  C   UNL A   1      39.043  29.339  28.053  1.00  0.00     0.029 A 
ATOM     54  C   UNL A   1      39.966  29.051  29.148  1.00  0.00     0.049 A 
ATOM     55  H   UNL A   1      40.010  29.940  31.033  1.00  0.00     0.167 HD
ATOM     56  C   UNL A   1      39.872  31.837  34.986  1.00  0.00     0.034 A 
ATOM     57  C   UNL A   1      40.963  28.144  29.104  1.00  0.00     0.034 A 
ATOM     58  C   UNL A   1      40.944  30.875  35.043  1.00  0.00     0.049 A 
ATOM     59  C   UNL A   1      41.824  27.958  30.324  1.00  0.00     0.074 A 
ATOM     60  C   UNL A   1      41.760  30.566  36.117  1.00  0.00     0.029 A 
ATOM     61  N   UNL A   1      41.347  30.063  33.991  1.00  0.00    -0.354 N 
ATOM     62  N   UNL A   1      41.721  28.535  31.499  1.00  0.00    -0.248 NA
ATOM     63  C   UNL A   1      42.941  27.010  30.216  1.00  0.00     0.031 C 
ATOM     64  C   UNL A   1      42.687  29.608  35.702  1.00  0.00     0.029 A 
ATOM     65  C   UNL A   1      42.416  29.275  34.384  1.00  0.00     0.049 A 
ATOM     66  H   UNL A   1      40.934  30.050  33.097  1.00  0.00     0.167 HD
ATOM     67  C   UNL A   1      42.756  28.017  32.271  1.00  0.00     0.074 A 
ATOM     68  C   UNL A   1      43.451  27.055  31.440  1.00  0.00     0.031 C 
ATOM     69  C   UNL A   1      43.103  28.320  33.547  1.00  0.00     0.034 A 
BRANCH  56  70
ATOM     70  C   UNL A   1      39.592  32.638  36.233  1.00  0.00     0.023 A 
ATOM     71  C   UNL A   1      38.657  32.170  37.177  1.00  0.00     0.031 A 
ATOM     72  C   UNL A   1      40.148  33.915  36.425  1.00  0.00     0.131 A 
ATOM     73  C   UNL A   1      38.284  32.987  38.251  1.00  0.00     0.055 A 
ATOM     74  C   UNL A   1      39.797  34.712  37.515  1.00  0.00     0.041 A 
ATOM     75  F   UNL A   1      41.046  34.404  35.554  1.00  0.00    -0.206 F 
ATOM     76  C   UNL A   1      38.851  34.253  38.428  1.00  0.00     0.022 A 
BRANCH  73  77
ATOM     77  S   UNL A   1      37.007  32.466  39.430  1.00  0.00     0.124 S 
ATOM     78  O   UNL A   1      35.784  32.692  38.662  1.00  0.00    -0.237 OA
ATOM     79  O   UNL A   1      37.351  31.066  39.656  1.00  0.00    -0.237 OA
ATOM     80  O   UNL A   1      37.197  33.356  40.570  1.00  0.00    -0.744 OA
ENDBRANCH  73  77
ENDBRANCH  56  70
BRANCH  57  81
ATOM     81  C   UNL A   1      41.151  27.339  27.864  1.00  0.00     0.023 A 
ATOM     82  C   UNL A   1      40.808  25.974  27.831  1.00  0.00     0.031 A 
ATOM     83  C   UNL A   1      41.800  27.884  26.744  1.00  0.00     0.131 A 
ATOM     84  C   UNL A   1      41.195  25.183  26.743  1.00  0.00     0.055 A 
ATOM     85  C   UNL A   1      42.116  27.108  25.628  1.00  0.00     0.041 A 
ATOM     86  F   UNL A   1      42.156  29.178  26.733  1.00  0.00    -0.206 F 
ATOM     87  C   UNL A   1      41.834  25.745  25.633  1.00  0.00     0.022 A 
BRANCH  84  88
ATOM     88  S   UNL A   1      41.033  23.377  26.807  1.00  0.00     0.124 S 
ATOM     89  O   UNL A   1      41.433  23.085  28.180  1.00  0.00    -0.237 OA
ATOM     90  O   UNL A   1      39.615  23.193  26.508  1.00  0.00    -0.237 OA
ATOM     91  O   UNL A   1      41.948  22.913  25.769  1.00  0.00    -0.744 OA
ENDBRANCH  84  88
ENDBRANCH  57  81
BRANCH  69  92
ATOM     92  C   UNL A   1      44.302  27.628  34.144  1.00  0.00     0.023 A 
ATOM     93  C   UNL A   1      44.158  26.380  34.778  1.00  0.00     0.031 A 
ATOM     94  C   UNL A   1      45.550  28.273  34.213  1.00  0.00     0.131 A 
ATOM     95  C   UNL A   1      45.233  25.834  35.490  1.00  0.00     0.055 A 
ATOM     96  C   UNL A   1      46.631  27.704  34.887  1.00  0.00     0.041 A 
ATOM     97  F   UNL A   1      45.731  29.468  33.630  1.00  0.00    -0.206 F 
ATOM     98  C   UNL A   1      46.470  26.485  35.541  1.00  0.00     0.022 A 
BRANCH  95  99
ATOM     99  S   UNL A   1      45.043  24.301  36.441  1.00  0.00     0.124 S 
ATOM    100  O   UNL A   1      43.873  23.696  35.808  1.00  0.00    -0.237 OA
ATOM    101  O   UNL A   1      46.311  23.622  36.186  1.00  0.00    -0.237 OA
ATOM    102  O   UNL A   1      44.841  24.759  37.811  1.00  0.00    -0.744 OA
ENDBRANCH  95  99
ENDBRANCH  69  92
ENDBRANCH  43  44
ENDBRANCH  35  38
ENDBRANCH  33  34
ENDBRANCH   1  33
TORSDOF 17
ENDMDL
MODEL 3
REMARK VINA RESULT:     -12.8      2.011      2.402
REMARK SMILES C[C@@H]1CCC[C@H](C)[N@H+]1Cc1cc2c(cc1Cl)C=C(C(=O)NCCCCNC(=O)c1ccc(-c3c4nc(c(-c5cc(S(=O)(=O)[O-])ccc5F)c5ccc([nH]5)c(-c5cc(S(=O)(=O)[O-])ccc5F)c5nc(c(-c6cc(S(=O)(=O)[O-])ccc6F)c6ccc3[nH]6)C=C5)C=C4)cc1)[C@@H](C(F)(F)F)O2
REMARK SMILES IDX 24 1 23 2 22 3 21 4 19 5 20 6 18 8 10 9 11 10 15 11 12 12
REMARK SMILES IDX 14 13 16 14 13 15 97 16 17 17 92 18 9 19 8 20 7 21 6 22 5 23
REMARK SMILES IDX 4 24 2 25 3 27 1 28 93 29 94 30 95 31 96 32 25 33 26 34
REMARK SMILES IDX 27 35 28 37 29 38 30 39 91 40 31 41 90 42 32 43 33 44 34 45
REMARK SMILES IDX 84 46 35 47 89 48 83 49 85 50 36 51 88 52 82 53 81 54 37 56
REMARK SMILES IDX 69 57 49 58 68 59 50 60 53 61 67 62 86 63 51 64 52 65 66 67
REMARK SMILES IDX 87 68 54 69 38 70 39 71 47 72 40 73 46 74 48 75 45 76 41 77
REMARK SMILES IDX 42 78 43 79 44 80 70 81 71 82 79 83 72 84 78 85 80 86 77 87
REMARK SMILES IDX 73 88 74 89 75 90 76 91 55 92 56 93 64 94 57 95 63 96 65 97
REMARK SMILES IDX 62 98 58 99 59 100 60 101 61 102
REMARK H PARENT 21 7 8 26 26 36 85 55 53 66
REMARK Flexibility Score: inf
ROOT
ATOM      1  C   UNL A   1      35.901  20.878  25.412  1.00  0.00     0.023 C 
ENDROOT
BRANCH   1   2
ATOM      2  C   UNL A   1      35.227  21.899  26.326  1.00  0.00     0.023 C 
BRANCH   2   3
ATOM      3  C   UNL A   1      34.162  21.307  27.243  1.00  0.00     0.116 C 
BRANCH   3   4
ATOM      4  N   UNL A   1      33.383  20.283  26.573  1.00  0.00    -0.352 N 
ATOM      5  C   UNL A   1      32.618  20.207  25.460  1.00  0.00     0.251 C 
ATOM      6  O   UNL A   1      32.164  19.087  25.201  1.00  0.00    -0.270 OA
ATOM      7  H   UNL A   1      33.421  19.422  27.051  1.00  0.00     0.163 HD
BRANCH   5   8
ATOM      8  C   UNL A   1      32.279  21.356  24.576  1.00  0.00     0.067 C 
ATOM      9  C   UNL A   1      30.952  25.992  23.096  1.00  0.00     0.029 A 
ATOM     10  C   UNL A   1      31.949  25.080  22.711  1.00  0.00     0.058 A 
ATOM     11  C   UNL A   1      29.954  25.542  23.979  1.00  0.00     0.050 A 
ATOM     12  C   UNL A   1      32.033  23.829  23.312  1.00  0.00     0.128 A 
ATOM     13  C   UNL A   1      30.066  24.296  24.611  1.00  0.00     0.033 A 
ATOM     14  Cl  UNL A   1      28.551  26.478  24.356  1.00  0.00    -0.084 Cl
ATOM     15  C   UNL A   1      31.136  23.458  24.312  1.00  0.00     0.019 A 
ATOM     16  O   UNL A   1      33.071  23.024  22.929  1.00  0.00    -0.475 OA
ATOM     17  C   UNL A   1      31.400  22.245  25.077  1.00  0.00     0.025 C 
ATOM     18  C   UNL A   1      32.872  21.609  23.219  1.00  0.00     0.314 C 
BRANCH   9  19
ATOM     19  C   UNL A   1      31.058  27.422  22.608  1.00  0.00     0.301 C 
BRANCH  19  20
ATOM     20  N   UNL A   1      31.860  28.348  23.440  1.00  0.00    -0.327 N 
ATOM     21  C   UNL A   1      34.116  29.356  23.361  1.00  0.00     0.075 C 
ATOM     22  C   UNL A   1      33.303  28.061  23.501  1.00  0.00     0.181 C 
ATOM     23  C   UNL A   1      33.759  27.278  24.745  1.00  0.00     0.065 C 
ATOM     24  C   UNL A   1      33.165  27.807  26.043  1.00  0.00     0.012 C 
ATOM     25  C   UNL A   1      31.216  28.754  24.699  1.00  0.00     0.181 C 
ATOM     26  H   UNL A   1      31.859  29.218  22.908  1.00  0.00     0.348 HD
ATOM     27  C   UNL A   1      31.653  27.937  25.926  1.00  0.00     0.065 C 
ATOM     28  C   UNL A   1      31.389  30.258  24.951  1.00  0.00     0.075 C 
ENDBRANCH  19  20
ENDBRANCH   9  19
BRANCH  18  29
ATOM     29  C   UNL A   1      32.046  20.945  22.096  1.00  0.00     0.429 C 
ATOM     30  F   UNL A   1      32.145  19.595  22.167  1.00  0.00    -0.167 F 
ATOM     31  F   UNL A   1      30.727  21.243  22.182  1.00  0.00    -0.167 F 
ATOM     32  F   UNL A   1      32.444  21.312  20.856  1.00  0.00    -0.167 F 
ENDBRANCH  18  29
ENDBRANCH   5   8
ENDBRANCH   3   4
ENDBRANCH   2   3
ENDBRANCH   1   2
BRANCH   1  33
ATOM     33  C   UNL A   1      37.312  21.242  24.961  1.00  0.00     0.116 C 
BRANCH  33  34
ATOM     34  N   UNL A   1      38.293  20.179  25.152  1.00  0.00    -0.352 N 
ATOM     35  C   UNL A   1      39.463  20.242  25.879  1.00  0.00     0.251 C 
ATOM     36  H   UNL A   1      38.099  19.320  24.712  1.00  0.00     0.163 HD
ATOM     37  O   UNL A   1      40.236  19.292  25.915  1.00  0.00    -0.269 OA
BRANCH  35  38
ATOM     38  C   UNL A   1      39.773  21.509  26.564  1.00  0.00     0.039 A 
ATOM     39  C   UNL A   1      39.187  22.693  26.109  1.00  0.00     0.014 A 
ATOM     40  C   UNL A   1      40.778  21.529  27.532  1.00  0.00     0.014 A 
ATOM     41  C   UNL A   1      39.743  23.907  26.486  1.00  0.00     0.010 A 
ATOM     42  C   UNL A   1      41.276  22.756  27.973  1.00  0.00     0.010 A 
ATOM     43  C   UNL A   1      40.806  23.952  27.405  1.00  0.00    -0.014 A 
BRANCH  43  44
ATOM     44  C   UNL A   1      41.422  25.260  27.742  1.00  0.00     0.031 A 
ATOM     45  C   UNL A   1      42.813  25.601  27.282  1.00  0.00     0.074 A 
ATOM     46  C   UNL A   1      40.688  26.166  28.415  1.00  0.00     0.049 A 
ATOM     47  N   UNL A   1      43.493  26.703  27.470  1.00  0.00    -0.248 NA
ATOM     48  C   UNL A   1      43.539  24.577  26.512  1.00  0.00     0.031 C 
ATOM     49  C   UNL A   1      39.322  25.944  28.888  1.00  0.00     0.029 A 
ATOM     50  N   UNL A   1      40.967  27.455  28.793  1.00  0.00    -0.354 N 
ATOM     51  C   UNL A   1      44.727  26.501  26.862  1.00  0.00     0.074 A 
ATOM     52  C   UNL A   1      44.716  25.160  26.323  1.00  0.00     0.031 C 
ATOM     53  C   UNL A   1      38.859  27.072  29.439  1.00  0.00     0.029 A 
ATOM     54  C   UNL A   1      39.920  28.076  29.432  1.00  0.00     0.049 A 
ATOM     55  H   UNL A   1      41.832  27.892  28.622  1.00  0.00     0.167 HD
ATOM     56  C   UNL A   1      45.767  27.364  26.755  1.00  0.00     0.034 A 
ATOM     57  C   UNL A   1      39.825  29.309  29.971  1.00  0.00     0.034 A 
ATOM     58  C   UNL A   1      45.750  28.707  27.277  1.00  0.00     0.049 A 
ATOM     59  C   UNL A   1      41.009  30.233  29.873  1.00  0.00     0.074 A 
ATOM     60  C   UNL A   1      46.742  29.667  27.194  1.00  0.00     0.029 A 
ATOM     61  N   UNL A   1      44.695  29.283  27.969  1.00  0.00    -0.354 N 
ATOM     62  N   UNL A   1      42.160  30.034  29.274  1.00  0.00    -0.248 NA
ATOM     63  C   UNL A   1      40.892  31.542  30.528  1.00  0.00     0.031 C 
ATOM     64  C   UNL A   1      46.309  30.804  27.880  1.00  0.00     0.029 A 
ATOM     65  C   UNL A   1      45.022  30.577  28.342  1.00  0.00     0.049 A 
ATOM     66  H   UNL A   1      43.838  28.839  28.166  1.00  0.00     0.167 HD
ATOM     67  C   UNL A   1      42.902  31.192  29.476  1.00  0.00     0.074 A 
ATOM     68  C   UNL A   1      42.056  32.101  30.223  1.00  0.00     0.031 C 
ATOM     69  C   UNL A   1      44.171  31.473  29.088  1.00  0.00     0.034 A 
BRANCH  56  70
ATOM     70  C   UNL A   1      47.016  26.911  26.040  1.00  0.00     0.023 A 
ATOM     71  C   UNL A   1      48.059  26.301  26.762  1.00  0.00     0.031 A 
ATOM     72  C   UNL A   1      47.225  27.195  24.679  1.00  0.00     0.131 A 
ATOM     73  C   UNL A   1      49.276  26.025  26.126  1.00  0.00     0.055 A 
ATOM     74  C   UNL A   1      48.429  26.888  24.043  1.00  0.00     0.041 A 
ATOM     75  F   UNL A   1      46.259  27.773  23.947  1.00  0.00    -0.206 F 
ATOM     76  C   UNL A   1      49.466  26.311  24.771  1.00  0.00     0.022 A 
BRANCH  73  77
ATOM     77  S   UNL A   1      50.682  25.337  27.044  1.00  0.00     0.124 S 
ATOM     78  O   UNL A   1      51.139  26.499  27.804  1.00  0.00    -0.237 OA
ATOM     79  O   UNL A   1      50.047  24.286  27.835  1.00  0.00    -0.237 OA
ATOM     80  O   UNL A   1      51.594  24.880  26.001  1.00  0.00    -0.744 OA
ENDBRANCH  73  77
ENDBRANCH  56  70
BRANCH  57  81
ATOM     81  C   UNL A   1      38.542  29.720  30.609  1.00  0.00     0.023 A 
ATOM     82  C   UNL A   1      37.575  30.441  29.884  1.00  0.00     0.031 A 
ATOM     83  C   UNL A   1      38.326  29.519  31.982  1.00  0.00     0.131 A 
ATOM     84  C   UNL A   1      36.485  31.011  30.552  1.00  0.00     0.055 A 
ATOM     85  C   UNL A   1      37.197  30.024  32.630  1.00  0.00     0.041 A 
ATOM     86  F   UNL A   1      39.226  28.846  32.717  1.00  0.00    -0.206 F 
ATOM     87  C   UNL A   1      36.281  30.794  31.919  1.00  0.00     0.022 A 
BRANCH  84  88
ATOM     88  S   UNL A   1      35.391  32.187  29.706  1.00  0.00     0.124 S 
ATOM     89  O   UNL A   1      36.323  33.240  29.316  1.00  0.00    -0.237 OA
ATOM     90  O   UNL A   1      34.864  31.372  28.614  1.00  0.00    -0.237 OA
ATOM     91  O   UNL A   1      34.419  32.550  30.731  1.00  0.00    -0.744 OA
ENDBRANCH  84  88
ENDBRANCH  57  81
BRANCH  69  92
ATOM     92  C   UNL A   1      44.757  32.809  29.470  1.00  0.00     0.023 A 
ATOM     93  C   UNL A   1      44.620  33.914  28.610  1.00  0.00     0.031 A 
ATOM     94  C   UNL A   1      45.571  32.944  30.608  1.00  0.00     0.131 A 
ATOM     95  C   UNL A   1      45.321  35.096  28.880  1.00  0.00     0.055 A 
ATOM     96  C   UNL A   1      46.233  34.138  30.896  1.00  0.00     0.041 A 
ATOM     97  F   UNL A   1      45.736  31.913  31.453  1.00  0.00    -0.206 F 
ATOM     98  C   UNL A   1      46.120  35.216  30.023  1.00  0.00     0.022 A 
BRANCH  95  99
ATOM     99  S   UNL A   1      45.287  36.491  27.721  1.00  0.00     0.124 S 
ATOM    100  O   UNL A   1      43.860  36.608  27.432  1.00  0.00    -0.237 OA
ATOM    101  O   UNL A   1      45.852  37.572  28.524  1.00  0.00    -0.237 OA
ATOM    102  O   UNL A   1      46.112  36.042  26.605  1.00  0.00    -0.744 OA
ENDBRANCH  95  99
ENDBRANCH  69  92
ENDBRANCH  43  44
ENDBRANCH  35  38
ENDBRANCH  33  34
ENDBRANCH   1  33
TORSDOF 17
ENDMDL
