MODEL 1
REMARK VINA RESULT:     -13.0      0.000      0.000
REMARK SMILES COc1ccc([C@H]2CC(c3ccccc3)=NN2C(=O)CCCC(=O)NCCCCNC(=O)c2ccc(-c3c4nc(c(-c5cc(S(=O)(=O)[O-])ccc5F)c5ccc([nH]5)c(-c5cc(S(=O)(=O)[O-])ccc5F)c5nc(c(-c6cc(S(=O)(=O)[O-])ccc6F)c6ccc3[nH]6)C=C5)C=C4)cc2)cc1
REMARK SMILES IDX 26 1 25 2 23 3 24 4 22 6 21 7 20 8 18 9 19 10 17 11 7 12
REMARK SMILES IDX 8 13 9 14 16 15 6 16 3 17 4 18 97 19 5 20 96 21 2 22 1 23
REMARK SMILES IDX 10 24 11 25 15 26 12 27 14 28 13 29 27 30 28 31 29 32 30 33
REMARK SMILES IDX 31 34 32 36 33 37 34 38 95 39 35 40 94 41 36 42 37 43 38 44
REMARK SMILES IDX 88 45 39 46 93 47 87 48 89 49 40 50 92 51 86 52 85 53 41 55
REMARK SMILES IDX 73 56 53 57 72 58 54 59 57 60 71 61 90 62 55 63 56 64 70 66
REMARK SMILES IDX 91 67 58 68 42 69 43 70 51 71 44 72 50 73 52 74 49 75 45 76
REMARK SMILES IDX 46 77 47 78 48 79 74 80 75 81 83 82 76 83 82 84 84 85 81 86
REMARK SMILES IDX 77 87 78 88 79 89 80 90 59 91 60 92 68 93 61 94 67 95 69 96
REMARK SMILES IDX 66 97 62 98 63 99 64 100 65 101
REMARK H PARENT 25 5 30 35 89 54 57 65
REMARK Flexibility Score: inf
ROOT
ATOM      1  C   UNL A   1      35.565  32.478  28.272  1.00  0.00     0.116 C 
ENDROOT
BRANCH   1   2
ATOM      2  N   UNL A   1      36.065  31.024  28.265  1.00  0.00    -0.356 N 
ATOM      3  C   UNL A   1      35.731  29.722  27.838  1.00  0.00     0.220 C 
ATOM      4  O   UNL A   1      36.726  28.965  27.817  1.00  0.00    -0.275 OA
ATOM      5  H   UNL A   1      36.933  30.989  28.726  1.00  0.00     0.163 HD
BRANCH   3   6
ATOM      6  C   UNL A   1      34.149  28.900  27.303  1.00  0.00     0.100 C 
BRANCH   6   7
ATOM      7  C   UNL A   1      33.844  27.416  25.700  1.00  0.00     0.020 C 
BRANCH   7   8
ATOM      8  C   UNL A   1      33.624  25.603  25.895  1.00  0.00     0.103 C 
BRANCH   8   9
ATOM      9  C   UNL A   1      32.274  24.800  26.046  1.00  0.00     0.243 C 
ATOM     10  O   UNL A   1      31.434  25.226  26.847  1.00  0.00    -0.273 OA
BRANCH   9  11
ATOM     11  N   UNL A   1      32.021  23.710  25.227  1.00  0.00    -0.225 N 
ATOM     12  C   UNL A   1      31.197  23.712  24.061  1.00  0.00     0.147 C 
ATOM     13  C   UNL A   1      31.880  22.707  23.149  1.00  0.00     0.091 C 
ATOM     14  C   UNL A   1      32.426  21.843  24.259  1.00  0.00     0.071 C 
ATOM     15  N   UNL A   1      32.578  22.453  25.404  1.00  0.00    -0.174 NA
BRANCH  12  16
ATOM     16  C   UNL A   1      31.020  25.114  23.650  1.00  0.00    -0.023 A 
ATOM     17  C   UNL A   1      30.287  28.484  22.688  1.00  0.00     0.118 A 
ATOM     18  C   UNL A   1      31.871  27.857  22.275  1.00  0.00     0.047 A 
ATOM     19  C   UNL A   1      29.103  27.518  23.548  1.00  0.00     0.047 A 
ATOM     20  C   UNL A   1      32.229  26.161  22.677  1.00  0.00     0.010 A 
ATOM     21  C   UNL A   1      29.417  25.827  24.010  1.00  0.00     0.010 A 
BRANCH  17  22
ATOM     22  O   UNL A   1      30.115  29.777  22.276  1.00  0.00    -0.497 OA
ATOM     23  C   UNL A   1      28.876  30.057  21.657  1.00  0.00     0.278 C 
ENDBRANCH  17  22
ENDBRANCH  12  16
BRANCH  14  24
ATOM     24  C   UNL A   1      32.775  20.440  23.997  1.00  0.00    -0.002 A 
ATOM     25  C   UNL A   1      32.114  19.742  22.983  1.00  0.00     0.010 A 
ATOM     26  C   UNL A   1      33.762  19.813  24.761  1.00  0.00     0.010 A 
ATOM     27  C   UNL A   1      32.416  18.396  22.764  1.00  0.00     0.001 A 
ATOM     28  C   UNL A   1      34.041  18.462  24.554  1.00  0.00     0.001 A 
ATOM     29  C   UNL A   1      33.362  17.752  23.563  1.00  0.00     0.000 A 
ENDBRANCH  14  24
ENDBRANCH   9  11
ENDBRANCH   8   9
ENDBRANCH   7   8
ENDBRANCH   6   7
ENDBRANCH   3   6
ENDBRANCH   1   2
BRANCH   1  30
ATOM     30  C   UNL A   1      34.092  32.894  27.955  1.00  0.00     0.023 C 
BRANCH  30  31
ATOM     31  C   UNL A   1      33.653  34.238  28.417  1.00  0.00     0.023 C 
BRANCH  31  32
ATOM     32  C   UNL A   1      33.822  34.406  29.896  1.00  0.00     0.116 C 
BRANCH  32  33
ATOM     33  N   UNL A   1      32.837  35.288  30.525  1.00  0.00    -0.352 N 
ATOM     34  C   UNL A   1      32.788  35.607  31.865  1.00  0.00     0.251 C 
ATOM     35  H   UNL A   1      32.152  35.686  29.941  1.00  0.00     0.163 HD
ATOM     36  O   UNL A   1      31.872  36.254  32.350  1.00  0.00    -0.269 OA
BRANCH  34  37
ATOM     37  C   UNL A   1      33.888  35.069  32.683  1.00  0.00     0.039 A 
ATOM     38  C   UNL A   1      33.748  33.797  33.230  1.00  0.00     0.014 A 
ATOM     39  C   UNL A   1      35.135  35.696  32.588  1.00  0.00     0.014 A 
ATOM     40  C   UNL A   1      34.893  33.117  33.631  1.00  0.00     0.010 A 
ATOM     41  C   UNL A   1      36.272  34.946  32.824  1.00  0.00     0.010 A 
ATOM     42  C   UNL A   1      36.165  33.663  33.380  1.00  0.00    -0.014 A 
BRANCH  42  43
ATOM     43  C   UNL A   1      37.401  32.931  33.746  1.00  0.00     0.031 A 
ATOM     44  C   UNL A   1      38.124  33.316  35.008  1.00  0.00     0.074 A 
ATOM     45  C   UNL A   1      37.880  31.958  32.946  1.00  0.00     0.049 A 
ATOM     46  N   UNL A   1      39.232  32.833  35.505  1.00  0.00    -0.248 NA
ATOM     47  C   UNL A   1      37.545  34.416  35.798  1.00  0.00     0.031 C 
ATOM     48  C   UNL A   1      37.288  31.536  31.673  1.00  0.00     0.029 A 
ATOM     49  N   UNL A   1      38.972  31.139  33.088  1.00  0.00    -0.354 N 
ATOM     50  C   UNL A   1      39.482  33.576  36.652  1.00  0.00     0.074 A 
ATOM     51  C   UNL A   1      38.468  34.603  36.725  1.00  0.00     0.031 C 
ATOM     52  C   UNL A   1      37.993  30.505  31.181  1.00  0.00     0.029 A 
ATOM     53  C   UNL A   1      39.123  30.232  32.064  1.00  0.00     0.049 A 
ATOM     54  H   UNL A   1      39.591  31.195  33.851  1.00  0.00     0.167 HD
ATOM     55  C   UNL A   1      40.447  33.397  37.582  1.00  0.00     0.034 A 
ATOM     56  C   UNL A   1      40.072  29.298  31.855  1.00  0.00     0.034 A 
ATOM     57  C   UNL A   1      41.442  32.361  37.494  1.00  0.00     0.049 A 
ATOM     58  C   UNL A   1      41.170  29.147  32.879  1.00  0.00     0.074 A 
ATOM     59  C   UNL A   1      42.438  32.050  38.400  1.00  0.00     0.029 A 
ATOM     60  N   UNL A   1      41.579  31.478  36.429  1.00  0.00    -0.354 N 
ATOM     61  N   UNL A   1      41.359  29.819  33.993  1.00  0.00    -0.248 NA
ATOM     62  C   UNL A   1      42.176  28.110  32.626  1.00  0.00     0.031 C 
ATOM     63  C   UNL A   1      43.239  31.053  37.839  1.00  0.00     0.029 A 
ATOM     64  C   UNL A   1      42.676  30.657  36.635  1.00  0.00     0.049 A 
ATOM     65  H   UNL A   1      40.984  31.441  35.646  1.00  0.00     0.167 HD
ATOM     66  C   UNL A   1      42.487  29.261  34.587  1.00  0.00     0.074 A 
ATOM     67  C   UNL A   1      42.924  28.189  33.716  1.00  0.00     0.031 C 
ATOM     68  C   UNL A   1      43.105  29.599  35.749  1.00  0.00     0.034 A 
BRANCH  55  69
ATOM     69  C   UNL A   1      40.485  34.362  38.741  1.00  0.00     0.023 A 
ATOM     70  C   UNL A   1      39.765  34.131  39.927  1.00  0.00     0.031 A 
ATOM     71  C   UNL A   1      41.221  35.555  38.643  1.00  0.00     0.131 A 
ATOM     72  C   UNL A   1      39.728  35.112  40.927  1.00  0.00     0.055 A 
ATOM     73  C   UNL A   1      41.263  36.482  39.685  1.00  0.00     0.041 A 
ATOM     74  F   UNL A   1      41.901  35.850  37.523  1.00  0.00    -0.206 F 
ATOM     75  C   UNL A   1      40.500  36.272  40.830  1.00  0.00     0.022 A 
BRANCH  72  76
ATOM     76  S   UNL A   1      38.523  34.934  42.271  1.00  0.00     0.124 S 
ATOM     77  O   UNL A   1      37.260  34.949  41.537  1.00  0.00    -0.237 OA
ATOM     78  O   UNL A   1      38.901  33.658  42.867  1.00  0.00    -0.237 OA
ATOM     79  O   UNL A   1      38.764  36.110  43.105  1.00  0.00    -0.744 OA
ENDBRANCH  72  76
ENDBRANCH  55  69
BRANCH  56  80
ATOM     80  C   UNL A   1      40.051  28.457  30.621  1.00  0.00     0.023 A 
ATOM     81  C   UNL A   1      40.857  28.762  29.512  1.00  0.00     0.031 A 
ATOM     82  C   UNL A   1      39.182  27.355  30.518  1.00  0.00     0.131 A 
ATOM     83  C   UNL A   1      40.740  28.007  28.333  1.00  0.00     0.055 A 
ATOM     84  C   UNL A   1      39.120  26.566  29.369  1.00  0.00     0.041 A 
ATOM     85  F   UNL A   1      38.384  27.021  31.544  1.00  0.00    -0.206 F 
ATOM     86  C   UNL A   1      39.892  26.899  28.262  1.00  0.00     0.022 A 
BRANCH  83  87
ATOM     87  S   UNL A   1      41.629  28.562  26.852  1.00  0.00     0.124 S 
ATOM     88  O   UNL A   1      42.217  27.315  26.377  1.00  0.00    -0.237 OA
ATOM     89  O   UNL A   1      40.551  29.115  26.040  1.00  0.00    -0.237 OA
ATOM     90  O   UNL A   1      42.579  29.541  27.374  1.00  0.00    -0.744 OA
ENDBRANCH  83  87
ENDBRANCH  56  80
BRANCH  68  91
ATOM     91  C   UNL A   1      44.290  28.765  36.172  1.00  0.00     0.023 A 
ATOM     92  C   UNL A   1      44.160  27.683  37.059  1.00  0.00     0.031 A 
ATOM     93  C   UNL A   1      45.572  29.060  35.673  1.00  0.00     0.131 A 
ATOM     94  C   UNL A   1      45.301  26.980  37.471  1.00  0.00     0.055 A 
ATOM     95  C   UNL A   1      46.690  28.303  36.021  1.00  0.00     0.041 A 
ATOM     96  F   UNL A   1      45.758  30.088  34.827  1.00  0.00    -0.206 F 
ATOM     97  C   UNL A   1      46.561  27.265  36.938  1.00  0.00     0.022 A 
BRANCH  94  98
ATOM     98  S   UNL A   1      45.136  25.766  38.807  1.00  0.00     0.124 S 
ATOM     99  O   UNL A   1      44.209  26.439  39.712  1.00  0.00    -0.237 OA
ATOM    100  O   UNL A   1      44.609  24.600  38.107  1.00  0.00    -0.237 OA
ATOM    101  O   UNL A   1      46.501  25.623  39.311  1.00  0.00    -0.744 OA
ENDBRANCH  94  98
ENDBRANCH  68  91
ENDBRANCH  42  43
ENDBRANCH  34  37
ENDBRANCH  32  33
ENDBRANCH  31  32
ENDBRANCH  30  31
ENDBRANCH   1  30
TORSDOF 21
ENDMDL
MODEL 2
REMARK VINA RESULT:     -11.9      3.753      5.568
REMARK SMILES COc1ccc([C@H]2CC(c3ccccc3)=NN2C(=O)CCCC(=O)NCCCCNC(=O)c2ccc(-c3c4nc(c(-c5cc(S(=O)(=O)[O-])ccc5F)c5ccc([nH]5)c(-c5cc(S(=O)(=O)[O-])ccc5F)c5nc(c(-c6cc(S(=O)(=O)[O-])ccc6F)c6ccc3[nH]6)C=C5)C=C4)cc2)cc1
REMARK SMILES IDX 26 1 25 2 23 3 24 4 22 6 21 7 20 8 18 9 19 10 17 11 7 12
REMARK SMILES IDX 8 13 9 14 16 15 6 16 3 17 4 18 97 19 5 20 96 21 2 22 1 23
REMARK SMILES IDX 10 24 11 25 15 26 12 27 14 28 13 29 27 30 28 31 29 32 30 33
REMARK SMILES IDX 31 34 32 36 33 37 34 38 95 39 35 40 94 41 36 42 37 43 38 44
REMARK SMILES IDX 88 45 39 46 93 47 87 48 89 49 40 50 92 51 86 52 85 53 41 55
REMARK SMILES IDX 73 56 53 57 72 58 54 59 57 60 71 61 90 62 55 63 56 64 70 66
REMARK SMILES IDX 91 67 58 68 42 69 43 70 51 71 44 72 50 73 52 74 49 75 45 76
REMARK SMILES IDX 46 77 47 78 48 79 74 80 75 81 83 82 76 83 82 84 84 85 81 86
REMARK SMILES IDX 77 87 78 88 79 89 80 90 59 91 60 92 68 93 61 94 67 95 69 96
REMARK SMILES IDX 66 97 62 98 63 99 64 100 65 101
REMARK H PARENT 25 5 30 35 89 54 57 65
REMARK Flexibility Score: inf
ROOT
ATOM      1  C   UNL A   1      34.593  31.120  27.883  1.00  0.00     0.116 C 
ENDROOT
BRANCH   1   2
ATOM      2  N   UNL A   1      33.372  30.926  26.969  1.00  0.00    -0.356 N 
ATOM      3  C   UNL A   1      32.410  29.979  26.563  1.00  0.00     0.220 C 
ATOM      4  O   UNL A   1      31.417  30.518  26.027  1.00  0.00    -0.275 OA
ATOM      5  H   UNL A   1      33.199  31.771  26.494  1.00  0.00     0.163 HD
BRANCH   3   6
ATOM      6  C   UNL A   1      32.300  28.123  26.654  1.00  0.00     0.100 C 
BRANCH   6   7
ATOM      7  C   UNL A   1      33.695  26.621  25.839  1.00  0.00     0.020 C 
BRANCH   7   8
ATOM      8  C   UNL A   1      33.664  24.808  26.126  1.00  0.00     0.103 C 
BRANCH   8   9
ATOM      9  C   UNL A   1      32.404  23.871  26.286  1.00  0.00     0.243 C 
ATOM     10  O   UNL A   1      31.603  24.130  27.190  1.00  0.00    -0.273 OA
BRANCH   9  11
ATOM     11  N   UNL A   1      32.176  22.856  25.369  1.00  0.00    -0.225 N 
ATOM     12  C   UNL A   1      31.436  22.976  24.154  1.00  0.00     0.147 C 
ATOM     13  C   UNL A   1      32.150  22.019  23.215  1.00  0.00     0.091 C 
ATOM     14  C   UNL A   1      32.590  21.054  24.288  1.00  0.00     0.071 C 
ATOM     15  N   UNL A   1      32.681  21.570  25.486  1.00  0.00    -0.174 NA
BRANCH  12  16
ATOM     16  C   UNL A   1      31.332  24.411  23.842  1.00  0.00    -0.023 A 
ATOM     17  C   UNL A   1      30.785  27.885  23.173  1.00  0.00     0.118 A 
ATOM     18  C   UNL A   1      32.199  27.141  22.453  1.00  0.00     0.047 A 
ATOM     19  C   UNL A   1      29.681  26.982  24.193  1.00  0.00     0.047 A 
ATOM     20  C   UNL A   1      32.449  25.398  22.710  1.00  0.00     0.010 A 
ATOM     21  C   UNL A   1      29.898  25.245  24.518  1.00  0.00     0.010 A 
BRANCH  17  22
ATOM     22  O   UNL A   1      30.674  29.210  22.855  1.00  0.00    -0.497 OA
ATOM     23  C   UNL A   1      29.594  29.543  22.008  1.00  0.00     0.278 C 
ENDBRANCH  17  22
ENDBRANCH  12  16
BRANCH  14  24
ATOM     24  C   UNL A   1      32.913  19.663  23.942  1.00  0.00    -0.002 A 
ATOM     25  C   UNL A   1      33.934  19.000  24.627  1.00  0.00     0.010 A 
ATOM     26  C   UNL A   1      32.199  19.013  22.932  1.00  0.00     0.010 A 
ATOM     27  C   UNL A   1      34.268  17.692  24.268  1.00  0.00     0.001 A 
ATOM     28  C   UNL A   1      32.554  17.715  22.561  1.00  0.00     0.001 A 
ATOM     29  C   UNL A   1      33.594  17.060  23.222  1.00  0.00     0.000 A 
ENDBRANCH  14  24
ENDBRANCH   9  11
ENDBRANCH   8   9
ENDBRANCH   7   8
ENDBRANCH   6   7
ENDBRANCH   3   6
ENDBRANCH   1   2
BRANCH   1  30
ATOM     30  C   UNL A   1      35.725  30.056  28.061  1.00  0.00     0.023 C 
BRANCH  30  31
ATOM     31  C   UNL A   1      36.754  30.328  29.100  1.00  0.00     0.023 C 
BRANCH  31  32
ATOM     32  C   UNL A   1      36.306  29.891  30.461  1.00  0.00     0.116 C 
BRANCH  32  33
ATOM     33  N   UNL A   1      35.649  30.934  31.251  1.00  0.00    -0.352 N 
ATOM     34  C   UNL A   1      36.181  31.551  32.363  1.00  0.00     0.251 C 
ATOM     35  H   UNL A   1      34.752  31.218  30.963  1.00  0.00     0.163 HD
ATOM     36  O   UNL A   1      35.537  32.330  33.049  1.00  0.00    -0.269 OA
BRANCH  34  37
ATOM     37  C   UNL A   1      37.562  31.166  32.699  1.00  0.00     0.039 A 
ATOM     38  C   UNL A   1      37.782  29.919  33.277  1.00  0.00     0.014 A 
ATOM     39  C   UNL A   1      38.601  31.902  32.119  1.00  0.00     0.014 A 
ATOM     40  C   UNL A   1      39.060  29.373  33.212  1.00  0.00     0.010 A 
ATOM     41  C   UNL A   1      39.816  31.277  31.908  1.00  0.00     0.010 A 
ATOM     42  C   UNL A   1      40.070  30.023  32.481  1.00  0.00    -0.014 A 
BRANCH  42  43
ATOM     43  C   UNL A   1      41.424  29.432  32.351  1.00  0.00     0.031 A 
ATOM     44  C   UNL A   1      42.454  29.744  33.402  1.00  0.00     0.074 A 
ATOM     45  C   UNL A   1      41.730  28.654  31.294  1.00  0.00     0.049 A 
ATOM     46  N   UNL A   1      43.701  29.362  33.474  1.00  0.00    -0.248 NA
ATOM     47  C   UNL A   1      42.038  30.634  34.500  1.00  0.00     0.031 C 
ATOM     48  C   UNL A   1      40.825  28.327  30.189  1.00  0.00     0.029 A 
ATOM     49  N   UNL A   1      42.888  27.989  30.979  1.00  0.00    -0.354 N 
ATOM     50  C   UNL A   1      44.213  29.973  34.612  1.00  0.00     0.074 A 
ATOM     51  C   UNL A   1      43.175  30.825  35.144  1.00  0.00     0.031 C 
ATOM     52  C   UNL A   1      41.444  27.483  29.348  1.00  0.00     0.029 A 
ATOM     53  C   UNL A   1      42.809  27.258  29.814  1.00  0.00     0.049 A 
ATOM     54  H   UNL A   1      43.700  28.030  31.532  1.00  0.00     0.167 HD
ATOM     55  C   UNL A   1      45.427  29.810  35.185  1.00  0.00     0.034 A 
ATOM     56  C   UNL A   1      43.736  26.507  29.188  1.00  0.00     0.034 A 
ATOM     57  C   UNL A   1      46.445  28.949  34.644  1.00  0.00     0.049 A 
ATOM     58  C   UNL A   1      45.102  26.378  29.818  1.00  0.00     0.074 A 
ATOM     59  C   UNL A   1      47.694  28.665  35.163  1.00  0.00     0.029 A 
ATOM     60  N   UNL A   1      46.338  28.245  33.449  1.00  0.00    -0.354 N 
ATOM     61  N   UNL A   1      45.553  26.914  30.930  1.00  0.00    -0.248 NA
ATOM     62  C   UNL A   1      46.080  25.539  29.116  1.00  0.00     0.031 C 
ATOM     63  C   UNL A   1      48.380  27.877  34.236  1.00  0.00     0.029 A 
ATOM     64  C   UNL A   1      47.520  27.570  33.192  1.00  0.00     0.049 A 
ATOM     65  H   UNL A   1      45.541  28.230  32.873  1.00  0.00     0.167 HD
ATOM     66  C   UNL A   1      46.856  26.449  31.075  1.00  0.00     0.074 A 
ATOM     67  C   UNL A   1      47.111  25.577  29.946  1.00  0.00     0.031 C 
ATOM     68  C   UNL A   1      47.761  26.712  32.054  1.00  0.00     0.034 A 
BRANCH  55  69
ATOM     69  C   UNL A   1      45.721  30.606  36.434  1.00  0.00     0.023 A 
ATOM     70  C   UNL A   1      45.564  30.060  37.720  1.00  0.00     0.031 A 
ATOM     71  C   UNL A   1      46.125  31.949  36.336  1.00  0.00     0.131 A 
ATOM     72  C   UNL A   1      45.726  30.872  38.851  1.00  0.00     0.055 A 
ATOM     73  C   UNL A   1      46.384  32.724  37.467  1.00  0.00     0.041 A 
ATOM     74  F   UNL A   1      46.259  32.538  35.137  1.00  0.00    -0.206 F 
ATOM     75  C   UNL A   1      46.169  32.191  38.735  1.00  0.00     0.022 A 
BRANCH  72  76
ATOM     76  S   UNL A   1      45.180  30.236  40.460  1.00  0.00     0.124 S 
ATOM     77  O   UNL A   1      43.880  30.886  40.607  1.00  0.00    -0.237 OA
ATOM     78  O   UNL A   1      45.152  28.795  40.235  1.00  0.00    -0.237 OA
ATOM     79  O   UNL A   1      46.211  30.706  41.382  1.00  0.00    -0.744 OA
ENDBRANCH  72  76
ENDBRANCH  55  69
BRANCH  56  80
ATOM     80  C   UNL A   1      43.424  25.845  27.887  1.00  0.00     0.023 A 
ATOM     81  C   UNL A   1      43.142  24.471  27.812  1.00  0.00     0.031 A 
ATOM     82  C   UNL A   1      43.451  26.576  26.685  1.00  0.00     0.131 A 
ATOM     83  C   UNL A   1      42.950  23.864  26.560  1.00  0.00     0.055 A 
ATOM     84  C   UNL A   1      43.190  25.981  25.450  1.00  0.00     0.041 A 
ATOM     85  F   UNL A   1      43.721  27.891  26.695  1.00  0.00    -0.206 F 
ATOM     86  C   UNL A   1      42.951  24.613  25.381  1.00  0.00     0.022 A 
BRANCH  83  87
ATOM     87  S   UNL A   1      42.810  22.056  26.482  1.00  0.00     0.124 S 
ATOM     88  O   UNL A   1      41.885  21.880  25.368  1.00  0.00    -0.237 OA
ATOM     89  O   UNL A   1      44.191  21.655  26.240  1.00  0.00    -0.237 OA
ATOM     90  O   UNL A   1      42.280  21.700  27.796  1.00  0.00    -0.744 OA
ENDBRANCH  83  87
ENDBRANCH  56  80
BRANCH  68  91
ATOM     91  C   UNL A   1      49.093  26.008  31.974  1.00  0.00     0.023 A 
ATOM     92  C   UNL A   1      49.350  24.820  32.680  1.00  0.00     0.031 A 
ATOM     93  C   UNL A   1      50.122  26.536  31.174  1.00  0.00     0.131 A 
ATOM     94  C   UNL A   1      50.625  24.239  32.624  1.00  0.00     0.055 A 
ATOM     95  C   UNL A   1      51.361  25.906  31.055  1.00  0.00     0.041 A 
ATOM     96  F   UNL A   1      49.937  27.673  30.482  1.00  0.00    -0.206 F 
ATOM     97  C   UNL A   1      51.624  24.759  31.796  1.00  0.00     0.022 A 
BRANCH  94  98
ATOM     98  S   UNL A   1      51.001  22.863  33.743  1.00  0.00     0.124 S 
ATOM     99  O   UNL A   1      52.346  23.204  34.197  1.00  0.00    -0.237 OA
ATOM    100  O   UNL A   1      49.943  22.973  34.741  1.00  0.00    -0.237 OA
ATOM    101  O   UNL A   1      50.918  21.686  32.879  1.00  0.00    -0.744 OA
ENDBRANCH  94  98
ENDBRANCH  68  91
ENDBRANCH  42  43
ENDBRANCH  34  37
ENDBRANCH  32  33
ENDBRANCH  31  32
ENDBRANCH  30  31
ENDBRANCH   1  30
TORSDOF 21
ENDMDL
MODEL 3
REMARK VINA RESULT:     -11.9      6.919     10.149
REMARK SMILES COc1ccc([C@H]2CC(c3ccccc3)=NN2C(=O)CCCC(=O)NCCCCNC(=O)c2ccc(-c3c4nc(c(-c5cc(S(=O)(=O)[O-])ccc5F)c5ccc([nH]5)c(-c5cc(S(=O)(=O)[O-])ccc5F)c5nc(c(-c6cc(S(=O)(=O)[O-])ccc6F)c6ccc3[nH]6)C=C5)C=C4)cc2)cc1
REMARK SMILES IDX 26 1 25 2 23 3 24 4 22 6 21 7 20 8 18 9 19 10 17 11 7 12
REMARK SMILES IDX 8 13 9 14 16 15 6 16 3 17 4 18 97 19 5 20 96 21 2 22 1 23
REMARK SMILES IDX 10 24 11 25 15 26 12 27 14 28 13 29 27 30 28 31 29 32 30 33
REMARK SMILES IDX 31 34 32 36 33 37 34 38 95 39 35 40 94 41 36 42 37 43 38 44
REMARK SMILES IDX 88 45 39 46 93 47 87 48 89 49 40 50 92 51 86 52 85 53 41 55
REMARK SMILES IDX 73 56 53 57 72 58 54 59 57 60 71 61 90 62 55 63 56 64 70 66
REMARK SMILES IDX 91 67 58 68 42 69 43 70 51 71 44 72 50 73 52 74 49 75 45 76
REMARK SMILES IDX 46 77 47 78 48 79 74 80 75 81 83 82 76 83 82 84 84 85 81 86
REMARK SMILES IDX 77 87 78 88 79 89 80 90 59 91 60 92 68 93 61 94 67 95 69 96
REMARK SMILES IDX 66 97 62 98 63 99 64 100 65 101
REMARK H PARENT 25 5 30 35 89 54 57 65
REMARK Flexibility Score: inf
ROOT
ATOM      1  C   UNL A   1      34.692  31.131  28.047  1.00  0.00     0.116 C 
ENDROOT
BRANCH   1   2
ATOM      2  N   UNL A   1      33.415  31.171  27.191  1.00  0.00    -0.356 N 
ATOM      3  C   UNL A   1      32.415  30.356  26.623  1.00  0.00     0.220 C 
ATOM      4  O   UNL A   1      31.400  31.011  26.302  1.00  0.00    -0.275 OA
ATOM      5  H   UNL A   1      33.227  32.107  26.953  1.00  0.00     0.163 HD
BRANCH   3   6
ATOM      6  C   UNL A   1      32.283  28.536  26.257  1.00  0.00     0.100 C 
BRANCH   6   7
ATOM      7  C   UNL A   1      33.891  27.029  26.167  1.00  0.00     0.020 C 
BRANCH   7   8
ATOM      8  C   UNL A   1      33.703  25.218  25.935  1.00  0.00     0.103 C 
BRANCH   8   9
ATOM      9  C   UNL A   1      32.396  24.349  26.096  1.00  0.00     0.243 C 
ATOM     10  O   UNL A   1      31.574  24.694  26.952  1.00  0.00    -0.273 OA
BRANCH   9  11
ATOM     11  N   UNL A   1      32.154  23.294  25.228  1.00  0.00    -0.225 N 
ATOM     12  C   UNL A   1      31.394  23.360  24.021  1.00  0.00     0.147 C 
ATOM     13  C   UNL A   1      32.094  22.364  23.113  1.00  0.00     0.091 C 
ATOM     14  C   UNL A   1      32.554  21.448  24.219  1.00  0.00     0.071 C 
ATOM     15  N   UNL A   1      32.664  22.016  25.391  1.00  0.00    -0.174 NA
BRANCH  12  16
ATOM     16  C   UNL A   1      31.281  24.780  23.649  1.00  0.00    -0.023 A 
ATOM     17  C   UNL A   1      30.703  28.206  22.785  1.00  0.00     0.118 A 
ATOM     18  C   UNL A   1      32.249  27.513  22.334  1.00  0.00     0.047 A 
ATOM     19  C   UNL A   1      29.484  27.276  23.637  1.00  0.00     0.047 A 
ATOM     20  C   UNL A   1      32.528  25.791  22.687  1.00  0.00     0.010 A 
ATOM     21  C   UNL A   1      29.720  25.560  24.050  1.00  0.00     0.010 A 
BRANCH  17  22
ATOM     22  O   UNL A   1      30.590  29.516  22.410  1.00  0.00    -0.497 OA
ATOM     23  C   UNL A   1      29.332  29.891  21.887  1.00  0.00     0.278 C 
ENDBRANCH  17  22
ENDBRANCH  12  16
BRANCH  14  24
ATOM     24  C   UNL A   1      32.874  20.043  23.928  1.00  0.00    -0.002 A 
ATOM     25  C   UNL A   1      33.842  19.384  24.689  1.00  0.00     0.010 A 
ATOM     26  C   UNL A   1      32.211  19.377  22.894  1.00  0.00     0.010 A 
ATOM     27  C   UNL A   1      34.176  18.062  24.383  1.00  0.00     0.001 A 
ATOM     28  C   UNL A   1      32.566  18.066  22.578  1.00  0.00     0.001 A 
ATOM     29  C   UNL A   1      33.554  17.413  23.316  1.00  0.00     0.000 A 
ENDBRANCH  14  24
ENDBRANCH   9  11
ENDBRANCH   8   9
ENDBRANCH   7   8
ENDBRANCH   6   7
ENDBRANCH   3   6
ENDBRANCH   1   2
BRANCH   1  30
ATOM     30  C   UNL A   1      34.892  31.967  29.352  1.00  0.00     0.023 C 
BRANCH  30  31
ATOM     31  C   UNL A   1      36.171  32.715  29.488  1.00  0.00     0.023 C 
BRANCH  31  32
ATOM     32  C   UNL A   1      36.759  32.576  30.859  1.00  0.00     0.116 C 
BRANCH  32  33
ATOM     33  N   UNL A   1      36.323  31.386  31.591  1.00  0.00    -0.352 N 
ATOM     34  C   UNL A   1      37.096  30.273  31.846  1.00  0.00     0.251 C 
ATOM     35  H   UNL A   1      35.398  31.379  31.928  1.00  0.00     0.163 HD
ATOM     36  O   UNL A   1      36.640  29.263  32.358  1.00  0.00    -0.269 OA
BRANCH  34  37
ATOM     37  C   UNL A   1      38.499  30.367  31.409  1.00  0.00     0.039 A 
ATOM     38  C   UNL A   1      38.784  30.225  30.054  1.00  0.00     0.014 A 
ATOM     39  C   UNL A   1      39.421  30.926  32.300  1.00  0.00     0.014 A 
ATOM     40  C   UNL A   1      39.994  30.715  29.575  1.00  0.00     0.010 A 
ATOM     41  C   UNL A   1      40.536  31.563  31.785  1.00  0.00     0.010 A 
ATOM     42  C   UNL A   1      40.852  31.435  30.425  1.00  0.00    -0.014 A 
BRANCH  42  43
ATOM     43  C   UNL A   1      42.121  32.016  29.923  1.00  0.00     0.031 A 
ATOM     44  C   UNL A   1      43.312  31.113  29.748  1.00  0.00     0.074 A 
ATOM     45  C   UNL A   1      42.209  33.334  29.656  1.00  0.00     0.049 A 
ATOM     46  N   UNL A   1      44.521  31.409  29.352  1.00  0.00    -0.248 NA
ATOM     47  C   UNL A   1      43.129  29.694  30.101  1.00  0.00     0.031 C 
ATOM     48  C   UNL A   1      41.133  34.312  29.838  1.00  0.00     0.029 A 
ATOM     49  N   UNL A   1      43.252  34.080  29.167  1.00  0.00    -0.354 N 
ATOM     50  C   UNL A   1      45.237  30.220  29.420  1.00  0.00     0.074 A 
ATOM     51  C   UNL A   1      44.358  29.224  29.986  1.00  0.00     0.031 C 
ATOM     52  C   UNL A   1      41.555  35.514  29.416  1.00  0.00     0.029 A 
ATOM     53  C   UNL A   1      42.949  35.412  28.995  1.00  0.00     0.049 A 
ATOM     54  H   UNL A   1      44.135  33.699  28.959  1.00  0.00     0.167 HD
ATOM     55  C   UNL A   1      46.502  29.972  29.013  1.00  0.00     0.034 A 
ATOM     56  C   UNL A   1      43.713  36.434  28.562  1.00  0.00     0.034 A 
ATOM     57  C   UNL A   1      47.358  30.978  28.442  1.00  0.00     0.049 A 
ATOM     58  C   UNL A   1      45.139  36.145  28.159  1.00  0.00     0.074 A 
ATOM     59  C   UNL A   1      48.641  30.834  27.948  1.00  0.00     0.029 A 
ATOM     60  N   UNL A   1      47.026  32.322  28.308  1.00  0.00    -0.354 N 
ATOM     61  N   UNL A   1      45.785  35.001  28.171  1.00  0.00    -0.248 NA
ATOM     62  C   UNL A   1      45.935  37.280  27.678  1.00  0.00     0.031 C 
ATOM     63  C   UNL A   1      49.121  32.102  27.611  1.00  0.00     0.029 A 
ATOM     64  C   UNL A   1      48.100  33.023  27.785  1.00  0.00     0.049 A 
ATOM     65  H   UNL A   1      46.157  32.715  28.549  1.00  0.00     0.167 HD
ATOM     66  C   UNL A   1      47.054  35.275  27.668  1.00  0.00     0.074 A 
ATOM     67  C   UNL A   1      47.073  36.688  27.348  1.00  0.00     0.031 C 
ATOM     68  C   UNL A   1      48.106  34.437  27.482  1.00  0.00     0.034 A 
BRANCH  55  69
ATOM     69  C   UNL A   1      47.034  28.573  29.206  1.00  0.00     0.023 A 
ATOM     70  C   UNL A   1      46.890  27.578  28.221  1.00  0.00     0.031 A 
ATOM     71  C   UNL A   1      47.659  28.215  30.413  1.00  0.00     0.131 A 
ATOM     72  C   UNL A   1      47.286  26.261  28.493  1.00  0.00     0.055 A 
ATOM     73  C   UNL A   1      48.144  26.926  30.637  1.00  0.00     0.041 A 
ATOM     74  F   UNL A   1      47.795  29.110  31.405  1.00  0.00    -0.206 F 
ATOM     75  C   UNL A   1      47.944  25.935  29.681  1.00  0.00     0.022 A 
BRANCH  72  76
ATOM     76  S   UNL A   1      46.772  24.950  27.351  1.00  0.00     0.124 S 
ATOM     77  O   UNL A   1      46.251  23.944  28.273  1.00  0.00    -0.237 OA
ATOM     78  O   UNL A   1      45.783  25.626  26.518  1.00  0.00    -0.237 OA
ATOM     79  O   UNL A   1      48.013  24.579  26.673  1.00  0.00    -0.744 OA
ENDBRANCH  72  76
ENDBRANCH  55  69
BRANCH  56  80
ATOM     80  C   UNL A   1      43.167  37.823  28.513  1.00  0.00     0.023 A 
ATOM     81  C   UNL A   1      43.357  38.723  29.573  1.00  0.00     0.031 A 
ATOM     82  C   UNL A   1      42.401  38.255  27.414  1.00  0.00     0.131 A 
ATOM     83  C   UNL A   1      42.747  39.988  29.536  1.00  0.00     0.055 A 
ATOM     84  C   UNL A   1      41.855  39.538  27.351  1.00  0.00     0.041 A 
ATOM     85  F   UNL A   1      42.181  37.434  26.375  1.00  0.00    -0.206 F 
ATOM     86  C   UNL A   1      42.015  40.408  28.423  1.00  0.00     0.022 A 
BRANCH  83  87
ATOM     87  S   UNL A   1      42.827  41.038  31.014  1.00  0.00     0.124 S 
ATOM     88  O   UNL A   1      43.453  42.244  30.484  1.00  0.00    -0.237 OA
ATOM     89  O   UNL A   1      41.421  41.152  31.382  1.00  0.00    -0.237 OA
ATOM     90  O   UNL A   1      43.651  40.261  31.937  1.00  0.00    -0.744 OA
ENDBRANCH  83  87
ENDBRANCH  56  80
BRANCH  68  91
ATOM     91  C   UNL A   1      49.351  35.016  26.855  1.00  0.00     0.023 A 
ATOM     92  C   UNL A   1      50.460  35.404  27.625  1.00  0.00     0.031 A 
ATOM     93  C   UNL A   1      49.427  35.178  25.460  1.00  0.00     0.131 A 
ATOM     94  C   UNL A   1      51.568  35.995  27.002  1.00  0.00     0.055 A 
ATOM     95  C   UNL A   1      50.565  35.689  24.838  1.00  0.00     0.041 A 
ATOM     96  F   UNL A   1      48.394  34.831  24.673  1.00  0.00    -0.206 F 
ATOM     97  C   UNL A   1      51.639  36.117  25.611  1.00  0.00     0.022 A 
BRANCH  94  98
ATOM     98  S   UNL A   1      52.865  36.719  28.042  1.00  0.00     0.124 S 
ATOM     99  O   UNL A   1      53.331  35.557  28.793  1.00  0.00    -0.237 OA
ATOM    100  O   UNL A   1      53.796  37.254  27.055  1.00  0.00    -0.237 OA
ATOM    101  O   UNL A   1      52.152  37.722  28.830  1.00  0.00    -0.744 OA
ENDBRANCH  94  98
ENDBRANCH  68  91
ENDBRANCH  42  43
ENDBRANCH  34  37
ENDBRANCH  32  33
ENDBRANCH  31  32
ENDBRANCH  30  31
ENDBRANCH   1  30
TORSDOF 21
ENDMDL
