MODEL 1
REMARK VINA RESULT:     -11.1      0.000      0.000
REMARK SMILES [NH3+]CCOCC(=O)N1C[C@@H](C(=O)NCCCCNC(=O)c2ccc(-c3c4nc(c(-c5cc(S(=O)(=O)[O-])ccc5F)c5ccc([nH]5)c(-c5cc(S(=O)(=O)[O-])ccc5F)c5nc(c(-c6cc(S(=O)(=O)[O-])ccc6F)c6ccc3[nH]6)C=C5)C=C4)cc2)Oc2ccccc21
REMARK SMILES IDX 14 1 13 2 11 3 12 4 10 6 8 7 9 8 90 9 85 10 89 11 84 12
REMARK SMILES IDX 86 13 88 14 87 15 6 16 7 17 5 18 4 19 3 20 2 21 1 22 15 26
REMARK SMILES IDX 16 27 17 28 18 29 19 30 20 32 21 33 22 34 83 35 23 36 82 37
REMARK SMILES IDX 24 38 25 39 26 40 76 41 27 42 81 43 75 44 77 45 28 46 80 47
REMARK SMILES IDX 74 48 73 49 29 51 61 52 41 53 60 54 42 55 45 56 59 57 78 58
REMARK SMILES IDX 43 59 44 60 58 62 79 63 46 64 30 65 31 66 39 67 32 68 38 69
REMARK SMILES IDX 40 70 37 71 33 72 34 73 35 74 36 75 62 76 63 77 71 78 64 79
REMARK SMILES IDX 70 80 72 81 69 82 65 83 66 84 67 85 68 86 47 87 48 88 56 89
REMARK SMILES IDX 49 90 55 91 57 92 54 93 50 94 51 95 52 96 53 97
REMARK H PARENT 13 5 1 23 1 24 1 25 18 31 77 50 45 61
REMARK Flexibility Score: inf
ROOT
ATOM      1  C   UNL A   1      31.729  27.711  26.952  1.00  0.00     0.116 C 
ENDROOT
BRANCH   1   2
ATOM      2  N   UNL A   1      30.896  26.656  26.422  1.00  0.00    -0.353 N 
ATOM      3  C   UNL A   1      31.232  25.374  26.090  1.00  0.00     0.262 C 
ATOM      4  O   UNL A   1      30.301  24.622  25.768  1.00  0.00    -0.271 OA
ATOM      5  H   UNL A   1      29.952  26.894  26.280  1.00  0.00     0.163 HD
BRANCH   3   6
ATOM      6  C   UNL A   1      32.697  24.817  26.087  1.00  0.00     0.281 C 
ATOM      7  N   UNL A   1      32.981  24.718  23.651  1.00  0.00    -0.303 N 
ATOM      8  C   UNL A   1      33.440  25.389  24.874  1.00  0.00     0.181 C 
ATOM      9  C   UNL A   1      32.783  23.308  23.794  1.00  0.00     0.086 A 
ATOM     10  C   UNL A   1      32.931  22.724  25.067  1.00  0.00     0.144 A 
ATOM     11  C   UNL A   1      32.481  22.464  22.721  1.00  0.00     0.030 A 
ATOM     12  O   UNL A   1      33.036  23.449  26.233  1.00  0.00    -0.477 OA
ATOM     13  C   UNL A   1      32.845  21.339  25.248  1.00  0.00     0.049 A 
ATOM     14  C   UNL A   1      32.331  21.084  22.915  1.00  0.00     0.002 A 
ATOM     15  C   UNL A   1      32.524  20.520  24.174  1.00  0.00     0.004 A 
BRANCH   7  16
ATOM     16  C   UNL A   1      32.700  25.422  22.483  1.00  0.00     0.253 C 
ATOM     17  O   UNL A   1      33.535  25.694  21.620  1.00  0.00    -0.272 OA
BRANCH  16  18
ATOM     18  C   UNL A   1      31.260  25.964  22.344  1.00  0.00     0.260 C 
BRANCH  18  19
ATOM     19  O   UNL A   1      31.000  27.300  21.973  1.00  0.00    -0.366 OA
BRANCH  19  20
ATOM     20  C   UNL A   1      30.091  28.007  22.817  1.00  0.00     0.222 C 
BRANCH  20  21
ATOM     21  C   UNL A   1      29.722  29.412  22.319  1.00  0.00     0.287 C 
BRANCH  21  22
ATOM     22  N   UNL A   1      30.774  30.096  21.573  1.00  0.00    -0.356 N 
ATOM     23  H   UNL A   1      31.397  29.407  21.152  1.00  0.00     0.344 HD
ATOM     24  H   UNL A   1      31.307  30.693  22.205  1.00  0.00     0.344 HD
ATOM     25  H   UNL A   1      30.355  30.667  20.839  1.00  0.00     0.344 HD
ENDBRANCH  21  22
ENDBRANCH  20  21
ENDBRANCH  19  20
ENDBRANCH  18  19
ENDBRANCH  16  18
ENDBRANCH   7  16
ENDBRANCH   3   6
ENDBRANCH   1   2
BRANCH   1  26
ATOM     26  C   UNL A   1      32.089  28.817  25.972  1.00  0.00     0.023 C 
BRANCH  26  27
ATOM     27  C   UNL A   1      31.906  30.248  26.456  1.00  0.00     0.023 C 
BRANCH  27  28
ATOM     28  C   UNL A   1      33.147  30.932  27.023  1.00  0.00     0.116 C 
BRANCH  28  29
ATOM     29  N   UNL A   1      32.979  32.359  27.255  1.00  0.00    -0.352 N 
ATOM     30  C   UNL A   1      33.710  33.228  28.037  1.00  0.00     0.251 C 
ATOM     31  H   UNL A   1      32.222  32.769  26.777  1.00  0.00     0.163 HD
ATOM     32  O   UNL A   1      33.324  34.380  28.178  1.00  0.00    -0.269 OA
BRANCH  30  33
ATOM     33  C   UNL A   1      34.931  32.758  28.738  1.00  0.00     0.039 A 
ATOM     34  C   UNL A   1      34.791  31.975  29.886  1.00  0.00     0.014 A 
ATOM     35  C   UNL A   1      36.207  33.071  28.264  1.00  0.00     0.014 A 
ATOM     36  C   UNL A   1      35.924  31.438  30.502  1.00  0.00     0.010 A 
ATOM     37  C   UNL A   1      37.326  32.454  28.819  1.00  0.00     0.010 A 
ATOM     38  C   UNL A   1      37.201  31.629  29.945  1.00  0.00    -0.014 A 
BRANCH  38  39
ATOM     39  C   UNL A   1      38.398  30.964  30.529  1.00  0.00     0.031 A 
ATOM     40  C   UNL A   1      38.880  31.328  31.910  1.00  0.00     0.074 A 
ATOM     41  C   UNL A   1      39.080  30.059  29.795  1.00  0.00     0.049 A 
ATOM     42  N   UNL A   1      39.901  30.858  32.581  1.00  0.00    -0.248 NA
ATOM     43  C   UNL A   1      38.134  32.379  32.618  1.00  0.00     0.031 C 
ATOM     44  C   UNL A   1      38.754  29.670  28.421  1.00  0.00     0.029 A 
ATOM     45  N   UNL A   1      40.184  29.301  30.097  1.00  0.00    -0.354 N 
ATOM     46  C   UNL A   1      39.924  31.559  33.782  1.00  0.00     0.074 A 
ATOM     47  C   UNL A   1      38.858  32.535  33.715  1.00  0.00     0.031 C 
ATOM     48  C   UNL A   1      39.608  28.716  28.017  1.00  0.00     0.029 A 
ATOM     49  C   UNL A   1      40.572  28.455  29.082  1.00  0.00     0.049 A 
ATOM     50  H   UNL A   1      40.655  29.355  30.961  1.00  0.00     0.167 HD
ATOM     51  C   UNL A   1      40.739  31.386  34.853  1.00  0.00     0.034 A 
ATOM     52  C   UNL A   1      41.588  27.573  29.012  1.00  0.00     0.034 A 
ATOM     53  C   UNL A   1      41.792  30.402  34.907  1.00  0.00     0.049 A 
ATOM     54  C   UNL A   1      42.485  27.404  30.213  1.00  0.00     0.074 A 
ATOM     55  C   UNL A   1      42.636  30.100  35.963  1.00  0.00     0.029 A 
ATOM     56  N   UNL A   1      42.157  29.566  33.860  1.00  0.00    -0.354 N 
ATOM     57  N   UNL A   1      42.443  28.023  31.370  1.00  0.00    -0.248 NA
ATOM     58  C   UNL A   1      43.554  26.404  30.104  1.00  0.00     0.031 C 
ATOM     59  C   UNL A   1      43.557  29.140  35.530  1.00  0.00     0.029 A 
ATOM     60  C   UNL A   1      43.235  28.775  34.232  1.00  0.00     0.049 A 
ATOM     61  H   UNL A   1      41.715  29.538  32.980  1.00  0.00     0.167 HD
ATOM     62  C   UNL A   1      43.464  27.466  32.135  1.00  0.00     0.074 A 
ATOM     63  C   UNL A   1      44.082  26.443  31.317  1.00  0.00     0.031 C 
ATOM     64  C   UNL A   1      43.857  27.771  33.400  1.00  0.00     0.034 A 
BRANCH  51  65
ATOM     65  C   UNL A   1      40.531  32.298  36.042  1.00  0.00     0.023 A 
ATOM     66  C   UNL A   1      39.511  32.068  36.983  1.00  0.00     0.031 A 
ATOM     67  C   UNL A   1      41.354  33.423  36.231  1.00  0.00     0.131 A 
ATOM     68  C   UNL A   1      39.292  32.987  38.021  1.00  0.00     0.055 A 
ATOM     69  C   UNL A   1      41.186  34.286  37.315  1.00  0.00     0.041 A 
ATOM     70  F   UNL A   1      42.332  33.708  35.356  1.00  0.00    -0.206 F 
ATOM     71  C   UNL A   1      40.140  34.080  38.210  1.00  0.00     0.022 A 
BRANCH  68  72
ATOM     72  S   UNL A   1      37.800  32.809  39.035  1.00  0.00     0.124 S 
ATOM     73  O   UNL A   1      36.744  33.041  38.051  1.00  0.00    -0.237 OA
ATOM     74  O   UNL A   1      37.917  31.445  39.537  1.00  0.00    -0.237 OA
ATOM     75  O   UNL A   1      37.942  33.860  40.042  1.00  0.00    -0.744 OA
ENDBRANCH  68  72
ENDBRANCH  51  65
BRANCH  52  76
ATOM     76  C   UNL A   1      41.822  26.779  27.769  1.00  0.00     0.023 A 
ATOM     77  C   UNL A   1      41.462  25.424  27.693  1.00  0.00     0.031 A 
ATOM     78  C   UNL A   1      42.456  27.353  26.653  1.00  0.00     0.131 A 
ATOM     79  C   UNL A   1      41.787  24.674  26.550  1.00  0.00     0.055 A 
ATOM     80  C   UNL A   1      42.723  26.620  25.495  1.00  0.00     0.041 A 
ATOM     81  F   UNL A   1      42.820  28.646  26.669  1.00  0.00    -0.206 F 
ATOM     82  C   UNL A   1      42.401  25.267  25.445  1.00  0.00     0.022 A 
BRANCH  79  83
ATOM     83  S   UNL A   1      41.481  22.887  26.565  1.00  0.00     0.124 S 
ATOM     84  O   UNL A   1      42.120  22.487  27.815  1.00  0.00    -0.237 OA
ATOM     85  O   UNL A   1      40.023  22.828  26.543  1.00  0.00    -0.237 OA
ATOM     86  O   UNL A   1      42.141  22.418  25.348  1.00  0.00    -0.744 OA
ENDBRANCH  79  83
ENDBRANCH  52  76
BRANCH  64  87
ATOM     87  C   UNL A   1      44.988  26.954  33.979  1.00  0.00     0.023 A 
ATOM     88  C   UNL A   1      44.752  25.774  34.706  1.00  0.00     0.031 A 
ATOM     89  C   UNL A   1      46.321  27.381  33.833  1.00  0.00     0.131 A 
ATOM     90  C   UNL A   1      45.820  25.107  35.325  1.00  0.00     0.055 A 
ATOM     91  C   UNL A   1      47.387  26.670  34.386  1.00  0.00     0.041 A 
ATOM     92  F   UNL A   1      46.609  28.502  33.153  1.00  0.00    -0.206 F 
ATOM     93  C   UNL A   1      47.138  25.536  35.154  1.00  0.00     0.022 A 
BRANCH  90  94
ATOM     94  S   UNL A   1      45.449  23.743  36.463  1.00  0.00     0.124 S 
ATOM     95  O   UNL A   1      44.531  22.929  35.672  1.00  0.00    -0.237 OA
ATOM     96  O   UNL A   1      46.768  23.168  36.701  1.00  0.00    -0.237 OA
ATOM     97  O   UNL A   1      44.848  24.413  37.615  1.00  0.00    -0.744 OA
ENDBRANCH  90  94
ENDBRANCH  64  87
ENDBRANCH  38  39
ENDBRANCH  30  33
ENDBRANCH  28  29
ENDBRANCH  27  28
ENDBRANCH  26  27
ENDBRANCH   1  26
TORSDOF 20
ENDMDL
MODEL 2
REMARK VINA RESULT:     -11.1      1.678      2.086
REMARK SMILES [NH3+]CCOCC(=O)N1C[C@@H](C(=O)NCCCCNC(=O)c2ccc(-c3c4nc(c(-c5cc(S(=O)(=O)[O-])ccc5F)c5ccc([nH]5)c(-c5cc(S(=O)(=O)[O-])ccc5F)c5nc(c(-c6cc(S(=O)(=O)[O-])ccc6F)c6ccc3[nH]6)C=C5)C=C4)cc2)Oc2ccccc21
REMARK SMILES IDX 14 1 13 2 11 3 12 4 10 6 8 7 9 8 90 9 85 10 89 11 84 12
REMARK SMILES IDX 86 13 88 14 87 15 6 16 7 17 5 18 4 19 3 20 2 21 1 22 15 26
REMARK SMILES IDX 16 27 17 28 18 29 19 30 20 32 21 33 22 34 83 35 23 36 82 37
REMARK SMILES IDX 24 38 25 39 26 40 76 41 27 42 81 43 75 44 77 45 28 46 80 47
REMARK SMILES IDX 74 48 73 49 29 51 61 52 41 53 60 54 42 55 45 56 59 57 78 58
REMARK SMILES IDX 43 59 44 60 58 62 79 63 46 64 30 65 31 66 39 67 32 68 38 69
REMARK SMILES IDX 40 70 37 71 33 72 34 73 35 74 36 75 62 76 63 77 71 78 64 79
REMARK SMILES IDX 70 80 72 81 69 82 65 83 66 84 67 85 68 86 47 87 48 88 56 89
REMARK SMILES IDX 49 90 55 91 57 92 54 93 50 94 51 95 52 96 53 97
REMARK H PARENT 13 5 1 23 1 24 1 25 18 31 77 50 45 61
REMARK Flexibility Score: inf
ROOT
ATOM      1  C   UNL A   1      31.870  26.180  26.595  1.00  0.00     0.116 C 
ENDROOT
BRANCH   1   2
ATOM      2  N   UNL A   1      31.028  25.013  26.466  1.00  0.00    -0.353 N 
ATOM      3  C   UNL A   1      31.377  23.693  26.444  1.00  0.00     0.262 C 
ATOM      4  O   UNL A   1      30.448  22.872  26.447  1.00  0.00    -0.271 OA
ATOM      5  H   UNL A   1      30.064  25.195  26.382  1.00  0.00     0.163 HD
BRANCH   3   6
ATOM      6  C   UNL A   1      32.854  23.170  26.411  1.00  0.00     0.281 C 
ATOM      7  N   UNL A   1      33.048  22.960  23.973  1.00  0.00    -0.303 N 
ATOM      8  C   UNL A   1      33.536  23.699  25.144  1.00  0.00     0.181 C 
ATOM      9  C   UNL A   1      32.891  21.554  24.191  1.00  0.00     0.086 A 
ATOM     10  C   UNL A   1      33.102  21.036  25.483  1.00  0.00     0.144 A 
ATOM     11  C   UNL A   1      32.569  20.652  23.173  1.00  0.00     0.030 A 
ATOM     12  O   UNL A   1      33.232  21.819  26.609  1.00  0.00    -0.477 OA
ATOM     13  C   UNL A   1      33.057  19.660  25.734  1.00  0.00     0.049 A 
ATOM     14  C   UNL A   1      32.461  19.280  23.438  1.00  0.00     0.002 A 
ATOM     15  C   UNL A   1      32.716  18.783  24.713  1.00  0.00     0.004 A 
BRANCH   7  16
ATOM     16  C   UNL A   1      32.705  23.599  22.785  1.00  0.00     0.253 C 
ATOM     17  O   UNL A   1      33.445  23.680  21.803  1.00  0.00    -0.272 OA
BRANCH  16  18
ATOM     18  C   UNL A   1      31.342  24.324  22.770  1.00  0.00     0.260 C 
BRANCH  18  19
ATOM     19  O   UNL A   1      31.194  25.642  23.248  1.00  0.00    -0.366 OA
BRANCH  19  20
ATOM     20  C   UNL A   1      31.487  26.675  22.306  1.00  0.00     0.222 C 
BRANCH  20  21
ATOM     21  C   UNL A   1      32.948  27.146  22.312  1.00  0.00     0.287 C 
BRANCH  21  22
ATOM     22  N   UNL A   1      33.593  27.135  23.623  1.00  0.00    -0.356 N 
ATOM     23  H   UNL A   1      33.211  26.374  24.184  1.00  0.00     0.344 HD
ATOM     24  H   UNL A   1      33.420  28.023  24.094  1.00  0.00     0.344 HD
ATOM     25  H   UNL A   1      34.597  27.001  23.508  1.00  0.00     0.344 HD
ENDBRANCH  21  22
ENDBRANCH  20  21
ENDBRANCH  19  20
ENDBRANCH  18  19
ENDBRANCH  16  18
ENDBRANCH   7  16
ENDBRANCH   3   6
ENDBRANCH   1   2
BRANCH   1  26
ATOM     26  C   UNL A   1      31.198  27.511  26.291  1.00  0.00     0.023 C 
BRANCH  26  27
ATOM     27  C   UNL A   1      31.764  28.739  26.989  1.00  0.00     0.023 C 
BRANCH  27  28
ATOM     28  C   UNL A   1      32.551  29.710  26.113  1.00  0.00     0.116 C 
BRANCH  28  29
ATOM     29  N   UNL A   1      32.373  31.108  26.476  1.00  0.00    -0.352 N 
ATOM     30  C   UNL A   1      33.157  31.934  27.254  1.00  0.00     0.251 C 
ATOM     31  H   UNL A   1      31.564  31.531  26.108  1.00  0.00     0.163 HD
ATOM     32  O   UNL A   1      32.760  33.059  27.525  1.00  0.00    -0.269 OA
BRANCH  30  33
ATOM     33  C   UNL A   1      34.452  31.448  27.793  1.00  0.00     0.039 A 
ATOM     34  C   UNL A   1      35.479  32.368  28.012  1.00  0.00     0.014 A 
ATOM     35  C   UNL A   1      34.653  30.099  28.094  1.00  0.00     0.014 A 
ATOM     36  C   UNL A   1      36.669  31.949  28.614  1.00  0.00     0.010 A 
ATOM     37  C   UNL A   1      35.797  29.703  28.782  1.00  0.00     0.010 A 
ATOM     38  C   UNL A   1      36.822  30.622  29.053  1.00  0.00    -0.014 A 
BRANCH  38  39
ATOM     39  C   UNL A   1      38.039  30.197  29.797  1.00  0.00     0.031 A 
ATOM     40  C   UNL A   1      38.291  30.690  31.199  1.00  0.00     0.074 A 
ATOM     41  C   UNL A   1      38.942  29.398  29.192  1.00  0.00     0.049 A 
ATOM     42  N   UNL A   1      39.293  30.430  32.000  1.00  0.00    -0.248 NA
ATOM     43  C   UNL A   1      37.302  31.621  31.763  1.00  0.00     0.031 C 
ATOM     44  C   UNL A   1      38.847  28.908  27.815  1.00  0.00     0.029 A 
ATOM     45  N   UNL A   1      40.117  28.854  29.652  1.00  0.00    -0.354 N 
ATOM     46  C   UNL A   1      39.059  31.168  33.156  1.00  0.00     0.074 A 
ATOM     47  C   UNL A   1      37.859  31.941  32.921  1.00  0.00     0.031 C 
ATOM     48  C   UNL A   1      39.890  28.102  27.559  1.00  0.00     0.029 A 
ATOM     49  C   UNL A   1      40.755  28.052  28.733  1.00  0.00     0.049 A 
ATOM     50  H   UNL A   1      40.469  29.021  30.556  1.00  0.00     0.167 HD
ATOM     51  C   UNL A   1      39.763  31.179  34.316  1.00  0.00     0.034 A 
ATOM     52  C   UNL A   1      41.907  27.358  28.822  1.00  0.00     0.034 A 
ATOM     53  C   UNL A   1      40.954  30.395  34.537  1.00  0.00     0.049 A 
ATOM     54  C   UNL A   1      42.675  27.391  30.119  1.00  0.00     0.074 A 
ATOM     55  C   UNL A   1      41.710  30.283  35.692  1.00  0.00     0.029 A 
ATOM     56  N   UNL A   1      41.572  29.597  33.583  1.00  0.00    -0.354 N 
ATOM     57  N   UNL A   1      42.397  28.037  31.228  1.00  0.00    -0.248 NA
ATOM     58  C   UNL A   1      43.903  26.589  30.180  1.00  0.00     0.031 C 
ATOM     59  C   UNL A   1      42.823  29.483  35.414  1.00  0.00     0.029 A 
ATOM     60  C   UNL A   1      42.718  29.020  34.112  1.00  0.00     0.049 A 
ATOM     61  H   UNL A   1      41.245  29.461  32.664  1.00  0.00     0.167 HD
ATOM     62  C   UNL A   1      43.403  27.693  32.128  1.00  0.00     0.074 A 
ATOM     63  C   UNL A   1      44.274  26.764  31.439  1.00  0.00     0.031 C 
ATOM     64  C   UNL A   1      43.591  28.109  33.408  1.00  0.00     0.034 A 
BRANCH  51  65
ATOM     65  C   UNL A   1      39.270  32.084  35.422  1.00  0.00     0.023 A 
ATOM     66  C   UNL A   1      39.673  33.429  35.514  1.00  0.00     0.031 A 
ATOM     67  C   UNL A   1      38.398  31.594  36.410  1.00  0.00     0.131 A 
ATOM     68  C   UNL A   1      39.266  34.212  36.606  1.00  0.00     0.055 A 
ATOM     69  C   UNL A   1      37.928  32.402  37.447  1.00  0.00     0.041 A 
ATOM     70  F   UNL A   1      37.994  30.314  36.389  1.00  0.00    -0.206 F 
ATOM     71  C   UNL A   1      38.374  33.716  37.558  1.00  0.00     0.022 A 
BRANCH  68  72
ATOM     72  S   UNL A   1      40.031  35.839  36.838  1.00  0.00     0.124 S 
ATOM     73  O   UNL A   1      39.756  36.481  35.554  1.00  0.00    -0.237 OA
ATOM     74  O   UNL A   1      39.305  36.371  37.985  1.00  0.00    -0.237 OA
ATOM     75  O   UNL A   1      41.438  35.526  37.080  1.00  0.00    -0.744 OA
ENDBRANCH  68  72
ENDBRANCH  51  65
BRANCH  52  76
ATOM     76  C   UNL A   1      42.412  26.571  27.657  1.00  0.00     0.023 A 
ATOM     77  C   UNL A   1      42.053  25.225  27.477  1.00  0.00     0.031 A 
ATOM     78  C   UNL A   1      43.304  27.142  26.731  1.00  0.00     0.131 A 
ATOM     79  C   UNL A   1      42.624  24.480  26.433  1.00  0.00     0.055 A 
ATOM     80  C   UNL A   1      43.822  26.414  25.658  1.00  0.00     0.041 A 
ATOM     81  F   UNL A   1      43.679  28.425  26.852  1.00  0.00    -0.206 F 
ATOM     82  C   UNL A   1      43.494  25.070  25.513  1.00  0.00     0.022 A 
BRANCH  79  83
ATOM     83  S   UNL A   1      42.287  22.700  26.347  1.00  0.00     0.124 S 
ATOM     84  O   UNL A   1      40.842  22.661  26.542  1.00  0.00    -0.237 OA
ATOM     85  O   UNL A   1      42.763  22.365  25.009  1.00  0.00    -0.237 OA
ATOM     86  O   UNL A   1      43.080  22.150  27.445  1.00  0.00    -0.744 OA
ENDBRANCH  79  83
ENDBRANCH  52  76
BRANCH  64  87
ATOM     87  C   UNL A   1      44.770  27.523  34.149  1.00  0.00     0.023 A 
ATOM     88  C   UNL A   1      44.699  26.266  34.776  1.00  0.00     0.031 A 
ATOM     89  C   UNL A   1      45.970  28.247  34.262  1.00  0.00     0.131 A 
ATOM     90  C   UNL A   1      45.775  25.808  35.550  1.00  0.00     0.055 A 
ATOM     91  C   UNL A   1      47.066  27.751  34.970  1.00  0.00     0.041 A 
ATOM     92  F   UNL A   1      46.098  29.454  33.688  1.00  0.00    -0.206 F 
ATOM     93  C   UNL A   1      46.966  26.533  35.636  1.00  0.00     0.022 A 
BRANCH  90  94
ATOM     94  S   UNL A   1      45.550  24.310  36.550  1.00  0.00     0.124 S 
ATOM     95  O   UNL A   1      45.841  24.797  37.895  1.00  0.00    -0.237 OA
ATOM     96  O   UNL A   1      44.159  23.963  36.284  1.00  0.00    -0.237 OA
ATOM     97  O   UNL A   1      46.537  23.381  36.001  1.00  0.00    -0.744 OA
ENDBRANCH  90  94
ENDBRANCH  64  87
ENDBRANCH  38  39
ENDBRANCH  30  33
ENDBRANCH  28  29
ENDBRANCH  27  28
ENDBRANCH  26  27
ENDBRANCH   1  26
TORSDOF 20
ENDMDL
MODEL 3
REMARK VINA RESULT:     -11.0      2.257      3.777
REMARK SMILES [NH3+]CCOCC(=O)N1C[C@@H](C(=O)NCCCCNC(=O)c2ccc(-c3c4nc(c(-c5cc(S(=O)(=O)[O-])ccc5F)c5ccc([nH]5)c(-c5cc(S(=O)(=O)[O-])ccc5F)c5nc(c(-c6cc(S(=O)(=O)[O-])ccc6F)c6ccc3[nH]6)C=C5)C=C4)cc2)Oc2ccccc21
REMARK SMILES IDX 14 1 13 2 11 3 12 4 10 6 8 7 9 8 90 9 85 10 89 11 84 12
REMARK SMILES IDX 86 13 88 14 87 15 6 16 7 17 5 18 4 19 3 20 2 21 1 22 15 26
REMARK SMILES IDX 16 27 17 28 18 29 19 30 20 32 21 33 22 34 83 35 23 36 82 37
REMARK SMILES IDX 24 38 25 39 26 40 76 41 27 42 81 43 75 44 77 45 28 46 80 47
REMARK SMILES IDX 74 48 73 49 29 51 61 52 41 53 60 54 42 55 45 56 59 57 78 58
REMARK SMILES IDX 43 59 44 60 58 62 79 63 46 64 30 65 31 66 39 67 32 68 38 69
REMARK SMILES IDX 40 70 37 71 33 72 34 73 35 74 36 75 62 76 63 77 71 78 64 79
REMARK SMILES IDX 70 80 72 81 69 82 65 83 66 84 67 85 68 86 47 87 48 88 56 89
REMARK SMILES IDX 49 90 55 91 57 92 54 93 50 94 51 95 52 96 53 97
REMARK H PARENT 13 5 1 23 1 24 1 25 18 31 77 50 45 61
REMARK Flexibility Score: inf
ROOT
ATOM      1  C   UNL A   1      32.427  26.887  23.614  1.00  0.00     0.116 C 
ENDROOT
BRANCH   1   2
ATOM      2  N   UNL A   1      31.969  25.745  24.372  1.00  0.00    -0.353 N 
ATOM      3  C   UNL A   1      32.259  24.421  24.200  1.00  0.00     0.262 C 
ATOM      4  O   UNL A   1      31.834  23.642  25.066  1.00  0.00    -0.271 OA
ATOM      5  H   UNL A   1      31.362  25.949  25.119  1.00  0.00     0.163 HD
BRANCH   3   6
ATOM      6  C   UNL A   1      33.076  23.844  22.993  1.00  0.00     0.281 C 
ATOM      7  N   UNL A   1      33.182  21.521  23.779  1.00  0.00    -0.303 N 
ATOM      8  C   UNL A   1      32.628  22.400  22.741  1.00  0.00     0.181 C 
ATOM      9  C   UNL A   1      34.534  21.820  24.140  1.00  0.00     0.086 A 
ATOM     10  C   UNL A   1      35.158  22.949  23.575  1.00  0.00     0.144 A 
ATOM     11  C   UNL A   1      35.290  21.024  25.006  1.00  0.00     0.030 A 
ATOM     12  O   UNL A   1      34.485  23.920  22.867  1.00  0.00    -0.477 OA
ATOM     13  C   UNL A   1      36.507  23.236  23.817  1.00  0.00     0.049 A 
ATOM     14  C   UNL A   1      36.623  21.347  25.297  1.00  0.00     0.002 A 
ATOM     15  C   UNL A   1      37.234  22.443  24.695  1.00  0.00     0.004 A 
BRANCH   7  16
ATOM     16  C   UNL A   1      32.419  20.536  24.398  1.00  0.00     0.253 C 
ATOM     17  O   UNL A   1      31.738  20.719  25.408  1.00  0.00    -0.272 OA
BRANCH  16  18
ATOM     18  C   UNL A   1      32.536  19.112  23.810  1.00  0.00     0.260 C 
BRANCH  18  19
ATOM     19  O   UNL A   1      32.492  17.963  24.627  1.00  0.00    -0.366 OA
BRANCH  19  20
ATOM     20  C   UNL A   1      33.696  17.196  24.677  1.00  0.00     0.222 C 
BRANCH  20  21
ATOM     21  C   UNL A   1      33.523  15.777  25.237  1.00  0.00     0.287 C 
BRANCH  21  22
ATOM     22  N   UNL A   1      32.138  15.337  25.381  1.00  0.00    -0.356 N 
ATOM     23  H   UNL A   1      32.104  14.318  25.395  1.00  0.00     0.344 HD
ATOM     24  H   UNL A   1      31.587  15.684  24.597  1.00  0.00     0.344 HD
ATOM     25  H   UNL A   1      31.754  15.701  26.254  1.00  0.00     0.344 HD
ENDBRANCH  21  22
ENDBRANCH  20  21
ENDBRANCH  19  20
ENDBRANCH  18  19
ENDBRANCH  16  18
ENDBRANCH   7  16
ENDBRANCH   3   6
ENDBRANCH   1   2
BRANCH   1  26
ATOM     26  C   UNL A   1      31.729  28.202  23.925  1.00  0.00     0.023 C 
BRANCH  26  27
ATOM     27  C   UNL A   1      32.597  29.325  24.476  1.00  0.00     0.023 C 
BRANCH  27  28
ATOM     28  C   UNL A   1      32.569  29.517  25.989  1.00  0.00     0.116 C 
BRANCH  28  29
ATOM     29  N   UNL A   1      32.345  30.894  26.404  1.00  0.00    -0.352 N 
ATOM     30  C   UNL A   1      33.094  31.713  27.222  1.00  0.00     0.251 C 
ATOM     31  H   UNL A   1      31.528  31.307  26.041  1.00  0.00     0.163 HD
ATOM     32  O   UNL A   1      32.659  32.814  27.531  1.00  0.00    -0.269 OA
BRANCH  30  33
ATOM     33  C   UNL A   1      34.396  31.246  27.759  1.00  0.00     0.039 A 
ATOM     34  C   UNL A   1      35.400  32.185  28.006  1.00  0.00     0.014 A 
ATOM     35  C   UNL A   1      34.628  29.896  28.031  1.00  0.00     0.014 A 
ATOM     36  C   UNL A   1      36.596  31.781  28.605  1.00  0.00     0.010 A 
ATOM     37  C   UNL A   1      35.777  29.512  28.719  1.00  0.00     0.010 A 
ATOM     38  C   UNL A   1      36.778  30.449  29.016  1.00  0.00    -0.014 A 
BRANCH  38  39
ATOM     39  C   UNL A   1      38.000  30.037  29.759  1.00  0.00     0.031 A 
ATOM     40  C   UNL A   1      38.259  30.548  31.152  1.00  0.00     0.074 A 
ATOM     41  C   UNL A   1      38.902  29.231  29.160  1.00  0.00     0.049 A 
ATOM     42  N   UNL A   1      39.266  30.301  31.951  1.00  0.00    -0.248 NA
ATOM     43  C   UNL A   1      37.272  31.486  31.710  1.00  0.00     0.031 C 
ATOM     44  C   UNL A   1      38.799  28.721  27.790  1.00  0.00     0.029 A 
ATOM     45  N   UNL A   1      40.079  28.695  29.620  1.00  0.00    -0.354 N 
ATOM     46  C   UNL A   1      39.038  31.055  33.098  1.00  0.00     0.074 A 
ATOM     47  C   UNL A   1      37.835  31.822  32.859  1.00  0.00     0.031 C 
ATOM     48  C   UNL A   1      39.841  27.914  27.539  1.00  0.00     0.029 A 
ATOM     49  C   UNL A   1      40.714  27.882  28.708  1.00  0.00     0.049 A 
ATOM     50  H   UNL A   1      40.437  28.875  30.520  1.00  0.00     0.167 HD
ATOM     51  C   UNL A   1      39.749  31.083  34.253  1.00  0.00     0.034 A 
ATOM     52  C   UNL A   1      41.867  27.191  28.800  1.00  0.00     0.034 A 
ATOM     53  C   UNL A   1      40.943  30.304  34.478  1.00  0.00     0.049 A 
ATOM     54  C   UNL A   1      42.643  27.244  30.092  1.00  0.00     0.074 A 
ATOM     55  C   UNL A   1      41.706  30.210  35.630  1.00  0.00     0.029 A 
ATOM     56  N   UNL A   1      41.557  29.494  33.532  1.00  0.00    -0.354 N 
ATOM     57  N   UNL A   1      42.371  27.904  31.194  1.00  0.00    -0.248 NA
ATOM     58  C   UNL A   1      43.873  26.445  30.157  1.00  0.00     0.031 C 
ATOM     59  C   UNL A   1      42.818  29.407  35.357  1.00  0.00     0.029 A 
ATOM     60  C   UNL A   1      42.706  28.927  34.062  1.00  0.00     0.049 A 
ATOM     61  H   UNL A   1      41.224  29.345  32.616  1.00  0.00     0.167 HD
ATOM     62  C   UNL A   1      43.382  27.574  32.092  1.00  0.00     0.074 A 
ATOM     63  C   UNL A   1      44.251  26.637  31.410  1.00  0.00     0.031 C 
ATOM     64  C   UNL A   1      43.578  28.008  33.365  1.00  0.00     0.034 A 
BRANCH  51  65
ATOM     65  C   UNL A   1      39.261  32.002  35.350  1.00  0.00     0.023 A 
ATOM     66  C   UNL A   1      39.675  33.345  35.432  1.00  0.00     0.031 A 
ATOM     67  C   UNL A   1      38.381  31.529  36.340  1.00  0.00     0.131 A 
ATOM     68  C   UNL A   1      39.272  34.141  36.515  1.00  0.00     0.055 A 
ATOM     69  C   UNL A   1      37.915  32.351  37.368  1.00  0.00     0.041 A 
ATOM     70  F   UNL A   1      37.965  30.252  36.329  1.00  0.00    -0.206 F 
ATOM     71  C   UNL A   1      38.372  33.661  37.469  1.00  0.00     0.022 A 
BRANCH  68  72
ATOM     72  S   UNL A   1      40.051  35.763  36.736  1.00  0.00     0.124 S 
ATOM     73  O   UNL A   1      41.465  35.401  36.831  1.00  0.00    -0.237 OA
ATOM     74  O   UNL A   1      39.654  36.473  35.526  1.00  0.00    -0.237 OA
ATOM     75  O   UNL A   1      39.460  36.261  37.976  1.00  0.00    -0.744 OA
ENDBRANCH  68  72
ENDBRANCH  51  65
BRANCH  52  76
ATOM     76  C   UNL A   1      42.367  26.389  27.643  1.00  0.00     0.023 A 
ATOM     77  C   UNL A   1      41.961  25.059  27.450  1.00  0.00     0.031 A 
ATOM     78  C   UNL A   1      43.300  26.928  26.739  1.00  0.00     0.131 A 
ATOM     79  C   UNL A   1      42.525  24.296  26.414  1.00  0.00     0.055 A 
ATOM     80  C   UNL A   1      43.813  26.185  25.674  1.00  0.00     0.041 A 
ATOM     81  F   UNL A   1      43.722  28.196  26.874  1.00  0.00    -0.206 F 
ATOM     82  C   UNL A   1      43.437  24.854  25.516  1.00  0.00     0.022 A 
BRANCH  79  83
ATOM     83  S   UNL A   1      42.122  22.530  26.315  1.00  0.00     0.124 S 
ATOM     84  O   UNL A   1      42.658  22.177  25.004  1.00  0.00    -0.237 OA
ATOM     85  O   UNL A   1      42.837  21.991  27.466  1.00  0.00    -0.237 OA
ATOM     86  O   UNL A   1      40.665  22.507  26.421  1.00  0.00    -0.744 OA
ENDBRANCH  79  83
ENDBRANCH  52  76
BRANCH  64  87
ATOM     87  C   UNL A   1      44.762  27.434  34.107  1.00  0.00     0.023 A 
ATOM     88  C   UNL A   1      44.676  26.220  34.812  1.00  0.00     0.031 A 
ATOM     89  C   UNL A   1      45.984  28.129  34.142  1.00  0.00     0.131 A 
ATOM     90  C   UNL A   1      45.762  25.779  35.582  1.00  0.00     0.055 A 
ATOM     91  C   UNL A   1      47.087  27.646  34.848  1.00  0.00     0.041 A 
ATOM     92  F   UNL A   1      46.126  29.295  33.492  1.00  0.00    -0.206 F 
ATOM     93  C   UNL A   1      46.973  26.474  35.590  1.00  0.00     0.022 A 
BRANCH  90  94
ATOM     94  S   UNL A   1      45.527  24.351  36.678  1.00  0.00     0.124 S 
ATOM     95  O   UNL A   1      45.683  24.954  37.998  1.00  0.00    -0.237 OA
ATOM     96  O   UNL A   1      44.180  23.911  36.332  1.00  0.00    -0.237 OA
ATOM     97  O   UNL A   1      46.598  23.437  36.284  1.00  0.00    -0.744 OA
ENDBRANCH  90  94
ENDBRANCH  64  87
ENDBRANCH  38  39
ENDBRANCH  30  33
ENDBRANCH  28  29
ENDBRANCH  27  28
ENDBRANCH  26  27
ENDBRANCH   1  26
TORSDOF 20
ENDMDL
