MODEL 1
REMARK VINA RESULT:     -12.1      0.000      0.000
REMARK SMILES CCNC(=O)c1cccc(-c2ccc(Cl)c(C(=O)NCCCCNC(=O)c3ccc(-c4c5nc(c(-c6cc(S(=O)(=O)[O-])ccc6F)c6ccc([nH]6)c(-c6cc(S(=O)(=O)[O-])ccc6F)c6nc(c(-c7cc(S(=O)(=O)[O-])ccc7F)c7ccc4[nH]7)C=C6)C=C5)cc3)c2)c1
REMARK SMILES IDX 21 1 20 2 19 3 17 4 18 5 16 7 11 8 12 9 90 10 13 11 14 12
REMARK SMILES IDX 15 13 10 14 6 15 7 16 91 17 8 18 9 19 4 20 3 21 5 23 2 24
REMARK SMILES IDX 1 25 22 26 23 27 24 28 25 29 26 31 27 32 28 33 89 34 29 35
REMARK SMILES IDX 88 36 30 37 31 38 32 39 82 40 33 41 87 42 81 43 83 44 34 45
REMARK SMILES IDX 86 46 80 47 79 48 35 50 67 51 47 52 66 53 48 54 51 55 65 56
REMARK SMILES IDX 84 57 49 58 50 59 64 61 85 62 52 63 36 64 37 65 45 66 38 67
REMARK SMILES IDX 44 68 46 69 43 70 39 71 40 72 41 73 42 74 68 75 69 76 77 77
REMARK SMILES IDX 70 78 76 79 78 80 75 81 71 82 72 83 73 84 74 85 53 86 54 87
REMARK SMILES IDX 62 88 55 89 61 90 63 91 60 92 56 93 57 94 58 95 59 96
REMARK H PARENT 19 6 3 22 24 30 83 49 51 60
REMARK Flexibility Score: inf
ROOT
ATOM      1  C   UNL A   1      32.311  27.219  26.472  1.00  0.00     0.023 C 
ENDROOT
BRANCH   1   2
ATOM      2  C   UNL A   1      31.324  26.062  26.486  1.00  0.00     0.116 C 
BRANCH   2   3
ATOM      3  N   UNL A   1      30.129  26.233  25.666  1.00  0.00    -0.352 N 
ATOM      4  C   UNL A   1      29.863  25.922  24.342  1.00  0.00     0.252 C 
ATOM      5  O   UNL A   1      28.706  26.028  23.945  1.00  0.00    -0.269 OA
ATOM      6  H   UNL A   1      29.370  26.644  26.142  1.00  0.00     0.163 HD
BRANCH   4   7
ATOM      7  C   UNL A   1      30.939  25.485  23.405  1.00  0.00     0.059 A 
ATOM      8  C   UNL A   1      32.686  23.821  22.959  1.00  0.00    -0.017 A 
ATOM      9  C   UNL A   1      33.220  24.675  21.987  1.00  0.00     0.010 A 
ATOM     10  C   UNL A   1      31.460  24.192  23.533  1.00  0.00     0.024 A 
ATOM     11  C   UNL A   1      32.607  25.899  21.701  1.00  0.00     0.022 A 
ATOM     12  C   UNL A   1      31.498  26.331  22.441  1.00  0.00     0.053 A 
ATOM     13  Cl  UNL A   1      30.940  27.933  22.120  1.00  0.00    -0.083 Cl
BRANCH   8  14
ATOM     14  C   UNL A   1      33.430  22.661  23.499  1.00  0.00    -0.018 A 
ATOM     15  C   UNL A   1      33.461  20.448  24.548  1.00  0.00     0.040 A 
ATOM     16  C   UNL A   1      34.830  20.567  24.796  1.00  0.00     0.014 A 
ATOM     17  C   UNL A   1      32.768  21.503  23.941  1.00  0.00     0.022 A 
ATOM     18  C   UNL A   1      35.507  21.711  24.384  1.00  0.00     0.001 A 
ATOM     19  C   UNL A   1      34.816  22.737  23.734  1.00  0.00     0.009 A 
BRANCH  15  20
ATOM     20  C   UNL A   1      32.753  19.244  25.040  1.00  0.00     0.251 C 
ATOM     21  N   UNL A   1      32.458  18.200  24.200  1.00  0.00    -0.352 N 
ATOM     22  H   UNL A   1      31.833  17.537  24.573  1.00  0.00     0.163 HD
ATOM     23  O   UNL A   1      32.428  19.183  26.223  1.00  0.00    -0.269 OA
BRANCH  21  24
ATOM     24  C   UNL A   1      32.918  17.911  22.852  1.00  0.00     0.112 C 
ATOM     25  C   UNL A   1      33.998  16.849  22.859  1.00  0.00     0.027 C 
ENDBRANCH  21  24
ENDBRANCH  15  20
ENDBRANCH   8  14
ENDBRANCH   4   7
ENDBRANCH   2   3
ENDBRANCH   1   2
BRANCH   1  26
ATOM     26  C   UNL A   1      31.807  28.548  25.931  1.00  0.00     0.023 C 
BRANCH  26  27
ATOM     27  C   UNL A   1      32.861  29.615  25.664  1.00  0.00     0.116 C 
BRANCH  27  28
ATOM     28  N   UNL A   1      32.544  30.920  26.223  1.00  0.00    -0.352 N 
ATOM     29  C   UNL A   1      33.227  31.672  27.158  1.00  0.00     0.251 C 
ATOM     30  H   UNL A   1      31.716  31.328  25.885  1.00  0.00     0.163 HD
ATOM     31  O   UNL A   1      32.749  32.723  27.552  1.00  0.00    -0.269 OA
BRANCH  29  32
ATOM     32  C   UNL A   1      34.511  31.181  27.715  1.00  0.00     0.039 A 
ATOM     33  C   UNL A   1      35.547  32.097  27.919  1.00  0.00     0.014 A 
ATOM     34  C   UNL A   1      34.694  29.838  28.049  1.00  0.00     0.014 A 
ATOM     35  C   UNL A   1      36.731  31.680  28.535  1.00  0.00     0.010 A 
ATOM     36  C   UNL A   1      35.836  29.444  28.742  1.00  0.00     0.010 A 
ATOM     37  C   UNL A   1      36.869  30.360  28.991  1.00  0.00    -0.014 A 
BRANCH  37  38
ATOM     38  C   UNL A   1      38.094  29.910  29.705  1.00  0.00     0.031 A 
ATOM     39  C   UNL A   1      38.397  30.443  31.081  1.00  0.00     0.074 A 
ATOM     40  C   UNL A   1      38.963  29.079  29.096  1.00  0.00     0.049 A 
ATOM     41  N   UNL A   1      39.448  30.246  31.835  1.00  0.00    -0.248 NA
ATOM     42  C   UNL A   1      37.398  31.349  31.667  1.00  0.00     0.031 C 
ATOM     43  C   UNL A   1      38.805  28.530  27.747  1.00  0.00     0.029 A 
ATOM     44  N   UNL A   1      40.157  28.555  29.527  1.00  0.00    -0.354 N 
ATOM     45  C   UNL A   1      39.245  31.016  32.976  1.00  0.00     0.074 A 
ATOM     46  C   UNL A   1      38.006  31.738  32.776  1.00  0.00     0.031 C 
ATOM     47  C   UNL A   1      39.846  27.726  27.475  1.00  0.00     0.029 A 
ATOM     48  C   UNL A   1      40.766  27.733  28.608  1.00  0.00     0.049 A 
ATOM     49  H   UNL A   1      40.540  28.750  30.412  1.00  0.00     0.167 HD
ATOM     50  C   UNL A   1      40.004  31.093  34.097  1.00  0.00     0.034 A 
ATOM     51  C   UNL A   1      41.936  27.065  28.669  1.00  0.00     0.034 A 
ATOM     52  C   UNL A   1      41.227  30.352  34.287  1.00  0.00     0.049 A 
ATOM     53  C   UNL A   1      42.769  27.170  29.922  1.00  0.00     0.074 A 
ATOM     54  C   UNL A   1      42.052  30.317  35.398  1.00  0.00     0.029 A 
ATOM     55  N   UNL A   1      41.806  29.516  33.339  1.00  0.00    -0.354 N 
ATOM     56  N   UNL A   1      42.542  27.869  31.010  1.00  0.00    -0.248 NA
ATOM     57  C   UNL A   1      44.009  26.385  29.958  1.00  0.00     0.031 C 
ATOM     58  C   UNL A   1      43.156  29.510  35.101  1.00  0.00     0.029 A 
ATOM     59  C   UNL A   1      42.985  28.979  33.831  1.00  0.00     0.049 A 
ATOM     60  H   UNL A   1      41.431  29.332  32.447  1.00  0.00     0.167 HD
ATOM     61  C   UNL A   1      43.593  27.577  31.874  1.00  0.00     0.074 A 
ATOM     62  C   UNL A   1      44.447  26.632  31.184  1.00  0.00     0.031 C 
ATOM     63  C   UNL A   1      43.829  28.042  33.128  1.00  0.00     0.034 A 
BRANCH  50  64
ATOM     64  C   UNL A   1      39.532  32.030  35.186  1.00  0.00     0.023 A 
ATOM     65  C   UNL A   1      39.982  33.361  35.258  1.00  0.00     0.031 A 
ATOM     66  C   UNL A   1      38.665  31.577  36.195  1.00  0.00     0.131 A 
ATOM     67  C   UNL A   1      39.642  34.158  36.362  1.00  0.00     0.055 A 
ATOM     68  C   UNL A   1      38.256  32.405  37.243  1.00  0.00     0.041 A 
ATOM     69  F   UNL A   1      38.217  30.312  36.194  1.00  0.00    -0.206 F 
ATOM     70  C   UNL A   1      38.761  33.698  37.341  1.00  0.00     0.022 A 
BRANCH  67  71
ATOM     71  S   UNL A   1      40.503  35.740  36.582  1.00  0.00     0.124 S 
ATOM     72  O   UNL A   1      40.465  35.896  38.034  1.00  0.00    -0.237 OA
ATOM     73  O   UNL A   1      41.813  35.470  36.004  1.00  0.00    -0.237 OA
ATOM     74  O   UNL A   1      39.675  36.687  35.839  1.00  0.00    -0.744 OA
ENDBRANCH  67  71
ENDBRANCH  50  64
BRANCH  51  75
ATOM     75  C   UNL A   1      42.393  26.232  27.520  1.00  0.00     0.023 A 
ATOM     76  C   UNL A   1      41.994  24.891  27.397  1.00  0.00     0.031 A 
ATOM     77  C   UNL A   1      43.268  26.751  26.549  1.00  0.00     0.131 A 
ATOM     78  C   UNL A   1      42.505  24.101  26.355  1.00  0.00     0.055 A 
ATOM     79  C   UNL A   1      43.732  25.976  25.485  1.00  0.00     0.041 A 
ATOM     80  F   UNL A   1      43.674  28.029  26.615  1.00  0.00    -0.206 F 
ATOM     81  C   UNL A   1      43.361  24.639  25.391  1.00  0.00     0.022 A 
BRANCH  78  82
ATOM     82  S   UNL A   1      42.092  22.335  26.321  1.00  0.00     0.124 S 
ATOM     83  O   UNL A   1      40.634  22.371  26.287  1.00  0.00    -0.237 OA
ATOM     84  O   UNL A   1      42.753  21.892  25.099  1.00  0.00    -0.237 OA
ATOM     85  O   UNL A   1      42.675  21.826  27.561  1.00  0.00    -0.744 OA
ENDBRANCH  78  82
ENDBRANCH  51  75
BRANCH  63  86
ATOM     86  C   UNL A   1      45.033  27.486  33.849  1.00  0.00     0.023 A 
ATOM     87  C   UNL A   1      44.979  26.275  34.561  1.00  0.00     0.031 A 
ATOM     88  C   UNL A   1      46.250  28.191  33.832  1.00  0.00     0.131 A 
ATOM     89  C   UNL A   1      46.104  25.835  35.274  1.00  0.00     0.055 A 
ATOM     90  C   UNL A   1      47.384  27.717  34.493  1.00  0.00     0.041 A 
ATOM     91  F   UNL A   1      46.358  29.354  33.168  1.00  0.00    -0.206 F 
ATOM     92  C   UNL A   1      47.311  26.539  35.232  1.00  0.00     0.022 A 
BRANCH  89  93
ATOM     93  S   UNL A   1      45.945  24.375  36.338  1.00  0.00     0.124 S 
ATOM     94  O   UNL A   1      44.504  24.145  36.325  1.00  0.00    -0.237 OA
ATOM     95  O   UNL A   1      46.755  23.386  35.634  1.00  0.00    -0.237 OA
ATOM     96  O   UNL A   1      46.490  24.822  37.620  1.00  0.00    -0.744 OA
ENDBRANCH  89  93
ENDBRANCH  63  86
ENDBRANCH  37  38
ENDBRANCH  29  32
ENDBRANCH  27  28
ENDBRANCH  26  27
ENDBRANCH   1  26
TORSDOF 17
ENDMDL
MODEL 2
REMARK VINA RESULT:     -12.0      1.707      7.652
REMARK SMILES CCNC(=O)c1cccc(-c2ccc(Cl)c(C(=O)NCCCCNC(=O)c3ccc(-c4c5nc(c(-c6cc(S(=O)(=O)[O-])ccc6F)c6ccc([nH]6)c(-c6cc(S(=O)(=O)[O-])ccc6F)c6nc(c(-c7cc(S(=O)(=O)[O-])ccc7F)c7ccc4[nH]7)C=C6)C=C5)cc3)c2)c1
REMARK SMILES IDX 21 1 20 2 19 3 17 4 18 5 16 7 11 8 12 9 90 10 13 11 14 12
REMARK SMILES IDX 15 13 10 14 6 15 7 16 91 17 8 18 9 19 4 20 3 21 5 23 2 24
REMARK SMILES IDX 1 25 22 26 23 27 24 28 25 29 26 31 27 32 28 33 89 34 29 35
REMARK SMILES IDX 88 36 30 37 31 38 32 39 82 40 33 41 87 42 81 43 83 44 34 45
REMARK SMILES IDX 86 46 80 47 79 48 35 50 67 51 47 52 66 53 48 54 51 55 65 56
REMARK SMILES IDX 84 57 49 58 50 59 64 61 85 62 52 63 36 64 37 65 45 66 38 67
REMARK SMILES IDX 44 68 46 69 43 70 39 71 40 72 41 73 42 74 68 75 69 76 77 77
REMARK SMILES IDX 70 78 76 79 78 80 75 81 71 82 72 83 73 84 74 85 53 86 54 87
REMARK SMILES IDX 62 88 55 89 61 90 63 91 60 92 56 93 57 94 58 95 59 96
REMARK H PARENT 19 6 3 22 24 30 83 49 51 60
REMARK Flexibility Score: inf
ROOT
ATOM      1  C   UNL A   1      32.091  27.006  26.358  1.00  0.00     0.023 C 
ENDROOT
BRANCH   1   2
ATOM      2  C   UNL A   1      30.990  25.960  26.430  1.00  0.00     0.116 C 
BRANCH   2   3
ATOM      3  N   UNL A   1      29.892  26.122  25.482  1.00  0.00    -0.352 N 
ATOM      4  C   UNL A   1      29.843  26.032  24.100  1.00  0.00     0.252 C 
ATOM      5  O   UNL A   1      28.741  26.057  23.559  1.00  0.00    -0.269 OA
ATOM      6  H   UNL A   1      29.027  26.334  25.902  1.00  0.00     0.163 HD
BRANCH   4   7
ATOM      7  C   UNL A   1      31.080  25.922  23.274  1.00  0.00     0.059 A 
ATOM      8  C   UNL A   1      33.120  24.630  22.838  1.00  0.00    -0.017 A 
ATOM      9  C   UNL A   1      33.616  25.706  22.095  1.00  0.00     0.010 A 
ATOM     10  C   UNL A   1      31.789  24.715  23.278  1.00  0.00     0.024 A 
ATOM     11  C   UNL A   1      32.847  26.859  21.911  1.00  0.00     0.022 A 
ATOM     12  C   UNL A   1      31.601  26.992  22.539  1.00  0.00     0.053 A 
ATOM     13  Cl  UNL A   1      30.827  28.529  22.386  1.00  0.00    -0.083 Cl
BRANCH   8  14
ATOM     14  C   UNL A   1      33.977  23.514  23.299  1.00  0.00    -0.018 A 
ATOM     15  C   UNL A   1      34.288  21.457  24.593  1.00  0.00     0.040 A 
ATOM     16  C   UNL A   1      35.670  21.539  24.420  1.00  0.00     0.014 A 
ATOM     17  C   UNL A   1      33.460  22.458  24.069  1.00  0.00     0.022 A 
ATOM     18  C   UNL A   1      36.212  22.584  23.677  1.00  0.00     0.001 A 
ATOM     19  C   UNL A   1      35.372  23.551  23.115  1.00  0.00     0.009 A 
BRANCH  15  20
ATOM     20  C   UNL A   1      33.741  20.364  25.429  1.00  0.00     0.251 C 
ATOM     21  N   UNL A   1      33.662  20.485  26.793  1.00  0.00    -0.352 N 
ATOM     22  H   UNL A   1      33.459  19.646  27.268  1.00  0.00     0.163 HD
ATOM     23  O   UNL A   1      33.350  19.334  24.885  1.00  0.00    -0.269 OA
BRANCH  21  24
ATOM     24  C   UNL A   1      33.826  21.645  27.652  1.00  0.00     0.112 C 
ATOM     25  C   UNL A   1      32.627  22.567  27.562  1.00  0.00     0.027 C 
ENDBRANCH  21  24
ENDBRANCH  15  20
ENDBRANCH   8  14
ENDBRANCH   4   7
ENDBRANCH   2   3
ENDBRANCH   1   2
BRANCH   1  26
ATOM     26  C   UNL A   1      31.678  28.456  26.563  1.00  0.00     0.023 C 
BRANCH  26  27
ATOM     27  C   UNL A   1      32.539  29.510  25.878  1.00  0.00     0.116 C 
BRANCH  27  28
ATOM     28  N   UNL A   1      32.220  30.877  26.254  1.00  0.00    -0.352 N 
ATOM     29  C   UNL A   1      32.907  31.755  27.070  1.00  0.00     0.251 C 
ATOM     30  H   UNL A   1      31.386  31.231  25.870  1.00  0.00     0.163 HD
ATOM     31  O   UNL A   1      32.426  32.848  27.318  1.00  0.00    -0.269 OA
BRANCH  29  32
ATOM     32  C   UNL A   1      34.198  31.351  27.677  1.00  0.00     0.039 A 
ATOM     33  C   UNL A   1      35.160  32.335  27.924  1.00  0.00     0.014 A 
ATOM     34  C   UNL A   1      34.459  30.023  28.017  1.00  0.00     0.014 A 
ATOM     35  C   UNL A   1      36.344  32.000  28.586  1.00  0.00     0.010 A 
ATOM     36  C   UNL A   1      35.597  29.706  28.756  1.00  0.00     0.010 A 
ATOM     37  C   UNL A   1      36.554  30.690  29.046  1.00  0.00    -0.014 A 
BRANCH  37  38
ATOM     38  C   UNL A   1      37.778  30.323  29.808  1.00  0.00     0.031 A 
ATOM     39  C   UNL A   1      38.776  29.369  29.206  1.00  0.00     0.074 A 
ATOM     40  C   UNL A   1      37.959  30.791  31.058  1.00  0.00     0.049 A 
ATOM     41  N   UNL A   1      39.857  28.856  29.735  1.00  0.00    -0.248 NA
ATOM     42  C   UNL A   1      38.496  28.903  27.840  1.00  0.00     0.031 C 
ATOM     43  C   UNL A   1      37.042  31.684  31.769  1.00  0.00     0.029 A 
ATOM     44  N   UNL A   1      38.973  30.575  31.959  1.00  0.00    -0.354 N 
ATOM     45  C   UNL A   1      40.377  27.994  28.773  1.00  0.00     0.074 A 
ATOM     46  C   UNL A   1      39.448  28.001  27.663  1.00  0.00     0.031 C 
ATOM     47  C   UNL A   1      37.549  31.962  32.982  1.00  0.00     0.029 A 
ATOM     48  C   UNL A   1      38.803  31.236  33.154  1.00  0.00     0.049 A 
ATOM     49  H   UNL A   1      39.749  30.001  31.768  1.00  0.00     0.167 HD
ATOM     50  C   UNL A   1      41.533  27.285  28.801  1.00  0.00     0.034 A 
ATOM     51  C   UNL A   1      39.569  31.251  34.263  1.00  0.00     0.034 A 
ATOM     52  C   UNL A   1      42.456  27.304  29.909  1.00  0.00     0.049 A 
ATOM     53  C   UNL A   1      40.847  30.450  34.276  1.00  0.00     0.074 A 
ATOM     54  C   UNL A   1      43.677  26.663  30.028  1.00  0.00     0.029 A 
ATOM     55  N   UNL A   1      42.258  27.998  31.097  1.00  0.00    -0.354 N 
ATOM     56  N   UNL A   1      41.347  29.674  33.342  1.00  0.00    -0.248 NA
ATOM     57  C   UNL A   1      41.670  30.538  35.489  1.00  0.00     0.031 C 
ATOM     58  C   UNL A   1      44.188  26.921  31.305  1.00  0.00     0.029 A 
ATOM     59  C   UNL A   1      43.322  27.784  31.959  1.00  0.00     0.049 A 
ATOM     60  H   UNL A   1      41.475  28.562  31.296  1.00  0.00     0.167 HD
ATOM     61  C   UNL A   1      42.561  29.212  33.842  1.00  0.00     0.074 A 
ATOM     62  C   UNL A   1      42.722  29.805  35.154  1.00  0.00     0.031 C 
ATOM     63  C   UNL A   1      43.466  28.378  33.267  1.00  0.00     0.034 A 
BRANCH  50  64
ATOM     64  C   UNL A   1      41.840  26.419  27.600  1.00  0.00     0.023 A 
ATOM     65  C   UNL A   1      41.433  25.074  27.540  1.00  0.00     0.031 A 
ATOM     66  C   UNL A   1      42.591  26.925  26.526  1.00  0.00     0.131 A 
ATOM     67  C   UNL A   1      41.860  24.258  26.481  1.00  0.00     0.055 A 
ATOM     68  C   UNL A   1      42.935  26.131  25.428  1.00  0.00     0.041 A 
ATOM     69  F   UNL A   1      43.026  28.194  26.533  1.00  0.00    -0.206 F 
ATOM     70  C   UNL A   1      42.585  24.784  25.411  1.00  0.00     0.022 A 
BRANCH  67  71
ATOM     71  S   UNL A   1      41.596  22.468  26.609  1.00  0.00     0.124 S 
ATOM     72  O   UNL A   1      40.215  22.341  26.151  1.00  0.00    -0.237 OA
ATOM     73  O   UNL A   1      42.617  21.933  25.717  1.00  0.00    -0.237 OA
ATOM     74  O   UNL A   1      41.801  22.193  28.029  1.00  0.00    -0.744 OA
ENDBRANCH  67  71
ENDBRANCH  50  64
BRANCH  51  75
ATOM     75  C   UNL A   1      39.163  32.052  35.454  1.00  0.00     0.023 A 
ATOM     76  C   UNL A   1      38.492  31.451  36.532  1.00  0.00     0.031 A 
ATOM     77  C   UNL A   1      39.404  33.436  35.515  1.00  0.00     0.131 A 
ATOM     78  C   UNL A   1      38.043  32.240  37.604  1.00  0.00     0.055 A 
ATOM     79  C   UNL A   1      39.001  34.207  36.607  1.00  0.00     0.041 A 
ATOM     80  F   UNL A   1      40.049  34.057  34.514  1.00  0.00    -0.206 F 
ATOM     81  C   UNL A   1      38.304  33.612  37.653  1.00  0.00     0.022 A 
BRANCH  78  82
ATOM     82  S   UNL A   1      37.043  31.457  38.899  1.00  0.00     0.124 S 
ATOM     83  O   UNL A   1      37.895  31.617  40.070  1.00  0.00    -0.237 OA
ATOM     84  O   UNL A   1      35.828  32.264  38.872  1.00  0.00    -0.237 OA
ATOM     85  O   UNL A   1      36.885  30.084  38.422  1.00  0.00    -0.744 OA
ENDBRANCH  78  82
ENDBRANCH  51  75
BRANCH  63  86
ATOM     86  C   UNL A   1      44.735  28.109  34.039  1.00  0.00     0.023 A 
ATOM     87  C   UNL A   1      44.850  27.023  34.924  1.00  0.00     0.031 A 
ATOM     88  C   UNL A   1      45.842  28.964  33.891  1.00  0.00     0.131 A 
ATOM     89  C   UNL A   1      46.025  26.855  35.672  1.00  0.00     0.055 A 
ATOM     90  C   UNL A   1      47.030  28.756  34.592  1.00  0.00     0.041 A 
ATOM     91  F   UNL A   1      45.787  30.017  33.059  1.00  0.00    -0.206 F 
ATOM     92  C   UNL A   1      47.122  27.704  35.500  1.00  0.00     0.022 A 
BRANCH  89  93
ATOM     93  S   UNL A   1      46.070  25.563  36.945  1.00  0.00     0.124 S 
ATOM     94  O   UNL A   1      47.229  25.960  37.738  1.00  0.00    -0.237 OA
ATOM     95  O   UNL A   1      44.771  25.717  37.591  1.00  0.00    -0.237 OA
ATOM     96  O   UNL A   1      46.236  24.329  36.177  1.00  0.00    -0.744 OA
ENDBRANCH  89  93
ENDBRANCH  63  86
ENDBRANCH  37  38
ENDBRANCH  29  32
ENDBRANCH  27  28
ENDBRANCH  26  27
ENDBRANCH   1  26
TORSDOF 17
ENDMDL
MODEL 3
REMARK VINA RESULT:     -11.7      1.806      2.495
REMARK SMILES CCNC(=O)c1cccc(-c2ccc(Cl)c(C(=O)NCCCCNC(=O)c3ccc(-c4c5nc(c(-c6cc(S(=O)(=O)[O-])ccc6F)c6ccc([nH]6)c(-c6cc(S(=O)(=O)[O-])ccc6F)c6nc(c(-c7cc(S(=O)(=O)[O-])ccc7F)c7ccc4[nH]7)C=C6)C=C5)cc3)c2)c1
REMARK SMILES IDX 21 1 20 2 19 3 17 4 18 5 16 7 11 8 12 9 90 10 13 11 14 12
REMARK SMILES IDX 15 13 10 14 6 15 7 16 91 17 8 18 9 19 4 20 3 21 5 23 2 24
REMARK SMILES IDX 1 25 22 26 23 27 24 28 25 29 26 31 27 32 28 33 89 34 29 35
REMARK SMILES IDX 88 36 30 37 31 38 32 39 82 40 33 41 87 42 81 43 83 44 34 45
REMARK SMILES IDX 86 46 80 47 79 48 35 50 67 51 47 52 66 53 48 54 51 55 65 56
REMARK SMILES IDX 84 57 49 58 50 59 64 61 85 62 52 63 36 64 37 65 45 66 38 67
REMARK SMILES IDX 44 68 46 69 43 70 39 71 40 72 41 73 42 74 68 75 69 76 77 77
REMARK SMILES IDX 70 78 76 79 78 80 75 81 71 82 72 83 73 84 74 85 53 86 54 87
REMARK SMILES IDX 62 88 55 89 61 90 63 91 60 92 56 93 57 94 58 95 59 96
REMARK H PARENT 19 6 3 22 24 30 83 49 51 60
REMARK Flexibility Score: inf
ROOT
ATOM      1  C   UNL A   1      31.903  27.792  26.685  1.00  0.00     0.023 C 
ENDROOT
BRANCH   1   2
ATOM      2  C   UNL A   1      31.307  26.410  26.470  1.00  0.00     0.116 C 
BRANCH   2   3
ATOM      3  N   UNL A   1      30.168  26.340  25.560  1.00  0.00    -0.352 N 
ATOM      4  C   UNL A   1      30.035  25.815  24.284  1.00  0.00     0.252 C 
ATOM      5  O   UNL A   1      28.908  25.746  23.803  1.00  0.00    -0.269 OA
ATOM      6  H   UNL A   1      29.342  26.738  25.918  1.00  0.00     0.163 HD
BRANCH   4   7
ATOM      7  C   UNL A   1      31.215  25.355  23.495  1.00  0.00     0.059 A 
ATOM      8  C   UNL A   1      32.995  23.678  23.299  1.00  0.00    -0.017 A 
ATOM      9  C   UNL A   1      33.647  24.510  22.383  1.00  0.00     0.010 A 
ATOM     10  C   UNL A   1      31.710  24.064  23.712  1.00  0.00     0.024 A 
ATOM     11  C   UNL A   1      33.080  25.729  21.998  1.00  0.00     0.022 A 
ATOM     12  C   UNL A   1      31.891  26.179  22.588  1.00  0.00     0.053 A 
ATOM     13  Cl  UNL A   1      31.384  27.776  22.167  1.00  0.00    -0.083 Cl
BRANCH   8  14
ATOM     14  C   UNL A   1      33.662  22.528  23.951  1.00  0.00    -0.018 A 
ATOM     15  C   UNL A   1      35.699  21.365  24.658  1.00  0.00     0.040 A 
ATOM     16  C   UNL A   1      34.963  20.210  24.930  1.00  0.00     0.014 A 
ATOM     17  C   UNL A   1      35.055  22.495  24.138  1.00  0.00     0.022 A 
ATOM     18  C   UNL A   1      33.585  20.209  24.737  1.00  0.00     0.001 A 
ATOM     19  C   UNL A   1      32.944  21.358  24.264  1.00  0.00     0.009 A 
BRANCH  15  20
ATOM     20  C   UNL A   1      37.169  21.325  24.824  1.00  0.00     0.251 C 
ATOM     21  N   UNL A   1      37.861  22.412  25.293  1.00  0.00    -0.352 N 
ATOM     22  H   UNL A   1      38.839  22.351  25.194  1.00  0.00     0.163 HD
ATOM     23  O   UNL A   1      37.776  20.296  24.536  1.00  0.00    -0.269 OA
BRANCH  21  24
ATOM     24  C   UNL A   1      37.389  23.639  25.913  1.00  0.00     0.112 C 
ATOM     25  C   UNL A   1      38.530  24.399  26.560  1.00  0.00     0.027 C 
ENDBRANCH  21  24
ENDBRANCH  15  20
ENDBRANCH   8  14
ENDBRANCH   4   7
ENDBRANCH   2   3
ENDBRANCH   1   2
BRANCH   1  26
ATOM     26  C   UNL A   1      32.339  28.555  25.444  1.00  0.00     0.023 C 
BRANCH  26  27
ATOM     27  C   UNL A   1      33.474  29.555  25.625  1.00  0.00     0.116 C 
BRANCH  27  28
ATOM     28  N   UNL A   1      33.062  30.828  26.194  1.00  0.00    -0.352 N 
ATOM     29  C   UNL A   1      33.625  31.564  27.218  1.00  0.00     0.251 C 
ATOM     30  H   UNL A   1      32.259  31.225  25.789  1.00  0.00     0.163 HD
ATOM     31  O   UNL A   1      33.077  32.586  27.597  1.00  0.00    -0.269 OA
BRANCH  29  32
ATOM     32  C   UNL A   1      34.862  31.089  27.883  1.00  0.00     0.039 A 
ATOM     33  C   UNL A   1      35.939  31.972  28.005  1.00  0.00     0.014 A 
ATOM     34  C   UNL A   1      34.962  29.795  28.398  1.00  0.00     0.014 A 
ATOM     35  C   UNL A   1      37.079  31.584  28.715  1.00  0.00     0.010 A 
ATOM     36  C   UNL A   1      36.058  29.443  29.181  1.00  0.00     0.010 A 
ATOM     37  C   UNL A   1      37.131  30.331  29.346  1.00  0.00    -0.014 A 
BRANCH  37  38
ATOM     38  C   UNL A   1      38.308  29.921  30.159  1.00  0.00     0.031 A 
ATOM     39  C   UNL A   1      38.490  30.481  31.546  1.00  0.00     0.074 A 
ATOM     40  C   UNL A   1      39.239  29.102  29.633  1.00  0.00     0.049 A 
ATOM     41  N   UNL A   1      39.484  30.320  32.381  1.00  0.00    -0.248 NA
ATOM     42  C   UNL A   1      37.429  31.371  32.038  1.00  0.00     0.031 C 
ATOM     43  C   UNL A   1      39.199  28.530  28.285  1.00  0.00     0.029 A 
ATOM     44  N   UNL A   1      40.407  28.613  30.164  1.00  0.00    -0.354 N 
ATOM     45  C   UNL A   1      39.176  31.102  33.491  1.00  0.00     0.074 A 
ATOM     46  C   UNL A   1      37.940  31.792  33.184  1.00  0.00     0.031 C 
ATOM     47  C   UNL A   1      40.275  27.747  28.107  1.00  0.00     0.029 A 
ATOM     48  C   UNL A   1      41.104  27.792  29.308  1.00  0.00     0.049 A 
ATOM     49  H   UNL A   1      40.717  28.830  31.072  1.00  0.00     0.167 HD
ATOM     50  C   UNL A   1      39.844  31.214  34.666  1.00  0.00     0.034 A 
ATOM     51  C   UNL A   1      42.281  27.153  29.470  1.00  0.00     0.034 A 
ATOM     52  C   UNL A   1      41.065  30.505  34.962  1.00  0.00     0.049 A 
ATOM     53  C   UNL A   1      43.011  27.296  30.782  1.00  0.00     0.074 A 
ATOM     54  C   UNL A   1      41.802  30.506  36.133  1.00  0.00     0.029 A 
ATOM     55  N   UNL A   1      41.734  29.669  34.075  1.00  0.00    -0.354 N 
ATOM     56  N   UNL A   1      42.685  28.006  31.837  1.00  0.00    -0.248 NA
ATOM     57  C   UNL A   1      44.263  26.542  30.926  1.00  0.00     0.031 C 
ATOM     58  C   UNL A   1      42.944  29.720  35.935  1.00  0.00     0.029 A 
ATOM     59  C   UNL A   1      42.883  29.168  34.665  1.00  0.00     0.049 A 
ATOM     60  H   UNL A   1      41.434  29.463  33.160  1.00  0.00     0.167 HD
ATOM     61  C   UNL A   1      43.673  27.751  32.784  1.00  0.00     0.074 A 
ATOM     62  C   UNL A   1      44.599  26.817  32.178  1.00  0.00     0.031 C 
ATOM     63  C   UNL A   1      43.801  28.241  34.045  1.00  0.00     0.034 A 
BRANCH  50  64
ATOM     64  C   UNL A   1      39.269  32.155  35.700  1.00  0.00     0.023 A 
ATOM     65  C   UNL A   1      39.674  33.500  35.778  1.00  0.00     0.031 A 
ATOM     66  C   UNL A   1      38.344  31.694  36.652  1.00  0.00     0.131 A 
ATOM     67  C   UNL A   1      39.233  34.306  36.839  1.00  0.00     0.055 A 
ATOM     68  C   UNL A   1      37.837  32.528  37.652  1.00  0.00     0.041 A 
ATOM     69  F   UNL A   1      37.933  30.416  36.643  1.00  0.00    -0.206 F 
ATOM     70  C   UNL A   1      38.296  33.837  37.761  1.00  0.00     0.022 A 
BRANCH  67  71
ATOM     71  S   UNL A   1      40.030  35.916  37.089  1.00  0.00     0.124 S 
ATOM     72  O   UNL A   1      39.715  36.598  35.837  1.00  0.00    -0.237 OA
ATOM     73  O   UNL A   1      39.356  36.421  38.279  1.00  0.00    -0.237 OA
ATOM     74  O   UNL A   1      41.440  35.575  37.267  1.00  0.00    -0.744 OA
ENDBRANCH  67  71
ENDBRANCH  50  64
BRANCH  51  75
ATOM     75  C   UNL A   1      42.844  26.314  28.374  1.00  0.00     0.023 A 
ATOM     76  C   UNL A   1      43.932  26.764  27.607  1.00  0.00     0.031 A 
ATOM     77  C   UNL A   1      42.281  25.067  28.051  1.00  0.00     0.131 A 
ATOM     78  C   UNL A   1      44.391  25.996  26.525  1.00  0.00     0.055 A 
ATOM     79  C   UNL A   1      42.775  24.283  27.006  1.00  0.00     0.041 A 
ATOM     80  F   UNL A   1      41.246  24.586  28.758  1.00  0.00    -0.206 F 
ATOM     81  C   UNL A   1      43.828  24.753  26.229  1.00  0.00     0.022 A 
BRANCH  78  82
ATOM     82  S   UNL A   1      45.691  26.683  25.462  1.00  0.00     0.124 S 
ATOM     83  O   UNL A   1      44.994  27.792  24.821  1.00  0.00    -0.237 OA
ATOM     84  O   UNL A   1      46.717  27.044  26.434  1.00  0.00    -0.237 OA
ATOM     85  O   UNL A   1      46.035  25.568  24.582  1.00  0.00    -0.744 OA
ENDBRANCH  78  82
ENDBRANCH  51  75
BRANCH  63  86
ATOM     86  C   UNL A   1      44.958  27.724  34.866  1.00  0.00     0.023 A 
ATOM     87  C   UNL A   1      44.911  26.477  35.513  1.00  0.00     0.031 A 
ATOM     88  C   UNL A   1      46.120  28.503  35.010  1.00  0.00     0.131 A 
ATOM     89  C   UNL A   1      45.982  26.071  36.323  1.00  0.00     0.055 A 
ATOM     90  C   UNL A   1      47.207  28.067  35.767  1.00  0.00     0.041 A 
ATOM     91  F   UNL A   1      46.218  29.702  34.414  1.00  0.00    -0.206 F 
ATOM     92  C   UNL A   1      47.137  26.851  36.441  1.00  0.00     0.022 A 
BRANCH  89  93
ATOM     93  S   UNL A   1      45.811  24.552  37.298  1.00  0.00     0.124 S 
ATOM     94  O   UNL A   1      45.625  25.075  38.647  1.00  0.00    -0.237 OA
ATOM     95  O   UNL A   1      44.642  23.922  36.692  1.00  0.00    -0.237 OA
ATOM     96  O   UNL A   1      47.076  23.854  37.072  1.00  0.00    -0.744 OA
ENDBRANCH  89  93
ENDBRANCH  63  86
ENDBRANCH  37  38
ENDBRANCH  29  32
ENDBRANCH  27  28
ENDBRANCH  26  27
ENDBRANCH   1  26
TORSDOF 17
ENDMDL
