MODEL 1
REMARK VINA RESULT:     -11.0      0.000      0.000
REMARK SMILES CS(=O)(=O)c1cccc(NS(=O)(=O)CCCC(=O)NCCCCNC(=O)c2ccc(-c3c4nc(c(-c5cc(S(=O)(=O)[O-])ccc5F)c5ccc([nH]5)c(-c5cc(S(=O)(=O)[O-])ccc5F)c5nc(c(-c6cc(S(=O)(=O)[O-])ccc6F)c6ccc3[nH]6)C=C5)C=C4)cc2)c1
REMARK SMILES IDX 20 1 19 2 17 3 18 4 16 6 15 7 14 8 11 9 12 10 13 11 10 12
REMARK SMILES IDX 9 14 5 15 6 16 90 17 7 18 8 19 2 20 1 21 3 22 4 23 21 24
REMARK SMILES IDX 22 25 23 26 24 27 25 28 26 30 27 31 28 32 89 33 29 34 88 35
REMARK SMILES IDX 30 36 31 37 32 38 82 39 33 40 87 41 81 42 83 43 34 44 86 45
REMARK SMILES IDX 80 46 79 47 35 49 67 50 47 51 66 52 48 53 51 54 65 55 84 56
REMARK SMILES IDX 49 57 50 58 64 60 85 61 52 62 36 63 37 64 45 65 38 66 44 67
REMARK SMILES IDX 46 68 43 69 39 70 40 71 41 72 42 73 68 74 69 75 77 76 70 77
REMARK SMILES IDX 76 78 78 79 75 80 71 81 72 82 73 83 74 84 53 85 54 86 62 87
REMARK SMILES IDX 55 88 61 89 63 90 60 91 56 92 57 93 58 94 59 95
REMARK H PARENT 19 5 10 13 24 29 83 48 51 59
REMARK Flexibility Score: inf
ROOT
ATOM      1  C   UNL A   1      32.236  29.924  26.274  1.00  0.00     0.116 C 
ENDROOT
BRANCH   1   2
ATOM      2  N   UNL A   1      31.753  28.651  26.735  1.00  0.00    -0.356 N 
ATOM      3  C   UNL A   1      32.129  27.385  26.476  1.00  0.00     0.220 C 
ATOM      4  O   UNL A   1      31.410  26.512  26.985  1.00  0.00    -0.275 OA
ATOM      5  H   UNL A   1      30.999  28.719  27.363  1.00  0.00     0.163 HD
BRANCH   3   6
ATOM      6  C   UNL A   1      33.407  26.935  25.771  1.00  0.00     0.101 C 
BRANCH   6   7
ATOM      7  C   UNL A   1      33.705  25.738  24.857  1.00  0.00     0.028 C 
BRANCH   7   8
ATOM      8  C   UNL A   1      34.007  25.731  23.359  1.00  0.00     0.160 C 
BRANCH   8   9
ATOM      9  S   UNL A   1      32.690  25.773  22.134  1.00  0.00     0.232 S 
ATOM     10  O   UNL A   1      33.341  26.046  20.865  1.00  0.00    -0.207 OA
ATOM     11  O   UNL A   1      31.612  26.619  22.587  1.00  0.00    -0.207 OA
BRANCH   9  12
ATOM     12  N   UNL A   1      32.166  24.186  21.958  1.00  0.00    -0.284 N 
ATOM     13  H   UNL A   1      32.104  23.818  21.047  1.00  0.00     0.180 HD
BRANCH  12  14
ATOM     14  C   UNL A   1      31.804  23.338  23.051  1.00  0.00     0.050 A 
ATOM     15  C   UNL A   1      32.256  21.409  24.436  1.00  0.00     0.069 A 
ATOM     16  C   UNL A   1      31.479  21.936  25.469  1.00  0.00     0.020 A 
ATOM     17  C   UNL A   1      32.478  22.130  23.250  1.00  0.00     0.047 A 
ATOM     18  C   UNL A   1      30.811  23.129  25.266  1.00  0.00     0.004 A 
ATOM     19  C   UNL A   1      30.934  23.778  24.041  1.00  0.00     0.027 A 
BRANCH  15  20
ATOM     20  S   UNL A   1      32.878  19.757  24.642  1.00  0.00     0.175 S 
ATOM     21  C   UNL A   1      34.637  19.937  24.762  1.00  0.00     0.163 C 
ATOM     22  O   UNL A   1      32.622  19.054  23.398  1.00  0.00    -0.224 OA
ATOM     23  O   UNL A   1      32.366  19.270  25.904  1.00  0.00    -0.224 OA
ENDBRANCH  15  20
ENDBRANCH  12  14
ENDBRANCH   9  12
ENDBRANCH   8   9
ENDBRANCH   7   8
ENDBRANCH   6   7
ENDBRANCH   3   6
ENDBRANCH   1   2
BRANCH   1  24
ATOM     24  C   UNL A   1      31.086  30.755  25.700  1.00  0.00     0.023 C 
BRANCH  24  25
ATOM     25  C   UNL A   1      31.041  32.169  26.271  1.00  0.00     0.023 C 
BRANCH  25  26
ATOM     26  C   UNL A   1      32.359  32.580  26.920  1.00  0.00     0.116 C 
BRANCH  26  27
ATOM     27  N   UNL A   1      32.306  33.921  27.495  1.00  0.00    -0.352 N 
ATOM     28  C   UNL A   1      33.144  34.484  28.430  1.00  0.00     0.251 C 
ATOM     29  H   UNL A   1      31.576  34.497  27.171  1.00  0.00     0.163 HD
ATOM     30  O   UNL A   1      32.883  35.577  28.920  1.00  0.00    -0.269 OA
BRANCH  28  31
ATOM     31  C   UNL A   1      34.335  33.724  28.854  1.00  0.00     0.039 A 
ATOM     32  C   UNL A   1      35.600  34.288  28.682  1.00  0.00     0.014 A 
ATOM     33  C   UNL A   1      34.179  32.503  29.516  1.00  0.00     0.014 A 
ATOM     34  C   UNL A   1      36.709  33.662  29.254  1.00  0.00     0.010 A 
ATOM     35  C   UNL A   1      35.269  31.934  30.160  1.00  0.00     0.010 A 
ATOM     36  C   UNL A   1      36.545  32.507  30.037  1.00  0.00    -0.014 A 
BRANCH  36  37
ATOM     37  C   UNL A   1      37.694  31.874  30.734  1.00  0.00     0.031 A 
ATOM     38  C   UNL A   1      38.524  30.844  30.014  1.00  0.00     0.074 A 
ATOM     39  C   UNL A   1      37.938  32.160  32.028  1.00  0.00     0.049 A 
ATOM     40  N   UNL A   1      39.509  30.111  30.463  1.00  0.00    -0.248 NA
ATOM     41  C   UNL A   1      38.165  30.578  28.613  1.00  0.00     0.031 C 
ATOM     42  C   UNL A   1      37.169  33.101  32.847  1.00  0.00     0.029 A 
ATOM     43  N   UNL A   1      38.898  31.686  32.885  1.00  0.00    -0.354 N 
ATOM     44  C   UNL A   1      39.867  29.275  29.411  1.00  0.00     0.074 A 
ATOM     45  C   UNL A   1      38.946  29.548  28.327  1.00  0.00     0.031 C 
ATOM     46  C   UNL A   1      37.713  33.163  34.074  1.00  0.00     0.029 A 
ATOM     47  C   UNL A   1      38.836  32.235  34.145  1.00  0.00     0.049 A 
ATOM     48  H   UNL A   1      39.569  31.015  32.623  1.00  0.00     0.167 HD
ATOM     49  C   UNL A   1      40.887  28.384  29.343  1.00  0.00     0.034 A 
ATOM     50  C   UNL A   1      39.600  32.013  35.233  1.00  0.00     0.034 A 
ATOM     51  C   UNL A   1      41.812  28.151  30.425  1.00  0.00     0.049 A 
ATOM     52  C   UNL A   1      40.726  31.015  35.138  1.00  0.00     0.074 A 
ATOM     53  C   UNL A   1      42.931  27.337  30.442  1.00  0.00     0.029 A 
ATOM     54  N   UNL A   1      41.722  28.728  31.686  1.00  0.00    -0.354 N 
ATOM     55  N   UNL A   1      41.095  30.281  34.114  1.00  0.00    -0.248 NA
ATOM     56  C   UNL A   1      41.541  30.823  36.345  1.00  0.00     0.031 C 
ATOM     57  C   UNL A   1      43.478  27.371  31.730  1.00  0.00     0.029 A 
ATOM     58  C   UNL A   1      42.745  28.264  32.497  1.00  0.00     0.049 A 
ATOM     59  H   UNL A   1      41.032  29.374  31.962  1.00  0.00     0.167 HD
ATOM     60  C   UNL A   1      42.210  29.565  34.545  1.00  0.00     0.074 A 
ATOM     61  C   UNL A   1      42.454  29.964  35.915  1.00  0.00     0.031 C 
ATOM     62  C   UNL A   1      42.968  28.665  33.867  1.00  0.00     0.034 A 
BRANCH  49  63
ATOM     63  C   UNL A   1      41.026  27.587  28.067  1.00  0.00     0.023 A 
ATOM     64  C   UNL A   1      40.647  26.235  27.994  1.00  0.00     0.031 A 
ATOM     65  C   UNL A   1      41.596  28.171  26.923  1.00  0.00     0.131 A 
ATOM     66  C   UNL A   1      40.935  25.487  26.843  1.00  0.00     0.055 A 
ATOM     67  C   UNL A   1      41.794  27.445  25.746  1.00  0.00     0.041 A 
ATOM     68  F   UNL A   1      41.995  29.453  26.934  1.00  0.00    -0.206 F 
ATOM     69  C   UNL A   1      41.481  26.088  25.708  1.00  0.00     0.022 A 
BRANCH  66  70
ATOM     70  S   UNL A   1      40.744  23.684  26.915  1.00  0.00     0.124 S 
ATOM     71  O   UNL A   1      39.434  23.503  26.293  1.00  0.00    -0.237 OA
ATOM     72  O   UNL A   1      41.887  23.215  26.142  1.00  0.00    -0.237 OA
ATOM     73  O   UNL A   1      40.791  23.390  28.344  1.00  0.00    -0.744 OA
ENDBRANCH  66  70
ENDBRANCH  49  63
BRANCH  50  74
ATOM     74  C   UNL A   1      39.344  32.750  36.503  1.00  0.00     0.023 A 
ATOM     75  C   UNL A   1      38.503  32.208  37.489  1.00  0.00     0.031 A 
ATOM     76  C   UNL A   1      39.900  34.019  36.738  1.00  0.00     0.131 A 
ATOM     77  C   UNL A   1      38.207  32.948  38.643  1.00  0.00     0.055 A 
ATOM     78  C   UNL A   1      39.640  34.733  37.909  1.00  0.00     0.041 A 
ATOM     79  F   UNL A   1      40.717  34.580  35.831  1.00  0.00    -0.206 F 
ATOM     80  C   UNL A   1      38.778  34.203  38.865  1.00  0.00     0.022 A 
BRANCH  77  81
ATOM     81  S   UNL A   1      37.002  32.276  39.820  1.00  0.00     0.124 S 
ATOM     82  O   UNL A   1      35.737  32.658  39.202  1.00  0.00    -0.237 OA
ATOM     83  O   UNL A   1      37.323  30.852  39.801  1.00  0.00    -0.237 OA
ATOM     84  O   UNL A   1      37.323  32.968  41.067  1.00  0.00    -0.744 OA
ENDBRANCH  77  81
ENDBRANCH  50  74
BRANCH  62  85
ATOM     85  C   UNL A   1      44.160  28.093  34.592  1.00  0.00     0.023 A 
ATOM     86  C   UNL A   1      44.078  26.892  35.318  1.00  0.00     0.031 A 
ATOM     87  C   UNL A   1      45.393  28.768  34.563  1.00  0.00     0.131 A 
ATOM     88  C   UNL A   1      45.194  26.431  36.031  1.00  0.00     0.055 A 
ATOM     89  C   UNL A   1      46.516  28.274  35.226  1.00  0.00     0.041 A 
ATOM     90  F   UNL A   1      45.526  29.920  33.886  1.00  0.00    -0.206 F 
ATOM     91  C   UNL A   1      46.417  27.106  35.977  1.00  0.00     0.022 A 
BRANCH  88  92
ATOM     92  S   UNL A   1      45.005  24.983  37.107  1.00  0.00     0.124 S 
ATOM     93  O   UNL A   1      43.982  25.434  38.045  1.00  0.00    -0.237 OA
ATOM     94  O   UNL A   1      44.593  23.947  36.165  1.00  0.00    -0.237 OA
ATOM     95  O   UNL A   1      46.337  24.804  37.680  1.00  0.00    -0.744 OA
ENDBRANCH  88  92
ENDBRANCH  62  85
ENDBRANCH  36  37
ENDBRANCH  28  31
ENDBRANCH  26  27
ENDBRANCH  25  26
ENDBRANCH  24  25
ENDBRANCH   1  24
TORSDOF 20
ENDMDL
MODEL 2
REMARK VINA RESULT:     -10.9      5.284      8.733
REMARK SMILES CS(=O)(=O)c1cccc(NS(=O)(=O)CCCC(=O)NCCCCNC(=O)c2ccc(-c3c4nc(c(-c5cc(S(=O)(=O)[O-])ccc5F)c5ccc([nH]5)c(-c5cc(S(=O)(=O)[O-])ccc5F)c5nc(c(-c6cc(S(=O)(=O)[O-])ccc6F)c6ccc3[nH]6)C=C5)C=C4)cc2)c1
REMARK SMILES IDX 20 1 19 2 17 3 18 4 16 6 15 7 14 8 11 9 12 10 13 11 10 12
REMARK SMILES IDX 9 14 5 15 6 16 90 17 7 18 8 19 2 20 1 21 3 22 4 23 21 24
REMARK SMILES IDX 22 25 23 26 24 27 25 28 26 30 27 31 28 32 89 33 29 34 88 35
REMARK SMILES IDX 30 36 31 37 32 38 82 39 33 40 87 41 81 42 83 43 34 44 86 45
REMARK SMILES IDX 80 46 79 47 35 49 67 50 47 51 66 52 48 53 51 54 65 55 84 56
REMARK SMILES IDX 49 57 50 58 64 60 85 61 52 62 36 63 37 64 45 65 38 66 44 67
REMARK SMILES IDX 46 68 43 69 39 70 40 71 41 72 42 73 68 74 69 75 77 76 70 77
REMARK SMILES IDX 76 78 78 79 75 80 71 81 72 82 73 83 74 84 53 85 54 86 62 87
REMARK SMILES IDX 55 88 61 89 63 90 60 91 56 92 57 93 58 94 59 95
REMARK H PARENT 19 5 10 13 24 29 83 48 51 59
REMARK Flexibility Score: inf
ROOT
ATOM      1  C   UNL A   1      33.584  22.456  23.819  1.00  0.00     0.116 C 
ENDROOT
BRANCH   1   2
ATOM      2  N   UNL A   1      32.886  21.252  24.177  1.00  0.00    -0.356 N 
ATOM      3  C   UNL A   1      32.768  20.576  25.334  1.00  0.00     0.220 C 
ATOM      4  O   UNL A   1      32.155  19.501  25.252  1.00  0.00    -0.275 OA
ATOM      5  H   UNL A   1      32.398  20.841  23.427  1.00  0.00     0.163 HD
BRANCH   3   6
ATOM      6  C   UNL A   1      33.164  21.065  26.726  1.00  0.00     0.101 C 
BRANCH   6   7
ATOM      7  C   UNL A   1      33.181  22.466  27.353  1.00  0.00     0.028 C 
BRANCH   7   8
ATOM      8  C   UNL A   1      32.388  23.707  26.943  1.00  0.00     0.160 C 
BRANCH   8   9
ATOM      9  S   UNL A   1      30.654  23.601  26.476  1.00  0.00     0.232 S 
ATOM     10  O   UNL A   1      29.992  22.918  27.574  1.00  0.00    -0.207 OA
ATOM     11  O   UNL A   1      30.527  23.094  25.131  1.00  0.00    -0.207 OA
BRANCH   9  12
ATOM     12  N   UNL A   1      30.046  25.164  26.581  1.00  0.00    -0.284 N 
ATOM     13  H   UNL A   1      29.163  25.290  26.998  1.00  0.00     0.180 HD
BRANCH  12  14
ATOM     14  C   UNL A   1      30.735  26.324  26.103  1.00  0.00     0.050 A 
ATOM     15  C   UNL A   1      31.086  27.981  24.380  1.00  0.00     0.069 A 
ATOM     16  C   UNL A   1      31.639  28.866  25.308  1.00  0.00     0.020 A 
ATOM     17  C   UNL A   1      30.572  26.735  24.778  1.00  0.00     0.047 A 
ATOM     18  C   UNL A   1      31.801  28.453  26.617  1.00  0.00     0.004 A 
ATOM     19  C   UNL A   1      31.404  27.169  26.978  1.00  0.00     0.027 A 
BRANCH  15  20
ATOM     20  S   UNL A   1      31.139  28.453  22.668  1.00  0.00     0.175 S 
ATOM     21  C   UNL A   1      29.920  29.728  22.501  1.00  0.00     0.163 C 
ATOM     22  O   UNL A   1      30.653  27.318  21.903  1.00  0.00    -0.224 OA
ATOM     23  O   UNL A   1      32.449  29.018  22.428  1.00  0.00    -0.224 OA
ENDBRANCH  15  20
ENDBRANCH  12  14
ENDBRANCH   9  12
ENDBRANCH   8   9
ENDBRANCH   7   8
ENDBRANCH   6   7
ENDBRANCH   3   6
ENDBRANCH   1   2
BRANCH   1  24
ATOM     24  C   UNL A   1      35.061  22.158  23.553  1.00  0.00     0.023 C 
BRANCH  24  25
ATOM     25  C   UNL A   1      35.916  22.256  24.812  1.00  0.00     0.023 C 
BRANCH  25  26
ATOM     26  C   UNL A   1      37.411  22.214  24.509  1.00  0.00     0.116 C 
BRANCH  26  27
ATOM     27  N   UNL A   1      38.075  21.067  25.123  1.00  0.00    -0.352 N 
ATOM     28  C   UNL A   1      39.108  21.063  26.032  1.00  0.00     0.251 C 
ATOM     29  H   UNL A   1      37.739  20.182  24.852  1.00  0.00     0.163 HD
ATOM     30  O   UNL A   1      39.654  20.012  26.347  1.00  0.00    -0.269 OA
BRANCH  28  31
ATOM     31  C   UNL A   1      39.565  22.354  26.581  1.00  0.00     0.039 A 
ATOM     32  C   UNL A   1      40.690  22.384  27.406  1.00  0.00     0.014 A 
ATOM     33  C   UNL A   1      38.935  23.538  26.187  1.00  0.00     0.014 A 
ATOM     34  C   UNL A   1      41.238  23.615  27.768  1.00  0.00     0.010 A 
ATOM     35  C   UNL A   1      39.536  24.756  26.472  1.00  0.00     0.010 A 
ATOM     36  C   UNL A   1      40.694  24.808  27.265  1.00  0.00    -0.014 A 
BRANCH  36  37
ATOM     37  C   UNL A   1      41.312  26.127  27.559  1.00  0.00     0.031 A 
ATOM     38  C   UNL A   1      42.712  26.414  27.088  1.00  0.00     0.074 A 
ATOM     39  C   UNL A   1      40.650  27.026  28.315  1.00  0.00     0.049 A 
ATOM     40  N   UNL A   1      43.465  27.459  27.311  1.00  0.00    -0.248 NA
ATOM     41  C   UNL A   1      43.363  25.361  26.293  1.00  0.00     0.031 C 
ATOM     42  C   UNL A   1      39.310  26.840  28.875  1.00  0.00     0.029 A 
ATOM     43  N   UNL A   1      41.018  28.275  28.748  1.00  0.00    -0.354 N 
ATOM     44  C   UNL A   1      44.688  27.177  26.712  1.00  0.00     0.074 A 
ATOM     45  C   UNL A   1      44.593  25.835  26.177  1.00  0.00     0.031 C 
ATOM     46  C   UNL A   1      38.953  27.950  29.543  1.00  0.00     0.029 A 
ATOM     47  C   UNL A   1      40.054  28.907  29.499  1.00  0.00     0.049 A 
ATOM     48  H   UNL A   1      41.890  28.681  28.540  1.00  0.00     0.167 HD
ATOM     49  C   UNL A   1      45.779  27.974  26.593  1.00  0.00     0.034 A 
ATOM     50  C   UNL A   1      40.060  30.120  30.087  1.00  0.00     0.034 A 
ATOM     51  C   UNL A   1      45.840  29.320  27.107  1.00  0.00     0.049 A 
ATOM     52  C   UNL A   1      41.285  30.989  29.946  1.00  0.00     0.074 A 
ATOM     53  C   UNL A   1      46.857  30.249  26.973  1.00  0.00     0.029 A 
ATOM     54  N   UNL A   1      44.843  29.930  27.859  1.00  0.00    -0.354 N 
ATOM     55  N   UNL A   1      42.409  30.735  29.318  1.00  0.00    -0.248 NA
ATOM     56  C   UNL A   1      41.234  32.308  30.588  1.00  0.00     0.031 C 
ATOM     57  C   UNL A   1      46.504  31.393  27.698  1.00  0.00     0.029 A 
ATOM     58  C   UNL A   1      45.235  31.208  28.224  1.00  0.00     0.049 A 
ATOM     59  H   UNL A   1      43.983  29.514  28.097  1.00  0.00     0.167 HD
ATOM     60  C   UNL A   1      43.188  31.881  29.460  1.00  0.00     0.074 A 
ATOM     61  C   UNL A   1      42.399  32.826  30.224  1.00  0.00     0.031 C 
ATOM     62  C   UNL A   1      44.438  32.134  28.996  1.00  0.00     0.034 A 
BRANCH  49  63
ATOM     63  C   UNL A   1      46.990  27.390  25.904  1.00  0.00     0.023 A 
ATOM     64  C   UNL A   1      47.955  26.647  26.608  1.00  0.00     0.031 A 
ATOM     65  C   UNL A   1      47.214  27.626  24.538  1.00  0.00     0.131 A 
ATOM     66  C   UNL A   1      49.141  26.254  25.971  1.00  0.00     0.055 A 
ATOM     67  C   UNL A   1      48.355  27.151  23.885  1.00  0.00     0.041 A 
ATOM     68  F   UNL A   1      46.341  28.346  23.814  1.00  0.00    -0.206 F 
ATOM     69  C   UNL A   1      49.337  26.478  24.607  1.00  0.00     0.022 A 
BRANCH  66  70
ATOM     70  S   UNL A   1      50.494  25.603  26.989  1.00  0.00     0.124 S 
ATOM     71  O   UNL A   1      50.775  26.739  27.864  1.00  0.00    -0.237 OA
ATOM     72  O   UNL A   1      49.881  24.444  27.625  1.00  0.00    -0.237 OA
ATOM     73  O   UNL A   1      51.541  25.304  26.017  1.00  0.00    -0.744 OA
ENDBRANCH  66  70
ENDBRANCH  49  63
BRANCH  50  74
ATOM     74  C   UNL A   1      38.873  30.599  30.851  1.00  0.00     0.023 A 
ATOM     75  C   UNL A   1      37.835  31.289  30.203  1.00  0.00     0.031 A 
ATOM     76  C   UNL A   1      38.772  30.411  32.240  1.00  0.00     0.131 A 
ATOM     77  C   UNL A   1      36.764  31.805  30.948  1.00  0.00     0.055 A 
ATOM     78  C   UNL A   1      37.681  30.884  32.971  1.00  0.00     0.041 A 
ATOM     79  F   UNL A   1      39.733  29.751  32.906  1.00  0.00    -0.206 F 
ATOM     80  C   UNL A   1      36.674  31.598  32.326  1.00  0.00     0.022 A 
BRANCH  77  81
ATOM     81  S   UNL A   1      35.522  32.817  30.098  1.00  0.00     0.124 S 
ATOM     82  O   UNL A   1      35.352  32.089  28.845  1.00  0.00    -0.237 OA
ATOM     83  O   UNL A   1      34.399  32.762  31.029  1.00  0.00    -0.237 OA
ATOM     84  O   UNL A   1      36.169  34.122  29.981  1.00  0.00    -0.744 OA
ENDBRANCH  77  81
ENDBRANCH  50  74
BRANCH  62  85
ATOM     85  C   UNL A   1      45.002  33.507  29.264  1.00  0.00     0.023 A 
ATOM     86  C   UNL A   1      44.912  34.542  28.318  1.00  0.00     0.031 A 
ATOM     87  C   UNL A   1      45.650  33.776  30.482  1.00  0.00     0.131 A 
ATOM     88  C   UNL A   1      45.510  35.783  28.583  1.00  0.00     0.055 A 
ATOM     89  C   UNL A   1      46.191  35.030  30.764  1.00  0.00     0.041 A 
ATOM     90  F   UNL A   1      45.765  32.822  31.421  1.00  0.00    -0.206 F 
ATOM     91  C   UNL A   1      46.134  36.039  29.807  1.00  0.00     0.022 A 
BRANCH  88  92
ATOM     92  S   UNL A   1      45.540  37.034  27.271  1.00  0.00     0.124 S 
ATOM     93  O   UNL A   1      46.084  36.282  26.145  1.00  0.00    -0.237 OA
ATOM     94  O   UNL A   1      44.133  37.410  27.165  1.00  0.00    -0.237 OA
ATOM     95  O   UNL A   1      46.418  38.073  27.806  1.00  0.00    -0.744 OA
ENDBRANCH  88  92
ENDBRANCH  62  85
ENDBRANCH  36  37
ENDBRANCH  28  31
ENDBRANCH  26  27
ENDBRANCH  25  26
ENDBRANCH  24  25
ENDBRANCH   1  24
TORSDOF 20
ENDMDL
MODEL 3
REMARK VINA RESULT:     -10.7      2.027      3.409
REMARK SMILES CS(=O)(=O)c1cccc(NS(=O)(=O)CCCC(=O)NCCCCNC(=O)c2ccc(-c3c4nc(c(-c5cc(S(=O)(=O)[O-])ccc5F)c5ccc([nH]5)c(-c5cc(S(=O)(=O)[O-])ccc5F)c5nc(c(-c6cc(S(=O)(=O)[O-])ccc6F)c6ccc3[nH]6)C=C5)C=C4)cc2)c1
REMARK SMILES IDX 20 1 19 2 17 3 18 4 16 6 15 7 14 8 11 9 12 10 13 11 10 12
REMARK SMILES IDX 9 14 5 15 6 16 90 17 7 18 8 19 2 20 1 21 3 22 4 23 21 24
REMARK SMILES IDX 22 25 23 26 24 27 25 28 26 30 27 31 28 32 89 33 29 34 88 35
REMARK SMILES IDX 30 36 31 37 32 38 82 39 33 40 87 41 81 42 83 43 34 44 86 45
REMARK SMILES IDX 80 46 79 47 35 49 67 50 47 51 66 52 48 53 51 54 65 55 84 56
REMARK SMILES IDX 49 57 50 58 64 60 85 61 52 62 36 63 37 64 45 65 38 66 44 67
REMARK SMILES IDX 46 68 43 69 39 70 40 71 41 72 42 73 68 74 69 75 77 76 70 77
REMARK SMILES IDX 76 78 78 79 75 80 71 81 72 82 73 83 74 84 53 85 54 86 62 87
REMARK SMILES IDX 55 88 61 89 63 90 60 91 56 92 57 93 58 94 59 95
REMARK H PARENT 19 5 10 13 24 29 83 48 51 59
REMARK Flexibility Score: inf
ROOT
ATOM      1  C   UNL A   1      33.015  28.913  27.163  1.00  0.00     0.116 C 
ENDROOT
BRANCH   1   2
ATOM      2  N   UNL A   1      33.861  27.937  26.533  1.00  0.00    -0.356 N 
ATOM      3  C   UNL A   1      33.637  26.687  26.090  1.00  0.00     0.220 C 
ATOM      4  O   UNL A   1      34.643  26.088  25.681  1.00  0.00    -0.275 OA
ATOM      5  H   UNL A   1      34.787  28.243  26.400  1.00  0.00     0.163 HD
BRANCH   3   6
ATOM      6  C   UNL A   1      32.280  26.011  25.898  1.00  0.00     0.101 C 
BRANCH   6   7
ATOM      7  C   UNL A   1      31.893  24.612  25.398  1.00  0.00     0.028 C 
BRANCH   7   8
ATOM      8  C   UNL A   1      32.763  23.578  24.685  1.00  0.00     0.160 C 
BRANCH   8   9
ATOM      9  S   UNL A   1      32.689  23.356  22.901  1.00  0.00     0.232 S 
ATOM     10  O   UNL A   1      32.032  22.079  22.690  1.00  0.00    -0.207 OA
ATOM     11  O   UNL A   1      33.982  23.608  22.311  1.00  0.00    -0.207 OA
BRANCH   9  12
ATOM     12  N   UNL A   1      31.555  24.462  22.340  1.00  0.00    -0.284 N 
ATOM     13  H   UNL A   1      30.699  24.115  22.001  1.00  0.00     0.180 HD
BRANCH  12  14
ATOM     14  C   UNL A   1      31.757  25.878  22.327  1.00  0.00     0.050 A 
ATOM     15  C   UNL A   1      30.970  28.105  22.839  1.00  0.00     0.069 A 
ATOM     16  C   UNL A   1      32.277  28.598  22.824  1.00  0.00     0.020 A 
ATOM     17  C   UNL A   1      30.706  26.737  22.656  1.00  0.00     0.047 A 
ATOM     18  C   UNL A   1      33.313  27.746  22.494  1.00  0.00     0.004 A 
ATOM     19  C   UNL A   1      33.030  26.418  22.191  1.00  0.00     0.027 A 
BRANCH  15  20
ATOM     20  S   UNL A   1      29.653  29.286  23.007  1.00  0.00     0.175 S 
ATOM     21  C   UNL A   1      29.714  30.261  21.528  1.00  0.00     0.163 C 
ATOM     22  O   UNL A   1      30.019  30.172  24.098  1.00  0.00    -0.224 OA
ATOM     23  O   UNL A   1      28.416  28.535  23.026  1.00  0.00    -0.224 OA
ENDBRANCH  15  20
ENDBRANCH  12  14
ENDBRANCH   9  12
ENDBRANCH   8   9
ENDBRANCH   7   8
ENDBRANCH   6   7
ENDBRANCH   3   6
ENDBRANCH   1   2
BRANCH   1  24
ATOM     24  C   UNL A   1      32.694  30.049  26.189  1.00  0.00     0.023 C 
BRANCH  24  25
ATOM     25  C   UNL A   1      32.155  31.291  26.891  1.00  0.00     0.023 C 
BRANCH  25  26
ATOM     26  C   UNL A   1      33.264  32.163  27.471  1.00  0.00     0.116 C 
BRANCH  26  27
ATOM     27  N   UNL A   1      32.847  33.551  27.655  1.00  0.00    -0.352 N 
ATOM     28  C   UNL A   1      33.288  34.459  28.591  1.00  0.00     0.251 C 
ATOM     29  H   UNL A   1      32.161  33.878  27.029  1.00  0.00     0.163 HD
ATOM     30  O   UNL A   1      32.735  35.546  28.708  1.00  0.00    -0.269 OA
BRANCH  28  31
ATOM     31  C   UNL A   1      34.408  34.074  29.469  1.00  0.00     0.039 A 
ATOM     32  C   UNL A   1      34.153  33.300  30.602  1.00  0.00     0.014 A 
ATOM     33  C   UNL A   1      35.719  34.396  29.103  1.00  0.00     0.014 A 
ATOM     34  C   UNL A   1      35.225  32.774  31.324  1.00  0.00     0.010 A 
ATOM     35  C   UNL A   1      36.778  33.796  29.769  1.00  0.00     0.010 A 
ATOM     36  C   UNL A   1      36.543  32.978  30.886  1.00  0.00    -0.014 A 
BRANCH  36  37
ATOM     37  C   UNL A   1      37.697  32.353  31.582  1.00  0.00     0.031 A 
ATOM     38  C   UNL A   1      38.457  31.241  30.912  1.00  0.00     0.074 A 
ATOM     39  C   UNL A   1      38.006  32.727  32.840  1.00  0.00     0.049 A 
ATOM     40  N   UNL A   1      39.433  30.504  31.376  1.00  0.00    -0.248 NA
ATOM     41  C   UNL A   1      38.029  30.884  29.551  1.00  0.00     0.031 C 
ATOM     42  C   UNL A   1      37.309  33.756  33.614  1.00  0.00     0.029 A 
ATOM     43  N   UNL A   1      38.985  32.281  33.692  1.00  0.00    -0.354 N 
ATOM     44  C   UNL A   1      39.715  29.578  30.378  1.00  0.00     0.074 A 
ATOM     45  C   UNL A   1      38.759  29.805  29.314  1.00  0.00     0.031 C 
ATOM     46  C   UNL A   1      37.906  33.889  34.810  1.00  0.00     0.029 A 
ATOM     47  C   UNL A   1      38.997  32.925  34.908  1.00  0.00     0.049 A 
ATOM     48  H   UNL A   1      39.618  31.566  33.456  1.00  0.00     0.167 HD
ATOM     49  C   UNL A   1      40.697  28.645  30.339  1.00  0.00     0.034 A 
ATOM     50  C   UNL A   1      39.798  32.756  35.978  1.00  0.00     0.034 A 
ATOM     51  C   UNL A   1      41.659  28.457  31.397  1.00  0.00     0.049 A 
ATOM     52  C   UNL A   1      40.882  31.709  35.916  1.00  0.00     0.074 A 
ATOM     53  C   UNL A   1      42.747  27.603  31.433  1.00  0.00     0.029 A 
ATOM     54  N   UNL A   1      41.644  29.131  32.612  1.00  0.00    -0.354 N 
ATOM     55  N   UNL A   1      41.179  30.886  34.937  1.00  0.00    -0.248 NA
ATOM     56  C   UNL A   1      41.739  31.576  37.100  1.00  0.00     0.031 C 
ATOM     57  C   UNL A   1      43.350  27.713  32.691  1.00  0.00     0.029 A 
ATOM     58  C   UNL A   1      42.683  28.689  33.416  1.00  0.00     0.049 A 
ATOM     59  H   UNL A   1      40.991  29.822  32.865  1.00  0.00     0.167 HD
ATOM     60  C   UNL A   1      42.285  30.161  35.377  1.00  0.00     0.074 A 
ATOM     61  C   UNL A   1      42.602  30.652  36.702  1.00  0.00     0.031 C 
ATOM     62  C   UNL A   1      42.979  29.183  34.741  1.00  0.00     0.034 A 
BRANCH  49  63
ATOM     63  C   UNL A   1      40.752  27.749  29.123  1.00  0.00     0.023 A 
ATOM     64  C   UNL A   1      41.691  27.953  28.095  1.00  0.00     0.031 A 
ATOM     65  C   UNL A   1      39.818  26.712  28.960  1.00  0.00     0.131 A 
ATOM     66  C   UNL A   1      41.612  27.203  26.913  1.00  0.00     0.055 A 
ATOM     67  C   UNL A   1      39.804  25.905  27.820  1.00  0.00     0.041 A 
ATOM     68  F   UNL A   1      38.884  26.479  29.896  1.00  0.00    -0.206 F 
ATOM     69  C   UNL A   1      40.691  26.162  26.778  1.00  0.00     0.022 A 
BRANCH  66  70
ATOM     70  S   UNL A   1      42.612  27.722  25.492  1.00  0.00     0.124 S 
ATOM     71  O   UNL A   1      43.900  27.999  26.125  1.00  0.00    -0.237 OA
ATOM     72  O   UNL A   1      42.564  26.550  24.627  1.00  0.00    -0.237 OA
ATOM     73  O   UNL A   1      41.909  28.900  24.989  1.00  0.00    -0.744 OA
ENDBRANCH  66  70
ENDBRANCH  49  63
BRANCH  50  74
ATOM     74  C   UNL A   1      39.623  33.596  37.197  1.00  0.00     0.023 A 
ATOM     75  C   UNL A   1      39.069  33.053  38.368  1.00  0.00     0.031 A 
ATOM     76  C   UNL A   1      39.969  34.958  37.202  1.00  0.00     0.131 A 
ATOM     77  C   UNL A   1      38.836  33.875  39.481  1.00  0.00     0.055 A 
ATOM     78  C   UNL A   1      39.779  35.762  38.328  1.00  0.00     0.041 A 
ATOM     79  F   UNL A   1      40.510  35.525  36.112  1.00  0.00    -0.206 F 
ATOM     80  C   UNL A   1      39.197  35.225  39.472  1.00  0.00     0.022 A 
BRANCH  77  81
ATOM     81  S   UNL A   1      37.984  33.171  40.918  1.00  0.00     0.124 S 
ATOM     82  O   UNL A   1      36.584  33.376  40.564  1.00  0.00    -0.237 OA
ATOM     83  O   UNL A   1      38.454  31.789  40.901  1.00  0.00    -0.237 OA
ATOM     84  O   UNL A   1      38.473  33.979  42.033  1.00  0.00    -0.744 OA
ENDBRANCH  77  81
ENDBRANCH  50  74
BRANCH  62  85
ATOM     85  C   UNL A   1      44.180  28.620  35.459  1.00  0.00     0.023 A 
ATOM     86  C   UNL A   1      44.060  27.578  36.395  1.00  0.00     0.031 A 
ATOM     87  C   UNL A   1      45.460  29.144  35.210  1.00  0.00     0.131 A 
ATOM     88  C   UNL A   1      45.194  27.130  37.088  1.00  0.00     0.055 A 
ATOM     89  C   UNL A   1      46.593  28.654  35.859  1.00  0.00     0.041 A 
ATOM     90  F   UNL A   1      45.630  30.141  34.326  1.00  0.00    -0.206 F 
ATOM     91  C   UNL A   1      46.462  27.651  36.815  1.00  0.00     0.022 A 
BRANCH  88  92
ATOM     92  S   UNL A   1      44.980  25.918  38.421  1.00  0.00     0.124 S 
ATOM     93  O   UNL A   1      46.357  25.676  38.836  1.00  0.00    -0.237 OA
ATOM     94  O   UNL A   1      44.145  26.645  39.372  1.00  0.00    -0.237 OA
ATOM     95  O   UNL A   1      44.325  24.792  37.758  1.00  0.00    -0.744 OA
ENDBRANCH  88  92
ENDBRANCH  62  85
ENDBRANCH  36  37
ENDBRANCH  28  31
ENDBRANCH  26  27
ENDBRANCH  25  26
ENDBRANCH  24  25
ENDBRANCH   1  24
TORSDOF 20
ENDMDL
