MODEL 1
REMARK VINA RESULT:     -12.6      0.000      0.000
REMARK SMILES Cc1nn(-c2ccncn2)c(C)c1[C@@H](C)C(=O)NCCCCNC(=O)c1ccc(-c2c3nc(c(-c4cc(S(=O)(=O)[O-])ccc4F)c4ccc([nH]4)c(-c4cc(S(=O)(=O)[O-])ccc4F)c4nc(c(-c5cc(S(=O)(=O)[O-])ccc5F)c5ccc2[nH]5)C=C4)C=C3)cc1
REMARK SMILES IDX 21 1 20 2 19 3 18 4 16 5 17 6 14 8 15 9 13 10 1 11 2 12 3 13
REMARK SMILES IDX 4 14 11 15 12 16 5 17 6 18 10 19 7 20 9 21 8 22 22 23 23 24
REMARK SMILES IDX 24 25 25 27 26 28 27 29 88 30 28 31 87 32 29 33 30 34 31 35
REMARK SMILES IDX 81 36 32 37 86 38 80 39 82 40 33 41 85 42 79 43 78 44 34 46
REMARK SMILES IDX 66 47 46 48 65 49 47 50 50 51 64 52 83 53 48 54 49 55 63 57
REMARK SMILES IDX 84 58 51 59 35 60 36 61 44 62 37 63 43 64 45 65 42 66 38 67
REMARK SMILES IDX 39 68 40 69 41 70 67 71 68 72 76 73 69 74 75 75 77 76 74 77
REMARK SMILES IDX 70 78 71 79 72 80 73 81 52 82 53 83 61 84 54 85 60 86 62 87
REMARK SMILES IDX 59 88 55 89 56 90 57 91 58 92
REMARK H PARENT 18 7 23 26 82 45 50 56
REMARK Flexibility Score: inf
ROOT
ATOM      1  C   UNL A   1      33.756  29.599  27.147  1.00  0.00     0.023 C 
ENDROOT
BRANCH   1   2
ATOM      2  C   UNL A   1      33.014  28.256  27.040  1.00  0.00     0.023 C 
BRANCH   2   3
ATOM      3  C   UNL A   1      31.480  28.335  27.102  1.00  0.00     0.116 C 
BRANCH   3   4
ATOM      4  N   UNL A   1      30.848  27.027  27.143  1.00  0.00    -0.356 N 
ATOM      5  C   UNL A   1      30.383  26.207  26.156  1.00  0.00     0.227 C 
ATOM      6  O   UNL A   1      29.878  25.138  26.521  1.00  0.00    -0.274 OA
ATOM      7  H   UNL A   1      30.734  26.666  28.052  1.00  0.00     0.163 HD
BRANCH   5   8
ATOM      8  C   UNL A   1      30.487  26.522  24.648  1.00  0.00     0.109 C 
ATOM      9  C   UNL A   1      29.196  26.215  23.908  1.00  0.00     0.023 C 
BRANCH   8  10
ATOM     10  C   UNL A   1      31.785  26.030  24.049  1.00  0.00     0.009 A 
ATOM     11  C   UNL A   1      32.695  28.312  23.117  1.00  0.00     0.069 C 
ATOM     12  C   UNL A   1      32.792  26.877  23.499  1.00  0.00     0.064 A 
ATOM     13  N   UNL A   1      33.936  26.224  23.309  1.00  0.00    -0.171 NA
ATOM     14  N   UNL A   1      33.671  24.941  23.655  1.00  0.00    -0.219 N 
ATOM     15  C   UNL A   1      32.298  24.748  23.844  1.00  0.00     0.047 A 
ATOM     16  C   UNL A   1      31.666  23.406  23.965  1.00  0.00     0.067 C 
BRANCH  14  17
ATOM     17  C   UNL A   1      34.746  24.039  23.956  1.00  0.00     0.156 A 
ATOM     18  C   UNL A   1      35.128  23.815  25.263  1.00  0.00     0.069 A 
ATOM     19  N   UNL A   1      35.440  23.531  22.905  1.00  0.00    -0.217 NA
ATOM     20  C   UNL A   1      36.297  23.112  25.441  1.00  0.00     0.117 A 
ATOM     21  C   UNL A   1      36.568  22.876  23.198  1.00  0.00     0.224 A 
ATOM     22  N   UNL A   1      37.046  22.647  24.428  1.00  0.00    -0.245 NA
ENDBRANCH  14  17
ENDBRANCH   8  10
ENDBRANCH   5   8
ENDBRANCH   3   4
ENDBRANCH   2   3
ENDBRANCH   1   2
BRANCH   1  23
ATOM     23  C   UNL A   1      35.196  29.498  27.647  1.00  0.00     0.116 C 
BRANCH  23  24
ATOM     24  N   UNL A   1      35.424  30.137  28.947  1.00  0.00    -0.352 N 
ATOM     25  C   UNL A   1      36.436  29.842  29.847  1.00  0.00     0.251 C 
ATOM     26  H   UNL A   1      34.794  30.847  29.207  1.00  0.00     0.163 HD
ATOM     27  O   UNL A   1      36.340  30.133  31.036  1.00  0.00    -0.269 OA
BRANCH  25  28
ATOM     28  C   UNL A   1      37.648  29.187  29.325  1.00  0.00     0.039 A 
ATOM     29  C   UNL A   1      38.283  29.611  28.153  1.00  0.00     0.014 A 
ATOM     30  C   UNL A   1      38.198  28.186  30.121  1.00  0.00     0.014 A 
ATOM     31  C   UNL A   1      39.541  29.088  27.843  1.00  0.00     0.010 A 
ATOM     32  C   UNL A   1      39.485  27.777  29.887  1.00  0.00     0.010 A 
ATOM     33  C   UNL A   1      40.150  28.189  28.732  1.00  0.00    -0.014 A 
BRANCH  33  34
ATOM     34  C   UNL A   1      41.538  27.755  28.565  1.00  0.00     0.031 A 
ATOM     35  C   UNL A   1      41.723  26.474  27.823  1.00  0.00     0.074 A 
ATOM     36  C   UNL A   1      42.574  28.602  28.767  1.00  0.00     0.049 A 
ATOM     37  N   UNL A   1      42.193  25.353  28.261  1.00  0.00    -0.248 NA
ATOM     38  C   UNL A   1      41.191  26.387  26.452  1.00  0.00     0.031 C 
ATOM     39  C   UNL A   1      42.508  30.013  29.171  1.00  0.00     0.029 A 
ATOM     40  N   UNL A   1      43.900  28.428  28.516  1.00  0.00    -0.354 N 
ATOM     41  C   UNL A   1      42.253  24.496  27.160  1.00  0.00     0.074 A 
ATOM     42  C   UNL A   1      41.421  25.105  26.159  1.00  0.00     0.031 C 
ATOM     43  C   UNL A   1      43.683  30.620  28.902  1.00  0.00     0.029 A 
ATOM     44  C   UNL A   1      44.640  29.609  28.490  1.00  0.00     0.049 A 
ATOM     45  H   UNL A   1      44.303  27.543  28.366  1.00  0.00     0.167 HD
ATOM     46  C   UNL A   1      43.184  23.500  27.085  1.00  0.00     0.034 A 
ATOM     47  C   UNL A   1      45.945  29.764  28.147  1.00  0.00     0.034 A 
ATOM     48  C   UNL A   1      43.814  23.306  28.376  1.00  0.00     0.049 A 
ATOM     49  C   UNL A   1      46.580  28.434  28.283  1.00  0.00     0.074 A 
ATOM     50  C   UNL A   1      43.378  22.946  29.636  1.00  0.00     0.029 A 
ATOM     51  N   UNL A   1      45.060  23.865  28.562  1.00  0.00    -0.354 N 
ATOM     52  N   UNL A   1      46.699  27.815  29.426  1.00  0.00    -0.248 NA
ATOM     53  C   UNL A   1      46.659  27.578  27.109  1.00  0.00     0.031 C 
ATOM     54  C   UNL A   1      44.149  23.746  30.534  1.00  0.00     0.029 A 
ATOM     55  C   UNL A   1      45.069  24.484  29.785  1.00  0.00     0.049 A 
ATOM     56  H   UNL A   1      45.812  23.827  27.928  1.00  0.00     0.167 HD
ATOM     57  C   UNL A   1      46.413  26.489  29.145  1.00  0.00     0.074 A 
ATOM     58  C   UNL A   1      46.527  26.382  27.691  1.00  0.00     0.031 C 
ATOM     59  C   UNL A   1      45.832  25.683  30.083  1.00  0.00     0.034 A 
BRANCH  46  60
ATOM     60  C   UNL A   1      43.839  22.975  25.812  1.00  0.00     0.023 A 
ATOM     61  C   UNL A   1      43.814  21.575  25.624  1.00  0.00     0.031 A 
ATOM     62  C   UNL A   1      44.711  23.677  24.954  1.00  0.00     0.131 A 
ATOM     63  C   UNL A   1      44.731  20.934  24.774  1.00  0.00     0.055 A 
ATOM     64  C   UNL A   1      45.578  23.038  24.058  1.00  0.00     0.041 A 
ATOM     65  F   UNL A   1      44.835  25.007  24.967  1.00  0.00    -0.206 F 
ATOM     66  C   UNL A   1      45.626  21.658  23.996  1.00  0.00     0.022 A 
BRANCH  63  67
ATOM     67  S   UNL A   1      44.869  19.130  24.875  1.00  0.00     0.124 S 
ATOM     68  O   UNL A   1      43.627  18.785  25.557  1.00  0.00    -0.237 OA
ATOM     69  O   UNL A   1      44.961  18.759  23.468  1.00  0.00    -0.237 OA
ATOM     70  O   UNL A   1      46.088  18.930  25.656  1.00  0.00    -0.744 OA
ENDBRANCH  63  67
ENDBRANCH  46  60
BRANCH  47  71
ATOM     71  C   UNL A   1      46.572  30.915  27.445  1.00  0.00     0.023 A 
ATOM     72  C   UNL A   1      45.831  31.960  26.855  1.00  0.00     0.031 A 
ATOM     73  C   UNL A   1      47.966  31.110  27.562  1.00  0.00     0.131 A 
ATOM     74  C   UNL A   1      46.485  33.137  26.419  1.00  0.00     0.055 A 
ATOM     75  C   UNL A   1      48.607  32.274  27.132  1.00  0.00     0.041 A 
ATOM     76  F   UNL A   1      48.742  30.202  28.177  1.00  0.00    -0.206 F 
ATOM     77  C   UNL A   1      47.865  33.299  26.566  1.00  0.00     0.022 A 
BRANCH  74  78
ATOM     78  S   UNL A   1      45.529  34.523  25.719  1.00  0.00     0.124 S 
ATOM     79  O   UNL A   1      45.023  33.956  24.475  1.00  0.00    -0.237 OA
ATOM     80  O   UNL A   1      44.545  34.783  26.764  1.00  0.00    -0.237 OA
ATOM     81  O   UNL A   1      46.530  35.578  25.548  1.00  0.00    -0.744 OA
ENDBRANCH  74  78
ENDBRANCH  47  71
BRANCH  59  82
ATOM     82  C   UNL A   1      45.803  26.171  31.518  1.00  0.00     0.023 A 
ATOM     83  C   UNL A   1      44.690  26.776  32.148  1.00  0.00     0.031 A 
ATOM     84  C   UNL A   1      46.932  25.899  32.309  1.00  0.00     0.131 A 
ATOM     85  C   UNL A   1      44.744  27.094  33.521  1.00  0.00     0.055 A 
ATOM     86  C   UNL A   1      46.974  26.196  33.669  1.00  0.00     0.041 A 
ATOM     87  F   UNL A   1      48.008  25.298  31.773  1.00  0.00    -0.206 F 
ATOM     88  C   UNL A   1      45.882  26.800  34.280  1.00  0.00     0.022 A 
BRANCH  85  89
ATOM     89  S   UNL A   1      43.337  27.910  34.344  1.00  0.00     0.124 S 
ATOM     90  O   UNL A   1      43.923  28.462  35.560  1.00  0.00    -0.237 OA
ATOM     91  O   UNL A   1      42.905  28.883  33.345  1.00  0.00    -0.237 OA
ATOM     92  O   UNL A   1      42.393  26.813  34.569  1.00  0.00    -0.744 OA
ENDBRANCH  85  89
ENDBRANCH  59  82
ENDBRANCH  33  34
ENDBRANCH  25  28
ENDBRANCH  23  24
ENDBRANCH   1  23
TORSDOF 16
ENDMDL
MODEL 2
REMARK VINA RESULT:     -12.5      1.934      3.397
REMARK SMILES Cc1nn(-c2ccncn2)c(C)c1[C@@H](C)C(=O)NCCCCNC(=O)c1ccc(-c2c3nc(c(-c4cc(S(=O)(=O)[O-])ccc4F)c4ccc([nH]4)c(-c4cc(S(=O)(=O)[O-])ccc4F)c4nc(c(-c5cc(S(=O)(=O)[O-])ccc5F)c5ccc2[nH]5)C=C4)C=C3)cc1
REMARK SMILES IDX 21 1 20 2 19 3 18 4 16 5 17 6 14 8 15 9 13 10 1 11 2 12 3 13
REMARK SMILES IDX 4 14 11 15 12 16 5 17 6 18 10 19 7 20 9 21 8 22 22 23 23 24
REMARK SMILES IDX 24 25 25 27 26 28 27 29 88 30 28 31 87 32 29 33 30 34 31 35
REMARK SMILES IDX 81 36 32 37 86 38 80 39 82 40 33 41 85 42 79 43 78 44 34 46
REMARK SMILES IDX 66 47 46 48 65 49 47 50 50 51 64 52 83 53 48 54 49 55 63 57
REMARK SMILES IDX 84 58 51 59 35 60 36 61 44 62 37 63 43 64 45 65 42 66 38 67
REMARK SMILES IDX 39 68 40 69 41 70 67 71 68 72 76 73 69 74 75 75 77 76 74 77
REMARK SMILES IDX 70 78 71 79 72 80 73 81 52 82 53 83 61 84 54 85 60 86 62 87
REMARK SMILES IDX 59 88 55 89 56 90 57 91 58 92
REMARK H PARENT 18 7 23 26 82 45 50 56
REMARK Flexibility Score: inf
ROOT
ATOM      1  C   UNL A   1      34.243  30.161  27.355  1.00  0.00     0.023 C 
ENDROOT
BRANCH   1   2
ATOM      2  C   UNL A   1      33.962  28.684  27.036  1.00  0.00     0.023 C 
BRANCH   2   3
ATOM      3  C   UNL A   1      33.986  28.306  25.546  1.00  0.00     0.116 C 
BRANCH   3   4
ATOM      4  N   UNL A   1      33.679  26.905  25.313  1.00  0.00    -0.356 N 
ATOM      5  C   UNL A   1      32.493  26.235  25.219  1.00  0.00     0.227 C 
ATOM      6  O   UNL A   1      32.564  25.015  25.021  1.00  0.00    -0.274 OA
ATOM      7  H   UNL A   1      34.473  26.333  25.204  1.00  0.00     0.163 HD
BRANCH   5   8
ATOM      8  C   UNL A   1      31.107  26.910  25.307  1.00  0.00     0.109 C 
ATOM      9  C   UNL A   1      30.007  25.918  25.647  1.00  0.00     0.023 C 
BRANCH   8  10
ATOM     10  C   UNL A   1      30.868  27.875  24.169  1.00  0.00     0.009 A 
ATOM     11  C   UNL A   1      31.086  26.199  22.158  1.00  0.00     0.069 C 
ATOM     12  C   UNL A   1      30.736  27.494  22.802  1.00  0.00     0.064 A 
ATOM     13  N   UNL A   1      30.250  28.485  22.057  1.00  0.00    -0.171 NA
ATOM     14  N   UNL A   1      30.135  29.537  22.904  1.00  0.00    -0.219 N 
ATOM     15  C   UNL A   1      30.762  29.267  24.125  1.00  0.00     0.047 A 
ATOM     16  C   UNL A   1      31.041  30.306  25.153  1.00  0.00     0.067 C 
BRANCH  14  17
ATOM     17  C   UNL A   1      29.288  30.644  22.565  1.00  0.00     0.156 A 
ATOM     18  C   UNL A   1      28.713  30.732  21.313  1.00  0.00     0.069 A 
ATOM     19  N   UNL A   1      29.190  31.649  23.474  1.00  0.00    -0.217 NA
ATOM     20  C   UNL A   1      28.102  31.926  21.008  1.00  0.00     0.117 A 
ATOM     21  C   UNL A   1      28.584  32.768  23.062  1.00  0.00     0.224 A 
ATOM     22  N   UNL A   1      28.038  32.966  21.856  1.00  0.00    -0.245 NA
ENDBRANCH  14  17
ENDBRANCH   8  10
ENDBRANCH   5   8
ENDBRANCH   3   4
ENDBRANCH   2   3
ENDBRANCH   1   2
BRANCH   1  23
ATOM     23  C   UNL A   1      35.633  30.443  27.921  1.00  0.00     0.116 C 
BRANCH  23  24
ATOM     24  N   UNL A   1      35.675  30.539  29.383  1.00  0.00    -0.352 N 
ATOM     25  C   UNL A   1      36.412  29.739  30.243  1.00  0.00     0.251 C 
ATOM     26  H   UNL A   1      35.124  31.242  29.796  1.00  0.00     0.163 HD
ATOM     27  O   UNL A   1      36.110  29.627  31.428  1.00  0.00    -0.269 OA
BRANCH  25  28
ATOM     28  C   UNL A   1      37.589  29.044  29.694  1.00  0.00     0.039 A 
ATOM     29  C   UNL A   1      38.120  29.349  28.435  1.00  0.00     0.014 A 
ATOM     30  C   UNL A   1      38.218  28.137  30.540  1.00  0.00     0.014 A 
ATOM     31  C   UNL A   1      39.357  28.808  28.079  1.00  0.00     0.010 A 
ATOM     32  C   UNL A   1      39.490  27.717  30.245  1.00  0.00     0.010 A 
ATOM     33  C   UNL A   1      40.052  28.012  29.003  1.00  0.00    -0.014 A 
BRANCH  33  34
ATOM     34  C   UNL A   1      41.429  27.575  28.767  1.00  0.00     0.031 A 
ATOM     35  C   UNL A   1      41.575  26.307  27.996  1.00  0.00     0.074 A 
ATOM     36  C   UNL A   1      42.476  28.414  28.940  1.00  0.00     0.049 A 
ATOM     37  N   UNL A   1      42.058  25.176  28.393  1.00  0.00    -0.248 NA
ATOM     38  C   UNL A   1      40.983  26.247  26.648  1.00  0.00     0.031 C 
ATOM     39  C   UNL A   1      42.435  29.818  29.371  1.00  0.00     0.029 A 
ATOM     40  N   UNL A   1      43.789  28.239  28.628  1.00  0.00    -0.354 N 
ATOM     41  C   UNL A   1      42.066  24.339  27.275  1.00  0.00     0.074 A 
ATOM     42  C   UNL A   1      41.193  24.970  26.323  1.00  0.00     0.031 C 
ATOM     43  C   UNL A   1      43.601  30.425  29.061  1.00  0.00     0.029 A 
ATOM     44  C   UNL A   1      44.534  29.417  28.591  1.00  0.00     0.049 A 
ATOM     45  H   UNL A   1      44.182  27.355  28.444  1.00  0.00     0.167 HD
ATOM     46  C   UNL A   1      42.987  23.341  27.142  1.00  0.00     0.034 A 
ATOM     47  C   UNL A   1      45.823  29.573  28.194  1.00  0.00     0.034 A 
ATOM     48  C   UNL A   1      43.672  23.120  28.401  1.00  0.00     0.049 A 
ATOM     49  C   UNL A   1      46.457  28.238  28.278  1.00  0.00     0.074 A 
ATOM     50  C   UNL A   1      43.289  22.740  29.672  1.00  0.00     0.029 A 
ATOM     51  N   UNL A   1      44.928  23.671  28.542  1.00  0.00    -0.354 N 
ATOM     52  N   UNL A   1      46.622  27.598  29.404  1.00  0.00    -0.248 NA
ATOM     53  C   UNL A   1      46.480  27.402  27.087  1.00  0.00     0.031 C 
ATOM     54  C   UNL A   1      44.102  23.520  30.549  1.00  0.00     0.029 A 
ATOM     55  C   UNL A   1      44.993  24.268  29.775  1.00  0.00     0.049 A 
ATOM     56  H   UNL A   1      45.651  23.641  27.875  1.00  0.00     0.167 HD
ATOM     57  C   UNL A   1      46.318  26.278  29.112  1.00  0.00     0.074 A 
ATOM     58  C   UNL A   1      46.368  26.197  27.653  1.00  0.00     0.031 C 
ATOM     59  C   UNL A   1      45.774  25.458  30.061  1.00  0.00     0.034 A 
BRANCH  46  60
ATOM     60  C   UNL A   1      43.584  22.835  25.833  1.00  0.00     0.023 A 
ATOM     61  C   UNL A   1      43.656  21.434  25.675  1.00  0.00     0.031 A 
ATOM     62  C   UNL A   1      44.329  23.581  24.896  1.00  0.00     0.131 A 
ATOM     63  C   UNL A   1      44.554  20.844  24.769  1.00  0.00     0.055 A 
ATOM     64  C   UNL A   1      45.174  22.989  23.948  1.00  0.00     0.041 A 
ATOM     65  F   UNL A   1      44.348  24.917  24.874  1.00  0.00    -0.206 F 
ATOM     66  C   UNL A   1      45.327  21.615  23.910  1.00  0.00     0.022 A 
BRANCH  63  67
ATOM     67  S   UNL A   1      44.842  19.060  24.894  1.00  0.00     0.124 S 
ATOM     68  O   UNL A   1      43.628  18.620  25.571  1.00  0.00    -0.237 OA
ATOM     69  O   UNL A   1      44.977  18.680  23.492  1.00  0.00    -0.237 OA
ATOM     70  O   UNL A   1      46.066  18.972  25.686  1.00  0.00    -0.744 OA
ENDBRANCH  63  67
ENDBRANCH  46  60
BRANCH  47  71
ATOM     71  C   UNL A   1      46.425  30.733  27.485  1.00  0.00     0.023 A 
ATOM     72  C   UNL A   1      45.672  31.650  26.723  1.00  0.00     0.031 A 
ATOM     73  C   UNL A   1      47.765  31.084  27.763  1.00  0.00     0.131 A 
ATOM     74  C   UNL A   1      46.262  32.858  26.278  1.00  0.00     0.055 A 
ATOM     75  C   UNL A   1      48.342  32.277  27.324  1.00  0.00     0.041 A 
ATOM     76  F   UNL A   1      48.535  30.308  28.544  1.00  0.00    -0.206 F 
ATOM     77  C   UNL A   1      47.588  33.177  26.586  1.00  0.00     0.022 A 
BRANCH  74  78
ATOM     78  S   UNL A   1      45.280  34.082  25.351  1.00  0.00     0.124 S 
ATOM     79  O   UNL A   1      46.310  34.875  24.691  1.00  0.00    -0.237 OA
ATOM     80  O   UNL A   1      44.458  33.238  24.492  1.00  0.00    -0.237 OA
ATOM     81  O   UNL A   1      44.539  34.791  26.398  1.00  0.00    -0.744 OA
ENDBRANCH  74  78
ENDBRANCH  47  71
BRANCH  59  82
ATOM     82  C   UNL A   1      45.810  25.920  31.503  1.00  0.00     0.023 A 
ATOM     83  C   UNL A   1      44.699  26.417  32.225  1.00  0.00     0.031 A 
ATOM     84  C   UNL A   1      47.014  25.736  32.204  1.00  0.00     0.131 A 
ATOM     85  C   UNL A   1      44.828  26.718  33.597  1.00  0.00     0.055 A 
ATOM     86  C   UNL A   1      47.132  26.015  33.563  1.00  0.00     0.041 A 
ATOM     87  F   UNL A   1      48.095  25.239  31.579  1.00  0.00    -0.206 F 
ATOM     88  C   UNL A   1      46.040  26.513  34.265  1.00  0.00     0.022 A 
BRANCH  85  89
ATOM     89  S   UNL A   1      43.421  27.396  34.538  1.00  0.00     0.124 S 
ATOM     90  O   UNL A   1      43.987  27.669  35.854  1.00  0.00    -0.237 OA
ATOM     91  O   UNL A   1      43.046  28.566  33.749  1.00  0.00    -0.237 OA
ATOM     92  O   UNL A   1      42.440  26.309  34.513  1.00  0.00    -0.744 OA
ENDBRANCH  85  89
ENDBRANCH  59  82
ENDBRANCH  33  34
ENDBRANCH  25  28
ENDBRANCH  23  24
ENDBRANCH   1  23
TORSDOF 16
ENDMDL
MODEL 3
REMARK VINA RESULT:     -12.3      3.437      8.526
REMARK SMILES Cc1nn(-c2ccncn2)c(C)c1[C@@H](C)C(=O)NCCCCNC(=O)c1ccc(-c2c3nc(c(-c4cc(S(=O)(=O)[O-])ccc4F)c4ccc([nH]4)c(-c4cc(S(=O)(=O)[O-])ccc4F)c4nc(c(-c5cc(S(=O)(=O)[O-])ccc5F)c5ccc2[nH]5)C=C4)C=C3)cc1
REMARK SMILES IDX 21 1 20 2 19 3 18 4 16 5 17 6 14 8 15 9 13 10 1 11 2 12 3 13
REMARK SMILES IDX 4 14 11 15 12 16 5 17 6 18 10 19 7 20 9 21 8 22 22 23 23 24
REMARK SMILES IDX 24 25 25 27 26 28 27 29 88 30 28 31 87 32 29 33 30 34 31 35
REMARK SMILES IDX 81 36 32 37 86 38 80 39 82 40 33 41 85 42 79 43 78 44 34 46
REMARK SMILES IDX 66 47 46 48 65 49 47 50 50 51 64 52 83 53 48 54 49 55 63 57
REMARK SMILES IDX 84 58 51 59 35 60 36 61 44 62 37 63 43 64 45 65 42 66 38 67
REMARK SMILES IDX 39 68 40 69 41 70 67 71 68 72 76 73 69 74 75 75 77 76 74 77
REMARK SMILES IDX 70 78 71 79 72 80 73 81 52 82 53 83 61 84 54 85 60 86 62 87
REMARK SMILES IDX 59 88 55 89 56 90 57 91 58 92
REMARK H PARENT 18 7 23 26 82 45 50 56
REMARK Flexibility Score: inf
ROOT
ATOM      1  C   UNL A   1      37.467  20.239  25.266  1.00  0.00     0.023 C 
ENDROOT
BRANCH   1   2
ATOM      2  C   UNL A   1      36.770  21.182  24.271  1.00  0.00     0.023 C 
BRANCH   2   3
ATOM      3  C   UNL A   1      36.821  22.677  24.621  1.00  0.00     0.116 C 
BRANCH   3   4
ATOM      4  N   UNL A   1      36.101  23.505  23.669  1.00  0.00    -0.356 N 
ATOM      5  C   UNL A   1      34.823  23.986  23.662  1.00  0.00     0.227 C 
ATOM      6  O   UNL A   1      34.497  24.670  22.683  1.00  0.00    -0.274 OA
ATOM      7  H   UNL A   1      36.632  23.767  22.882  1.00  0.00     0.163 HD
BRANCH   5   8
ATOM      8  C   UNL A   1      33.805  23.758  24.800  1.00  0.00     0.109 C 
ATOM      9  C   UNL A   1      34.308  24.287  26.133  1.00  0.00     0.023 C 
BRANCH   8  10
ATOM     10  C   UNL A   1      33.208  22.370  24.764  1.00  0.00     0.009 A 
ATOM     11  C   UNL A   1      31.617  22.663  22.694  1.00  0.00     0.069 C 
ATOM     12  C   UNL A   1      32.345  21.889  23.737  1.00  0.00     0.064 A 
ATOM     13  N   UNL A   1      32.199  20.567  23.791  1.00  0.00    -0.171 NA
ATOM     14  N   UNL A   1      32.894  20.183  24.890  1.00  0.00    -0.219 N 
ATOM     15  C   UNL A   1      33.284  21.292  25.648  1.00  0.00     0.047 A 
ATOM     16  C   UNL A   1      33.821  21.193  27.032  1.00  0.00     0.067 C 
BRANCH  14  17
ATOM     17  C   UNL A   1      33.292  18.813  25.047  1.00  0.00     0.156 A 
ATOM     18  C   UNL A   1      34.395  18.321  24.378  1.00  0.00     0.069 A 
ATOM     19  N   UNL A   1      32.469  18.008  25.767  1.00  0.00    -0.217 NA
ATOM     20  C   UNL A   1      34.570  16.958  24.417  1.00  0.00     0.117 A 
ATOM     21  C   UNL A   1      32.729  16.697  25.722  1.00  0.00     0.224 A 
ATOM     22  N   UNL A   1      33.743  16.120  25.066  1.00  0.00    -0.245 NA
ENDBRANCH  14  17
ENDBRANCH   8  10
ENDBRANCH   5   8
ENDBRANCH   3   4
ENDBRANCH   2   3
ENDBRANCH   1   2
BRANCH   1  23
ATOM     23  C   UNL A   1      38.922  20.591  25.574  1.00  0.00     0.116 C 
BRANCH  23  24
ATOM     24  N   UNL A   1      39.796  19.426  25.741  1.00  0.00    -0.352 N 
ATOM     25  C   UNL A   1      41.161  19.445  25.984  1.00  0.00     0.251 C 
ATOM     26  H   UNL A   1      39.370  18.541  25.674  1.00  0.00     0.163 HD
ATOM     27  O   UNL A   1      41.867  18.472  25.736  1.00  0.00    -0.269 OA
BRANCH  25  28
ATOM     28  C   UNL A   1      41.735  20.665  26.577  1.00  0.00     0.039 A 
ATOM     29  C   UNL A   1      42.447  21.602  25.820  1.00  0.00     0.014 A 
ATOM     30  C   UNL A   1      41.439  20.895  27.917  1.00  0.00     0.014 A 
ATOM     31  C   UNL A   1      42.768  22.831  26.402  1.00  0.00     0.010 A 
ATOM     32  C   UNL A   1      41.635  22.148  28.439  1.00  0.00     0.010 A 
ATOM     33  C   UNL A   1      42.333  23.108  27.707  1.00  0.00    -0.014 A 
BRANCH  33  34
ATOM     34  C   UNL A   1      42.468  24.440  28.302  1.00  0.00     0.031 A 
ATOM     35  C   UNL A   1      41.360  25.390  27.999  1.00  0.00     0.074 A 
ATOM     36  C   UNL A   1      43.344  24.681  29.304  1.00  0.00     0.049 A 
ATOM     37  N   UNL A   1      41.407  26.490  27.321  1.00  0.00    -0.248 NA
ATOM     38  C   UNL A   1      39.993  25.003  28.387  1.00  0.00     0.031 C 
ATOM     39  C   UNL A   1      44.263  23.725  29.938  1.00  0.00     0.029 A 
ATOM     40  N   UNL A   1      43.499  25.793  30.073  1.00  0.00    -0.354 N 
ATOM     41  C   UNL A   1      40.136  27.059  27.410  1.00  0.00     0.074 A 
ATOM     42  C   UNL A   1      39.276  26.002  27.868  1.00  0.00     0.031 C 
ATOM     43  C   UNL A   1      44.686  24.215  31.123  1.00  0.00     0.029 A 
ATOM     44  C   UNL A   1      44.227  25.586  31.244  1.00  0.00     0.049 A 
ATOM     45  H   UNL A   1      43.129  26.671  29.823  1.00  0.00     0.167 HD
ATOM     46  C   UNL A   1      39.958  28.412  27.345  1.00  0.00     0.034 A 
ATOM     47  C   UNL A   1      44.438  26.466  32.257  1.00  0.00     0.034 A 
ATOM     48  C   UNL A   1      41.170  29.054  26.879  1.00  0.00     0.049 A 
ATOM     49  C   UNL A   1      44.197  27.817  31.703  1.00  0.00     0.074 A 
ATOM     50  C   UNL A   1      41.932  28.994  25.729  1.00  0.00     0.029 A 
ATOM     51  N   UNL A   1      41.979  29.642  27.827  1.00  0.00    -0.354 N 
ATOM     52  N   UNL A   1      44.934  28.343  30.763  1.00  0.00    -0.248 NA
ATOM     53  C   UNL A   1      42.870  28.399  31.841  1.00  0.00     0.031 C 
ATOM     54  C   UNL A   1      43.285  29.086  26.178  1.00  0.00     0.029 A 
ATOM     55  C   UNL A   1      43.275  29.282  27.562  1.00  0.00     0.049 A 
ATOM     56  H   UNL A   1      41.679  30.219  28.566  1.00  0.00     0.167 HD
ATOM     57  C   UNL A   1      44.037  28.981  29.921  1.00  0.00     0.074 A 
ATOM     58  C   UNL A   1      42.806  29.094  30.702  1.00  0.00     0.031 C 
ATOM     59  C   UNL A   1      44.291  29.090  28.582  1.00  0.00     0.034 A 
BRANCH  46  60
ATOM     60  C   UNL A   1      38.880  29.214  28.068  1.00  0.00     0.023 A 
ATOM     61  C   UNL A   1      38.956  29.239  29.478  1.00  0.00     0.031 A 
ATOM     62  C   UNL A   1      37.667  29.686  27.526  1.00  0.00     0.131 A 
ATOM     63  C   UNL A   1      37.831  29.536  30.266  1.00  0.00     0.055 A 
ATOM     64  C   UNL A   1      36.567  30.046  28.317  1.00  0.00     0.041 A 
ATOM     65  F   UNL A   1      37.435  29.767  26.213  1.00  0.00    -0.206 F 
ATOM     66  C   UNL A   1      36.628  29.928  29.693  1.00  0.00     0.022 A 
BRANCH  63  67
ATOM     67  S   UNL A   1      37.919  29.187  32.042  1.00  0.00     0.124 S 
ATOM     68  O   UNL A   1      38.208  27.757  32.040  1.00  0.00    -0.237 OA
ATOM     69  O   UNL A   1      39.003  30.067  32.465  1.00  0.00    -0.237 OA
ATOM     70  O   UNL A   1      36.590  29.556  32.523  1.00  0.00    -0.744 OA
ENDBRANCH  63  67
ENDBRANCH  46  60
BRANCH  47  71
ATOM     71  C   UNL A   1      44.546  26.173  33.711  1.00  0.00     0.023 A 
ATOM     72  C   UNL A   1      43.483  26.360  34.619  1.00  0.00     0.031 A 
ATOM     73  C   UNL A   1      45.670  25.461  34.183  1.00  0.00     0.131 A 
ATOM     74  C   UNL A   1      43.570  25.839  35.933  1.00  0.00     0.055 A 
ATOM     75  C   UNL A   1      45.751  24.948  35.480  1.00  0.00     0.041 A 
ATOM     76  F   UNL A   1      46.697  25.171  33.368  1.00  0.00    -0.206 F 
ATOM     77  C   UNL A   1      44.695  25.126  36.359  1.00  0.00     0.022 A 
BRANCH  74  78
ATOM     78  S   UNL A   1      42.176  26.014  37.094  1.00  0.00     0.124 S 
ATOM     79  O   UNL A   1      42.853  26.243  38.364  1.00  0.00    -0.237 OA
ATOM     80  O   UNL A   1      41.443  27.144  36.534  1.00  0.00    -0.237 OA
ATOM     81  O   UNL A   1      41.483  24.728  36.993  1.00  0.00    -0.744 OA
ENDBRANCH  74  78
ENDBRANCH  47  71
BRANCH  59  82
ATOM     82  C   UNL A   1      45.696  28.794  28.099  1.00  0.00     0.023 A 
ATOM     83  C   UNL A   1      46.164  27.522  27.693  1.00  0.00     0.031 A 
ATOM     84  C   UNL A   1      46.562  29.889  27.938  1.00  0.00     0.131 A 
ATOM     85  C   UNL A   1      47.462  27.385  27.161  1.00  0.00     0.055 A 
ATOM     86  C   UNL A   1      47.836  29.753  27.393  1.00  0.00     0.041 A 
ATOM     87  F   UNL A   1      46.163  31.126  28.278  1.00  0.00    -0.206 F 
ATOM     88  C   UNL A   1      48.294  28.499  27.007  1.00  0.00     0.022 A 
BRANCH  85  89
ATOM     89  S   UNL A   1      48.100  25.750  26.668  1.00  0.00     0.124 S 
ATOM     90  O   UNL A   1      46.897  24.995  26.340  1.00  0.00    -0.237 OA
ATOM     91  O   UNL A   1      48.976  26.075  25.545  1.00  0.00    -0.237 OA
ATOM     92  O   UNL A   1      48.801  25.284  27.867  1.00  0.00    -0.744 OA
ENDBRANCH  85  89
ENDBRANCH  59  82
ENDBRANCH  33  34
ENDBRANCH  25  28
ENDBRANCH  23  24
ENDBRANCH   1  23
TORSDOF 16
ENDMDL
