MODEL 1
REMARK VINA RESULT:     -11.5      0.000      0.000
REMARK SMILES Cn1cc(/C=C/C(=O)N(CC(=O)NCCCCNC(=O)c2ccc(-c3c4nc(c(-c5cc(S(=O)(=O)[O-])ccc5F)c5ccc([nH]5)c(-c5cc(S(=O)(=O)[O-])ccc5F)c5nc(c(-c6cc(S(=O)(=O)[O-])ccc6F)c6ccc3[nH]6)C=C5)C=C4)cc2)C(C)(C)C)cn1
REMARK SMILES IDX 15 1 14 2 13 3 11 4 12 5 10 7 9 8 7 9 8 10 6 11 5 12 4 13
REMARK SMILES IDX 1 14 2 15 3 16 89 17 88 18 84 19 85 20 86 21 87 22 16 23
REMARK SMILES IDX 17 24 18 25 19 26 20 28 21 29 22 30 83 31 23 32 82 33 24 34
REMARK SMILES IDX 25 35 26 36 76 37 27 38 81 39 75 40 77 41 28 42 80 43 74 44
REMARK SMILES IDX 73 45 29 47 61 48 41 49 60 50 42 51 45 52 59 53 78 54 43 55
REMARK SMILES IDX 44 56 58 58 79 59 46 60 30 61 31 62 39 63 32 64 38 65 40 66
REMARK SMILES IDX 37 67 33 68 34 69 35 70 36 71 62 72 63 73 71 74 64 75 70 76
REMARK SMILES IDX 72 77 69 78 65 79 66 80 67 81 68 82 47 83 48 84 56 85 49 86
REMARK SMILES IDX 55 87 57 88 54 89 50 90 51 91 52 92 53 93
REMARK H PARENT 13 6 18 27 77 46 45 57
REMARK Flexibility Score: inf
ROOT
ATOM      1  C   UNL A   1      31.272  27.341  26.463  1.00  0.00     0.023 C 
ENDROOT
BRANCH   1   2
ATOM      2  C   UNL A   1      30.779  26.279  25.494  1.00  0.00     0.116 C 
BRANCH   2   3
ATOM      3  N   UNL A   1      30.277  25.068  26.112  1.00  0.00    -0.355 N 
ATOM      4  C   UNL A   1      30.911  24.028  26.722  1.00  0.00     0.239 C 
ATOM      5  O   UNL A   1      30.208  23.306  27.442  1.00  0.00    -0.273 OA
ATOM      6  H   UNL A   1      29.297  24.980  26.083  1.00  0.00     0.163 HD
BRANCH   4   7
ATOM      7  C   UNL A   1      32.436  23.798  26.700  1.00  0.00     0.220 C 
BRANCH   7   8
ATOM      8  N   UNL A   1      33.068  23.442  25.423  1.00  0.00    -0.325 N 
BRANCH   8   9
ATOM      9  C   UNL A   1      32.501  22.575  24.487  1.00  0.00     0.247 C 
ATOM     10  O   UNL A   1      31.563  22.922  23.761  1.00  0.00    -0.270 OA
BRANCH   9  11
ATOM     11  C   UNL A   1      32.911  21.137  24.288  1.00  0.00     0.072 C 
ATOM     12  C   UNL A   1      32.296  20.088  23.718  1.00  0.00     0.017 C 
BRANCH  12  13
ATOM     13  C   UNL A   1      32.725  18.731  23.739  1.00  0.00     0.013 A 
ATOM     14  C   UNL A   1      34.157  15.826  25.300  1.00  0.00     0.173 C 
ATOM     15  N   UNL A   1      33.566  16.848  24.471  1.00  0.00    -0.275 N 
ATOM     16  C   UNL A   1      33.153  18.084  24.877  1.00  0.00     0.116 A 
ATOM     17  N   UNL A   1      33.409  16.638  23.151  1.00  0.00    -0.181 NA
ATOM     18  C   UNL A   1      32.912  17.797  22.703  1.00  0.00     0.143 A 
ENDBRANCH  12  13
ENDBRANCH   9  11
ENDBRANCH   8   9
BRANCH   8  19
ATOM     19  C   UNL A   1      34.401  24.116  25.097  1.00  0.00     0.035 C 
ATOM     20  C   UNL A   1      34.363  25.633  25.357  1.00  0.00     0.034 C 
ATOM     21  C   UNL A   1      35.547  23.487  25.926  1.00  0.00     0.034 C 
ATOM     22  C   UNL A   1      34.846  23.968  23.613  1.00  0.00     0.034 C 
ENDBRANCH   8  19
ENDBRANCH   7   8
ENDBRANCH   4   7
ENDBRANCH   2   3
ENDBRANCH   1   2
BRANCH   1  23
ATOM     23  C   UNL A   1      31.779  28.622  25.816  1.00  0.00     0.023 C 
BRANCH  23  24
ATOM     24  C   UNL A   1      32.824  29.364  26.636  1.00  0.00     0.116 C 
BRANCH  24  25
ATOM     25  N   UNL A   1      32.537  30.786  26.768  1.00  0.00    -0.352 N 
ATOM     26  C   UNL A   1      33.310  31.759  27.360  1.00  0.00     0.251 C 
ATOM     27  H   UNL A   1      31.682  31.090  26.385  1.00  0.00     0.163 HD
ATOM     28  O   UNL A   1      32.878  32.893  27.512  1.00  0.00    -0.269 OA
BRANCH  26  29
ATOM     29  C   UNL A   1      34.656  31.389  27.841  1.00  0.00     0.039 A 
ATOM     30  C   UNL A   1      35.653  32.366  27.893  1.00  0.00     0.014 A 
ATOM     31  C   UNL A   1      34.895  30.099  28.320  1.00  0.00     0.014 A 
ATOM     32  C   UNL A   1      36.873  32.067  28.503  1.00  0.00     0.010 A 
ATOM     33  C   UNL A   1      36.081  29.829  28.991  1.00  0.00     0.010 A 
ATOM     34  C   UNL A   1      37.079  30.811  29.095  1.00  0.00    -0.014 A 
BRANCH  34  35
ATOM     35  C   UNL A   1      38.329  30.480  29.824  1.00  0.00     0.031 A 
ATOM     36  C   UNL A   1      39.282  29.482  29.229  1.00  0.00     0.074 A 
ATOM     37  C   UNL A   1      38.548  30.985  31.054  1.00  0.00     0.049 A 
ATOM     38  N   UNL A   1      40.324  28.906  29.767  1.00  0.00    -0.248 NA
ATOM     39  C   UNL A   1      38.993  29.045  27.854  1.00  0.00     0.031 C 
ATOM     40  C   UNL A   1      37.678  31.937  31.746  1.00  0.00     0.029 A 
ATOM     41  N   UNL A   1      39.558  30.748  31.951  1.00  0.00    -0.354 N 
ATOM     42  C   UNL A   1      40.799  28.016  28.809  1.00  0.00     0.074 A 
ATOM     43  C   UNL A   1      39.896  28.094  27.680  1.00  0.00     0.031 C 
ATOM     44  C   UNL A   1      38.197  32.210  32.954  1.00  0.00     0.029 A 
ATOM     45  C   UNL A   1      39.406  31.414  33.145  1.00  0.00     0.049 A 
ATOM     46  H   UNL A   1      40.322  30.156  31.759  1.00  0.00     0.167 HD
ATOM     47  C   UNL A   1      41.896  27.222  28.862  1.00  0.00     0.034 A 
ATOM     48  C   UNL A   1      40.144  31.371  34.272  1.00  0.00     0.034 A 
ATOM     49  C   UNL A   1      42.797  27.181  29.988  1.00  0.00     0.049 A 
ATOM     50  C   UNL A   1      41.356  30.475  34.314  1.00  0.00     0.074 A 
ATOM     51  C   UNL A   1      43.967  26.455  30.131  1.00  0.00     0.029 A 
ATOM     52  N   UNL A   1      42.628  27.899  31.165  1.00  0.00    -0.354 N 
ATOM     53  N   UNL A   1      41.809  29.657  33.391  1.00  0.00    -0.248 NA
ATOM     54  C   UNL A   1      42.162  30.501  35.542  1.00  0.00     0.031 C 
ATOM     55  C   UNL A   1      44.476  26.692  31.413  1.00  0.00     0.029 A 
ATOM     56  C   UNL A   1      43.661  27.618  32.045  1.00  0.00     0.049 A 
ATOM     57  H   UNL A   1      41.883  28.516  31.347  1.00  0.00     0.167 HD
ATOM     58  C   UNL A   1      42.972  29.101  33.915  1.00  0.00     0.074 A 
ATOM     59  C   UNL A   1      43.151  29.674  35.233  1.00  0.00     0.031 C 
ATOM     60  C   UNL A   1      43.823  28.207  33.352  1.00  0.00     0.034 A 
BRANCH  47  61
ATOM     61  C   UNL A   1      42.157  26.321  27.680  1.00  0.00     0.023 A 
ATOM     62  C   UNL A   1      41.720  24.985  27.661  1.00  0.00     0.031 A 
ATOM     63  C   UNL A   1      42.888  26.790  26.573  1.00  0.00     0.131 A 
ATOM     64  C   UNL A   1      42.089  24.143  26.602  1.00  0.00     0.055 A 
ATOM     65  C   UNL A   1      43.177  25.969  25.482  1.00  0.00     0.041 A 
ATOM     66  F   UNL A   1      43.350  28.050  26.543  1.00  0.00    -0.206 F 
ATOM     67  C   UNL A   1      42.793  24.632  25.500  1.00  0.00     0.022 A 
BRANCH  64  68
ATOM     68  S   UNL A   1      41.768  22.365  26.762  1.00  0.00     0.124 S 
ATOM     69  O   UNL A   1      41.890  21.919  25.377  1.00  0.00    -0.237 OA
ATOM     70  O   UNL A   1      42.826  21.933  27.668  1.00  0.00    -0.237 OA
ATOM     71  O   UNL A   1      40.414  22.309  27.310  1.00  0.00    -0.744 OA
ENDBRANCH  64  68
ENDBRANCH  47  61
BRANCH  48  72
ATOM     72  C   UNL A   1      39.756  32.183  35.461  1.00  0.00     0.023 A 
ATOM     73  C   UNL A   1      38.902  31.659  36.443  1.00  0.00     0.031 A 
ATOM     74  C   UNL A   1      40.209  33.505  35.616  1.00  0.00     0.131 A 
ATOM     75  C   UNL A   1      38.490  32.466  37.514  1.00  0.00     0.055 A 
ATOM     76  C   UNL A   1      39.836  34.288  36.709  1.00  0.00     0.041 A 
ATOM     77  F   UNL A   1      41.035  34.051  34.709  1.00  0.00    -0.206 F 
ATOM     78  C   UNL A   1      38.960  33.774  37.661  1.00  0.00     0.022 A 
BRANCH  75  79
ATOM     79  S   UNL A   1      37.266  31.807  38.679  1.00  0.00     0.124 S 
ATOM     80  O   UNL A   1      36.149  32.724  38.486  1.00  0.00    -0.237 OA
ATOM     81  O   UNL A   1      37.075  30.449  38.178  1.00  0.00    -0.237 OA
ATOM     82  O   UNL A   1      37.939  31.903  39.972  1.00  0.00    -0.744 OA
ENDBRANCH  75  79
ENDBRANCH  48  72
BRANCH  60  83
ATOM     83  C   UNL A   1      45.060  27.850  34.133  1.00  0.00     0.023 A 
ATOM     84  C   UNL A   1      45.101  26.743  34.998  1.00  0.00     0.031 A 
ATOM     85  C   UNL A   1      46.226  28.623  33.986  1.00  0.00     0.131 A 
ATOM     86  C   UNL A   1      46.276  26.460  35.710  1.00  0.00     0.055 A 
ATOM     87  C   UNL A   1      47.405  28.310  34.660  1.00  0.00     0.041 A 
ATOM     88  F   UNL A   1      46.238  29.690  33.170  1.00  0.00    -0.206 F 
ATOM     89  C   UNL A   1      47.432  27.227  35.535  1.00  0.00     0.022 A 
BRANCH  86  90
ATOM     90  S   UNL A   1      46.264  25.100  36.910  1.00  0.00     0.124 S 
ATOM     91  O   UNL A   1      47.654  25.074  37.352  1.00  0.00    -0.237 OA
ATOM     92  O   UNL A   1      45.290  25.560  37.895  1.00  0.00    -0.237 OA
ATOM     93  O   UNL A   1      45.842  23.947  36.116  1.00  0.00    -0.744 OA
ENDBRANCH  86  90
ENDBRANCH  60  83
ENDBRANCH  34  35
ENDBRANCH  26  29
ENDBRANCH  24  25
ENDBRANCH  23  24
ENDBRANCH   1  23
TORSDOF 19
ENDMDL
MODEL 2
REMARK VINA RESULT:     -11.5      3.167      5.263
REMARK SMILES Cn1cc(/C=C/C(=O)N(CC(=O)NCCCCNC(=O)c2ccc(-c3c4nc(c(-c5cc(S(=O)(=O)[O-])ccc5F)c5ccc([nH]5)c(-c5cc(S(=O)(=O)[O-])ccc5F)c5nc(c(-c6cc(S(=O)(=O)[O-])ccc6F)c6ccc3[nH]6)C=C5)C=C4)cc2)C(C)(C)C)cn1
REMARK SMILES IDX 15 1 14 2 13 3 11 4 12 5 10 7 9 8 7 9 8 10 6 11 5 12 4 13
REMARK SMILES IDX 1 14 2 15 3 16 89 17 88 18 84 19 85 20 86 21 87 22 16 23
REMARK SMILES IDX 17 24 18 25 19 26 20 28 21 29 22 30 83 31 23 32 82 33 24 34
REMARK SMILES IDX 25 35 26 36 76 37 27 38 81 39 75 40 77 41 28 42 80 43 74 44
REMARK SMILES IDX 73 45 29 47 61 48 41 49 60 50 42 51 45 52 59 53 78 54 43 55
REMARK SMILES IDX 44 56 58 58 79 59 46 60 30 61 31 62 39 63 32 64 38 65 40 66
REMARK SMILES IDX 37 67 33 68 34 69 35 70 36 71 62 72 63 73 71 74 64 75 70 76
REMARK SMILES IDX 72 77 69 78 65 79 66 80 67 81 68 82 47 83 48 84 56 85 49 86
REMARK SMILES IDX 55 87 57 88 54 89 50 90 51 91 52 92 53 93
REMARK H PARENT 13 6 18 27 77 46 45 57
REMARK Flexibility Score: inf
ROOT
ATOM      1  C   UNL A   1      31.483  30.726  26.015  1.00  0.00     0.023 C 
ENDROOT
BRANCH   1   2
ATOM      2  C   UNL A   1      32.858  30.088  26.134  1.00  0.00     0.116 C 
BRANCH   2   3
ATOM      3  N   UNL A   1      33.492  29.755  24.874  1.00  0.00    -0.355 N 
ATOM      4  C   UNL A   1      33.452  28.631  24.105  1.00  0.00     0.239 C 
ATOM      5  O   UNL A   1      33.823  28.759  22.930  1.00  0.00    -0.273 OA
ATOM      6  H   UNL A   1      34.057  30.473  24.507  1.00  0.00     0.163 HD
BRANCH   4   7
ATOM      7  C   UNL A   1      32.841  27.287  24.551  1.00  0.00     0.220 C 
BRANCH   7   8
ATOM      8  N   UNL A   1      31.790  26.690  23.718  1.00  0.00    -0.325 N 
BRANCH   8   9
ATOM      9  C   UNL A   1      30.461  27.116  23.715  1.00  0.00     0.247 C 
ATOM     10  O   UNL A   1      29.552  26.424  24.185  1.00  0.00    -0.270 OA
BRANCH   9  11
ATOM     11  C   UNL A   1      29.973  28.409  23.107  1.00  0.00     0.072 C 
ATOM     12  C   UNL A   1      29.423  29.512  23.640  1.00  0.00     0.017 C 
BRANCH  12  13
ATOM     13  C   UNL A   1      28.851  30.607  22.936  1.00  0.00     0.013 A 
ATOM     14  C   UNL A   1      27.795  32.331  19.961  1.00  0.00     0.173 C 
ATOM     15  N   UNL A   1      28.141  31.843  21.274  1.00  0.00    -0.275 N 
ATOM     16  C   UNL A   1      28.587  30.591  21.584  1.00  0.00     0.116 A 
ATOM     17  N   UNL A   1      28.071  32.664  22.338  1.00  0.00    -0.181 NA
ATOM     18  C   UNL A   1      28.522  31.913  23.349  1.00  0.00     0.143 A 
ENDBRANCH  12  13
ENDBRANCH   9  11
ENDBRANCH   8   9
BRANCH   8  19
ATOM     19  C   UNL A   1      32.211  25.571  22.764  1.00  0.00     0.035 C 
ATOM     20  C   UNL A   1      31.965  25.942  21.290  1.00  0.00     0.034 C 
ATOM     21  C   UNL A   1      33.708  25.225  22.958  1.00  0.00     0.034 C 
ATOM     22  C   UNL A   1      31.453  24.229  22.979  1.00  0.00     0.034 C 
ENDBRANCH   8  19
ENDBRANCH   7   8
ENDBRANCH   4   7
ENDBRANCH   2   3
ENDBRANCH   1   2
BRANCH   1  23
ATOM     23  C   UNL A   1      31.376  32.139  26.569  1.00  0.00     0.023 C 
BRANCH  23  24
ATOM     24  C   UNL A   1      32.626  32.625  27.288  1.00  0.00     0.116 C 
BRANCH  24  25
ATOM     25  N   UNL A   1      32.497  33.983  27.797  1.00  0.00    -0.352 N 
ATOM     26  C   UNL A   1      33.281  34.619  28.733  1.00  0.00     0.251 C 
ATOM     27  H   UNL A   1      31.756  34.514  27.425  1.00  0.00     0.163 HD
ATOM     28  O   UNL A   1      32.972  35.723  29.160  1.00  0.00    -0.269 OA
BRANCH  26  29
ATOM     29  C   UNL A   1      34.480  33.921  29.237  1.00  0.00     0.039 A 
ATOM     30  C   UNL A   1      35.742  34.332  28.801  1.00  0.00     0.014 A 
ATOM     31  C   UNL A   1      34.349  32.920  30.203  1.00  0.00     0.014 A 
ATOM     32  C   UNL A   1      36.882  33.792  29.398  1.00  0.00     0.010 A 
ATOM     33  C   UNL A   1      35.483  32.440  30.845  1.00  0.00     0.010 A 
ATOM     34  C   UNL A   1      36.760  32.875  30.455  1.00  0.00    -0.014 A 
BRANCH  34  35
ATOM     35  C   UNL A   1      37.943  32.338  31.171  1.00  0.00     0.031 A 
ATOM     36  C   UNL A   1      38.717  31.203  30.562  1.00  0.00     0.074 A 
ATOM     37  C   UNL A   1      38.250  32.790  32.403  1.00  0.00     0.049 A 
ATOM     38  N   UNL A   1      39.655  30.460  31.087  1.00  0.00    -0.248 NA
ATOM     39  C   UNL A   1      38.352  30.831  29.186  1.00  0.00     0.031 C 
ATOM     40  C   UNL A   1      37.552  33.866  33.110  1.00  0.00     0.029 A 
ATOM     41  N   UNL A   1      39.214  32.384  33.291  1.00  0.00    -0.354 N 
ATOM     42  C   UNL A   1      39.972  29.512  30.120  1.00  0.00     0.074 A 
ATOM     43  C   UNL A   1      39.086  29.747  28.998  1.00  0.00     0.031 C 
ATOM     44  C   UNL A   1      38.116  34.039  34.316  1.00  0.00     0.029 A 
ATOM     45  C   UNL A   1      39.180  33.056  34.491  1.00  0.00     0.049 A 
ATOM     46  H   UNL A   1      39.870  31.677  33.089  1.00  0.00     0.167 HD
ATOM     47  C   UNL A   1      40.925  28.550  30.158  1.00  0.00     0.034 A 
ATOM     48  C   UNL A   1      39.908  32.883  35.612  1.00  0.00     0.034 A 
ATOM     49  C   UNL A   1      41.814  28.352  31.277  1.00  0.00     0.049 A 
ATOM     50  C   UNL A   1      40.958  31.801  35.638  1.00  0.00     0.074 A 
ATOM     51  C   UNL A   1      42.850  27.444  31.406  1.00  0.00     0.029 A 
ATOM     52  N   UNL A   1      41.772  29.078  32.461  1.00  0.00    -0.354 N 
ATOM     53  N   UNL A   1      41.265  30.928  34.705  1.00  0.00    -0.248 NA
ATOM     54  C   UNL A   1      41.765  31.684  36.860  1.00  0.00     0.031 C 
ATOM     55  C   UNL A   1      43.400  27.584  32.685  1.00  0.00     0.029 A 
ATOM     56  C   UNL A   1      42.751  28.625  33.331  1.00  0.00     0.049 A 
ATOM     57  H   UNL A   1      41.139  29.808  32.653  1.00  0.00     0.167 HD
ATOM     58  C   UNL A   1      42.326  30.185  35.216  1.00  0.00     0.074 A 
ATOM     59  C   UNL A   1      42.604  30.710  36.537  1.00  0.00     0.031 C 
ATOM     60  C   UNL A   1      43.015  29.169  34.640  1.00  0.00     0.034 A 
BRANCH  47  61
ATOM     61  C   UNL A   1      41.027  27.629  28.967  1.00  0.00     0.023 A 
ATOM     62  C   UNL A   1      42.023  27.796  27.989  1.00  0.00     0.031 A 
ATOM     63  C   UNL A   1      40.093  26.594  28.784  1.00  0.00     0.131 A 
ATOM     64  C   UNL A   1      42.011  27.002  26.834  1.00  0.00     0.055 A 
ATOM     65  C   UNL A   1      40.139  25.750  27.674  1.00  0.00     0.041 A 
ATOM     66  F   UNL A   1      39.107  26.398  29.674  1.00  0.00    -0.206 F 
ATOM     67  C   UNL A   1      41.091  25.962  26.681  1.00  0.00     0.022 A 
BRANCH  64  68
ATOM     68  S   UNL A   1      43.116  27.448  25.468  1.00  0.00     0.124 S 
ATOM     69  O   UNL A   1      42.224  28.221  24.608  1.00  0.00    -0.237 OA
ATOM     70  O   UNL A   1      44.166  28.202  26.143  1.00  0.00    -0.237 OA
ATOM     71  O   UNL A   1      43.528  26.156  24.924  1.00  0.00    -0.744 OA
ENDBRANCH  64  68
ENDBRANCH  47  61
BRANCH  48  72
ATOM     72  C   UNL A   1      39.666  33.737  36.810  1.00  0.00     0.023 A 
ATOM     73  C   UNL A   1      39.211  33.177  38.013  1.00  0.00     0.031 A 
ATOM     74  C   UNL A   1      39.856  35.130  36.759  1.00  0.00     0.131 A 
ATOM     75  C   UNL A   1      38.918  34.009  39.105  1.00  0.00     0.055 A 
ATOM     76  C   UNL A   1      39.609  35.948  37.862  1.00  0.00     0.041 A 
ATOM     77  F   UNL A   1      40.297  35.714  35.633  1.00  0.00    -0.206 F 
ATOM     78  C   UNL A   1      39.125  35.390  39.042  1.00  0.00     0.022 A 
BRANCH  75  79
ATOM     79  S   UNL A   1      38.188  33.268  40.590  1.00  0.00     0.124 S 
ATOM     80  O   UNL A   1      36.770  33.549  40.395  1.00  0.00    -0.237 OA
ATOM     81  O   UNL A   1      38.589  31.871  40.458  1.00  0.00    -0.237 OA
ATOM     82  O   UNL A   1      38.825  33.997  41.684  1.00  0.00    -0.744 OA
ENDBRANCH  75  79
ENDBRANCH  48  72
BRANCH  60  83
ATOM     83  C   UNL A   1      44.183  28.607  35.409  1.00  0.00     0.023 A 
ATOM     84  C   UNL A   1      44.024  27.591  36.366  1.00  0.00     0.031 A 
ATOM     85  C   UNL A   1      45.480  29.088  35.156  1.00  0.00     0.131 A 
ATOM     86  C   UNL A   1      45.144  27.111  37.062  1.00  0.00     0.055 A 
ATOM     87  C   UNL A   1      46.595  28.574  35.817  1.00  0.00     0.041 A 
ATOM     88  F   UNL A   1      45.684  30.057  34.249  1.00  0.00    -0.206 F 
ATOM     89  C   UNL A   1      46.429  27.585  36.783  1.00  0.00     0.022 A 
BRANCH  86  90
ATOM     90  S   UNL A   1      44.895  25.887  38.377  1.00  0.00     0.124 S 
ATOM     91  O   UNL A   1      44.084  24.879  37.704  1.00  0.00    -0.237 OA
ATOM     92  O   UNL A   1      46.263  25.493  38.702  1.00  0.00    -0.237 OA
ATOM     93  O   UNL A   1      44.206  26.642  39.423  1.00  0.00    -0.744 OA
ENDBRANCH  86  90
ENDBRANCH  60  83
ENDBRANCH  34  35
ENDBRANCH  26  29
ENDBRANCH  24  25
ENDBRANCH  23  24
ENDBRANCH   1  23
TORSDOF 19
ENDMDL
MODEL 3
REMARK VINA RESULT:     -11.4      5.671     10.269
REMARK SMILES Cn1cc(/C=C/C(=O)N(CC(=O)NCCCCNC(=O)c2ccc(-c3c4nc(c(-c5cc(S(=O)(=O)[O-])ccc5F)c5ccc([nH]5)c(-c5cc(S(=O)(=O)[O-])ccc5F)c5nc(c(-c6cc(S(=O)(=O)[O-])ccc6F)c6ccc3[nH]6)C=C5)C=C4)cc2)C(C)(C)C)cn1
REMARK SMILES IDX 15 1 14 2 13 3 11 4 12 5 10 7 9 8 7 9 8 10 6 11 5 12 4 13
REMARK SMILES IDX 1 14 2 15 3 16 89 17 88 18 84 19 85 20 86 21 87 22 16 23
REMARK SMILES IDX 17 24 18 25 19 26 20 28 21 29 22 30 83 31 23 32 82 33 24 34
REMARK SMILES IDX 25 35 26 36 76 37 27 38 81 39 75 40 77 41 28 42 80 43 74 44
REMARK SMILES IDX 73 45 29 47 61 48 41 49 60 50 42 51 45 52 59 53 78 54 43 55
REMARK SMILES IDX 44 56 58 58 79 59 46 60 30 61 31 62 39 63 32 64 38 65 40 66
REMARK SMILES IDX 37 67 33 68 34 69 35 70 36 71 62 72 63 73 71 74 64 75 70 76
REMARK SMILES IDX 72 77 69 78 65 79 66 80 67 81 68 82 47 83 48 84 56 85 49 86
REMARK SMILES IDX 55 87 57 88 54 89 50 90 51 91 52 92 53 93
REMARK H PARENT 13 6 18 27 77 46 45 57
REMARK Flexibility Score: inf
ROOT
ATOM      1  C   UNL A   1      36.539  21.201  25.590  1.00  0.00     0.023 C 
ENDROOT
BRANCH   1   2
ATOM      2  C   UNL A   1      36.124  22.536  26.187  1.00  0.00     0.116 C 
BRANCH   2   3
ATOM      3  N   UNL A   1      35.169  22.453  27.274  1.00  0.00    -0.355 N 
ATOM      4  C   UNL A   1      33.892  22.909  27.398  1.00  0.00     0.239 C 
ATOM      5  O   UNL A   1      33.217  22.404  28.306  1.00  0.00    -0.273 OA
ATOM      6  H   UNL A   1      35.507  21.982  28.069  1.00  0.00     0.163 HD
BRANCH   4   7
ATOM      7  C   UNL A   1      33.205  23.870  26.407  1.00  0.00     0.220 C 
BRANCH   7   8
ATOM      8  N   UNL A   1      32.654  23.312  25.165  1.00  0.00    -0.325 N 
BRANCH   8   9
ATOM      9  C   UNL A   1      31.786  22.220  25.118  1.00  0.00     0.247 C 
ATOM     10  O   UNL A   1      30.565  22.351  25.254  1.00  0.00    -0.270 OA
BRANCH   9  11
ATOM     11  C   UNL A   1      32.218  20.784  24.954  1.00  0.00     0.072 C 
ATOM     12  C   UNL A   1      32.465  20.027  23.873  1.00  0.00     0.017 C 
BRANCH  12  13
ATOM     13  C   UNL A   1      32.709  18.626  23.848  1.00  0.00     0.013 A 
ATOM     14  C   UNL A   1      33.032  15.381  25.364  1.00  0.00     0.173 C 
ATOM     15  N   UNL A   1      32.962  16.567  24.545  1.00  0.00    -0.275 N 
ATOM     16  C   UNL A   1      32.534  17.802  24.937  1.00  0.00     0.116 A 
ATOM     17  N   UNL A   1      33.377  16.525  23.265  1.00  0.00    -0.181 NA
ATOM     18  C   UNL A   1      33.238  17.789  22.847  1.00  0.00     0.143 A 
ENDBRANCH  12  13
ENDBRANCH   9  11
ENDBRANCH   8   9
BRANCH   8  19
ATOM     19  C   UNL A   1      33.026  24.020  23.861  1.00  0.00     0.035 C 
ATOM     20  C   UNL A   1      33.613  25.423  24.110  1.00  0.00     0.034 C 
ATOM     21  C   UNL A   1      34.045  23.179  23.056  1.00  0.00     0.034 C 
ATOM     22  C   UNL A   1      31.829  24.245  22.892  1.00  0.00     0.034 C 
ENDBRANCH   8  19
ENDBRANCH   7   8
ENDBRANCH   4   7
ENDBRANCH   2   3
ENDBRANCH   1   2
BRANCH   1  23
ATOM     23  C   UNL A   1      37.948  21.159  25.016  1.00  0.00     0.023 C 
BRANCH  23  24
ATOM     24  C   UNL A   1      39.049  21.123  26.066  1.00  0.00     0.116 C 
BRANCH  24  25
ATOM     25  N   UNL A   1      39.862  19.917  25.994  1.00  0.00    -0.352 N 
ATOM     26  C   UNL A   1      41.233  19.810  26.070  1.00  0.00     0.251 C 
ATOM     27  H   UNL A   1      39.371  19.072  25.878  1.00  0.00     0.163 HD
ATOM     28  O   UNL A   1      41.787  18.739  25.862  1.00  0.00    -0.269 OA
BRANCH  26  29
ATOM     29  C   UNL A   1      42.017  21.025  26.368  1.00  0.00     0.039 A 
ATOM     30  C   UNL A   1      42.342  21.898  25.327  1.00  0.00     0.014 A 
ATOM     31  C   UNL A   1      42.349  21.333  27.689  1.00  0.00     0.014 A 
ATOM     32  C   UNL A   1      42.933  23.127  25.625  1.00  0.00     0.010 A 
ATOM     33  C   UNL A   1      42.868  22.586  27.987  1.00  0.00     0.010 A 
ATOM     34  C   UNL A   1      43.160  23.498  26.960  1.00  0.00    -0.014 A 
BRANCH  34  35
ATOM     35  C   UNL A   1      43.711  24.827  27.324  1.00  0.00     0.031 A 
ATOM     36  C   UNL A   1      42.785  25.883  27.861  1.00  0.00     0.074 A 
ATOM     37  C   UNL A   1      45.002  25.116  27.072  1.00  0.00     0.049 A 
ATOM     38  N   UNL A   1      43.005  27.155  28.064  1.00  0.00    -0.248 NA
ATOM     39  C   UNL A   1      41.414  25.450  28.170  1.00  0.00     0.031 C 
ATOM     40  C   UNL A   1      45.988  24.181  26.523  1.00  0.00     0.029 A 
ATOM     41  N   UNL A   1      45.704  26.285  27.221  1.00  0.00    -0.354 N 
ATOM     42  C   UNL A   1      41.793  27.683  28.496  1.00  0.00     0.074 A 
ATOM     43  C   UNL A   1      40.832  26.600  28.472  1.00  0.00     0.031 C 
ATOM     44  C   UNL A   1      47.166  24.812  26.391  1.00  0.00     0.029 A 
ATOM     45  C   UNL A   1      47.009  26.206  26.794  1.00  0.00     0.049 A 
ATOM     46  H   UNL A   1      45.310  27.106  27.597  1.00  0.00     0.167 HD
ATOM     47  C   UNL A   1      41.514  28.949  28.891  1.00  0.00     0.034 A 
ATOM     48  C   UNL A   1      47.964  27.155  26.716  1.00  0.00     0.034 A 
ATOM     49  C   UNL A   1      42.494  30.006  28.931  1.00  0.00     0.049 A 
ATOM     50  C   UNL A   1      47.631  28.559  27.153  1.00  0.00     0.074 A 
ATOM     51  C   UNL A   1      42.339  31.312  29.363  1.00  0.00     0.029 A 
ATOM     52  N   UNL A   1      43.817  29.877  28.525  1.00  0.00    -0.354 N 
ATOM     53  N   UNL A   1      46.487  29.039  27.583  1.00  0.00    -0.248 NA
ATOM     54  C   UNL A   1      48.716  29.548  27.102  1.00  0.00     0.031 C 
ATOM     55  C   UNL A   1      43.549  31.985  29.168  1.00  0.00     0.029 A 
ATOM     56  C   UNL A   1      44.481  31.083  28.678  1.00  0.00     0.049 A 
ATOM     57  H   UNL A   1      44.222  29.049  28.179  1.00  0.00     0.167 HD
ATOM     58  C   UNL A   1      46.727  30.375  27.890  1.00  0.00     0.074 A 
ATOM     59  C   UNL A   1      48.123  30.626  27.593  1.00  0.00     0.031 C 
ATOM     60  C   UNL A   1      45.875  31.308  28.383  1.00  0.00     0.034 A 
BRANCH  47  61
ATOM     61  C   UNL A   1      40.088  29.254  29.281  1.00  0.00     0.023 A 
ATOM     62  C   UNL A   1      39.695  29.339  30.628  1.00  0.00     0.031 A 
ATOM     63  C   UNL A   1      39.100  29.423  28.295  1.00  0.00     0.131 A 
ATOM     64  C   UNL A   1      38.340  29.499  30.953  1.00  0.00     0.055 A 
ATOM     65  C   UNL A   1      37.766  29.669  28.626  1.00  0.00     0.041 A 
ATOM     66  F   UNL A   1      39.411  29.332  26.992  1.00  0.00    -0.206 F 
ATOM     67  C   UNL A   1      37.376  29.690  29.962  1.00  0.00     0.022 A 
BRANCH  64  68
ATOM     68  S   UNL A   1      37.839  29.299  32.684  1.00  0.00     0.124 S 
ATOM     69  O   UNL A   1      37.718  27.847  32.789  1.00  0.00    -0.237 OA
ATOM     70  O   UNL A   1      38.953  29.901  33.408  1.00  0.00    -0.237 OA
ATOM     71  O   UNL A   1      36.576  30.030  32.762  1.00  0.00    -0.744 OA
ENDBRANCH  64  68
ENDBRANCH  47  61
BRANCH  48  72
ATOM     72  C   UNL A   1      49.319  26.822  26.190  1.00  0.00     0.023 A 
ATOM     73  C   UNL A   1      49.713  27.229  24.906  1.00  0.00     0.031 A 
ATOM     74  C   UNL A   1      50.227  26.065  26.951  1.00  0.00     0.131 A 
ATOM     75  C   UNL A   1      50.964  26.841  24.402  1.00  0.00     0.055 A 
ATOM     76  C   UNL A   1      51.489  25.722  26.464  1.00  0.00     0.041 A 
ATOM     77  F   UNL A   1      49.902  25.658  28.188  1.00  0.00    -0.206 F 
ATOM     78  C   UNL A   1      51.860  26.100  25.177  1.00  0.00     0.022 A 
BRANCH  75  79
ATOM     79  S   UNL A   1      51.375  27.254  22.685  1.00  0.00     0.124 S 
ATOM     80  O   UNL A   1      50.156  26.865  21.986  1.00  0.00    -0.237 OA
ATOM     81  O   UNL A   1      51.634  28.688  22.774  1.00  0.00    -0.237 OA
ATOM     82  O   UNL A   1      52.547  26.428  22.407  1.00  0.00    -0.744 OA
ENDBRANCH  75  79
ENDBRANCH  48  72
BRANCH  60  83
ATOM     83  C   UNL A   1      46.448  32.664  28.700  1.00  0.00     0.023 A 
ATOM     84  C   UNL A   1      46.382  33.731  27.788  1.00  0.00     0.031 A 
ATOM     85  C   UNL A   1      47.049  32.893  29.950  1.00  0.00     0.131 A 
ATOM     86  C   UNL A   1      46.942  34.972  28.129  1.00  0.00     0.055 A 
ATOM     87  C   UNL A   1      47.561  34.141  30.302  1.00  0.00     0.041 A 
ATOM     88  F   UNL A   1      47.134  31.906  30.857  1.00  0.00    -0.206 F 
ATOM     89  C   UNL A   1      47.516  35.187  29.384  1.00  0.00     0.022 A 
BRANCH  86  90
ATOM     90  S   UNL A   1      46.952  36.295  26.888  1.00  0.00     0.124 S 
ATOM     91  O   UNL A   1      47.777  37.310  27.534  1.00  0.00    -0.237 OA
ATOM     92  O   UNL A   1      47.546  35.635  25.730  1.00  0.00    -0.237 OA
ATOM     93  O   UNL A   1      45.539  36.641  26.744  1.00  0.00    -0.744 OA
ENDBRANCH  86  90
ENDBRANCH  60  83
ENDBRANCH  34  35
ENDBRANCH  26  29
ENDBRANCH  24  25
ENDBRANCH  23  24
ENDBRANCH   1  23
TORSDOF 19
ENDMDL
