MODEL 1
REMARK VINA RESULT:     -10.7      0.000      0.000
REMARK SMILES CC(C)C[C@@H](NS(C)(=O)=O)C(=O)N1CC[C@H](C(=O)NCCCCNC(=O)c2ccc(-c3c4nc(c(-c5cc(S(=O)(=O)[O-])ccc5F)c5ccc([nH]5)c(-c5cc(S(=O)(=O)[O-])ccc5F)c5nc(c(-c6cc(S(=O)(=O)[O-])ccc6F)c6ccc3[nH]6)C=C5)C=C4)cc2)[C@H]1C
REMARK SMILES IDX 21 1 20 2 19 3 17 4 18 5 16 7 13 8 14 9 90 10 15 11 91 12
REMARK SMILES IDX 11 13 12 14 5 15 4 16 2 17 1 18 3 19 6 20 7 22 8 23 9 24
REMARK SMILES IDX 10 25 22 26 23 27 24 28 25 29 26 31 27 32 28 33 89 34 29 35
REMARK SMILES IDX 88 36 30 37 31 38 32 39 82 40 33 41 87 42 81 43 83 44 34 45
REMARK SMILES IDX 86 46 80 47 79 48 35 50 67 51 47 52 66 53 48 54 51 55 65 56
REMARK SMILES IDX 84 57 49 58 50 59 64 61 85 62 52 63 36 64 37 65 45 66 38 67
REMARK SMILES IDX 44 68 46 69 43 70 39 71 40 72 41 73 42 74 68 75 69 76 77 77
REMARK SMILES IDX 70 78 76 79 78 80 75 81 71 82 72 83 73 84 74 85 53 86 54 87
REMARK SMILES IDX 62 88 55 89 61 90 63 91 60 92 56 93 57 94 58 95 59 96
REMARK H PARENT 19 6 6 21 24 30 83 49 51 60
REMARK Flexibility Score: inf
ROOT
ATOM      1  C   UNL A   1      32.424  28.342  27.469  1.00  0.00     0.023 C 
ENDROOT
BRANCH   1   2
ATOM      2  C   UNL A   1      31.261  27.357  27.429  1.00  0.00     0.116 C 
BRANCH   2   3
ATOM      3  N   UNL A   1      31.058  26.754  26.131  1.00  0.00    -0.356 N 
ATOM      4  C   UNL A   1      31.023  25.470  25.705  1.00  0.00     0.225 C 
ATOM      5  O   UNL A   1      30.627  25.304  24.543  1.00  0.00    -0.275 OA
ATOM      6  H   UNL A   1      30.917  27.410  25.410  1.00  0.00     0.163 HD
BRANCH   4   7
ATOM      7  C   UNL A   1      31.513  24.247  26.480  1.00  0.00     0.102 C 
ATOM      8  N   UNL A   1      32.566  22.439  25.363  1.00  0.00    -0.338 N 
ATOM      9  C   UNL A   1      31.185  22.027  25.559  1.00  0.00     0.121 C 
ATOM     10  C   UNL A   1      32.879  23.608  26.187  1.00  0.00     0.094 C 
ATOM     11  C   UNL A   1      30.523  23.087  26.423  1.00  0.00     0.037 C 
ATOM     12  C   UNL A   1      33.529  23.170  27.511  1.00  0.00     0.032 C 
BRANCH   8  13
ATOM     13  C   UNL A   1      33.276  21.949  24.281  1.00  0.00     0.241 C 
ATOM     14  O   UNL A   1      32.922  22.188  23.119  1.00  0.00    -0.273 OA
BRANCH  13  15
ATOM     15  C   UNL A   1      34.405  20.918  24.478  1.00  0.00     0.159 C 
BRANCH  15  16
ATOM     16  C   UNL A   1      35.751  21.453  24.995  1.00  0.00     0.033 C 
BRANCH  16  17
ATOM     17  C   UNL A   1      36.095  22.912  24.620  1.00  0.00    -0.015 C 
ATOM     18  C   UNL A   1      36.945  23.607  25.682  1.00  0.00     0.007 C 
ATOM     19  C   UNL A   1      36.807  22.954  23.264  1.00  0.00     0.007 C 
ENDBRANCH  16  17
ENDBRANCH  15  16
BRANCH  15  20
ATOM     20  N   UNL A   1      33.891  19.777  25.283  1.00  0.00    -0.203 NA
ATOM     21  H   UNL A   1      32.991  20.067  25.665  1.00  0.00     0.141 HD
BRANCH  20  22
ATOM     22  S   UNL A   1      33.650  18.272  24.550  1.00  0.00     0.209 S 
ATOM     23  C   UNL A   1      32.669  17.371  25.743  1.00  0.00     0.176 C 
ATOM     24  O   UNL A   1      32.789  18.562  23.416  1.00  0.00    -0.213 OA
ATOM     25  O   UNL A   1      34.906  17.606  24.364  1.00  0.00    -0.213 OA
ENDBRANCH  20  22
ENDBRANCH  15  20
ENDBRANCH  13  15
ENDBRANCH   8  13
ENDBRANCH   4   7
ENDBRANCH   2   3
ENDBRANCH   1   2
BRANCH   1  26
ATOM     26  C   UNL A   1      33.569  28.061  26.505  1.00  0.00     0.023 C 
BRANCH  26  27
ATOM     27  C   UNL A   1      34.408  29.270  26.126  1.00  0.00     0.116 C 
BRANCH  27  28
ATOM     28  N   UNL A   1      33.940  30.515  26.720  1.00  0.00    -0.352 N 
ATOM     29  C   UNL A   1      34.466  31.225  27.777  1.00  0.00     0.251 C 
ATOM     30  H   UNL A   1      33.135  30.903  26.309  1.00  0.00     0.163 HD
ATOM     31  O   UNL A   1      33.868  32.204  28.215  1.00  0.00    -0.269 OA
BRANCH  29  32
ATOM     32  C   UNL A   1      35.729  30.776  28.402  1.00  0.00     0.039 A 
ATOM     33  C   UNL A   1      35.692  29.754  29.353  1.00  0.00     0.014 A 
ATOM     34  C   UNL A   1      36.951  31.328  28.013  1.00  0.00     0.014 A 
ATOM     35  C   UNL A   1      36.887  29.237  29.855  1.00  0.00     0.010 A 
ATOM     36  C   UNL A   1      38.138  30.736  28.427  1.00  0.00     0.010 A 
ATOM     37  C   UNL A   1      38.122  29.694  29.364  1.00  0.00    -0.014 A 
BRANCH  37  38
ATOM     38  C   UNL A   1      39.408  29.118  29.841  1.00  0.00     0.031 A 
ATOM     39  C   UNL A   1      40.112  29.739  31.019  1.00  0.00     0.074 A 
ATOM     40  C   UNL A   1      39.964  28.083  29.181  1.00  0.00     0.049 A 
ATOM     41  N   UNL A   1      41.264  29.428  31.555  1.00  0.00    -0.248 NA
ATOM     42  C   UNL A   1      39.453  30.892  31.651  1.00  0.00     0.031 C 
ATOM     43  C   UNL A   1      39.407  27.442  27.987  1.00  0.00     0.029 A 
ATOM     44  N   UNL A   1      41.123  27.388  29.416  1.00  0.00    -0.354 N 
ATOM     45  C   UNL A   1      41.474  30.356  32.569  1.00  0.00     0.074 A 
ATOM     46  C   UNL A   1      40.369  31.288  32.519  1.00  0.00     0.031 C 
ATOM     47  C   UNL A   1      40.203  26.424  27.620  1.00  0.00     0.029 A 
ATOM     48  C   UNL A   1      41.348  26.365  28.523  1.00  0.00     0.049 A 
ATOM     49  H   UNL A   1      41.738  27.601  30.155  1.00  0.00     0.167 HD
ATOM     50  C   UNL A   1      42.477  30.408  33.481  1.00  0.00     0.034 A 
ATOM     51  C   UNL A   1      42.362  25.482  28.442  1.00  0.00     0.034 A 
ATOM     52  C   UNL A   1      43.556  29.453  33.528  1.00  0.00     0.049 A 
ATOM     53  C   UNL A   1      43.458  25.546  29.477  1.00  0.00     0.074 A 
ATOM     54  C   UNL A   1      44.595  29.369  34.438  1.00  0.00     0.029 A 
ATOM     55  N   UNL A   1      43.737  28.413  32.624  1.00  0.00    -0.354 N 
ATOM     56  N   UNL A   1      43.609  26.394  30.470  1.00  0.00    -0.248 NA
ATOM     57  C   UNL A   1      44.505  24.522  29.393  1.00  0.00     0.031 C 
ATOM     58  C   UNL A   1      45.437  28.322  34.047  1.00  0.00     0.029 A 
ATOM     59  C   UNL A   1      44.882  27.698  32.941  1.00  0.00     0.049 A 
ATOM     60  H   UNL A   1      43.138  28.212  31.868  1.00  0.00     0.167 HD
ATOM     61  C   UNL A   1      44.753  25.981  31.148  1.00  0.00     0.074 A 
ATOM     62  C   UNL A   1      45.234  24.798  30.463  1.00  0.00     0.031 C 
ATOM     63  C   UNL A   1      45.352  26.526  32.238  1.00  0.00     0.034 A 
BRANCH  50  64
ATOM     64  C   UNL A   1      42.452  31.545  34.477  1.00  0.00     0.023 A 
ATOM     65  C   UNL A   1      41.599  31.532  35.595  1.00  0.00     0.031 A 
ATOM     66  C   UNL A   1      43.265  32.677  34.288  1.00  0.00     0.131 A 
ATOM     67  C   UNL A   1      41.514  32.658  36.428  1.00  0.00     0.055 A 
ATOM     68  C   UNL A   1      43.242  33.757  35.173  1.00  0.00     0.041 A 
ATOM     69  F   UNL A   1      44.085  32.761  33.229  1.00  0.00    -0.206 F 
ATOM     70  C   UNL A   1      42.350  33.760  36.241  1.00  0.00     0.022 A 
BRANCH  67  71
ATOM     71  S   UNL A   1      40.186  32.724  37.664  1.00  0.00     0.124 S 
ATOM     72  O   UNL A   1      40.900  32.348  38.882  1.00  0.00    -0.237 OA
ATOM     73  O   UNL A   1      39.748  34.112  37.583  1.00  0.00    -0.237 OA
ATOM     74  O   UNL A   1      39.223  31.735  37.185  1.00  0.00    -0.744 OA
ENDBRANCH  67  71
ENDBRANCH  50  64
BRANCH  51  75
ATOM     75  C   UNL A   1      42.393  24.455  27.359  1.00  0.00     0.023 A 
ATOM     76  C   UNL A   1      41.587  23.306  27.425  1.00  0.00     0.031 A 
ATOM     77  C   UNL A   1      43.261  24.586  26.260  1.00  0.00     0.131 A 
ATOM     78  C   UNL A   1      41.704  22.310  26.443  1.00  0.00     0.055 A 
ATOM     79  C   UNL A   1      43.332  23.619  25.257  1.00  0.00     0.041 A 
ATOM     80  F   UNL A   1      44.048  25.667  26.143  1.00  0.00    -0.206 F 
ATOM     81  C   UNL A   1      42.561  22.464  25.352  1.00  0.00     0.022 A 
BRANCH  78  82
ATOM     82  S   UNL A   1      40.782  20.762  26.662  1.00  0.00     0.124 S 
ATOM     83  O   UNL A   1      41.589  19.825  25.889  1.00  0.00    -0.237 OA
ATOM     84  O   UNL A   1      40.813  20.594  28.111  1.00  0.00    -0.237 OA
ATOM     85  O   UNL A   1      39.468  21.067  26.099  1.00  0.00    -0.744 OA
ENDBRANCH  78  82
ENDBRANCH  51  75
BRANCH  63  86
ATOM     86  C   UNL A   1      46.567  25.810  32.777  1.00  0.00     0.023 A 
ATOM     87  C   UNL A   1      46.459  24.779  33.726  1.00  0.00     0.031 A 
ATOM     88  C   UNL A   1      47.855  26.192  32.361  1.00  0.00     0.131 A 
ATOM     89  C   UNL A   1      47.617  24.219  34.285  1.00  0.00     0.055 A 
ATOM     90  C   UNL A   1      49.003  25.580  32.866  1.00  0.00     0.041 A 
ATOM     91  F   UNL A   1      48.020  27.172  31.458  1.00  0.00    -0.206 F 
ATOM     92  C   UNL A   1      48.888  24.601  33.848  1.00  0.00     0.022 A 
BRANCH  89  93
ATOM     93  S   UNL A   1      47.442  23.076  35.683  1.00  0.00     0.124 S 
ATOM     94  O   UNL A   1      48.782  22.501  35.773  1.00  0.00    -0.237 OA
ATOM     95  O   UNL A   1      47.059  23.970  36.770  1.00  0.00    -0.237 OA
ATOM     96  O   UNL A   1      46.399  22.153  35.241  1.00  0.00    -0.744 OA
ENDBRANCH  89  93
ENDBRANCH  63  86
ENDBRANCH  37  38
ENDBRANCH  29  32
ENDBRANCH  27  28
ENDBRANCH  26  27
ENDBRANCH   1  26
TORSDOF 20
ENDMDL
MODEL 2
REMARK VINA RESULT:     -10.4      2.203      2.921
REMARK SMILES CC(C)C[C@@H](NS(C)(=O)=O)C(=O)N1CC[C@H](C(=O)NCCCCNC(=O)c2ccc(-c3c4nc(c(-c5cc(S(=O)(=O)[O-])ccc5F)c5ccc([nH]5)c(-c5cc(S(=O)(=O)[O-])ccc5F)c5nc(c(-c6cc(S(=O)(=O)[O-])ccc6F)c6ccc3[nH]6)C=C5)C=C4)cc2)[C@H]1C
REMARK SMILES IDX 21 1 20 2 19 3 17 4 18 5 16 7 13 8 14 9 90 10 15 11 91 12
REMARK SMILES IDX 11 13 12 14 5 15 4 16 2 17 1 18 3 19 6 20 7 22 8 23 9 24
REMARK SMILES IDX 10 25 22 26 23 27 24 28 25 29 26 31 27 32 28 33 89 34 29 35
REMARK SMILES IDX 88 36 30 37 31 38 32 39 82 40 33 41 87 42 81 43 83 44 34 45
REMARK SMILES IDX 86 46 80 47 79 48 35 50 67 51 47 52 66 53 48 54 51 55 65 56
REMARK SMILES IDX 84 57 49 58 50 59 64 61 85 62 52 63 36 64 37 65 45 66 38 67
REMARK SMILES IDX 44 68 46 69 43 70 39 71 40 72 41 73 42 74 68 75 69 76 77 77
REMARK SMILES IDX 70 78 76 79 78 80 75 81 71 82 72 83 73 84 74 85 53 86 54 87
REMARK SMILES IDX 62 88 55 89 61 90 63 91 60 92 56 93 57 94 58 95 59 96
REMARK H PARENT 19 6 6 21 24 30 83 49 51 60
REMARK Flexibility Score: inf
ROOT
ATOM      1  C   UNL A   1      31.455  29.071  25.345  1.00  0.00     0.023 C 
ENDROOT
BRANCH   1   2
ATOM      2  C   UNL A   1      31.181  28.694  23.893  1.00  0.00     0.116 C 
BRANCH   2   3
ATOM      3  N   UNL A   1      30.540  27.407  23.741  1.00  0.00    -0.356 N 
ATOM      4  C   UNL A   1      30.951  26.138  23.969  1.00  0.00     0.225 C 
ATOM      5  O   UNL A   1      30.066  25.273  23.916  1.00  0.00    -0.275 OA
ATOM      6  H   UNL A   1      29.618  27.465  23.402  1.00  0.00     0.163 HD
BRANCH   4   7
ATOM      7  C   UNL A   1      32.394  25.680  24.183  1.00  0.00     0.102 C 
ATOM      8  N   UNL A   1      32.870  23.527  25.056  1.00  0.00    -0.338 N 
ATOM      9  C   UNL A   1      32.980  24.438  26.183  1.00  0.00     0.121 C 
ATOM     10  C   UNL A   1      32.851  24.266  23.793  1.00  0.00     0.094 C 
ATOM     11  C   UNL A   1      32.850  25.848  25.630  1.00  0.00     0.037 C 
ATOM     12  C   UNL A   1      34.265  24.337  23.192  1.00  0.00     0.032 C 
BRANCH   8  13
ATOM     13  C   UNL A   1      32.495  22.213  25.276  1.00  0.00     0.241 C 
ATOM     14  O   UNL A   1      31.342  21.923  25.618  1.00  0.00    -0.273 OA
BRANCH  13  15
ATOM     15  C   UNL A   1      33.548  21.086  25.311  1.00  0.00     0.159 C 
BRANCH  15  16
ATOM     16  C   UNL A   1      34.867  21.391  26.040  1.00  0.00     0.033 C 
BRANCH  16  17
ATOM     17  C   UNL A   1      36.046  21.853  25.153  1.00  0.00    -0.015 C 
ATOM     18  C   UNL A   1      36.746  23.092  25.707  1.00  0.00     0.007 C 
ATOM     19  C   UNL A   1      37.052  20.712  24.978  1.00  0.00     0.007 C 
ENDBRANCH  16  17
ENDBRANCH  15  16
BRANCH  15  20
ATOM     20  N   UNL A   1      32.905  19.831  25.785  1.00  0.00    -0.203 NA
ATOM     21  H   UNL A   1      31.926  20.051  25.967  1.00  0.00     0.141 HD
BRANCH  20  22
ATOM     22  S   UNL A   1      32.922  18.454  24.803  1.00  0.00     0.209 S 
ATOM     23  C   UNL A   1      32.292  19.041  23.237  1.00  0.00     0.176 C 
ATOM     24  O   UNL A   1      34.334  18.167  24.617  1.00  0.00    -0.213 OA
ATOM     25  O   UNL A   1      32.036  17.458  25.332  1.00  0.00    -0.213 OA
ENDBRANCH  20  22
ENDBRANCH  15  20
ENDBRANCH  13  15
ENDBRANCH   8  13
ENDBRANCH   4   7
ENDBRANCH   2   3
ENDBRANCH   1   2
BRANCH   1  26
ATOM     26  C   UNL A   1      31.463  30.561  25.656  1.00  0.00     0.023 C 
BRANCH  26  27
ATOM     27  C   UNL A   1      32.330  30.971  26.835  1.00  0.00     0.116 C 
BRANCH  27  28
ATOM     28  N   UNL A   1      32.402  32.412  27.034  1.00  0.00    -0.352 N 
ATOM     29  C   UNL A   1      33.382  33.157  27.651  1.00  0.00     0.251 C 
ATOM     30  H   UNL A   1      31.643  32.927  26.678  1.00  0.00     0.163 HD
ATOM     31  O   UNL A   1      33.219  34.362  27.825  1.00  0.00    -0.269 OA
BRANCH  29  32
ATOM     32  C   UNL A   1      34.609  32.489  28.137  1.00  0.00     0.039 A 
ATOM     33  C   UNL A   1      35.809  33.202  28.160  1.00  0.00     0.014 A 
ATOM     34  C   UNL A   1      34.564  31.178  28.615  1.00  0.00     0.014 A 
ATOM     35  C   UNL A   1      36.944  32.623  28.733  1.00  0.00     0.010 A 
ATOM     36  C   UNL A   1      35.659  30.649  29.286  1.00  0.00     0.010 A 
ATOM     37  C   UNL A   1      36.867  31.358  29.340  1.00  0.00    -0.014 A 
BRANCH  37  38
ATOM     38  C   UNL A   1      38.047  30.746  30.008  1.00  0.00     0.031 A 
ATOM     39  C   UNL A   1      38.370  31.109  31.433  1.00  0.00     0.074 A 
ATOM     40  C   UNL A   1      38.853  29.917  29.314  1.00  0.00     0.049 A 
ATOM     41  N   UNL A   1      39.379  30.734  32.176  1.00  0.00    -0.248 NA
ATOM     42  C   UNL A   1      37.459  32.055  32.097  1.00  0.00     0.031 C 
ATOM     43  C   UNL A   1      38.678  29.544  27.908  1.00  0.00     0.029 A 
ATOM     44  N   UNL A   1      39.983  29.239  29.696  1.00  0.00    -0.354 N 
ATOM     45  C   UNL A   1      39.234  31.412  33.382  1.00  0.00     0.074 A 
ATOM     46  C   UNL A   1      38.087  32.280  33.240  1.00  0.00     0.031 C 
ATOM     47  C   UNL A   1      39.640  28.675  27.559  1.00  0.00     0.029 A 
ATOM     48  C   UNL A   1      40.525  28.461  28.698  1.00  0.00     0.049 A 
ATOM     49  H   UNL A   1      40.370  29.303  30.599  1.00  0.00     0.167 HD
ATOM     50  C   UNL A   1      39.970  31.297  34.516  1.00  0.00     0.034 A 
ATOM     51  C   UNL A   1      41.614  27.666  28.704  1.00  0.00     0.034 A 
ATOM     52  C   UNL A   1      41.096  30.405  34.645  1.00  0.00     0.049 A 
ATOM     53  C   UNL A   1      42.406  27.538  29.981  1.00  0.00     0.074 A 
ATOM     54  C   UNL A   1      41.880  30.160  35.757  1.00  0.00     0.029 A 
ATOM     55  N   UNL A   1      41.601  29.611  33.622  1.00  0.00    -0.354 N 
ATOM     56  N   UNL A   1      42.219  28.140  31.135  1.00  0.00    -0.248 NA
ATOM     57  C   UNL A   1      43.542  26.609  29.962  1.00  0.00     0.031 C 
ATOM     58  C   UNL A   1      42.896  29.271  35.391  1.00  0.00     0.029 A 
ATOM     59  C   UNL A   1      42.699  28.894  34.072  1.00  0.00     0.049 A 
ATOM     60  H   UNL A   1      41.232  29.564  32.709  1.00  0.00     0.167 HD
ATOM     61  C   UNL A   1      43.195  27.633  31.987  1.00  0.00     0.074 A 
ATOM     62  C   UNL A   1      43.951  26.663  31.220  1.00  0.00     0.031 C 
ATOM     63  C   UNL A   1      43.447  27.938  33.287  1.00  0.00     0.034 A 
BRANCH  50  64
ATOM     64  C   UNL A   1      39.583  32.171  35.688  1.00  0.00     0.023 A 
ATOM     65  C   UNL A   1      40.150  33.443  35.882  1.00  0.00     0.031 A 
ATOM     66  C   UNL A   1      38.662  31.712  36.646  1.00  0.00     0.131 A 
ATOM     67  C   UNL A   1      39.859  34.173  37.045  1.00  0.00     0.055 A 
ATOM     68  C   UNL A   1      38.307  32.483  37.756  1.00  0.00     0.041 A 
ATOM     69  F   UNL A   1      38.102  30.498  36.531  1.00  0.00    -0.206 F 
ATOM     70  C   UNL A   1      38.920  33.713  37.970  1.00  0.00     0.022 A 
BRANCH  67  71
ATOM     71  S   UNL A   1      40.842  35.655  37.407  1.00  0.00     0.124 S 
ATOM     72  O   UNL A   1      40.777  35.701  38.866  1.00  0.00    -0.237 OA
ATOM     73  O   UNL A   1      42.140  35.321  36.836  1.00  0.00    -0.237 OA
ATOM     74  O   UNL A   1      40.114  36.723  36.725  1.00  0.00    -0.744 OA
ENDBRANCH  67  71
ENDBRANCH  50  64
BRANCH  51  75
ATOM     75  C   UNL A   1      42.017  26.919  27.476  1.00  0.00     0.023 A 
ATOM     76  C   UNL A   1      41.813  25.533  27.370  1.00  0.00     0.031 A 
ATOM     77  C   UNL A   1      42.651  27.573  26.405  1.00  0.00     0.131 A 
ATOM     78  C   UNL A   1      42.288  24.839  26.246  1.00  0.00     0.055 A 
ATOM     79  C   UNL A   1      43.071  26.887  25.265  1.00  0.00     0.041 A 
ATOM     80  F   UNL A   1      42.864  28.898  26.450  1.00  0.00    -0.206 F 
ATOM     81  C   UNL A   1      42.903  25.507  25.187  1.00  0.00     0.022 A 
BRANCH  78  82
ATOM     82  S   UNL A   1      42.170  23.028  26.230  1.00  0.00     0.124 S 
ATOM     83  O   UNL A   1      43.008  22.665  27.367  1.00  0.00    -0.237 OA
ATOM     84  O   UNL A   1      40.735  22.817  26.397  1.00  0.00    -0.237 OA
ATOM     85  O   UNL A   1      42.702  22.664  24.919  1.00  0.00    -0.744 OA
ENDBRANCH  78  82
ENDBRANCH  51  75
BRANCH  63  86
ATOM     86  C   UNL A   1      44.558  27.172  33.964  1.00  0.00     0.023 A 
ATOM     87  C   UNL A   1      44.299  26.053  34.774  1.00  0.00     0.031 A 
ATOM     88  C   UNL A   1      45.893  27.593  33.826  1.00  0.00     0.131 A 
ATOM     89  C   UNL A   1      45.348  25.440  35.475  1.00  0.00     0.055 A 
ATOM     90  C   UNL A   1      46.941  26.933  34.468  1.00  0.00     0.041 A 
ATOM     91  F   UNL A   1      46.200  28.657  33.067  1.00  0.00    -0.206 F 
ATOM     92  C   UNL A   1      46.669  25.862  35.314  1.00  0.00     0.022 A 
BRANCH  89  93
ATOM     93  S   UNL A   1      44.944  24.165  36.701  1.00  0.00     0.124 S 
ATOM     94  O   UNL A   1      44.425  23.090  35.860  1.00  0.00    -0.237 OA
ATOM     95  O   UNL A   1      46.238  23.914  37.327  1.00  0.00    -0.237 OA
ATOM     96  O   UNL A   1      43.956  24.815  37.558  1.00  0.00    -0.744 OA
ENDBRANCH  89  93
ENDBRANCH  63  86
ENDBRANCH  37  38
ENDBRANCH  29  32
ENDBRANCH  27  28
ENDBRANCH  26  27
ENDBRANCH   1  26
TORSDOF 20
ENDMDL
MODEL 3
REMARK VINA RESULT:     -10.4      3.315      8.561
REMARK SMILES CC(C)C[C@@H](NS(C)(=O)=O)C(=O)N1CC[C@H](C(=O)NCCCCNC(=O)c2ccc(-c3c4nc(c(-c5cc(S(=O)(=O)[O-])ccc5F)c5ccc([nH]5)c(-c5cc(S(=O)(=O)[O-])ccc5F)c5nc(c(-c6cc(S(=O)(=O)[O-])ccc6F)c6ccc3[nH]6)C=C5)C=C4)cc2)[C@H]1C
REMARK SMILES IDX 21 1 20 2 19 3 17 4 18 5 16 7 13 8 14 9 90 10 15 11 91 12
REMARK SMILES IDX 11 13 12 14 5 15 4 16 2 17 1 18 3 19 6 20 7 22 8 23 9 24
REMARK SMILES IDX 10 25 22 26 23 27 24 28 25 29 26 31 27 32 28 33 89 34 29 35
REMARK SMILES IDX 88 36 30 37 31 38 32 39 82 40 33 41 87 42 81 43 83 44 34 45
REMARK SMILES IDX 86 46 80 47 79 48 35 50 67 51 47 52 66 53 48 54 51 55 65 56
REMARK SMILES IDX 84 57 49 58 50 59 64 61 85 62 52 63 36 64 37 65 45 66 38 67
REMARK SMILES IDX 44 68 46 69 43 70 39 71 40 72 41 73 42 74 68 75 69 76 77 77
REMARK SMILES IDX 70 78 76 79 78 80 75 81 71 82 72 83 73 84 74 85 53 86 54 87
REMARK SMILES IDX 62 88 55 89 61 90 63 91 60 92 56 93 57 94 58 95 59 96
REMARK H PARENT 19 6 6 21 24 30 83 49 51 60
REMARK Flexibility Score: inf
ROOT
ATOM      1  C   UNL A   1      32.117  30.394  26.142  1.00  0.00     0.023 C 
ENDROOT
BRANCH   1   2
ATOM      2  C   UNL A   1      31.771  29.128  26.917  1.00  0.00     0.116 C 
BRANCH   2   3
ATOM      3  N   UNL A   1      32.776  28.094  26.815  1.00  0.00    -0.356 N 
ATOM      4  C   UNL A   1      33.185  27.303  25.797  1.00  0.00     0.225 C 
ATOM      5  O   UNL A   1      34.218  26.653  26.009  1.00  0.00    -0.275 OA
ATOM      6  H   UNL A   1      33.260  27.932  27.657  1.00  0.00     0.163 HD
BRANCH   4   7
ATOM      7  C   UNL A   1      32.447  27.071  24.478  1.00  0.00     0.102 C 
ATOM      8  N   UNL A   1      32.745  25.063  23.253  1.00  0.00    -0.338 N 
ATOM      9  C   UNL A   1      33.609  26.043  22.613  1.00  0.00     0.121 C 
ATOM     10  C   UNL A   1      31.795  25.720  24.152  1.00  0.00     0.094 C 
ATOM     11  C   UNL A   1      33.316  27.385  23.263  1.00  0.00     0.037 C 
ATOM     12  C   UNL A   1      30.457  25.961  23.433  1.00  0.00     0.032 C 
BRANCH   8  13
ATOM     13  C   UNL A   1      33.090  23.723  23.213  1.00  0.00     0.241 C 
ATOM     14  O   UNL A   1      32.720  22.992  22.286  1.00  0.00    -0.273 OA
BRANCH  13  15
ATOM     15  C   UNL A   1      33.765  23.045  24.423  1.00  0.00     0.159 C 
BRANCH  15  16
ATOM     16  C   UNL A   1      35.288  22.848  24.347  1.00  0.00     0.033 C 
BRANCH  16  17
ATOM     17  C   UNL A   1      35.855  21.620  25.095  1.00  0.00    -0.015 C 
ATOM     18  C   UNL A   1      34.973  20.382  24.944  1.00  0.00     0.007 C 
ATOM     19  C   UNL A   1      37.276  21.317  24.610  1.00  0.00     0.007 C 
ENDBRANCH  16  17
ENDBRANCH  15  16
BRANCH  15  20
ATOM     20  N   UNL A   1      33.333  23.730  25.671  1.00  0.00    -0.203 NA
ATOM     21  H   UNL A   1      32.907  24.613  25.391  1.00  0.00     0.141 HD
BRANCH  20  22
ATOM     22  S   UNL A   1      32.241  22.968  26.715  1.00  0.00     0.209 S 
ATOM     23  C   UNL A   1      31.233  21.975  25.623  1.00  0.00     0.176 C 
ATOM     24  O   UNL A   1      33.065  22.055  27.488  1.00  0.00    -0.213 OA
ATOM     25  O   UNL A   1      31.420  23.945  27.368  1.00  0.00    -0.213 OA
ENDBRANCH  20  22
ENDBRANCH  15  20
ENDBRANCH  13  15
ENDBRANCH   8  13
ENDBRANCH   4   7
ENDBRANCH   2   3
ENDBRANCH   1   2
BRANCH   1  26
ATOM     26  C   UNL A   1      31.757  31.710  26.819  1.00  0.00     0.023 C 
BRANCH  26  27
ATOM     27  C   UNL A   1      32.927  32.470  27.422  1.00  0.00     0.116 C 
BRANCH  27  28
ATOM     28  N   UNL A   1      32.641  33.874  27.680  1.00  0.00    -0.352 N 
ATOM     29  C   UNL A   1      33.210  34.722  28.604  1.00  0.00     0.251 C 
ATOM     30  H   UNL A   1      31.943  34.275  27.114  1.00  0.00     0.163 HD
ATOM     31  O   UNL A   1      32.760  35.855  28.755  1.00  0.00    -0.269 OA
BRANCH  29  32
ATOM     32  C   UNL A   1      34.334  34.244  29.438  1.00  0.00     0.039 A 
ATOM     33  C   UNL A   1      34.062  33.474  30.571  1.00  0.00     0.014 A 
ATOM     34  C   UNL A   1      35.655  34.512  29.074  1.00  0.00     0.014 A 
ATOM     35  C   UNL A   1      35.117  32.913  31.292  1.00  0.00     0.010 A 
ATOM     36  C   UNL A   1      36.695  33.861  29.723  1.00  0.00     0.010 A 
ATOM     37  C   UNL A   1      36.442  33.066  30.849  1.00  0.00    -0.014 A 
BRANCH  37  38
ATOM     38  C   UNL A   1      37.578  32.429  31.568  1.00  0.00     0.031 A 
ATOM     39  C   UNL A   1      38.335  31.302  30.918  1.00  0.00     0.074 A 
ATOM     40  C   UNL A   1      37.885  32.826  32.820  1.00  0.00     0.049 A 
ATOM     41  N   UNL A   1      39.315  30.577  31.394  1.00  0.00    -0.248 NA
ATOM     42  C   UNL A   1      37.903  30.907  29.568  1.00  0.00     0.031 C 
ATOM     43  C   UNL A   1      37.180  33.863  33.577  1.00  0.00     0.029 A 
ATOM     44  N   UNL A   1      38.867  32.402  33.679  1.00  0.00    -0.354 N 
ATOM     45  C   UNL A   1      39.600  29.633  30.413  1.00  0.00     0.074 A 
ATOM     46  C   UNL A   1      38.636  29.827  29.352  1.00  0.00     0.031 C 
ATOM     47  C   UNL A   1      37.777  34.022  34.769  1.00  0.00     0.029 A 
ATOM     48  C   UNL A   1      38.878  33.072  34.881  1.00  0.00     0.049 A 
ATOM     49  H   UNL A   1      39.505  31.686  33.456  1.00  0.00     0.167 HD
ATOM     50  C   UNL A   1      40.595  28.711  30.383  1.00  0.00     0.034 A 
ATOM     51  C   UNL A   1      39.686  32.934  35.952  1.00  0.00     0.034 A 
ATOM     52  C   UNL A   1      41.561  28.551  31.442  1.00  0.00     0.049 A 
ATOM     53  C   UNL A   1      40.797  31.916  35.889  1.00  0.00     0.074 A 
ATOM     54  C   UNL A   1      42.644  27.694  31.499  1.00  0.00     0.029 A 
ATOM     55  N   UNL A   1      41.558  29.266  32.634  1.00  0.00    -0.354 N 
ATOM     56  N   UNL A   1      41.092  31.071  34.927  1.00  0.00    -0.248 NA
ATOM     57  C   UNL A   1      41.694  31.848  37.049  1.00  0.00     0.031 C 
ATOM     58  C   UNL A   1      43.257  27.843  32.748  1.00  0.00     0.029 A 
ATOM     59  C   UNL A   1      42.608  28.853  33.440  1.00  0.00     0.049 A 
ATOM     60  H   UNL A   1      40.906  29.966  32.871  1.00  0.00     0.167 HD
ATOM     61  C   UNL A   1      42.232  30.396  35.353  1.00  0.00     0.074 A 
ATOM     62  C   UNL A   1      42.580  30.949  36.647  1.00  0.00     0.031 C 
ATOM     63  C   UNL A   1      42.931  29.409  34.734  1.00  0.00     0.034 A 
BRANCH  50  64
ATOM     64  C   UNL A   1      40.664  27.802  29.177  1.00  0.00     0.023 A 
ATOM     65  C   UNL A   1      41.600  28.008  28.147  1.00  0.00     0.031 A 
ATOM     66  C   UNL A   1      39.757  26.737  29.033  1.00  0.00     0.131 A 
ATOM     67  C   UNL A   1      41.553  27.221  26.986  1.00  0.00     0.055 A 
ATOM     68  C   UNL A   1      39.774  25.900  27.915  1.00  0.00     0.041 A 
ATOM     69  F   UNL A   1      38.824  26.502  29.969  1.00  0.00    -0.206 F 
ATOM     70  C   UNL A   1      40.664  26.150  26.875  1.00  0.00     0.022 A 
BRANCH  67  71
ATOM     71  S   UNL A   1      42.562  27.714  25.562  1.00  0.00     0.124 S 
ATOM     72  O   UNL A   1      43.853  27.979  26.195  1.00  0.00    -0.237 OA
ATOM     73  O   UNL A   1      42.501  26.536  24.706  1.00  0.00    -0.237 OA
ATOM     74  O   UNL A   1      41.875  28.897  25.048  1.00  0.00    -0.744 OA
ENDBRANCH  67  71
ENDBRANCH  50  64
BRANCH  51  75
ATOM     75  C   UNL A   1      39.491  33.781  37.166  1.00  0.00     0.023 A 
ATOM     76  C   UNL A   1      38.819  33.286  38.295  1.00  0.00     0.031 A 
ATOM     77  C   UNL A   1      39.938  35.114  37.199  1.00  0.00     0.131 A 
ATOM     78  C   UNL A   1      38.566  34.132  39.386  1.00  0.00     0.055 A 
ATOM     79  C   UNL A   1      39.733  35.934  38.309  1.00  0.00     0.041 A 
ATOM     80  F   UNL A   1      40.593  35.636  36.149  1.00  0.00    -0.206 F 
ATOM     81  C   UNL A   1      39.029  35.448  39.407  1.00  0.00     0.022 A 
BRANCH  78  82
ATOM     82  S   UNL A   1      37.537  33.510  40.747  1.00  0.00     0.124 S 
ATOM     83  O   UNL A   1      36.407  32.935  40.025  1.00  0.00    -0.237 OA
ATOM     84  O   UNL A   1      38.436  32.561  41.395  1.00  0.00    -0.237 OA
ATOM     85  O   UNL A   1      37.237  34.711  41.523  1.00  0.00    -0.744 OA
ENDBRANCH  78  82
ENDBRANCH  51  75
BRANCH  63  86
ATOM     86  C   UNL A   1      44.169  28.907  35.438  1.00  0.00     0.023 A 
ATOM     87  C   UNL A   1      44.117  27.854  36.368  1.00  0.00     0.031 A 
ATOM     88  C   UNL A   1      45.414  29.517  35.200  1.00  0.00     0.131 A 
ATOM     89  C   UNL A   1      45.270  27.496  37.082  1.00  0.00     0.055 A 
ATOM     90  C   UNL A   1      46.572  29.106  35.860  1.00  0.00     0.041 A 
ATOM     91  F   UNL A   1      45.524  30.528  34.323  1.00  0.00    -0.206 F 
ATOM     92  C   UNL A   1      46.500  28.103  36.822  1.00  0.00     0.022 A 
BRANCH  89  93
ATOM     93  S   UNL A   1      45.111  26.312  38.449  1.00  0.00     0.124 S 
ATOM     94  O   UNL A   1      45.095  25.035  37.741  1.00  0.00    -0.237 OA
ATOM     95  O   UNL A   1      46.306  26.588  39.239  1.00  0.00    -0.237 OA
ATOM     96  O   UNL A   1      43.848  26.687  39.081  1.00  0.00    -0.744 OA
ENDBRANCH  89  93
ENDBRANCH  63  86
ENDBRANCH  37  38
ENDBRANCH  29  32
ENDBRANCH  27  28
ENDBRANCH  26  27
ENDBRANCH   1  26
TORSDOF 20
ENDMDL
