MODEL 1
REMARK VINA RESULT:     -13.4      0.000      0.000
REMARK SMILES Cc1nc(-c2ccc3c(c2)CCN3S(=O)(=O)c2ccc(F)c(C(=O)NCCCCNC(=O)c3ccc(-c4c5nc(c(-c6cc(S(=O)(=O)[O-])ccc6F)c6ccc([nH]6)c(-c6cc(S(=O)(=O)[O-])ccc6F)c6nc(c(-c7cc(S(=O)(=O)[O-])ccc7F)c7ccc4[nH]7)C=C6)C=C5)cc3)c2)cs1
REMARK SMILES IDX 27 1 26 2 25 3 23 4 24 5 22 7 17 8 18 9 96 10 19 11 20 12
REMARK SMILES IDX 21 13 14 14 15 15 16 16 13 17 5 18 6 19 10 20 7 21 9 22 8 23
REMARK SMILES IDX 11 24 12 25 4 26 1 27 2 28 3 29 98 30 97 31 28 32 29 33
REMARK SMILES IDX 30 34 31 35 32 37 33 38 34 39 95 40 35 41 94 42 36 43 37 44
REMARK SMILES IDX 38 45 88 46 39 47 93 48 87 49 89 50 40 51 92 52 86 53 85 54
REMARK SMILES IDX 41 56 73 57 53 58 72 59 54 60 57 61 71 62 90 63 55 64 56 65
REMARK SMILES IDX 70 67 91 68 58 69 42 70 43 71 51 72 44 73 50 74 52 75 49 76
REMARK SMILES IDX 45 77 46 78 47 79 48 80 74 81 75 82 83 83 76 84 82 85 84 86
REMARK SMILES IDX 81 87 77 88 78 89 79 90 80 91 59 92 60 93 68 94 61 95 67 96
REMARK SMILES IDX 69 97 66 98 62 99 63 100 64 101 65 102
REMARK H PARENT 25 6 30 36 89 55 57 66
REMARK Flexibility Score: inf
ROOT
ATOM      1  C   UNL A   1      37.363  21.359  24.526  1.00  0.00     0.023 C 
ENDROOT
BRANCH   1   2
ATOM      2  C   UNL A   1      37.032  22.448  25.533  1.00  0.00     0.116 C 
BRANCH   2   3
ATOM      3  N   UNL A   1      36.089  22.075  26.572  1.00  0.00    -0.352 N 
ATOM      4  C   UNL A   1      34.714  22.151  26.629  1.00  0.00     0.254 C 
ATOM      5  O   UNL A   1      34.154  21.686  27.623  1.00  0.00    -0.269 OA
ATOM      6  H   UNL A   1      36.506  21.699  27.381  1.00  0.00     0.163 HD
BRANCH   4   7
ATOM      7  C   UNL A   1      33.872  22.832  25.605  1.00  0.00     0.076 A 
ATOM      8  C   UNL A   1      32.350  24.641  25.053  1.00  0.00     0.089 A 
ATOM      9  C   UNL A   1      32.439  24.326  23.693  1.00  0.00     0.025 A 
ATOM     10  C   UNL A   1      33.136  23.968  26.000  1.00  0.00     0.039 A 
ATOM     11  C   UNL A   1      33.090  23.160  23.320  1.00  0.00     0.041 A 
ATOM     12  C   UNL A   1      33.702  22.376  24.295  1.00  0.00     0.136 A 
ATOM     13  F   UNL A   1      33.994  21.116  23.944  1.00  0.00    -0.206 F 
BRANCH   8  14
ATOM     14  S   UNL A   1      31.113  25.820  25.530  1.00  0.00     0.264 S 
ATOM     15  O   UNL A   1      31.108  25.836  26.980  1.00  0.00    -0.201 OA
ATOM     16  O   UNL A   1      29.893  25.508  24.812  1.00  0.00    -0.201 OA
BRANCH  14  17
ATOM     17  N   UNL A   1      31.644  27.360  24.979  1.00  0.00    -0.266 N 
ATOM     18  C   UNL A   1      33.451  30.586  27.039  1.00  0.00     0.001 A 
ATOM     19  C   UNL A   1      33.958  29.298  27.258  1.00  0.00     0.012 A 
ATOM     20  C   UNL A   1      32.388  30.753  26.143  1.00  0.00     0.016 A 
ATOM     21  C   UNL A   1      33.405  28.187  26.614  1.00  0.00     0.028 A 
ATOM     22  C   UNL A   1      31.836  29.624  25.533  1.00  0.00    -0.021 A 
ATOM     23  C   UNL A   1      32.283  28.335  25.822  1.00  0.00     0.055 A 
ATOM     24  C   UNL A   1      30.881  29.602  24.382  1.00  0.00     0.060 C 
ATOM     25  C   UNL A   1      30.542  28.108  24.262  1.00  0.00     0.140 C 
BRANCH  18  26
ATOM     26  C   UNL A   1      34.133  31.711  27.659  1.00  0.00     0.081 A 
ATOM     27  C   UNL A   1      37.337  33.101  28.729  1.00  0.00     0.079 C 
ATOM     28  C   UNL A   1      35.914  32.792  28.417  1.00  0.00     0.090 A 
ATOM     29  N   UNL A   1      35.508  31.688  27.830  1.00  0.00    -0.242 NA
ATOM     30  S   UNL A   1      34.669  33.903  28.830  1.00  0.00    -0.127 S 
ATOM     31  C   UNL A   1      33.505  32.835  28.155  1.00  0.00     0.095 A 
ENDBRANCH  18  26
ENDBRANCH  14  17
ENDBRANCH   8  14
ENDBRANCH   4   7
ENDBRANCH   2   3
ENDBRANCH   1   2
BRANCH   1  32
ATOM     32  C   UNL A   1      38.080  20.128  25.055  1.00  0.00     0.023 C 
BRANCH  32  33
ATOM     33  C   UNL A   1      39.368  20.387  25.827  1.00  0.00     0.116 C 
BRANCH  33  34
ATOM     34  N   UNL A   1      40.267  19.242  25.882  1.00  0.00    -0.352 N 
ATOM     35  C   UNL A   1      41.626  19.206  26.102  1.00  0.00     0.251 C 
ATOM     36  H   UNL A   1      39.840  18.365  25.743  1.00  0.00     0.163 HD
ATOM     37  O   UNL A   1      42.234  18.144  26.018  1.00  0.00    -0.269 OA
BRANCH  35  38
ATOM     38  C   UNL A   1      42.350  20.463  26.393  1.00  0.00     0.039 A 
ATOM     39  C   UNL A   1      42.862  21.214  25.332  1.00  0.00     0.014 A 
ATOM     40  C   UNL A   1      42.472  20.926  27.706  1.00  0.00     0.014 A 
ATOM     41  C   UNL A   1      43.409  22.475  25.582  1.00  0.00     0.010 A 
ATOM     42  C   UNL A   1      42.932  22.218  27.940  1.00  0.00     0.010 A 
ATOM     43  C   UNL A   1      43.400  23.010  26.881  1.00  0.00    -0.014 A 
BRANCH  43  44
ATOM     44  C   UNL A   1      43.868  24.396  27.152  1.00  0.00     0.031 A 
ATOM     45  C   UNL A   1      42.901  25.429  27.666  1.00  0.00     0.074 A 
ATOM     46  C   UNL A   1      45.145  24.738  26.881  1.00  0.00     0.049 A 
ATOM     47  N   UNL A   1      43.098  26.704  27.883  1.00  0.00    -0.248 NA
ATOM     48  C   UNL A   1      41.529  24.978  27.950  1.00  0.00     0.031 C 
ATOM     49  C   UNL A   1      46.167  23.834  26.345  1.00  0.00     0.029 A 
ATOM     50  N   UNL A   1      45.805  25.934  27.016  1.00  0.00    -0.354 N 
ATOM     51  C   UNL A   1      41.876  27.207  28.315  1.00  0.00     0.074 A 
ATOM     52  C   UNL A   1      40.931  26.113  28.280  1.00  0.00     0.031 C 
ATOM     53  C   UNL A   1      47.329  24.498  26.232  1.00  0.00     0.029 A 
ATOM     54  C   UNL A   1      47.127  25.887  26.634  1.00  0.00     0.049 A 
ATOM     55  H   UNL A   1      45.373  26.751  27.356  1.00  0.00     0.167 HD
ATOM     56  C   UNL A   1      41.578  28.461  28.726  1.00  0.00     0.034 A 
ATOM     57  C   UNL A   1      48.069  26.852  26.595  1.00  0.00     0.034 A 
ATOM     58  C   UNL A   1      42.534  29.535  28.789  1.00  0.00     0.049 A 
ATOM     59  C   UNL A   1      47.703  28.246  27.035  1.00  0.00     0.074 A 
ATOM     60  C   UNL A   1      42.343  30.825  29.251  1.00  0.00     0.029 A 
ATOM     61  N   UNL A   1      43.856  29.450  28.375  1.00  0.00    -0.354 N 
ATOM     62  N   UNL A   1      46.547  28.696  27.465  1.00  0.00    -0.248 NA
ATOM     63  C   UNL A   1      48.763  29.263  26.985  1.00  0.00     0.031 C 
ATOM     64  C   UNL A   1      43.527  31.539  29.052  1.00  0.00     0.029 A 
ATOM     65  C   UNL A   1      44.481  30.675  28.540  1.00  0.00     0.049 A 
ATOM     66  H   UNL A   1      44.286  28.640  28.019  1.00  0.00     0.167 HD
ATOM     67  C   UNL A   1      46.748  30.041  27.757  1.00  0.00     0.074 A 
ATOM     68  C   UNL A   1      48.136  30.329  27.461  1.00  0.00     0.031 C 
ATOM     69  C   UNL A   1      45.863  30.952  28.232  1.00  0.00     0.034 A 
BRANCH  56  70
ATOM     70  C   UNL A   1      40.159  28.753  29.138  1.00  0.00     0.023 A 
ATOM     71  C   UNL A   1      39.768  28.752  30.487  1.00  0.00     0.031 A 
ATOM     72  C   UNL A   1      39.199  29.094  28.168  1.00  0.00     0.131 A 
ATOM     73  C   UNL A   1      38.443  29.061  30.829  1.00  0.00     0.055 A 
ATOM     74  C   UNL A   1      37.899  29.459  28.519  1.00  0.00     0.041 A 
ATOM     75  F   UNL A   1      39.517  29.092  26.863  1.00  0.00    -0.206 F 
ATOM     76  C   UNL A   1      37.513  29.440  29.857  1.00  0.00     0.022 A 
BRANCH  73  77
ATOM     77  S   UNL A   1      37.932  28.908  32.561  1.00  0.00     0.124 S 
ATOM     78  O   UNL A   1      38.938  29.722  33.238  1.00  0.00    -0.237 OA
ATOM     79  O   UNL A   1      36.578  29.452  32.543  1.00  0.00    -0.237 OA
ATOM     80  O   UNL A   1      38.022  27.473  32.820  1.00  0.00    -0.744 OA
ENDBRANCH  73  77
ENDBRANCH  56  70
BRANCH  57  81
ATOM     81  C   UNL A   1      49.441  26.539  26.104  1.00  0.00     0.023 A 
ATOM     82  C   UNL A   1      49.884  26.986  24.849  1.00  0.00     0.031 A 
ATOM     83  C   UNL A   1      50.332  25.783  26.889  1.00  0.00     0.131 A 
ATOM     84  C   UNL A   1      51.174  26.653  24.405  1.00  0.00     0.055 A 
ATOM     85  C   UNL A   1      51.628  25.492  26.461  1.00  0.00     0.041 A 
ATOM     86  F   UNL A   1      49.958  25.337  28.099  1.00  0.00    -0.206 F 
ATOM     87  C   UNL A   1      52.053  25.921  25.208  1.00  0.00     0.022 A 
BRANCH  84  88
ATOM     88  S   UNL A   1      51.681  27.158  22.738  1.00  0.00     0.124 S 
ATOM     89  O   UNL A   1      50.502  26.815  21.952  1.00  0.00    -0.237 OA
ATOM     90  O   UNL A   1      51.943  28.582  22.918  1.00  0.00    -0.237 OA
ATOM     91  O   UNL A   1      52.865  26.340  22.480  1.00  0.00    -0.744 OA
ENDBRANCH  84  88
ENDBRANCH  57  81
BRANCH  69  92
ATOM     92  C   UNL A   1      46.367  32.346  28.497  1.00  0.00     0.023 A 
ATOM     93  C   UNL A   1      46.193  33.381  27.564  1.00  0.00     0.031 A 
ATOM     94  C   UNL A   1      46.968  32.656  29.730  1.00  0.00     0.131 A 
ATOM     95  C   UNL A   1      46.637  34.675  27.869  1.00  0.00     0.055 A 
ATOM     96  C   UNL A   1      47.363  33.954  30.049  1.00  0.00     0.041 A 
ATOM     97  F   UNL A   1      47.154  31.701  30.658  1.00  0.00    -0.206 F 
ATOM     98  C   UNL A   1      47.203  34.972  29.113  1.00  0.00     0.022 A 
BRANCH  95  99
ATOM     99  S   UNL A   1      46.495  35.966  26.605  1.00  0.00     0.124 S 
ATOM    100  O   UNL A   1      47.880  36.400  26.459  1.00  0.00    -0.237 OA
ATOM    101  O   UNL A   1      45.931  35.240  25.472  1.00  0.00    -0.237 OA
ATOM    102  O   UNL A   1      45.599  36.948  27.216  1.00  0.00    -0.744 OA
ENDBRANCH  95  99
ENDBRANCH  69  92
ENDBRANCH  43  44
ENDBRANCH  35  38
ENDBRANCH  33  34
ENDBRANCH  32  33
ENDBRANCH   1  32
TORSDOF 17
ENDMDL
MODEL 2
REMARK VINA RESULT:     -13.1      0.571      7.425
REMARK SMILES Cc1nc(-c2ccc3c(c2)CCN3S(=O)(=O)c2ccc(F)c(C(=O)NCCCCNC(=O)c3ccc(-c4c5nc(c(-c6cc(S(=O)(=O)[O-])ccc6F)c6ccc([nH]6)c(-c6cc(S(=O)(=O)[O-])ccc6F)c6nc(c(-c7cc(S(=O)(=O)[O-])ccc7F)c7ccc4[nH]7)C=C6)C=C5)cc3)c2)cs1
REMARK SMILES IDX 27 1 26 2 25 3 23 4 24 5 22 7 17 8 18 9 96 10 19 11 20 12
REMARK SMILES IDX 21 13 14 14 15 15 16 16 13 17 5 18 6 19 10 20 7 21 9 22 8 23
REMARK SMILES IDX 11 24 12 25 4 26 1 27 2 28 3 29 98 30 97 31 28 32 29 33
REMARK SMILES IDX 30 34 31 35 32 37 33 38 34 39 95 40 35 41 94 42 36 43 37 44
REMARK SMILES IDX 38 45 88 46 39 47 93 48 87 49 89 50 40 51 92 52 86 53 85 54
REMARK SMILES IDX 41 56 73 57 53 58 72 59 54 60 57 61 71 62 90 63 55 64 56 65
REMARK SMILES IDX 70 67 91 68 58 69 42 70 43 71 51 72 44 73 50 74 52 75 49 76
REMARK SMILES IDX 45 77 46 78 47 79 48 80 74 81 75 82 83 83 76 84 82 85 84 86
REMARK SMILES IDX 81 87 77 88 78 89 79 90 80 91 59 92 60 93 68 94 61 95 67 96
REMARK SMILES IDX 69 97 66 98 62 99 63 100 64 101 65 102
REMARK H PARENT 25 6 30 36 89 55 57 66
REMARK Flexibility Score: inf
ROOT
ATOM      1  C   UNL A   1      37.297  21.341  24.520  1.00  0.00     0.023 C 
ENDROOT
BRANCH   1   2
ATOM      2  C   UNL A   1      36.983  22.429  25.534  1.00  0.00     0.116 C 
BRANCH   2   3
ATOM      3  N   UNL A   1      36.052  22.057  26.584  1.00  0.00    -0.352 N 
ATOM      4  C   UNL A   1      34.674  22.027  26.615  1.00  0.00     0.254 C 
ATOM      5  O   UNL A   1      34.132  21.592  27.631  1.00  0.00    -0.269 OA
ATOM      6  H   UNL A   1      36.480  21.776  27.424  1.00  0.00     0.163 HD
BRANCH   4   7
ATOM      7  C   UNL A   1      33.802  22.563  25.530  1.00  0.00     0.076 A 
ATOM      8  C   UNL A   1      32.243  24.268  24.787  1.00  0.00     0.089 A 
ATOM      9  C   UNL A   1      32.311  23.785  23.476  1.00  0.00     0.025 A 
ATOM     10  C   UNL A   1      33.057  23.731  25.794  1.00  0.00     0.039 A 
ATOM     11  C   UNL A   1      32.972  22.591  23.239  1.00  0.00     0.041 A 
ATOM     12  C   UNL A   1      33.614  21.943  24.292  1.00  0.00     0.136 A 
ATOM     13  F   UNL A   1      33.918  20.653  24.097  1.00  0.00    -0.206 F 
BRANCH   8  14
ATOM     14  S   UNL A   1      30.998  25.483  25.137  1.00  0.00     0.264 S 
ATOM     15  O   UNL A   1      30.844  25.499  26.579  1.00  0.00    -0.201 OA
ATOM     16  O   UNL A   1      29.850  25.206  24.297  1.00  0.00    -0.201 OA
BRANCH  14  17
ATOM     17  N   UNL A   1      31.627  27.007  24.649  1.00  0.00    -0.266 N 
ATOM     18  C   UNL A   1      33.084  30.276  26.909  1.00  0.00     0.001 A 
ATOM     19  C   UNL A   1      33.537  28.991  27.241  1.00  0.00     0.012 A 
ATOM     20  C   UNL A   1      32.190  30.425  25.842  1.00  0.00     0.016 A 
ATOM     21  C   UNL A   1      33.092  27.866  26.539  1.00  0.00     0.028 A 
ATOM     22  C   UNL A   1      31.740  29.283  25.174  1.00  0.00    -0.021 A 
ATOM     23  C   UNL A   1      32.122  27.999  25.565  1.00  0.00     0.055 A 
ATOM     24  C   UNL A   1      30.994  29.236  23.879  1.00  0.00     0.060 C 
ATOM     25  C   UNL A   1      30.668  27.742  23.738  1.00  0.00     0.140 C 
BRANCH  18  26
ATOM     26  C   UNL A   1      33.661  31.412  27.609  1.00  0.00     0.081 A 
ATOM     27  C   UNL A   1      33.159  34.844  28.753  1.00  0.00     0.079 C 
ATOM     28  C   UNL A   1      33.647  33.481  28.405  1.00  0.00     0.090 A 
ATOM     29  N   UNL A   1      32.937  32.585  27.757  1.00  0.00    -0.242 NA
ATOM     30  S   UNL A   1      35.233  32.984  28.844  1.00  0.00    -0.127 S 
ATOM     31  C   UNL A   1      34.938  31.449  28.129  1.00  0.00     0.095 A 
ENDBRANCH  18  26
ENDBRANCH  14  17
ENDBRANCH   8  14
ENDBRANCH   4   7
ENDBRANCH   2   3
ENDBRANCH   1   2
BRANCH   1  32
ATOM     32  C   UNL A   1      37.989  20.093  25.042  1.00  0.00     0.023 C 
BRANCH  32  33
ATOM     33  C   UNL A   1      39.216  20.326  25.914  1.00  0.00     0.116 C 
BRANCH  33  34
ATOM     34  N   UNL A   1      40.176  19.229  25.892  1.00  0.00    -0.352 N 
ATOM     35  C   UNL A   1      41.547  19.265  26.010  1.00  0.00     0.251 C 
ATOM     36  H   UNL A   1      39.787  18.332  25.776  1.00  0.00     0.163 HD
ATOM     37  O   UNL A   1      42.203  18.237  25.873  1.00  0.00    -0.269 OA
BRANCH  35  38
ATOM     38  C   UNL A   1      42.224  20.557  26.259  1.00  0.00     0.039 A 
ATOM     39  C   UNL A   1      42.623  21.335  25.170  1.00  0.00     0.014 A 
ATOM     40  C   UNL A   1      42.410  21.023  27.563  1.00  0.00     0.014 A 
ATOM     41  C   UNL A   1      43.121  22.622  25.389  1.00  0.00     0.010 A 
ATOM     42  C   UNL A   1      42.818  22.336  27.773  1.00  0.00     0.010 A 
ATOM     43  C   UNL A   1      43.172  23.154  26.689  1.00  0.00    -0.014 A 
BRANCH  43  44
ATOM     44  C   UNL A   1      43.586  24.561  26.935  1.00  0.00     0.031 A 
ATOM     45  C   UNL A   1      45.011  24.980  26.690  1.00  0.00     0.074 A 
ATOM     46  C   UNL A   1      42.695  25.445  27.432  1.00  0.00     0.049 A 
ATOM     47  N   UNL A   1      45.581  26.134  26.924  1.00  0.00    -0.248 NA
ATOM     48  C   UNL A   1      45.920  23.964  26.137  1.00  0.00     0.031 C 
ATOM     49  C   UNL A   1      41.294  25.150  27.745  1.00  0.00     0.029 A 
ATOM     50  N   UNL A   1      42.831  26.771  27.763  1.00  0.00    -0.354 N 
ATOM     51  C   UNL A   1      46.913  25.978  26.557  1.00  0.00     0.074 A 
ATOM     52  C   UNL A   1      47.080  24.605  26.136  1.00  0.00     0.031 C 
ATOM     53  C   UNL A   1      40.694  26.267  28.187  1.00  0.00     0.029 A 
ATOM     54  C   UNL A   1      41.675  27.347  28.242  1.00  0.00     0.049 A 
ATOM     55  H   UNL A   1      43.677  27.265  27.667  1.00  0.00     0.167 HD
ATOM     56  C   UNL A   1      47.900  26.904  26.551  1.00  0.00     0.034 A 
ATOM     57  C   UNL A   1      41.432  28.595  28.690  1.00  0.00     0.034 A 
ATOM     58  C   UNL A   1      47.715  28.278  26.940  1.00  0.00     0.049 A 
ATOM     59  C   UNL A   1      42.555  29.600  28.695  1.00  0.00     0.074 A 
ATOM     60  C   UNL A   1      48.639  29.307  26.908  1.00  0.00     0.029 A 
ATOM     61  N   UNL A   1      46.536  28.814  27.436  1.00  0.00    -0.354 N 
ATOM     62  N   UNL A   1      43.803  29.440  28.320  1.00  0.00    -0.248 NA
ATOM     63  C   UNL A   1      42.242  30.951  29.183  1.00  0.00     0.031 C 
ATOM     64  C   UNL A   1      48.040  30.448  27.449  1.00  0.00     0.029 A 
ATOM     65  C   UNL A   1      46.719  30.152  27.745  1.00  0.00     0.049 A 
ATOM     66  H   UNL A   1      45.693  28.318  27.550  1.00  0.00     0.167 HD
ATOM     67  C   UNL A   1      44.417  30.674  28.506  1.00  0.00     0.074 A 
ATOM     68  C   UNL A   1      43.403  31.571  29.020  1.00  0.00     0.031 C 
ATOM     69  C   UNL A   1      45.702  31.032  28.267  1.00  0.00     0.034 A 
BRANCH  56  70
ATOM     70  C   UNL A   1      49.274  26.471  26.114  1.00  0.00     0.023 A 
ATOM     71  C   UNL A   1      49.855  26.947  24.927  1.00  0.00     0.031 A 
ATOM     72  C   UNL A   1      50.036  25.616  26.930  1.00  0.00     0.131 A 
ATOM     73  C   UNL A   1      51.150  26.543  24.574  1.00  0.00     0.055 A 
ATOM     74  C   UNL A   1      51.347  25.266  26.604  1.00  0.00     0.041 A 
ATOM     75  F   UNL A   1      49.522  25.119  28.066  1.00  0.00    -0.206 F 
ATOM     76  C   UNL A   1      51.910  25.727  25.417  1.00  0.00     0.022 A 
BRANCH  73  77
ATOM     77  S   UNL A   1      51.815  27.054  22.966  1.00  0.00     0.124 S 
ATOM     78  O   UNL A   1      50.730  26.675  22.065  1.00  0.00    -0.237 OA
ATOM     79  O   UNL A   1      52.023  28.486  23.149  1.00  0.00    -0.237 OA
ATOM     80  O   UNL A   1      53.035  26.261  22.832  1.00  0.00    -0.744 OA
ENDBRANCH  73  77
ENDBRANCH  56  70
BRANCH  57  81
ATOM     81  C   UNL A   1      40.076  28.961  29.189  1.00  0.00     0.023 A 
ATOM     82  C   UNL A   1      39.743  28.837  30.548  1.00  0.00     0.031 A 
ATOM     83  C   UNL A   1      39.089  29.438  28.308  1.00  0.00     0.131 A 
ATOM     84  C   UNL A   1      38.448  29.166  30.982  1.00  0.00     0.055 A 
ATOM     85  C   UNL A   1      37.817  29.805  28.751  1.00  0.00     0.041 A 
ATOM     86  F   UNL A   1      39.359  29.580  27.000  1.00  0.00    -0.206 F 
ATOM     87  C   UNL A   1      37.489  29.662  30.096  1.00  0.00     0.022 A 
BRANCH  84  88
ATOM     88  S   UNL A   1      38.019  28.900  32.724  1.00  0.00     0.124 S 
ATOM     89  O   UNL A   1      39.056  29.665  33.406  1.00  0.00    -0.237 OA
ATOM     90  O   UNL A   1      36.667  29.447  32.792  1.00  0.00    -0.237 OA
ATOM     91  O   UNL A   1      38.107  27.450  32.879  1.00  0.00    -0.744 OA
ENDBRANCH  84  88
ENDBRANCH  57  81
BRANCH  69  92
ATOM     92  C   UNL A   1      46.091  32.464  28.525  1.00  0.00     0.023 A 
ATOM     93  C   UNL A   1      45.988  33.445  27.525  1.00  0.00     0.031 A 
ATOM     94  C   UNL A   1      46.504  32.863  29.808  1.00  0.00     0.131 A 
ATOM     95  C   UNL A   1      46.318  34.776  27.819  1.00  0.00     0.055 A 
ATOM     96  C   UNL A   1      46.783  34.195  30.109  1.00  0.00     0.041 A 
ATOM     97  F   UNL A   1      46.615  31.963  30.799  1.00  0.00    -0.206 F 
ATOM     98  C   UNL A   1      46.695  35.160  29.110  1.00  0.00     0.022 A 
BRANCH  95  99
ATOM     99  S   UNL A   1      46.278  36.000  26.483  1.00  0.00     0.124 S 
ATOM    100  O   UNL A   1      45.748  35.218  25.372  1.00  0.00    -0.237 OA
ATOM    101  O   UNL A   1      45.391  37.027  27.021  1.00  0.00    -0.237 OA
ATOM    102  O   UNL A   1      47.677  36.404  26.345  1.00  0.00    -0.744 OA
ENDBRANCH  95  99
ENDBRANCH  69  92
ENDBRANCH  43  44
ENDBRANCH  35  38
ENDBRANCH  33  34
ENDBRANCH  32  33
ENDBRANCH   1  32
TORSDOF 17
ENDMDL
MODEL 3
REMARK VINA RESULT:     -12.9      5.556     11.642
REMARK SMILES Cc1nc(-c2ccc3c(c2)CCN3S(=O)(=O)c2ccc(F)c(C(=O)NCCCCNC(=O)c3ccc(-c4c5nc(c(-c6cc(S(=O)(=O)[O-])ccc6F)c6ccc([nH]6)c(-c6cc(S(=O)(=O)[O-])ccc6F)c6nc(c(-c7cc(S(=O)(=O)[O-])ccc7F)c7ccc4[nH]7)C=C6)C=C5)cc3)c2)cs1
REMARK SMILES IDX 27 1 26 2 25 3 23 4 24 5 22 7 17 8 18 9 96 10 19 11 20 12
REMARK SMILES IDX 21 13 14 14 15 15 16 16 13 17 5 18 6 19 10 20 7 21 9 22 8 23
REMARK SMILES IDX 11 24 12 25 4 26 1 27 2 28 3 29 98 30 97 31 28 32 29 33
REMARK SMILES IDX 30 34 31 35 32 37 33 38 34 39 95 40 35 41 94 42 36 43 37 44
REMARK SMILES IDX 38 45 88 46 39 47 93 48 87 49 89 50 40 51 92 52 86 53 85 54
REMARK SMILES IDX 41 56 73 57 53 58 72 59 54 60 57 61 71 62 90 63 55 64 56 65
REMARK SMILES IDX 70 67 91 68 58 69 42 70 43 71 51 72 44 73 50 74 52 75 49 76
REMARK SMILES IDX 45 77 46 78 47 79 48 80 74 81 75 82 83 83 76 84 82 85 84 86
REMARK SMILES IDX 81 87 77 88 78 89 79 90 80 91 59 92 60 93 68 94 61 95 67 96
REMARK SMILES IDX 69 97 66 98 62 99 63 100 64 101 65 102
REMARK H PARENT 25 6 30 36 89 55 57 66
REMARK Flexibility Score: inf
ROOT
ATOM      1  C   UNL A   1      34.759  30.909  27.651  1.00  0.00     0.023 C 
ENDROOT
BRANCH   1   2
ATOM      2  C   UNL A   1      34.434  29.502  27.178  1.00  0.00     0.116 C 
BRANCH   2   3
ATOM      3  N   UNL A   1      33.292  28.874  27.817  1.00  0.00    -0.352 N 
ATOM      4  C   UNL A   1      32.222  28.179  27.296  1.00  0.00     0.254 C 
ATOM      5  O   UNL A   1      31.420  27.681  28.088  1.00  0.00    -0.269 OA
ATOM      6  H   UNL A   1      33.279  28.959  28.797  1.00  0.00     0.163 HD
BRANCH   4   7
ATOM      7  C   UNL A   1      31.930  28.061  25.839  1.00  0.00     0.076 A 
ATOM      8  C   UNL A   1      31.960  26.698  23.831  1.00  0.00     0.089 A 
ATOM      9  C   UNL A   1      31.202  27.656  23.147  1.00  0.00     0.025 A 
ATOM     10  C   UNL A   1      32.241  26.845  25.196  1.00  0.00     0.039 A 
ATOM     11  C   UNL A   1      30.976  28.882  23.752  1.00  0.00     0.041 A 
ATOM     12  C   UNL A   1      31.439  29.103  25.047  1.00  0.00     0.136 A 
ATOM     13  F   UNL A   1      31.514  30.381  25.440  1.00  0.00    -0.206 F 
BRANCH   8  14
ATOM     14  S   UNL A   1      32.652  25.379  22.868  1.00  0.00     0.264 S 
ATOM     15  O   UNL A   1      33.896  25.887  22.322  1.00  0.00    -0.201 OA
ATOM     16  O   UNL A   1      31.624  24.887  21.971  1.00  0.00    -0.201 OA
BRANCH  14  17
ATOM     17  N   UNL A   1      33.027  24.101  23.956  1.00  0.00    -0.266 N 
ATOM     18  C   UNL A   1      36.737  22.417  25.105  1.00  0.00     0.001 A 
ATOM     19  C   UNL A   1      36.621  23.814  25.098  1.00  0.00     0.012 A 
ATOM     20  C   UNL A   1      35.624  21.643  24.752  1.00  0.00     0.016 A 
ATOM     21  C   UNL A   1      35.426  24.437  24.724  1.00  0.00     0.028 A 
ATOM     22  C   UNL A   1      34.451  22.290  24.356  1.00  0.00    -0.021 A 
ATOM     23  C   UNL A   1      34.368  23.679  24.263  1.00  0.00     0.055 A 
ATOM     24  C   UNL A   1      33.101  21.671  24.180  1.00  0.00     0.060 C 
ATOM     25  C   UNL A   1      32.275  22.835  23.613  1.00  0.00     0.140 C 
BRANCH  18  26
ATOM     26  C   UNL A   1      37.971  21.829  25.601  1.00  0.00     0.081 A 
ATOM     27  C   UNL A   1      40.953  22.315  27.653  1.00  0.00     0.079 C 
ATOM     28  C   UNL A   1      39.866  21.843  26.752  1.00  0.00     0.090 A 
ATOM     29  N   UNL A   1      38.807  22.554  26.435  1.00  0.00    -0.242 NA
ATOM     30  S   UNL A   1      39.938  20.279  26.041  1.00  0.00    -0.127 S 
ATOM     31  C   UNL A   1      38.431  20.572  25.269  1.00  0.00     0.095 A 
ENDBRANCH  18  26
ENDBRANCH  14  17
ENDBRANCH   8  14
ENDBRANCH   4   7
ENDBRANCH   2   3
ENDBRANCH   1   2
BRANCH   1  32
ATOM     32  C   UNL A   1      33.590  31.867  27.812  1.00  0.00     0.023 C 
BRANCH  32  33
ATOM     33  C   UNL A   1      33.909  33.346  27.632  1.00  0.00     0.116 C 
BRANCH  33  34
ATOM     34  N   UNL A   1      33.116  34.230  28.477  1.00  0.00    -0.352 N 
ATOM     35  C   UNL A   1      33.312  34.592  29.791  1.00  0.00     0.251 C 
ATOM     36  H   UNL A   1      32.326  34.627  28.044  1.00  0.00     0.163 HD
ATOM     37  O   UNL A   1      32.478  35.282  30.369  1.00  0.00    -0.269 OA
BRANCH  35  38
ATOM     38  C   UNL A   1      34.511  34.106  30.510  1.00  0.00     0.039 A 
ATOM     39  C   UNL A   1      34.356  33.164  31.529  1.00  0.00     0.014 A 
ATOM     40  C   UNL A   1      35.786  34.538  30.138  1.00  0.00     0.014 A 
ATOM     41  C   UNL A   1      35.487  32.584  32.108  1.00  0.00     0.010 A 
ATOM     42  C   UNL A   1      36.907  33.893  30.650  1.00  0.00     0.010 A 
ATOM     43  C   UNL A   1      36.772  32.904  31.636  1.00  0.00    -0.014 A 
BRANCH  43  44
ATOM     44  C   UNL A   1      37.982  32.212  32.155  1.00  0.00     0.031 A 
ATOM     45  C   UNL A   1      38.626  31.117  31.347  1.00  0.00     0.074 A 
ATOM     46  C   UNL A   1      38.467  32.531  33.374  1.00  0.00     0.049 A 
ATOM     47  N   UNL A   1      39.632  30.344  31.665  1.00  0.00    -0.248 NA
ATOM     48  C   UNL A   1      38.050  30.835  30.023  1.00  0.00     0.031 C 
ATOM     49  C   UNL A   1      37.907  33.550  34.266  1.00  0.00     0.029 A 
ATOM     50  N   UNL A   1      39.536  32.032  34.076  1.00  0.00    -0.354 N 
ATOM     51  C   UNL A   1      39.800  29.480  30.589  1.00  0.00     0.074 A 
ATOM     52  C   UNL A   1      38.761  29.788  29.632  1.00  0.00     0.031 C 
ATOM     53  C   UNL A   1      38.658  33.624  35.377  1.00  0.00     0.029 A 
ATOM     54  C   UNL A   1      39.719  32.625  35.306  1.00  0.00     0.049 A 
ATOM     55  H   UNL A   1      40.118  31.317  33.732  1.00  0.00     0.167 HD
ATOM     56  C   UNL A   1      40.750  28.534  30.407  1.00  0.00     0.034 A 
ATOM     57  C   UNL A   1      40.626  32.384  36.274  1.00  0.00     0.034 A 
ATOM     58  C   UNL A   1      41.801  28.258  31.351  1.00  0.00     0.049 A 
ATOM     59  C   UNL A   1      41.659  31.308  36.055  1.00  0.00     0.074 A 
ATOM     60  C   UNL A   1      42.848  27.362  31.228  1.00  0.00     0.029 A 
ATOM     61  N   UNL A   1      41.939  28.867  32.590  1.00  0.00    -0.354 N 
ATOM     62  N   UNL A   1      41.816  30.518  35.018  1.00  0.00    -0.248 NA
ATOM     63  C   UNL A   1      42.633  31.086  37.133  1.00  0.00     0.031 C 
ATOM     64  C   UNL A   1      43.577  27.376  32.419  1.00  0.00     0.029 A 
ATOM     65  C   UNL A   1      43.034  28.340  33.255  1.00  0.00     0.049 A 
ATOM     66  H   UNL A   1      41.348  29.569  32.944  1.00  0.00     0.167 HD
ATOM     67  C   UNL A   1      42.919  29.723  35.310  1.00  0.00     0.074 A 
ATOM     68  C   UNL A   1      43.394  30.131  36.616  1.00  0.00     0.031 C 
ATOM     69  C   UNL A   1      43.490  28.748  34.561  1.00  0.00     0.034 A 
BRANCH  56  70
ATOM     70  C   UNL A   1      40.702  27.717  29.142  1.00  0.00     0.023 A 
ATOM     71  C   UNL A   1      41.601  27.939  28.086  1.00  0.00     0.031 A 
ATOM     72  C   UNL A   1      39.782  26.661  29.020  1.00  0.00     0.131 A 
ATOM     73  C   UNL A   1      41.542  27.134  26.939  1.00  0.00     0.055 A 
ATOM     74  C   UNL A   1      39.768  25.825  27.903  1.00  0.00     0.041 A 
ATOM     75  F   UNL A   1      38.889  26.417  29.993  1.00  0.00    -0.206 F 
ATOM     76  C   UNL A   1      40.650  26.062  26.852  1.00  0.00     0.022 A 
BRANCH  73  77
ATOM     77  S   UNL A   1      42.613  27.539  25.534  1.00  0.00     0.124 S 
ATOM     78  O   UNL A   1      43.910  27.693  26.188  1.00  0.00    -0.237 OA
ATOM     79  O   UNL A   1      42.466  26.370  24.675  1.00  0.00    -0.237 OA
ATOM     80  O   UNL A   1      42.037  28.774  25.008  1.00  0.00    -0.744 OA
ENDBRANCH  73  77
ENDBRANCH  56  70
BRANCH  57  81
ATOM     81  C   UNL A   1      40.589  33.162  37.545  1.00  0.00     0.023 A 
ATOM     82  C   UNL A   1      39.829  32.726  38.642  1.00  0.00     0.031 A 
ATOM     83  C   UNL A   1      41.316  34.359  37.678  1.00  0.00     0.131 A 
ATOM     84  C   UNL A   1      39.794  33.495  39.817  1.00  0.00     0.055 A 
ATOM     85  C   UNL A   1      41.313  35.097  38.863  1.00  0.00     0.041 A 
ATOM     86  F   UNL A   1      42.063  34.815  36.660  1.00  0.00    -0.206 F 
ATOM     87  C   UNL A   1      40.543  34.669  39.939  1.00  0.00     0.022 A 
BRANCH  84  88
ATOM     88  S   UNL A   1      38.724  32.959  41.180  1.00  0.00     0.124 S 
ATOM     89  O   UNL A   1      38.643  31.522  40.947  1.00  0.00    -0.237 OA
ATOM     90  O   UNL A   1      39.488  33.379  42.351  1.00  0.00    -0.237 OA
ATOM     91  O   UNL A   1      37.486  33.701  40.952  1.00  0.00    -0.744 OA
ENDBRANCH  84  88
ENDBRANCH  57  81
BRANCH  69  92
ATOM     92  C   UNL A   1      44.715  28.067  35.112  1.00  0.00     0.023 A 
ATOM     93  C   UNL A   1      44.619  26.933  35.935  1.00  0.00     0.031 A 
ATOM     94  C   UNL A   1      45.996  28.521  34.751  1.00  0.00     0.131 A 
ATOM     95  C   UNL A   1      45.786  26.303  36.390  1.00  0.00     0.055 A 
ATOM     96  C   UNL A   1      47.152  27.861  35.166  1.00  0.00     0.041 A 
ATOM     97  F   UNL A   1      46.142  29.599  33.963  1.00  0.00    -0.206 F 
ATOM     98  C   UNL A   1      47.051  26.748  35.994  1.00  0.00     0.022 A 
BRANCH  95  99
ATOM     99  S   UNL A   1      45.632  24.907  37.536  1.00  0.00     0.124 S 
ATOM    100  O   UNL A   1      45.189  23.836  36.650  1.00  0.00    -0.237 OA
ATOM    101  O   UNL A   1      46.987  24.779  38.063  1.00  0.00    -0.237 OA
ATOM    102  O   UNL A   1      44.635  25.364  38.504  1.00  0.00    -0.744 OA
ENDBRANCH  95  99
ENDBRANCH  69  92
ENDBRANCH  43  44
ENDBRANCH  35  38
ENDBRANCH  33  34
ENDBRANCH  32  33
ENDBRANCH   1  32
TORSDOF 17
ENDMDL
