MODEL 1
REMARK VINA RESULT:     -10.3      0.000      0.000
REMARK SMILES COC(CNS(=O)(=O)c1ccc(Cl)c(C(=O)NCCCCNC(=O)c2ccc(-c3c4nc(c(-c5cc(S(=O)(=O)[O-])ccc5F)c5ccc([nH]5)c(-c5cc(S(=O)(=O)[O-])ccc5F)c5nc(c(-c6cc(S(=O)(=O)[O-])ccc6F)c6ccc3[nH]6)C=C5)C=C4)cc2)c1Cl)OC
REMARK SMILES IDX 18 1 17 2 15 3 16 4 14 6 9 7 10 8 88 9 11 10 89 11 12 12
REMARK SMILES IDX 13 13 6 14 7 15 8 16 5 17 4 19 3 20 2 21 1 22 90 23 91 24
REMARK SMILES IDX 19 25 20 26 21 27 22 28 23 29 24 31 25 32 26 33 87 34 27 35
REMARK SMILES IDX 86 36 28 37 29 38 30 39 80 40 31 41 85 42 79 43 81 44 32 45
REMARK SMILES IDX 84 46 78 47 77 48 33 50 65 51 45 52 64 53 46 54 49 55 63 56
REMARK SMILES IDX 82 57 47 58 48 59 62 61 83 62 50 63 34 64 35 65 43 66 36 67
REMARK SMILES IDX 42 68 44 69 41 70 37 71 38 72 39 73 40 74 66 75 67 76 75 77
REMARK SMILES IDX 68 78 74 79 76 80 73 81 69 82 70 83 71 84 72 85 51 86 52 87
REMARK SMILES IDX 60 88 53 89 59 90 61 91 58 92 54 93 55 94 56 95 57 96
REMARK H PARENT 17 5 5 18 22 30 81 49 49 60
REMARK Flexibility Score: inf
ROOT
ATOM      1  C   UNL A   1      37.859  23.719  26.109  1.00  0.00     0.116 C 
ENDROOT
BRANCH   1   2
ATOM      2  N   UNL A   1      37.505  23.338  24.763  1.00  0.00    -0.352 N 
ATOM      3  C   UNL A   1      36.443  22.773  24.117  1.00  0.00     0.254 C 
ATOM      4  O   UNL A   1      36.631  22.765  22.895  1.00  0.00    -0.269 OA
ATOM      5  H   UNL A   1      38.235  23.542  24.134  1.00  0.00     0.163 HD
BRANCH   3   6
ATOM      6  C   UNL A   1      35.099  22.326  24.662  1.00  0.00     0.078 A 
ATOM      7  C   UNL A   1      32.995  23.164  25.648  1.00  0.00     0.101 A 
ATOM      8  C   UNL A   1      32.828  21.972  26.348  1.00  0.00     0.025 A 
ATOM      9  C   UNL A   1      34.079  23.326  24.765  1.00  0.00     0.075 A 
ATOM     10  C   UNL A   1      33.679  20.917  26.080  1.00  0.00     0.023 A 
ATOM     11  Cl  UNL A   1      33.979  24.621  23.591  1.00  0.00    -0.082 Cl
ATOM     12  C   UNL A   1      34.773  21.073  25.214  1.00  0.00     0.055 A 
ATOM     13  Cl  UNL A   1      35.360  19.542  24.688  1.00  0.00    -0.083 Cl
BRANCH   7  14
ATOM     14  S   UNL A   1      31.766  24.407  25.945  1.00  0.00     0.242 S 
ATOM     15  O   UNL A   1      31.181  24.136  27.245  1.00  0.00    -0.207 OA
ATOM     16  O   UNL A   1      30.944  24.492  24.764  1.00  0.00    -0.207 OA
BRANCH  14  17
ATOM     17  N   UNL A   1      32.563  25.854  26.091  1.00  0.00    -0.206 NA
ATOM     18  H   UNL A   1      32.670  26.022  27.091  1.00  0.00     0.141 HD
BRANCH  17  19
ATOM     19  C   UNL A   1      32.025  27.094  25.520  1.00  0.00     0.161 C 
BRANCH  19  20
ATOM     20  C   UNL A   1      32.744  28.390  25.994  1.00  0.00     0.263 C 
BRANCH  20  21
ATOM     21  O   UNL A   1      32.071  29.219  26.943  1.00  0.00    -0.355 OA
ATOM     22  C   UNL A   1      32.156  30.619  26.783  1.00  0.00     0.198 C 
ENDBRANCH  20  21
BRANCH  20  23
ATOM     23  O   UNL A   1      33.463  29.075  24.969  1.00  0.00    -0.355 OA
ATOM     24  C   UNL A   1      33.651  28.412  23.738  1.00  0.00     0.198 C 
ENDBRANCH  20  23
ENDBRANCH  19  20
ENDBRANCH  17  19
ENDBRANCH  14  17
ENDBRANCH   7  14
ENDBRANCH   3   6
ENDBRANCH   1   2
BRANCH   1  25
ATOM     25  C   UNL A   1      39.209  23.114  26.498  1.00  0.00     0.023 C 
BRANCH  25  26
ATOM     26  C   UNL A   1      39.425  21.676  26.035  1.00  0.00     0.023 C 
BRANCH  26  27
ATOM     27  C   UNL A   1      40.306  20.845  26.954  1.00  0.00     0.116 C 
BRANCH  27  28
ATOM     28  N   UNL A   1      41.214  19.952  26.243  1.00  0.00    -0.352 N 
ATOM     29  C   UNL A   1      42.463  20.243  25.747  1.00  0.00     0.251 C 
ATOM     30  H   UNL A   1      40.894  19.032  26.102  1.00  0.00     0.163 HD
ATOM     31  O   UNL A   1      43.073  19.425  25.069  1.00  0.00    -0.269 OA
BRANCH  29  32
ATOM     32  C   UNL A   1      43.021  21.580  26.018  1.00  0.00     0.039 A 
ATOM     33  C   UNL A   1      42.981  22.546  25.014  1.00  0.00     0.014 A 
ATOM     34  C   UNL A   1      43.472  21.896  27.303  1.00  0.00     0.014 A 
ATOM     35  C   UNL A   1      43.332  23.860  25.323  1.00  0.00     0.010 A 
ATOM     36  C   UNL A   1      43.731  23.219  27.627  1.00  0.00     0.010 A 
ATOM     37  C   UNL A   1      43.666  24.215  26.641  1.00  0.00    -0.014 A 
BRANCH  37  38
ATOM     38  C   UNL A   1      43.965  25.623  27.006  1.00  0.00     0.031 A 
ATOM     39  C   UNL A   1      45.356  26.161  26.817  1.00  0.00     0.074 A 
ATOM     40  C   UNL A   1      43.002  26.392  27.553  1.00  0.00     0.049 A 
ATOM     41  N   UNL A   1      45.838  27.334  27.132  1.00  0.00    -0.248 NA
ATOM     42  C   UNL A   1      46.344  25.246  26.224  1.00  0.00     0.031 C 
ATOM     43  C   UNL A   1      41.627  25.963  27.820  1.00  0.00     0.029 A 
ATOM     44  N   UNL A   1      43.030  27.693  27.986  1.00  0.00    -0.354 N 
ATOM     45  C   UNL A   1      47.184  27.296  26.784  1.00  0.00     0.074 A 
ATOM     46  C   UNL A   1      47.456  25.959  26.305  1.00  0.00     0.031 C 
ATOM     47  C   UNL A   1      40.937  26.992  28.338  1.00  0.00     0.029 A 
ATOM     48  C   UNL A   1      41.829  28.137  28.491  1.00  0.00     0.049 A 
ATOM     49  H   UNL A   1      43.836  28.258  27.941  1.00  0.00     0.167 HD
ATOM     50  C   UNL A   1      48.100  28.294  26.832  1.00  0.00     0.034 A 
ATOM     51  C   UNL A   1      41.492  29.326  29.029  1.00  0.00     0.034 A 
ATOM     52  C   UNL A   1      47.806  29.624  27.306  1.00  0.00     0.049 A 
ATOM     53  C   UNL A   1      42.541  30.407  29.113  1.00  0.00     0.074 A 
ATOM     54  C   UNL A   1      48.643  30.723  27.355  1.00  0.00     0.029 A 
ATOM     55  N   UNL A   1      46.583  30.033  27.821  1.00  0.00    -0.354 N 
ATOM     56  N   UNL A   1      43.798  30.371  28.730  1.00  0.00    -0.248 NA
ATOM     57  C   UNL A   1      42.125  31.692  29.690  1.00  0.00     0.031 C 
ATOM     58  C   UNL A   1      47.954  31.771  27.973  1.00  0.00     0.029 A 
ATOM     59  C   UNL A   1      46.655  31.357  28.224  1.00  0.00     0.049 A 
ATOM     60  H   UNL A   1      45.781  29.466  27.891  1.00  0.00     0.167 HD
ATOM     61  C   UNL A   1      44.310  31.640  28.987  1.00  0.00     0.074 A 
ATOM     62  C   UNL A   1      43.222  32.420  29.542  1.00  0.00     0.031 C 
ATOM     63  C   UNL A   1      45.562  32.120  28.781  1.00  0.00     0.034 A 
BRANCH  50  64
ATOM     64  C   UNL A   1      49.505  27.972  26.382  1.00  0.00     0.023 A 
ATOM     65  C   UNL A   1      49.950  28.267  25.081  1.00  0.00     0.031 A 
ATOM     66  C   UNL A   1      50.407  27.344  27.258  1.00  0.00     0.131 A 
ATOM     67  C   UNL A   1      51.230  27.869  24.671  1.00  0.00     0.055 A 
ATOM     68  C   UNL A   1      51.711  27.029  26.870  1.00  0.00     0.041 A 
ATOM     69  F   UNL A   1      50.033  27.012  28.504  1.00  0.00    -0.206 F 
ATOM     70  C   UNL A   1      52.125  27.278  25.566  1.00  0.00     0.022 A 
BRANCH  67  71
ATOM     71  S   UNL A   1      51.657  28.001  22.913  1.00  0.00     0.124 S 
ATOM     72  O   UNL A   1      50.804  26.970  22.325  1.00  0.00    -0.237 OA
ATOM     73  O   UNL A   1      51.297  29.380  22.602  1.00  0.00    -0.237 OA
ATOM     74  O   UNL A   1      53.087  27.706  22.884  1.00  0.00    -0.744 OA
ENDBRANCH  67  71
ENDBRANCH  50  64
BRANCH  51  75
ATOM     75  C   UNL A   1      40.111  29.564  29.545  1.00  0.00     0.023 A 
ATOM     76  C   UNL A   1      39.848  29.591  30.925  1.00  0.00     0.031 A 
ATOM     77  C   UNL A   1      39.022  29.708  28.667  1.00  0.00     0.131 A 
ATOM     78  C   UNL A   1      38.526  29.699  31.385  1.00  0.00     0.055 A 
ATOM     79  C   UNL A   1      37.716  29.879  29.131  1.00  0.00     0.041 A 
ATOM     80  F   UNL A   1      39.213  29.690  27.338  1.00  0.00    -0.206 F 
ATOM     81  C   UNL A   1      37.460  29.858  30.497  1.00  0.00     0.022 A 
BRANCH  78  82
ATOM     82  S   UNL A   1      38.208  29.511  33.161  1.00  0.00     0.124 S 
ATOM     83  O   UNL A   1      39.488  29.002  33.639  1.00  0.00    -0.237 OA
ATOM     84  O   UNL A   1      37.872  30.877  33.553  1.00  0.00    -0.237 OA
ATOM     85  O   UNL A   1      37.099  28.561  33.208  1.00  0.00    -0.744 OA
ENDBRANCH  78  82
ENDBRANCH  51  75
BRANCH  63  86
ATOM     86  C   UNL A   1      45.806  33.575  29.105  1.00  0.00     0.023 A 
ATOM     87  C   UNL A   1      45.520  34.600  28.187  1.00  0.00     0.031 A 
ATOM     88  C   UNL A   1      46.338  33.937  30.357  1.00  0.00     0.131 A 
ATOM     89  C   UNL A   1      45.821  35.932  28.511  1.00  0.00     0.055 A 
ATOM     90  C   UNL A   1      46.569  35.270  30.700  1.00  0.00     0.041 A 
ATOM     91  F   UNL A   1      46.635  33.001  31.271  1.00  0.00    -0.206 F 
ATOM     92  C   UNL A   1      46.323  36.275  29.769  1.00  0.00     0.022 A 
BRANCH  89  93
ATOM     93  S   UNL A   1      45.642  37.202  27.229  1.00  0.00     0.124 S 
ATOM     94  O   UNL A   1      46.144  38.391  27.910  1.00  0.00    -0.237 OA
ATOM     95  O   UNL A   1      46.482  36.681  26.154  1.00  0.00    -0.237 OA
ATOM     96  O   UNL A   1      44.209  37.206  26.947  1.00  0.00    -0.744 OA
ENDBRANCH  89  93
ENDBRANCH  63  86
ENDBRANCH  37  38
ENDBRANCH  29  32
ENDBRANCH  27  28
ENDBRANCH  26  27
ENDBRANCH  25  26
ENDBRANCH   1  25
TORSDOF 20
ENDMDL
MODEL 2
REMARK VINA RESULT:      -9.8      1.737      2.145
REMARK SMILES COC(CNS(=O)(=O)c1ccc(Cl)c(C(=O)NCCCCNC(=O)c2ccc(-c3c4nc(c(-c5cc(S(=O)(=O)[O-])ccc5F)c5ccc([nH]5)c(-c5cc(S(=O)(=O)[O-])ccc5F)c5nc(c(-c6cc(S(=O)(=O)[O-])ccc6F)c6ccc3[nH]6)C=C5)C=C4)cc2)c1Cl)OC
REMARK SMILES IDX 18 1 17 2 15 3 16 4 14 6 9 7 10 8 88 9 11 10 89 11 12 12
REMARK SMILES IDX 13 13 6 14 7 15 8 16 5 17 4 19 3 20 2 21 1 22 90 23 91 24
REMARK SMILES IDX 19 25 20 26 21 27 22 28 23 29 24 31 25 32 26 33 87 34 27 35
REMARK SMILES IDX 86 36 28 37 29 38 30 39 80 40 31 41 85 42 79 43 81 44 32 45
REMARK SMILES IDX 84 46 78 47 77 48 33 50 65 51 45 52 64 53 46 54 49 55 63 56
REMARK SMILES IDX 82 57 47 58 48 59 62 61 83 62 50 63 34 64 35 65 43 66 36 67
REMARK SMILES IDX 42 68 44 69 41 70 37 71 38 72 39 73 40 74 66 75 67 76 75 77
REMARK SMILES IDX 68 78 74 79 76 80 73 81 69 82 70 83 71 84 72 85 51 86 52 87
REMARK SMILES IDX 60 88 53 89 59 90 61 91 58 92 54 93 55 94 56 95 57 96
REMARK H PARENT 17 5 5 18 22 30 81 49 49 60
REMARK Flexibility Score: inf
ROOT
ATOM      1  C   UNL A   1      37.995  22.928  26.114  1.00  0.00     0.116 C 
ENDROOT
BRANCH   1   2
ATOM      2  N   UNL A   1      37.564  22.850  24.738  1.00  0.00    -0.352 N 
ATOM      3  C   UNL A   1      36.430  22.526  24.049  1.00  0.00     0.254 C 
ATOM      4  O   UNL A   1      36.582  22.736  22.840  1.00  0.00    -0.269 OA
ATOM      5  H   UNL A   1      38.293  23.099  24.124  1.00  0.00     0.163 HD
BRANCH   3   6
ATOM      6  C   UNL A   1      35.063  22.114  24.564  1.00  0.00     0.078 A 
ATOM      7  C   UNL A   1      32.954  23.010  25.486  1.00  0.00     0.101 A 
ATOM      8  C   UNL A   1      32.743  21.830  26.194  1.00  0.00     0.025 A 
ATOM      9  C   UNL A   1      34.063  23.138  24.629  1.00  0.00     0.075 A 
ATOM     10  C   UNL A   1      33.576  20.754  25.960  1.00  0.00     0.023 A 
ATOM     11  Cl  UNL A   1      34.023  24.422  23.440  1.00  0.00    -0.082 Cl
ATOM     12  C   UNL A   1      34.696  20.876  25.120  1.00  0.00     0.055 A 
ATOM     13  Cl  UNL A   1      35.262  19.326  24.626  1.00  0.00    -0.083 Cl
BRANCH   7  14
ATOM     14  S   UNL A   1      31.745  24.283  25.737  1.00  0.00     0.242 S 
ATOM     15  O   UNL A   1      31.301  24.193  27.116  1.00  0.00    -0.207 OA
ATOM     16  O   UNL A   1      30.805  24.207  24.647  1.00  0.00    -0.207 OA
BRANCH  14  17
ATOM     17  N   UNL A   1      32.534  25.735  25.601  1.00  0.00    -0.206 NA
ATOM     18  H   UNL A   1      33.136  25.812  26.421  1.00  0.00     0.141 HD
BRANCH  17  19
ATOM     19  C   UNL A   1      31.804  27.005  25.507  1.00  0.00     0.161 C 
BRANCH  19  20
ATOM     20  C   UNL A   1      31.668  27.567  24.062  1.00  0.00     0.263 C 
BRANCH  20  21
ATOM     21  O   UNL A   1      30.545  27.150  23.285  1.00  0.00    -0.355 OA
ATOM     22  C   UNL A   1      29.470  28.051  23.130  1.00  0.00     0.198 C 
ENDBRANCH  20  21
BRANCH  20  23
ATOM     23  O   UNL A   1      32.902  27.689  23.357  1.00  0.00    -0.355 OA
ATOM     24  C   UNL A   1      33.915  28.485  23.930  1.00  0.00     0.198 C 
ENDBRANCH  20  23
ENDBRANCH  19  20
ENDBRANCH  17  19
ENDBRANCH  14  17
ENDBRANCH   7  14
ENDBRANCH   3   6
ENDBRANCH   1   2
BRANCH   1  25
ATOM     25  C   UNL A   1      39.393  22.326  26.270  1.00  0.00     0.023 C 
BRANCH  25  26
ATOM     26  C   UNL A   1      39.539  20.899  25.750  1.00  0.00     0.023 C 
BRANCH  26  27
ATOM     27  C   UNL A   1      40.401  19.998  26.621  1.00  0.00     0.116 C 
BRANCH  27  28
ATOM     28  N   UNL A   1      41.668  19.626  26.002  1.00  0.00    -0.352 N 
ATOM     29  C   UNL A   1      42.752  20.434  25.755  1.00  0.00     0.251 C 
ATOM     30  H   UNL A   1      41.757  18.685  25.730  1.00  0.00     0.163 HD
ATOM     31  O   UNL A   1      43.715  20.014  25.125  1.00  0.00    -0.269 OA
BRANCH  29  32
ATOM     32  C   UNL A   1      42.700  21.828  26.232  1.00  0.00     0.039 A 
ATOM     33  C   UNL A   1      42.833  22.081  27.597  1.00  0.00     0.014 A 
ATOM     34  C   UNL A   1      42.635  22.875  25.309  1.00  0.00     0.014 A 
ATOM     35  C   UNL A   1      42.973  23.399  28.031  1.00  0.00     0.010 A 
ATOM     36  C   UNL A   1      42.868  24.174  25.736  1.00  0.00     0.010 A 
ATOM     37  C   UNL A   1      43.036  24.450  27.101  1.00  0.00    -0.014 A 
BRANCH  37  38
ATOM     38  C   UNL A   1      43.266  25.850  27.539  1.00  0.00     0.031 A 
ATOM     39  C   UNL A   1      44.651  26.433  27.472  1.00  0.00     0.074 A 
ATOM     40  C   UNL A   1      42.244  26.572  28.042  1.00  0.00     0.049 A 
ATOM     41  N   UNL A   1      45.074  27.605  27.864  1.00  0.00    -0.248 NA
ATOM     42  C   UNL A   1      45.706  25.568  26.918  1.00  0.00     0.031 C 
ATOM     43  C   UNL A   1      40.867  26.096  28.193  1.00  0.00     0.029 A 
ATOM     44  N   UNL A   1      42.203  27.856  28.523  1.00  0.00    -0.354 N 
ATOM     45  C   UNL A   1      46.442  27.617  27.613  1.00  0.00     0.074 A 
ATOM     46  C   UNL A   1      46.787  26.307  27.106  1.00  0.00     0.031 C 
ATOM     47  C   UNL A   1      40.112  27.086  28.696  1.00  0.00     0.029 A 
ATOM     48  C   UNL A   1      40.957  28.248  28.956  1.00  0.00     0.049 A 
ATOM     49  H   UNL A   1      42.994  28.443  28.557  1.00  0.00     0.167 HD
ATOM     50  C   UNL A   1      47.323  28.636  27.764  1.00  0.00     0.034 A 
ATOM     51  C   UNL A   1      40.547  29.405  29.511  1.00  0.00     0.034 A 
ATOM     52  C   UNL A   1      46.957  29.938  28.263  1.00  0.00     0.049 A 
ATOM     53  C   UNL A   1      41.555  30.510  29.710  1.00  0.00     0.074 A 
ATOM     54  C   UNL A   1      47.756  31.057  28.414  1.00  0.00     0.029 A 
ATOM     55  N   UNL A   1      45.688  30.294  28.703  1.00  0.00    -0.354 N 
ATOM     56  N   UNL A   1      42.836  30.522  29.419  1.00  0.00    -0.248 NA
ATOM     57  C   UNL A   1      41.062  31.760  30.302  1.00  0.00     0.031 C 
ATOM     58  C   UNL A   1      46.993  32.061  29.018  1.00  0.00     0.029 A 
ATOM     59  C   UNL A   1      45.692  31.603  29.158  1.00  0.00     0.049 A 
ATOM     60  H   UNL A   1      44.900  29.703  28.693  1.00  0.00     0.167 HD
ATOM     61  C   UNL A   1      43.291  31.794  29.759  1.00  0.00     0.074 A 
ATOM     62  C   UNL A   1      42.144  32.523  30.261  1.00  0.00     0.031 C 
ATOM     63  C   UNL A   1      44.540  32.315  29.661  1.00  0.00     0.034 A 
BRANCH  50  64
ATOM     64  C   UNL A   1      48.765  28.369  27.406  1.00  0.00     0.023 A 
ATOM     65  C   UNL A   1      49.250  28.563  26.100  1.00  0.00     0.031 A 
ATOM     66  C   UNL A   1      49.665  27.896  28.377  1.00  0.00     0.131 A 
ATOM     67  C   UNL A   1      50.572  28.216  25.784  1.00  0.00     0.055 A 
ATOM     68  C   UNL A   1      51.003  27.636  28.076  1.00  0.00     0.041 A 
ATOM     69  F   UNL A   1      49.255  27.667  29.635  1.00  0.00    -0.206 F 
ATOM     70  C   UNL A   1      51.460  27.781  26.770  1.00  0.00     0.022 A 
BRANCH  67  71
ATOM     71  S   UNL A   1      51.070  28.200  24.041  1.00  0.00     0.124 S 
ATOM     72  O   UNL A   1      51.519  29.579  23.851  1.00  0.00    -0.237 OA
ATOM     73  O   UNL A   1      52.112  27.181  24.018  1.00  0.00    -0.237 OA
ATOM     74  O   UNL A   1      49.839  27.852  23.336  1.00  0.00    -0.744 OA
ENDBRANCH  67  71
ENDBRANCH  50  64
BRANCH  51  75
ATOM     75  C   UNL A   1      39.127  29.586  29.934  1.00  0.00     0.023 A 
ATOM     76  C   UNL A   1      38.221  30.311  29.141  1.00  0.00     0.031 A 
ATOM     77  C   UNL A   1      38.667  29.089  31.167  1.00  0.00     0.131 A 
ATOM     78  C   UNL A   1      36.924  30.568  29.614  1.00  0.00     0.055 A 
ATOM     79  C   UNL A   1      37.356  29.293  31.604  1.00  0.00     0.041 A 
ATOM     80  F   UNL A   1      39.487  28.389  31.967  1.00  0.00    -0.206 F 
ATOM     81  C   UNL A   1      36.481  30.051  30.833  1.00  0.00     0.022 A 
BRANCH  78  82
ATOM     82  S   UNL A   1      35.860  31.687  28.663  1.00  0.00     0.124 S 
ATOM     83  O   UNL A   1      35.506  30.858  27.518  1.00  0.00    -0.237 OA
ATOM     84  O   UNL A   1      34.786  31.963  29.613  1.00  0.00    -0.237 OA
ATOM     85  O   UNL A   1      36.736  32.819  28.370  1.00  0.00    -0.744 OA
ENDBRANCH  78  82
ENDBRANCH  51  75
BRANCH  63  86
ATOM     86  C   UNL A   1      44.718  33.762  30.056  1.00  0.00     0.023 A 
ATOM     87  C   UNL A   1      44.513  34.812  29.144  1.00  0.00     0.031 A 
ATOM     88  C   UNL A   1      45.102  34.092  31.369  1.00  0.00     0.131 A 
ATOM     89  C   UNL A   1      44.749  36.137  29.541  1.00  0.00     0.055 A 
ATOM     90  C   UNL A   1      45.267  35.416  31.776  1.00  0.00     0.041 A 
ATOM     91  F   UNL A   1      45.316  33.131  32.281  1.00  0.00    -0.206 F 
ATOM     92  C   UNL A   1      45.103  36.447  30.856  1.00  0.00     0.022 A 
BRANCH  89  93
ATOM     93  S   UNL A   1      44.686  37.446  28.286  1.00  0.00     0.124 S 
ATOM     94  O   UNL A   1      43.367  37.237  27.698  1.00  0.00    -0.237 OA
ATOM     95  O   UNL A   1      44.841  38.655  29.089  1.00  0.00    -0.237 OA
ATOM     96  O   UNL A   1      45.813  37.136  27.409  1.00  0.00    -0.744 OA
ENDBRANCH  89  93
ENDBRANCH  63  86
ENDBRANCH  37  38
ENDBRANCH  29  32
ENDBRANCH  27  28
ENDBRANCH  26  27
ENDBRANCH  25  26
ENDBRANCH   1  25
TORSDOF 20
ENDMDL
MODEL 3
REMARK VINA RESULT:      -9.7      1.647      7.898
REMARK SMILES COC(CNS(=O)(=O)c1ccc(Cl)c(C(=O)NCCCCNC(=O)c2ccc(-c3c4nc(c(-c5cc(S(=O)(=O)[O-])ccc5F)c5ccc([nH]5)c(-c5cc(S(=O)(=O)[O-])ccc5F)c5nc(c(-c6cc(S(=O)(=O)[O-])ccc6F)c6ccc3[nH]6)C=C5)C=C4)cc2)c1Cl)OC
REMARK SMILES IDX 18 1 17 2 15 3 16 4 14 6 9 7 10 8 88 9 11 10 89 11 12 12
REMARK SMILES IDX 13 13 6 14 7 15 8 16 5 17 4 19 3 20 2 21 1 22 90 23 91 24
REMARK SMILES IDX 19 25 20 26 21 27 22 28 23 29 24 31 25 32 26 33 87 34 27 35
REMARK SMILES IDX 86 36 28 37 29 38 30 39 80 40 31 41 85 42 79 43 81 44 32 45
REMARK SMILES IDX 84 46 78 47 77 48 33 50 65 51 45 52 64 53 46 54 49 55 63 56
REMARK SMILES IDX 82 57 47 58 48 59 62 61 83 62 50 63 34 64 35 65 43 66 36 67
REMARK SMILES IDX 42 68 44 69 41 70 37 71 38 72 39 73 40 74 66 75 67 76 75 77
REMARK SMILES IDX 68 78 74 79 76 80 73 81 69 82 70 83 71 84 72 85 51 86 52 87
REMARK SMILES IDX 60 88 53 89 59 90 61 91 58 92 54 93 55 94 56 95 57 96
REMARK H PARENT 17 5 5 18 22 30 81 49 49 60
REMARK Flexibility Score: inf
ROOT
ATOM      1  C   UNL A   1      37.949  22.906  26.066  1.00  0.00     0.116 C 
ENDROOT
BRANCH   1   2
ATOM      2  N   UNL A   1      37.568  22.952  24.674  1.00  0.00    -0.352 N 
ATOM      3  C   UNL A   1      36.508  22.571  23.902  1.00  0.00     0.254 C 
ATOM      4  O   UNL A   1      36.658  22.955  22.737  1.00  0.00    -0.269 OA
ATOM      5  H   UNL A   1      38.270  23.376  24.129  1.00  0.00     0.163 HD
BRANCH   3   6
ATOM      6  C   UNL A   1      35.199  21.914  24.302  1.00  0.00     0.078 A 
ATOM      7  C   UNL A   1      32.847  22.400  24.881  1.00  0.00     0.101 A 
ATOM      8  C   UNL A   1      32.792  21.264  25.683  1.00  0.00     0.025 A 
ATOM      9  C   UNL A   1      34.010  22.698  24.145  1.00  0.00     0.075 A 
ATOM     10  C   UNL A   1      33.853  20.380  25.660  1.00  0.00     0.023 A 
ATOM     11  Cl  UNL A   1      33.863  23.840  22.827  1.00  0.00    -0.082 Cl
ATOM     12  C   UNL A   1      35.025  20.674  24.943  1.00  0.00     0.055 A 
ATOM     13  Cl  UNL A   1      35.958  19.251  24.685  1.00  0.00    -0.083 Cl
BRANCH   7  14
ATOM     14  S   UNL A   1      31.380  23.395  24.857  1.00  0.00     0.242 S 
ATOM     15  O   UNL A   1      30.537  22.951  25.952  1.00  0.00    -0.207 OA
ATOM     16  O   UNL A   1      30.890  23.409  23.501  1.00  0.00    -0.207 OA
BRANCH  14  17
ATOM     17  N   UNL A   1      31.838  24.945  25.227  1.00  0.00    -0.206 NA
ATOM     18  H   UNL A   1      32.563  24.867  25.939  1.00  0.00     0.141 HD
BRANCH  17  19
ATOM     19  C   UNL A   1      30.878  25.937  25.724  1.00  0.00     0.161 C 
BRANCH  19  20
ATOM     20  C   UNL A   1      31.256  27.415  25.418  1.00  0.00     0.263 C 
BRANCH  20  21
ATOM     21  O   UNL A   1      30.811  27.977  24.183  1.00  0.00    -0.355 OA
ATOM     22  C   UNL A   1      30.195  27.119  23.245  1.00  0.00     0.198 C 
ENDBRANCH  20  21
BRANCH  20  23
ATOM     23  O   UNL A   1      32.569  27.787  25.834  1.00  0.00    -0.355 OA
ATOM     24  C   UNL A   1      33.584  27.833  24.855  1.00  0.00     0.198 C 
ENDBRANCH  20  23
ENDBRANCH  19  20
ENDBRANCH  17  19
ENDBRANCH  14  17
ENDBRANCH   7  14
ENDBRANCH   3   6
ENDBRANCH   1   2
BRANCH   1  25
ATOM     25  C   UNL A   1      39.308  22.223  26.224  1.00  0.00     0.023 C 
BRANCH  25  26
ATOM     26  C   UNL A   1      39.373  20.793  25.697  1.00  0.00     0.023 C 
BRANCH  26  27
ATOM     27  C   UNL A   1      40.071  19.811  26.626  1.00  0.00     0.116 C 
BRANCH  27  28
ATOM     28  N   UNL A   1      41.252  19.189  26.037  1.00  0.00    -0.352 N 
ATOM     29  C   UNL A   1      42.454  19.784  25.735  1.00  0.00     0.251 C 
ATOM     30  H   UNL A   1      41.179  18.229  25.834  1.00  0.00     0.163 HD
ATOM     31  O   UNL A   1      43.326  19.165  25.137  1.00  0.00    -0.269 OA
BRANCH  29  32
ATOM     32  C   UNL A   1      42.641  21.197  26.111  1.00  0.00     0.039 A 
ATOM     33  C   UNL A   1      42.833  21.520  27.453  1.00  0.00     0.014 A 
ATOM     34  C   UNL A   1      42.739  22.173  25.115  1.00  0.00     0.014 A 
ATOM     35  C   UNL A   1      43.196  22.823  27.792  1.00  0.00     0.010 A 
ATOM     36  C   UNL A   1      43.190  23.442  25.447  1.00  0.00     0.010 A 
ATOM     37  C   UNL A   1      43.421  23.781  26.789  1.00  0.00    -0.014 A 
BRANCH  37  38
ATOM     38  C   UNL A   1      43.886  25.150  27.125  1.00  0.00     0.031 A 
ATOM     39  C   UNL A   1      42.919  26.143  27.709  1.00  0.00     0.074 A 
ATOM     40  C   UNL A   1      45.157  25.512  26.854  1.00  0.00     0.049 A 
ATOM     41  N   UNL A   1      43.106  27.401  28.009  1.00  0.00    -0.248 NA
ATOM     42  C   UNL A   1      41.550  25.662  27.960  1.00  0.00     0.031 C 
ATOM     43  C   UNL A   1      46.172  24.645  26.250  1.00  0.00     0.029 A 
ATOM     44  N   UNL A   1      45.813  26.701  27.047  1.00  0.00    -0.354 N 
ATOM     45  C   UNL A   1      41.881  27.864  28.476  1.00  0.00     0.074 A 
ATOM     46  C   UNL A   1      40.941  26.772  28.347  1.00  0.00     0.031 C 
ATOM     47  C   UNL A   1      47.328  25.322  26.155  1.00  0.00     0.029 A 
ATOM     48  C   UNL A   1      47.127  26.684  26.639  1.00  0.00     0.049 A 
ATOM     49  H   UNL A   1      45.382  27.495  27.440  1.00  0.00     0.167 HD
ATOM     50  C   UNL A   1      41.575  29.080  28.991  1.00  0.00     0.034 A 
ATOM     51  C   UNL A   1      48.058  27.659  26.642  1.00  0.00     0.034 A 
ATOM     52  C   UNL A   1      42.529  30.154  29.120  1.00  0.00     0.049 A 
ATOM     53  C   UNL A   1      47.681  29.017  27.180  1.00  0.00     0.074 A 
ATOM     54  C   UNL A   1      42.341  31.409  29.669  1.00  0.00     0.029 A 
ATOM     55  N   UNL A   1      43.847  30.103  28.685  1.00  0.00    -0.354 N 
ATOM     56  N   UNL A   1      46.530  29.424  27.666  1.00  0.00    -0.248 NA
ATOM     57  C   UNL A   1      48.730  30.044  27.181  1.00  0.00     0.031 C 
ATOM     58  C   UNL A   1      43.518  32.143  29.493  1.00  0.00     0.029 A 
ATOM     59  C   UNL A   1      44.473  31.318  28.920  1.00  0.00     0.049 A 
ATOM     60  H   UNL A   1      44.275  29.320  28.269  1.00  0.00     0.167 HD
ATOM     61  C   UNL A   1      46.731  30.744  28.065  1.00  0.00     0.074 A 
ATOM     62  C   UNL A   1      48.116  31.056  27.776  1.00  0.00     0.031 C 
ATOM     63  C   UNL A   1      45.854  31.616  28.622  1.00  0.00     0.034 A 
BRANCH  50  64
ATOM     64  C   UNL A   1      40.149  29.312  29.431  1.00  0.00     0.023 A 
ATOM     65  C   UNL A   1      39.769  29.228  30.782  1.00  0.00     0.031 A 
ATOM     66  C   UNL A   1      39.151  29.603  28.485  1.00  0.00     0.131 A 
ATOM     67  C   UNL A   1      38.420  29.358  31.140  1.00  0.00     0.055 A 
ATOM     68  C   UNL A   1      37.823  29.818  28.858  1.00  0.00     0.041 A 
ATOM     69  F   UNL A   1      39.447  29.670  27.177  1.00  0.00    -0.206 F 
ATOM     70  C   UNL A   1      37.447  29.681  30.191  1.00  0.00     0.022 A 
BRANCH  67  71
ATOM     71  S   UNL A   1      37.932  28.952  32.839  1.00  0.00     0.124 S 
ATOM     72  O   UNL A   1      36.587  29.522  32.903  1.00  0.00    -0.237 OA
ATOM     73  O   UNL A   1      38.009  27.496  32.852  1.00  0.00    -0.237 OA
ATOM     74  O   UNL A   1      38.929  29.639  33.655  1.00  0.00    -0.744 OA
ENDBRANCH  67  71
ENDBRANCH  50  64
BRANCH  51  75
ATOM     75  C   UNL A   1      49.429  27.404  26.111  1.00  0.00     0.023 A 
ATOM     76  C   UNL A   1      49.768  27.741  24.790  1.00  0.00     0.031 A 
ATOM     77  C   UNL A   1      50.406  26.765  26.896  1.00  0.00     0.131 A 
ATOM     78  C   UNL A   1      51.026  27.385  24.276  1.00  0.00     0.055 A 
ATOM     79  C   UNL A   1      51.677  26.471  26.399  1.00  0.00     0.041 A 
ATOM     80  F   UNL A   1      50.138  26.420  28.166  1.00  0.00    -0.206 F 
ATOM     81  C   UNL A   1      51.987  26.766  25.077  1.00  0.00     0.022 A 
BRANCH  78  82
ATOM     82  S   UNL A   1      51.344  27.641  22.509  1.00  0.00     0.124 S 
ATOM     83  O   UNL A   1      50.371  26.744  21.899  1.00  0.00    -0.237 OA
ATOM     84  O   UNL A   1      51.083  29.070  22.358  1.00  0.00    -0.237 OA
ATOM     85  O   UNL A   1      52.742  27.246  22.355  1.00  0.00    -0.744 OA
ENDBRANCH  78  82
ENDBRANCH  51  75
BRANCH  63  86
ATOM     86  C   UNL A   1      46.384  32.977  29.006  1.00  0.00     0.023 A 
ATOM     87  C   UNL A   1      46.918  33.233  30.281  1.00  0.00     0.031 A 
ATOM     88  C   UNL A   1      46.350  34.034  28.078  1.00  0.00     0.131 A 
ATOM     89  C   UNL A   1      47.343  34.530  30.612  1.00  0.00     0.055 A 
ATOM     90  C   UNL A   1      46.839  35.303  28.391  1.00  0.00     0.041 A 
ATOM     91  F   UNL A   1      45.847  33.849  26.848  1.00  0.00    -0.206 F 
ATOM     92  C   UNL A   1      47.327  35.560  29.669  1.00  0.00     0.022 A 
BRANCH  89  93
ATOM     93  S   UNL A   1      47.823  34.877  32.326  1.00  0.00     0.124 S 
ATOM     94  O   UNL A   1      47.737  33.555  32.938  1.00  0.00    -0.237 OA
ATOM     95  O   UNL A   1      49.169  35.420  32.169  1.00  0.00    -0.237 OA
ATOM     96  O   UNL A   1      46.818  35.836  32.777  1.00  0.00    -0.744 OA
ENDBRANCH  89  93
ENDBRANCH  63  86
ENDBRANCH  37  38
ENDBRANCH  29  32
ENDBRANCH  27  28
ENDBRANCH  26  27
ENDBRANCH  25  26
ENDBRANCH   1  25
TORSDOF 20
ENDMDL
