MODEL 1
REMARK VINA RESULT:     -12.8      0.000      0.000
REMARK SMILES O=C(NCCCCNC(=O)[C@H]1CC=CC[C@@H]1C(=O)NC1CCCCC1)c1ccc(-c2c3nc(c(-c4cc(S(=O)(=O)[O-])ccc4F)c4ccc([nH]4)c(-c4cc(S(=O)(=O)[O-])ccc4F)c4nc(c(-c5cc(S(=O)(=O)[O-])ccc5F)c5ccc2[nH]5)C=C4)C=C3)cc1
REMARK SMILES IDX 5 1 4 2 3 3 1 4 2 5 26 7 27 8 88 9 28 10 87 11 29 12 30 13
REMARK SMILES IDX 31 14 81 15 32 16 86 17 80 18 82 19 33 20 85 21 79 22 78 23
REMARK SMILES IDX 34 25 66 26 46 27 65 28 47 29 50 30 64 31 83 32 48 33 49 34
REMARK SMILES IDX 63 36 84 37 51 38 35 39 36 40 44 41 37 42 43 43 45 44 42 45
REMARK SMILES IDX 38 46 39 47 40 48 41 49 67 50 68 51 76 52 69 53 75 54 77 55
REMARK SMILES IDX 74 56 70 57 71 58 72 59 73 60 52 61 53 62 61 63 54 64 60 65
REMARK SMILES IDX 62 66 59 67 55 68 56 69 57 70 58 71 6 72 7 73 8 74 9 75
REMARK SMILES IDX 10 77 11 78 12 79 16 80 13 81 15 82 14 83 17 84 18 85 19 86
REMARK SMILES IDX 20 88 21 89 25 90 22 91 24 92 23 93
REMARK H PARENT 3 6 82 24 50 35 8 76 19 87
REMARK Flexibility Score: inf
ROOT
ATOM      1  C   UNL A   1      31.793  28.642  25.468  1.00  0.00     0.023 C 
ENDROOT
BRANCH   1   2
ATOM      2  C   UNL A   1      32.901  29.598  25.889  1.00  0.00     0.116 C 
BRANCH   2   3
ATOM      3  N   UNL A   1      32.448  30.855  26.480  1.00  0.00    -0.352 N 
ATOM      4  O   UNL A   1      32.657  32.713  27.769  1.00  0.00    -0.269 OA
ATOM      5  C   UNL A   1      33.165  31.704  27.304  1.00  0.00     0.251 C 
ATOM      6  H   UNL A   1      31.527  31.130  26.267  1.00  0.00     0.163 HD
BRANCH   5   7
ATOM      7  C   UNL A   1      34.553  31.320  27.643  1.00  0.00     0.039 A 
ATOM      8  C   UNL A   1      34.821  30.002  28.005  1.00  0.00     0.014 A 
ATOM      9  C   UNL A   1      35.536  32.305  27.762  1.00  0.00     0.014 A 
ATOM     10  C   UNL A   1      35.980  29.721  28.707  1.00  0.00     0.010 A 
ATOM     11  C   UNL A   1      36.762  31.984  28.355  1.00  0.00     0.010 A 
ATOM     12  C   UNL A   1      36.970  30.705  28.892  1.00  0.00    -0.014 A 
BRANCH  12  13
ATOM     13  C   UNL A   1      38.197  30.331  29.648  1.00  0.00     0.031 A 
ATOM     14  C   UNL A   1      38.396  30.739  31.085  1.00  0.00     0.074 A 
ATOM     15  C   UNL A   1      39.085  29.514  29.046  1.00  0.00     0.049 A 
ATOM     16  N   UNL A   1      39.374  30.429  31.900  1.00  0.00    -0.248 NA
ATOM     17  C   UNL A   1      37.380  31.617  31.684  1.00  0.00     0.031 C 
ATOM     18  C   UNL A   1      38.998  29.064  27.652  1.00  0.00     0.029 A 
ATOM     19  N   UNL A   1      40.196  28.873  29.528  1.00  0.00    -0.354 N 
ATOM     20  C   UNL A   1      39.108  31.091  33.094  1.00  0.00     0.074 A 
ATOM     21  C   UNL A   1      37.887  31.841  32.889  1.00  0.00     0.031 C 
ATOM     22  C   UNL A   1      39.948  28.149  27.424  1.00  0.00     0.029 A 
ATOM     23  C   UNL A   1      40.773  28.018  28.618  1.00  0.00     0.049 A 
ATOM     24  H   UNL A   1      40.547  29.011  30.437  1.00  0.00     0.167 HD
ATOM     25  C   UNL A   1      39.817  31.071  34.252  1.00  0.00     0.034 A 
ATOM     26  C   UNL A   1      41.855  27.224  28.721  1.00  0.00     0.034 A 
ATOM     27  C   UNL A   1      41.026  30.302  34.442  1.00  0.00     0.049 A 
ATOM     28  C   UNL A   1      42.606  27.204  30.021  1.00  0.00     0.074 A 
ATOM     29  C   UNL A   1      41.829  30.215  35.568  1.00  0.00     0.029 A 
ATOM     30  N   UNL A   1      41.604  29.477  33.485  1.00  0.00    -0.354 N 
ATOM     31  N   UNL A   1      42.354  27.867  31.126  1.00  0.00    -0.248 NA
ATOM     32  C   UNL A   1      43.786  26.337  30.087  1.00  0.00     0.031 C 
ATOM     33  C   UNL A   1      42.915  29.381  35.275  1.00  0.00     0.029 A 
ATOM     34  C   UNL A   1      42.757  28.893  33.988  1.00  0.00     0.049 A 
ATOM     35  H   UNL A   1      41.246  29.329  32.580  1.00  0.00     0.167 HD
ATOM     36  C   UNL A   1      43.356  27.503  32.018  1.00  0.00     0.074 A 
ATOM     37  C   UNL A   1      44.182  26.525  31.336  1.00  0.00     0.031 C 
ATOM     38  C   UNL A   1      43.588  27.949  33.278  1.00  0.00     0.034 A 
BRANCH  25  39
ATOM     39  C   UNL A   1      39.330  31.942  35.387  1.00  0.00     0.023 A 
ATOM     40  C   UNL A   1      38.645  31.410  36.494  1.00  0.00     0.031 A 
ATOM     41  C   UNL A   1      39.554  33.331  35.360  1.00  0.00     0.131 A 
ATOM     42  C   UNL A   1      38.162  32.266  37.498  1.00  0.00     0.055 A 
ATOM     43  C   UNL A   1      39.132  34.169  36.395  1.00  0.00     0.041 A 
ATOM     44  F   UNL A   1      40.184  33.901  34.320  1.00  0.00    -0.206 F 
ATOM     45  C   UNL A   1      38.422  33.638  37.468  1.00  0.00     0.022 A 
BRANCH  42  46
ATOM     46  S   UNL A   1      37.090  31.577  38.789  1.00  0.00     0.124 S 
ATOM     47  O   UNL A   1      35.953  32.494  38.749  1.00  0.00    -0.237 OA
ATOM     48  O   UNL A   1      36.837  30.226  38.300  1.00  0.00    -0.237 OA
ATOM     49  O   UNL A   1      37.907  31.661  39.997  1.00  0.00    -0.744 OA
ENDBRANCH  42  46
ENDBRANCH  25  39
BRANCH  26  50
ATOM     50  C   UNL A   1      42.313  26.431  27.545  1.00  0.00     0.023 A 
ATOM     51  C   UNL A   1      41.961  25.081  27.391  1.00  0.00     0.031 A 
ATOM     52  C   UNL A   1      43.125  27.019  26.558  1.00  0.00     0.131 A 
ATOM     53  C   UNL A   1      42.447  24.356  26.292  1.00  0.00     0.055 A 
ATOM     54  C   UNL A   1      43.557  26.310  25.438  1.00  0.00     0.041 A 
ATOM     55  F   UNL A   1      43.487  28.308  26.655  1.00  0.00    -0.206 F 
ATOM     56  C   UNL A   1      43.228  24.966  25.307  1.00  0.00     0.022 A 
BRANCH  53  57
ATOM     57  S   UNL A   1      42.110  22.576  26.207  1.00  0.00     0.124 S 
ATOM     58  O   UNL A   1      40.653  22.549  26.174  1.00  0.00    -0.237 OA
ATOM     59  O   UNL A   1      42.789  22.200  24.972  1.00  0.00    -0.237 OA
ATOM     60  O   UNL A   1      42.716  22.058  27.432  1.00  0.00    -0.744 OA
ENDBRANCH  53  57
ENDBRANCH  26  50
BRANCH  38  61
ATOM     61  C   UNL A   1      44.790  27.368  33.978  1.00  0.00     0.023 A 
ATOM     62  C   UNL A   1      44.684  26.203  34.758  1.00  0.00     0.031 A 
ATOM     63  C   UNL A   1      46.034  28.016  33.918  1.00  0.00     0.131 A 
ATOM     64  C   UNL A   1      45.783  25.763  35.509  1.00  0.00     0.055 A 
ATOM     65  C   UNL A   1      47.142  27.540  34.621  1.00  0.00     0.041 A 
ATOM     66  F   UNL A   1      46.189  29.134  33.190  1.00  0.00    -0.206 F 
ATOM     67  C   UNL A   1      47.015  26.417  35.435  1.00  0.00     0.022 A 
BRANCH  64  68
ATOM     68  S   UNL A   1      45.544  24.393  36.674  1.00  0.00     0.124 S 
ATOM     69  O   UNL A   1      44.879  23.398  35.840  1.00  0.00    -0.237 OA
ATOM     70  O   UNL A   1      46.914  24.081  37.070  1.00  0.00    -0.237 OA
ATOM     71  O   UNL A   1      44.713  24.978  37.724  1.00  0.00    -0.744 OA
ENDBRANCH  64  68
ENDBRANCH  38  61
ENDBRANCH  12  13
ENDBRANCH   5   7
ENDBRANCH   2   3
ENDBRANCH   1   2
BRANCH   1  72
ATOM     72  C   UNL A   1      31.549  27.487  26.430  1.00  0.00     0.023 C 
BRANCH  72  73
ATOM     73  C   UNL A   1      30.982  26.220  25.790  1.00  0.00     0.116 C 
BRANCH  73  74
ATOM     74  N   UNL A   1      30.971  25.133  26.743  1.00  0.00    -0.356 N 
ATOM     75  C   UNL A   1      31.401  23.846  26.656  1.00  0.00     0.224 C 
ATOM     76  H   UNL A   1      30.580  25.367  27.616  1.00  0.00     0.163 HD
ATOM     77  O   UNL A   1      31.184  23.143  27.645  1.00  0.00    -0.275 OA
BRANCH  75  78
ATOM     78  C   UNL A   1      32.131  23.314  25.409  1.00  0.00     0.095 C 
ATOM     79  C   UNL A   1      33.430  24.124  25.217  1.00  0.00     0.041 C 
ATOM     80  C   UNL A   1      32.419  21.795  25.520  1.00  0.00     0.095 C 
ATOM     81  C   UNL A   1      34.573  23.666  26.074  1.00  0.00    -0.030 C 
ATOM     82  C   UNL A   1      33.417  21.523  26.678  1.00  0.00     0.041 C 
ATOM     83  C   UNL A   1      34.556  22.510  26.755  1.00  0.00    -0.030 C 
BRANCH  80  84
ATOM     84  C   UNL A   1      33.018  21.225  24.224  1.00  0.00     0.224 C 
ATOM     85  O   UNL A   1      33.213  21.932  23.228  1.00  0.00    -0.275 OA
ATOM     86  N   UNL A   1      33.351  19.926  24.039  1.00  0.00    -0.353 N 
ATOM     87  H   UNL A   1      33.503  19.721  23.089  1.00  0.00     0.163 HD
BRANCH  86  88
ATOM     88  C   UNL A   1      33.545  18.740  24.885  1.00  0.00     0.082 C 
ATOM     89  C   UNL A   1      32.286  17.895  25.010  1.00  0.00     0.025 C 
ATOM     90  C   UNL A   1      34.693  17.912  24.270  1.00  0.00     0.025 C 
ATOM     91  C   UNL A   1      32.510  16.520  25.632  1.00  0.00     0.002 C 
ATOM     92  C   UNL A   1      34.893  16.545  24.913  1.00  0.00     0.002 C 
ATOM     93  C   UNL A   1      33.602  15.745  24.918  1.00  0.00     0.000 C 
ENDBRANCH  86  88
ENDBRANCH  80  84
ENDBRANCH  75  78
ENDBRANCH  73  74
ENDBRANCH  72  73
ENDBRANCH   1  72
TORSDOF 16
ENDMDL
MODEL 2
REMARK VINA RESULT:     -12.7      5.096      7.469
REMARK SMILES O=C(NCCCCNC(=O)[C@H]1CC=CC[C@@H]1C(=O)NC1CCCCC1)c1ccc(-c2c3nc(c(-c4cc(S(=O)(=O)[O-])ccc4F)c4ccc([nH]4)c(-c4cc(S(=O)(=O)[O-])ccc4F)c4nc(c(-c5cc(S(=O)(=O)[O-])ccc5F)c5ccc2[nH]5)C=C4)C=C3)cc1
REMARK SMILES IDX 5 1 4 2 3 3 1 4 2 5 26 7 27 8 88 9 28 10 87 11 29 12 30 13
REMARK SMILES IDX 31 14 81 15 32 16 86 17 80 18 82 19 33 20 85 21 79 22 78 23
REMARK SMILES IDX 34 25 66 26 46 27 65 28 47 29 50 30 64 31 83 32 48 33 49 34
REMARK SMILES IDX 63 36 84 37 51 38 35 39 36 40 44 41 37 42 43 43 45 44 42 45
REMARK SMILES IDX 38 46 39 47 40 48 41 49 67 50 68 51 76 52 69 53 75 54 77 55
REMARK SMILES IDX 74 56 70 57 71 58 72 59 73 60 52 61 53 62 61 63 54 64 60 65
REMARK SMILES IDX 62 66 59 67 55 68 56 69 57 70 58 71 6 72 7 73 8 74 9 75
REMARK SMILES IDX 10 77 11 78 12 79 16 80 13 81 15 82 14 83 17 84 18 85 19 86
REMARK SMILES IDX 20 88 21 89 25 90 22 91 24 92 23 93
REMARK H PARENT 3 6 82 24 50 35 8 76 19 87
REMARK Flexibility Score: inf
ROOT
ATOM      1  C   UNL A   1      36.805  21.872  24.099  1.00  0.00     0.023 C 
ENDROOT
BRANCH   1   2
ATOM      2  C   UNL A   1      37.205  21.470  25.512  1.00  0.00     0.116 C 
BRANCH   2   3
ATOM      3  N   UNL A   1      38.287  20.493  25.599  1.00  0.00    -0.352 N 
ATOM      4  O   UNL A   1      40.382  19.788  26.120  1.00  0.00    -0.269 OA
ATOM      5  C   UNL A   1      39.546  20.678  26.144  1.00  0.00     0.251 C 
ATOM      6  H   UNL A   1      38.100  19.600  25.228  1.00  0.00     0.163 HD
BRANCH   5   7
ATOM      7  C   UNL A   1      39.859  22.008  26.710  1.00  0.00     0.039 A 
ATOM      8  C   UNL A   1      39.243  23.135  26.170  1.00  0.00     0.014 A 
ATOM      9  C   UNL A   1      40.883  22.137  27.651  1.00  0.00     0.014 A 
ATOM     10  C   UNL A   1      39.811  24.378  26.387  1.00  0.00     0.010 A 
ATOM     11  C   UNL A   1      41.367  23.411  27.967  1.00  0.00     0.010 A 
ATOM     12  C   UNL A   1      40.880  24.539  27.289  1.00  0.00    -0.014 A 
BRANCH  12  13
ATOM     13  C   UNL A   1      41.436  25.906  27.482  1.00  0.00     0.031 A 
ATOM     14  C   UNL A   1      40.743  26.928  28.346  1.00  0.00     0.074 A 
ATOM     15  C   UNL A   1      42.646  26.176  26.950  1.00  0.00     0.049 A 
ATOM     16  N   UNL A   1      41.139  28.134  28.670  1.00  0.00    -0.248 NA
ATOM     17  C   UNL A   1      39.434  26.562  28.907  1.00  0.00     0.031 C 
ATOM     18  C   UNL A   1      43.404  25.262  26.088  1.00  0.00     0.029 A 
ATOM     19  N   UNL A   1      43.476  27.256  27.093  1.00  0.00    -0.354 N 
ATOM     20  C   UNL A   1      40.122  28.680  29.448  1.00  0.00     0.074 A 
ATOM     21  C   UNL A   1      39.079  27.679  29.526  1.00  0.00     0.031 C 
ATOM     22  C   UNL A   1      44.619  25.776  25.862  1.00  0.00     0.029 A 
ATOM     23  C   UNL A   1      44.696  27.094  26.478  1.00  0.00     0.049 A 
ATOM     24  H   UNL A   1      43.225  28.069  27.588  1.00  0.00     0.167 HD
ATOM     25  C   UNL A   1      40.069  29.900  30.041  1.00  0.00     0.034 A 
ATOM     26  C   UNL A   1      45.758  27.917  26.401  1.00  0.00     0.034 A 
ATOM     27  C   UNL A   1      41.129  30.879  29.964  1.00  0.00     0.049 A 
ATOM     28  C   UNL A   1      45.680  29.251  27.087  1.00  0.00     0.074 A 
ATOM     29  C   UNL A   1      41.178  32.148  30.518  1.00  0.00     0.029 A 
ATOM     30  N   UNL A   1      42.335  30.696  29.300  1.00  0.00    -0.354 N 
ATOM     31  N   UNL A   1      44.693  29.758  27.789  1.00  0.00    -0.248 NA
ATOM     32  C   UNL A   1      46.852  30.123  26.967  1.00  0.00     0.031 C 
ATOM     33  C   UNL A   1      42.387  32.749  30.146  1.00  0.00     0.029 A 
ATOM     34  C   UNL A   1      43.125  31.831  29.415  1.00  0.00     0.049 A 
ATOM     35  H   UNL A   1      42.593  29.878  28.815  1.00  0.00     0.167 HD
ATOM     36  C   UNL A   1      45.124  31.019  28.185  1.00  0.00     0.074 A 
ATOM     37  C   UNL A   1      46.478  31.169  27.687  1.00  0.00     0.031 C 
ATOM     38  C   UNL A   1      44.457  31.975  28.879  1.00  0.00     0.034 A 
BRANCH  25  39
ATOM     39  C   UNL A   1      38.805  30.262  30.785  1.00  0.00     0.023 A 
ATOM     40  C   UNL A   1      37.747  30.953  30.166  1.00  0.00     0.031 A 
ATOM     41  C   UNL A   1      38.654  29.912  32.140  1.00  0.00     0.131 A 
ATOM     42  C   UNL A   1      36.614  31.317  30.913  1.00  0.00     0.055 A 
ATOM     43  C   UNL A   1      37.496  30.216  32.859  1.00  0.00     0.041 A 
ATOM     44  F   UNL A   1      39.638  29.270  32.792  1.00  0.00    -0.206 F 
ATOM     45  C   UNL A   1      36.472  30.933  32.248  1.00  0.00     0.022 A 
BRANCH  42  46
ATOM     46  S   UNL A   1      35.377  32.401  30.146  1.00  0.00     0.124 S 
ATOM     47  O   UNL A   1      34.952  31.599  29.000  1.00  0.00    -0.237 OA
ATOM     48  O   UNL A   1      34.395  32.561  31.212  1.00  0.00    -0.237 OA
ATOM     49  O   UNL A   1      36.135  33.603  29.809  1.00  0.00    -0.744 OA
ENDBRANCH  42  46
ENDBRANCH  25  39
BRANCH  26  50
ATOM     50  C   UNL A   1      46.954  27.520  25.606  1.00  0.00     0.023 A 
ATOM     51  C   UNL A   1      47.086  27.877  24.255  1.00  0.00     0.031 A 
ATOM     52  C   UNL A   1      47.984  26.761  26.192  1.00  0.00     0.131 A 
ATOM     53  C   UNL A   1      48.207  27.448  23.528  1.00  0.00     0.055 A 
ATOM     54  C   UNL A   1      49.124  26.387  25.481  1.00  0.00     0.041 A 
ATOM     55  F   UNL A   1      47.909  26.397  27.482  1.00  0.00    -0.206 F 
ATOM     56  C   UNL A   1      49.234  26.721  24.136  1.00  0.00     0.022 A 
BRANCH  53  57
ATOM     57  S   UNL A   1      48.269  27.786  21.747  1.00  0.00     0.124 S 
ATOM     58  O   UNL A   1      46.927  28.296  21.492  1.00  0.00    -0.237 OA
ATOM     59  O   UNL A   1      49.353  28.760  21.663  1.00  0.00    -0.237 OA
ATOM     60  O   UNL A   1      48.561  26.479  21.164  1.00  0.00    -0.744 OA
ENDBRANCH  53  57
ENDBRANCH  26  50
BRANCH  38  61
ATOM     61  C   UNL A   1      45.206  33.260  29.126  1.00  0.00     0.023 A 
ATOM     62  C   UNL A   1      45.177  34.309  28.190  1.00  0.00     0.031 A 
ATOM     63  C   UNL A   1      46.002  33.413  30.272  1.00  0.00     0.131 A 
ATOM     64  C   UNL A   1      45.991  35.435  28.379  1.00  0.00     0.055 A 
ATOM     65  C   UNL A   1      46.766  34.562  30.484  1.00  0.00     0.041 A 
ATOM     66  F   UNL A   1      46.067  32.440  31.195  1.00  0.00    -0.206 F 
ATOM     67  C   UNL A   1      46.776  35.573  29.527  1.00  0.00     0.022 A 
BRANCH  64  68
ATOM     68  S   UNL A   1      46.099  36.660  27.046  1.00  0.00     0.124 S 
ATOM     69  O   UNL A   1      44.763  37.247  27.064  1.00  0.00    -0.237 OA
ATOM     70  O   UNL A   1      47.182  37.524  27.505  1.00  0.00    -0.237 OA
ATOM     71  O   UNL A   1      46.406  35.855  25.865  1.00  0.00    -0.744 OA
ENDBRANCH  64  68
ENDBRANCH  38  61
ENDBRANCH  12  13
ENDBRANCH   5   7
ENDBRANCH   2   3
ENDBRANCH   1   2
BRANCH   1  72
ATOM     72  C   UNL A   1      36.216  23.271  23.978  1.00  0.00     0.023 C 
BRANCH  72  73
ATOM     73  C   UNL A   1      35.729  23.886  25.291  1.00  0.00     0.116 C 
BRANCH  73  74
ATOM     74  N   UNL A   1      34.881  25.027  25.032  1.00  0.00    -0.356 N 
ATOM     75  C   UNL A   1      33.533  25.188  25.096  1.00  0.00     0.224 C 
ATOM     76  H   UNL A   1      35.370  25.837  24.759  1.00  0.00     0.163 HD
ATOM     77  O   UNL A   1      33.110  26.291  24.744  1.00  0.00    -0.275 OA
BRANCH  75  78
ATOM     78  C   UNL A   1      32.601  24.069  25.598  1.00  0.00     0.095 C 
ATOM     79  C   UNL A   1      31.165  24.626  25.679  1.00  0.00     0.041 C 
ATOM     80  C   UNL A   1      32.675  22.814  24.691  1.00  0.00     0.095 C 
ATOM     81  C   UNL A   1      30.434  24.637  24.369  1.00  0.00    -0.030 C 
ATOM     82  C   UNL A   1      32.128  23.144  23.275  1.00  0.00     0.041 C 
ATOM     83  C   UNL A   1      30.882  23.995  23.279  1.00  0.00    -0.030 C 
BRANCH  80  84
ATOM     84  C   UNL A   1      31.859  21.642  25.262  1.00  0.00     0.224 C 
ATOM     85  O   UNL A   1      30.850  21.824  25.954  1.00  0.00    -0.275 OA
ATOM     86  N   UNL A   1      32.174  20.336  25.094  1.00  0.00    -0.353 N 
ATOM     87  H   UNL A   1      31.669  19.759  25.711  1.00  0.00     0.163 HD
BRANCH  86  88
ATOM     88  C   UNL A   1      33.070  19.553  24.233  1.00  0.00     0.082 C 
ATOM     89  C   UNL A   1      34.073  18.728  25.025  1.00  0.00     0.025 C 
ATOM     90  C   UNL A   1      32.190  18.638  23.355  1.00  0.00     0.025 C 
ATOM     91  C   UNL A   1      34.827  17.689  24.198  1.00  0.00     0.002 C 
ATOM     92  C   UNL A   1      32.971  17.613  22.540  1.00  0.00     0.002 C 
ATOM     93  C   UNL A   1      33.884  16.784  23.428  1.00  0.00     0.000 C 
ENDBRANCH  86  88
ENDBRANCH  80  84
ENDBRANCH  75  78
ENDBRANCH  73  74
ENDBRANCH  72  73
ENDBRANCH   1  72
TORSDOF 16
ENDMDL
MODEL 3
REMARK VINA RESULT:     -12.7      5.028     10.174
REMARK SMILES O=C(NCCCCNC(=O)[C@H]1CC=CC[C@@H]1C(=O)NC1CCCCC1)c1ccc(-c2c3nc(c(-c4cc(S(=O)(=O)[O-])ccc4F)c4ccc([nH]4)c(-c4cc(S(=O)(=O)[O-])ccc4F)c4nc(c(-c5cc(S(=O)(=O)[O-])ccc5F)c5ccc2[nH]5)C=C4)C=C3)cc1
REMARK SMILES IDX 5 1 4 2 3 3 1 4 2 5 26 7 27 8 88 9 28 10 87 11 29 12 30 13
REMARK SMILES IDX 31 14 81 15 32 16 86 17 80 18 82 19 33 20 85 21 79 22 78 23
REMARK SMILES IDX 34 25 66 26 46 27 65 28 47 29 50 30 64 31 83 32 48 33 49 34
REMARK SMILES IDX 63 36 84 37 51 38 35 39 36 40 44 41 37 42 43 43 45 44 42 45
REMARK SMILES IDX 38 46 39 47 40 48 41 49 67 50 68 51 76 52 69 53 75 54 77 55
REMARK SMILES IDX 74 56 70 57 71 58 72 59 73 60 52 61 53 62 61 63 54 64 60 65
REMARK SMILES IDX 62 66 59 67 55 68 56 69 57 70 58 71 6 72 7 73 8 74 9 75
REMARK SMILES IDX 10 77 11 78 12 79 16 80 13 81 15 82 14 83 17 84 18 85 19 86
REMARK SMILES IDX 20 88 21 89 25 90 22 91 24 92 23 93
REMARK H PARENT 3 6 82 24 50 35 8 76 19 87
REMARK Flexibility Score: inf
ROOT
ATOM      1  C   UNL A   1      36.670  22.898  23.294  1.00  0.00     0.023 C 
ENDROOT
BRANCH   1   2
ATOM      2  C   UNL A   1      36.965  22.573  24.752  1.00  0.00     0.116 C 
BRANCH   2   3
ATOM      3  N   UNL A   1      37.748  21.359  24.972  1.00  0.00    -0.352 N 
ATOM      4  O   UNL A   1      39.455  20.146  25.850  1.00  0.00    -0.269 OA
ATOM      5  C   UNL A   1      38.862  21.212  25.780  1.00  0.00     0.251 C 
ATOM      6  H   UNL A   1      37.448  20.553  24.492  1.00  0.00     0.163 HD
BRANCH   5   7
ATOM      7  C   UNL A   1      39.337  22.403  26.516  1.00  0.00     0.039 A 
ATOM      8  C   UNL A   1      38.834  23.655  26.172  1.00  0.00     0.014 A 
ATOM      9  C   UNL A   1      40.397  22.284  27.418  1.00  0.00     0.014 A 
ATOM     10  C   UNL A   1      39.543  24.786  26.538  1.00  0.00     0.010 A 
ATOM     11  C   UNL A   1      41.029  23.439  27.891  1.00  0.00     0.010 A 
ATOM     12  C   UNL A   1      40.649  24.699  27.405  1.00  0.00    -0.014 A 
BRANCH  12  13
ATOM     13  C   UNL A   1      41.359  25.957  27.766  1.00  0.00     0.031 A 
ATOM     14  C   UNL A   1      42.710  26.297  27.189  1.00  0.00     0.074 A 
ATOM     15  C   UNL A   1      40.709  26.848  28.541  1.00  0.00     0.049 A 
ATOM     16  N   UNL A   1      43.420  27.385  27.348  1.00  0.00    -0.248 NA
ATOM     17  C   UNL A   1      43.354  25.285  26.338  1.00  0.00     0.031 C 
ATOM     18  C   UNL A   1      39.399  26.620  29.162  1.00  0.00     0.029 A 
ATOM     19  N   UNL A   1      41.020  28.134  28.895  1.00  0.00    -0.354 N 
ATOM     20  C   UNL A   1      44.603  27.182  26.643  1.00  0.00     0.074 A 
ATOM     21  C   UNL A   1      44.523  25.853  26.075  1.00  0.00     0.031 C 
ATOM     22  C   UNL A   1      38.978  27.755  29.734  1.00  0.00     0.029 A 
ATOM     23  C   UNL A   1      40.023  28.762  29.608  1.00  0.00     0.049 A 
ATOM     24  H   UNL A   1      41.872  28.568  28.663  1.00  0.00     0.167 HD
ATOM     25  C   UNL A   1      45.653  28.029  26.485  1.00  0.00     0.034 A 
ATOM     26  C   UNL A   1      39.958  30.005  30.119  1.00  0.00     0.034 A 
ATOM     27  C   UNL A   1      45.706  29.359  27.048  1.00  0.00     0.049 A 
ATOM     28  C   UNL A   1      41.124  30.927  29.909  1.00  0.00     0.074 A 
ATOM     29  C   UNL A   1      46.722  30.297  26.959  1.00  0.00     0.029 A 
ATOM     30  N   UNL A   1      44.695  29.947  27.797  1.00  0.00    -0.354 N 
ATOM     31  N   UNL A   1      42.247  30.700  29.267  1.00  0.00    -0.248 NA
ATOM     32  C   UNL A   1      41.018  32.267  30.493  1.00  0.00     0.031 C 
ATOM     33  C   UNL A   1      46.348  31.428  27.695  1.00  0.00     0.029 A 
ATOM     34  C   UNL A   1      45.069  31.225  28.189  1.00  0.00     0.049 A 
ATOM     35  H   UNL A   1      43.836  29.519  28.019  1.00  0.00     0.167 HD
ATOM     36  C   UNL A   1      42.988  31.869  29.382  1.00  0.00     0.074 A 
ATOM     37  C   UNL A   1      42.162  32.814  30.109  1.00  0.00     0.031 C 
ATOM     38  C   UNL A   1      44.246  32.136  28.947  1.00  0.00     0.034 A 
BRANCH  25  39
ATOM     39  C   UNL A   1      46.849  27.523  25.712  1.00  0.00     0.023 A 
ATOM     40  C   UNL A   1      47.079  27.886  24.373  1.00  0.00     0.031 A 
ATOM     41  C   UNL A   1      47.777  26.661  26.327  1.00  0.00     0.131 A 
ATOM     42  C   UNL A   1      48.175  27.347  23.678  1.00  0.00     0.055 A 
ATOM     43  C   UNL A   1      48.903  26.184  25.652  1.00  0.00     0.041 A 
ATOM     44  F   UNL A   1      47.600  26.263  27.597  1.00  0.00    -0.206 F 
ATOM     45  C   UNL A   1      49.101  26.518  24.316  1.00  0.00     0.022 A 
BRANCH  42  46
ATOM     46  S   UNL A   1      48.312  27.653  21.895  1.00  0.00     0.124 S 
ATOM     47  O   UNL A   1      49.450  28.568  21.839  1.00  0.00    -0.237 OA
ATOM     48  O   UNL A   1      48.542  26.315  21.362  1.00  0.00    -0.237 OA
ATOM     49  O   UNL A   1      47.024  28.250  21.549  1.00  0.00    -0.744 OA
ENDBRANCH  42  46
ENDBRANCH  25  39
BRANCH  26  50
ATOM     50  C   UNL A   1      38.770  30.422  30.918  1.00  0.00     0.023 A 
ATOM     51  C   UNL A   1      37.694  31.102  30.328  1.00  0.00     0.031 A 
ATOM     52  C   UNL A   1      38.705  30.151  32.297  1.00  0.00     0.131 A 
ATOM     53  C   UNL A   1      36.613  31.515  31.121  1.00  0.00     0.055 A 
ATOM     54  C   UNL A   1      37.602  30.512  33.070  1.00  0.00     0.041 A 
ATOM     55  F   UNL A   1      39.706  29.499  32.910  1.00  0.00    -0.206 F 
ATOM     56  C   UNL A   1      36.552  31.210  32.484  1.00  0.00     0.022 A 
BRANCH  53  57
ATOM     57  S   UNL A   1      35.316  32.531  30.363  1.00  0.00     0.124 S 
ATOM     58  O   UNL A   1      34.899  31.697  29.242  1.00  0.00    -0.237 OA
ATOM     59  O   UNL A   1      34.360  32.664  31.456  1.00  0.00    -0.237 OA
ATOM     60  O   UNL A   1      36.019  33.760  29.998  1.00  0.00    -0.744 OA
ENDBRANCH  53  57
ENDBRANCH  26  50
BRANCH  38  61
ATOM     61  C   UNL A   1      44.779  33.511  29.260  1.00  0.00     0.023 A 
ATOM     62  C   UNL A   1      44.468  34.614  28.445  1.00  0.00     0.031 A 
ATOM     63  C   UNL A   1      45.654  33.708  30.340  1.00  0.00     0.131 A 
ATOM     64  C   UNL A   1      45.088  35.850  28.677  1.00  0.00     0.055 A 
ATOM     65  C   UNL A   1      46.223  34.956  30.602  1.00  0.00     0.041 A 
ATOM     66  F   UNL A   1      45.986  32.688  31.147  1.00  0.00    -0.206 F 
ATOM     67  C   UNL A   1      45.953  36.030  29.758  1.00  0.00     0.022 A 
BRANCH  64  68
ATOM     68  S   UNL A   1      44.837  37.185  27.475  1.00  0.00     0.124 S 
ATOM     69  O   UNL A   1      43.605  36.769  26.811  1.00  0.00    -0.237 OA
ATOM     70  O   UNL A   1      44.733  38.361  28.334  1.00  0.00    -0.237 OA
ATOM     71  O   UNL A   1      46.038  37.127  26.645  1.00  0.00    -0.744 OA
ENDBRANCH  64  68
ENDBRANCH  38  61
ENDBRANCH  12  13
ENDBRANCH   5   7
ENDBRANCH   2   3
ENDBRANCH   1   2
BRANCH   1  72
ATOM     72  C   UNL A   1      35.190  23.010  22.953  1.00  0.00     0.023 C 
BRANCH  72  73
ATOM     73  C   UNL A   1      34.337  23.732  23.998  1.00  0.00     0.116 C 
BRANCH  73  74
ATOM     74  N   UNL A   1      34.416  25.163  23.815  1.00  0.00    -0.356 N 
ATOM     75  C   UNL A   1      33.730  26.189  24.384  1.00  0.00     0.224 C 
ATOM     76  H   UNL A   1      35.091  25.448  23.156  1.00  0.00     0.163 HD
ATOM     77  O   UNL A   1      33.998  27.313  23.954  1.00  0.00    -0.275 OA
BRANCH  75  78
ATOM     78  C   UNL A   1      32.703  25.959  25.508  1.00  0.00     0.095 C 
ATOM     79  C   UNL A   1      32.336  27.325  26.125  1.00  0.00     0.041 C 
ATOM     80  C   UNL A   1      31.447  25.212  24.991  1.00  0.00     0.095 C 
ATOM     81  C   UNL A   1      31.306  28.093  25.351  1.00  0.00    -0.030 C 
ATOM     82  C   UNL A   1      30.683  26.095  23.966  1.00  0.00     0.041 C 
ATOM     83  C   UNL A   1      30.583  27.549  24.360  1.00  0.00    -0.030 C 
BRANCH  80  84
ATOM     84  C   UNL A   1      30.481  24.851  26.131  1.00  0.00     0.224 C 
ATOM     85  O   UNL A   1      29.528  25.579  26.435  1.00  0.00    -0.275 OA
ATOM     86  N   UNL A   1      30.593  23.750  26.911  1.00  0.00    -0.353 N 
ATOM     87  H   UNL A   1      30.024  23.813  27.712  1.00  0.00     0.163 HD
BRANCH  86  88
ATOM     88  C   UNL A   1      31.342  22.487  26.878  1.00  0.00     0.082 C 
ATOM     89  C   UNL A   1      31.466  21.914  25.474  1.00  0.00     0.025 C 
ATOM     90  C   UNL A   1      32.738  22.757  27.478  1.00  0.00     0.025 C 
ATOM     91  C   UNL A   1      32.468  20.769  25.348  1.00  0.00     0.002 C 
ATOM     92  C   UNL A   1      33.715  21.595  27.338  1.00  0.00     0.002 C 
ATOM     93  C   UNL A   1      33.832  21.147  25.891  1.00  0.00     0.000 C 
ENDBRANCH  86  88
ENDBRANCH  80  84
ENDBRANCH  75  78
ENDBRANCH  73  74
ENDBRANCH  72  73
ENDBRANCH   1  72
TORSDOF 16
ENDMDL
