MODEL 1
REMARK VINA RESULT:     -10.5      0.000      0.000
REMARK SMILES CC[NH+](CC)C[C@H](C)NC(=O)N[C@H]1C=C[C@@H](C(=O)NCCCCNC(=O)c2ccc(-c3c4nc(c(-c5cc(S(=O)(=O)[O-])ccc5F)c5ccc([nH]5)c(-c5cc(S(=O)(=O)[O-])ccc5F)c5nc(c(-c6cc(S(=O)(=O)[O-])ccc6F)c6ccc3[nH]6)C=C5)C=C4)cc2)C1
REMARK SMILES IDX 20 1 19 2 17 3 18 4 16 6 13 7 14 8 90 9 15 10 12 11 9 12
REMARK SMILES IDX 10 13 11 15 7 17 8 18 6 19 3 20 2 22 1 23 4 24 5 25 21 26
REMARK SMILES IDX 22 27 23 28 24 29 25 30 26 32 27 33 28 34 89 35 29 36 88 37
REMARK SMILES IDX 30 38 31 39 32 40 82 41 33 42 87 43 81 44 83 45 34 46 86 47
REMARK SMILES IDX 80 48 79 49 35 51 67 52 47 53 66 54 48 55 51 56 65 57 84 58
REMARK SMILES IDX 49 59 50 60 64 62 85 63 52 64 36 65 37 66 45 67 38 68 44 69
REMARK SMILES IDX 46 70 43 71 39 72 40 73 41 74 42 75 68 76 69 77 77 78 70 79
REMARK SMILES IDX 76 80 78 81 75 82 71 83 72 84 73 85 74 86 53 87 54 88 62 89
REMARK SMILES IDX 55 90 61 91 63 92 60 93 56 94 57 95 58 96 59 97
REMARK H PARENT 19 5 9 14 12 16 3 21 24 31 83 50 51 61
REMARK Flexibility Score: inf
ROOT
ATOM      1  C   UNL A   1      35.316  21.029  25.539  1.00  0.00     0.116 C 
ENDROOT
BRANCH   1   2
ATOM      2  N   UNL A   1      34.244  20.500  24.718  1.00  0.00    -0.356 N 
ATOM      3  C   UNL A   1      33.120  21.096  24.229  1.00  0.00     0.227 C 
ATOM      4  O   UNL A   1      32.384  20.419  23.504  1.00  0.00    -0.274 OA
ATOM      5  H   UNL A   1      34.345  19.551  24.473  1.00  0.00     0.163 HD
BRANCH   3   6
ATOM      6  C   UNL A   1      32.739  22.544  24.559  1.00  0.00     0.103 C 
ATOM      7  C   UNL A   1      32.352  24.531  23.169  1.00  0.00     0.107 C 
ATOM      8  C   UNL A   1      31.073  23.884  23.587  1.00  0.00    -0.006 C 
ATOM      9  C   UNL A   1      33.444  23.581  23.678  1.00  0.00     0.047 C 
ATOM     10  C   UNL A   1      31.279  22.832  24.388  1.00  0.00    -0.016 C 
BRANCH   7  11
ATOM     11  N   UNL A   1      32.416  24.673  21.738  1.00  0.00    -0.332 N 
ATOM     12  N   UNL A   1      33.089  26.909  21.353  1.00  0.00    -0.330 N 
ATOM     13  C   UNL A   1      32.796  25.674  20.936  1.00  0.00     0.315 C 
ATOM     14  H   UNL A   1      33.437  27.477  20.628  1.00  0.00     0.165 HD
ATOM     15  O   UNL A   1      32.872  25.444  19.727  1.00  0.00    -0.249 OA
ATOM     16  H   UNL A   1      32.118  23.871  21.251  1.00  0.00     0.165 HD
BRANCH  12  17
ATOM     17  C   UNL A   1      33.016  27.618  22.624  1.00  0.00     0.135 C 
ATOM     18  C   UNL A   1      34.242  28.530  22.759  1.00  0.00     0.037 C 
BRANCH  17  19
ATOM     19  C   UNL A   1      31.698  28.423  22.869  1.00  0.00     0.287 C 
BRANCH  19  20
ATOM     20  N   UNL A   1      30.634  27.959  23.755  1.00  0.00    -0.334 N 
ATOM     21  H   UNL A   1      30.382  28.893  24.076  1.00  0.00     0.348 HD
BRANCH  20  22
ATOM     22  C   UNL A   1      29.342  27.592  23.196  1.00  0.00     0.258 C 
ATOM     23  C   UNL A   1      28.577  26.571  24.031  1.00  0.00     0.071 C 
ENDBRANCH  20  22
BRANCH  20  24
ATOM     24  C   UNL A   1      31.007  27.339  25.020  1.00  0.00     0.258 C 
ATOM     25  C   UNL A   1      31.614  28.238  26.092  1.00  0.00     0.071 C 
ENDBRANCH  20  24
ENDBRANCH  19  20
ENDBRANCH  17  19
ENDBRANCH  12  17
ENDBRANCH   7  11
ENDBRANCH   3   6
ENDBRANCH   1   2
BRANCH   1  26
ATOM     26  C   UNL A   1      36.658  21.032  24.819  1.00  0.00     0.023 C 
BRANCH  26  27
ATOM     27  C   UNL A   1      37.386  22.372  24.860  1.00  0.00     0.023 C 
BRANCH  27  28
ATOM     28  C   UNL A   1      38.294  22.573  26.068  1.00  0.00     0.116 C 
BRANCH  28  29
ATOM     29  N   UNL A   1      39.604  21.958  25.918  1.00  0.00    -0.352 N 
ATOM     30  C   UNL A   1      40.840  22.523  26.148  1.00  0.00     0.251 C 
ATOM     31  H   UNL A   1      39.608  21.022  25.614  1.00  0.00     0.163 HD
ATOM     32  O   UNL A   1      41.861  21.916  25.875  1.00  0.00    -0.269 OA
BRANCH  30  33
ATOM     33  C   UNL A   1      40.893  23.899  26.689  1.00  0.00     0.039 A 
ATOM     34  C   UNL A   1      41.113  24.077  28.057  1.00  0.00     0.014 A 
ATOM     35  C   UNL A   1      40.809  24.999  25.833  1.00  0.00     0.014 A 
ATOM     36  C   UNL A   1      41.323  25.364  28.553  1.00  0.00     0.010 A 
ATOM     37  C   UNL A   1      41.102  26.269  26.316  1.00  0.00     0.010 A 
ATOM     38  C   UNL A   1      41.362  26.465  27.681  1.00  0.00    -0.014 A 
BRANCH  38  39
ATOM     39  C   UNL A   1      41.667  27.829  28.182  1.00  0.00     0.031 A 
ATOM     40  C   UNL A   1      43.094  28.293  28.278  1.00  0.00     0.074 A 
ATOM     41  C   UNL A   1      40.666  28.621  28.614  1.00  0.00     0.049 A 
ATOM     42  N   UNL A   1      43.571  29.419  28.742  1.00  0.00    -0.248 NA
ATOM     43  C   UNL A   1      44.121  27.343  27.828  1.00  0.00     0.031 C 
ATOM     44  C   UNL A   1      39.248  28.255  28.637  1.00  0.00     0.029 A 
ATOM     45  N   UNL A   1      40.687  29.892  29.130  1.00  0.00    -0.354 N 
ATOM     46  C   UNL A   1      44.954  29.310  28.647  1.00  0.00     0.074 A 
ATOM     47  C   UNL A   1      45.234  27.974  28.164  1.00  0.00     0.031 C 
ATOM     48  C   UNL A   1      38.536  29.284  29.121  1.00  0.00     0.029 A 
ATOM     49  C   UNL A   1      39.445  30.367  29.480  1.00  0.00     0.049 A 
ATOM     50  H   UNL A   1      41.514  30.416  29.239  1.00  0.00     0.167 HD
ATOM     51  C   UNL A   1      45.901  30.247  28.905  1.00  0.00     0.034 A 
ATOM     52  C   UNL A   1      39.081  31.539  30.038  1.00  0.00     0.034 A 
ATOM     53  C   UNL A   1      45.599  31.573  29.390  1.00  0.00     0.049 A 
ATOM     54  C   UNL A   1      40.143  32.567  30.325  1.00  0.00     0.074 A 
ATOM     55  C   UNL A   1      46.467  32.621  29.638  1.00  0.00     0.029 A 
ATOM     56  N   UNL A   1      44.325  32.029  29.716  1.00  0.00    -0.354 N 
ATOM     57  N   UNL A   1      41.444  32.478  30.164  1.00  0.00    -0.248 NA
ATOM     58  C   UNL A   1      39.686  33.857  30.853  1.00  0.00     0.031 C 
ATOM     59  C   UNL A   1      45.730  33.684  30.177  1.00  0.00     0.029 A 
ATOM     60  C   UNL A   1      44.390  33.331  30.191  1.00  0.00     0.049 A 
ATOM     61  H   UNL A   1      43.498  31.504  29.622  1.00  0.00     0.167 HD
ATOM     62  C   UNL A   1      41.960  33.710  30.556  1.00  0.00     0.074 A 
ATOM     63  C   UNL A   1      40.825  34.529  30.935  1.00  0.00     0.031 C 
ATOM     64  C   UNL A   1      43.252  34.127  30.597  1.00  0.00     0.034 A 
BRANCH  51  65
ATOM     65  C   UNL A   1      47.342  29.843  28.686  1.00  0.00     0.023 A 
ATOM     66  C   UNL A   1      48.085  29.195  29.692  1.00  0.00     0.031 A 
ATOM     67  C   UNL A   1      48.008  30.172  27.492  1.00  0.00     0.131 A 
ATOM     68  C   UNL A   1      49.464  28.998  29.531  1.00  0.00     0.055 A 
ATOM     69  C   UNL A   1      49.361  29.881  27.299  1.00  0.00     0.041 A 
ATOM     70  F   UNL A   1      47.363  30.808  26.502  1.00  0.00    -0.206 F 
ATOM     71  C   UNL A   1      50.104  29.313  28.330  1.00  0.00     0.022 A 
BRANCH  68  72
ATOM     72  S   UNL A   1      50.440  28.510  30.981  1.00  0.00     0.124 S 
ATOM     73  O   UNL A   1      49.524  28.827  32.073  1.00  0.00    -0.237 OA
ATOM     74  O   UNL A   1      50.679  27.092  30.737  1.00  0.00    -0.237 OA
ATOM     75  O   UNL A   1      51.622  29.366  30.903  1.00  0.00    -0.744 OA
ENDBRANCH  68  72
ENDBRANCH  51  65
BRANCH  52  76
ATOM     76  C   UNL A   1      37.650  31.793  30.370  1.00  0.00     0.023 A 
ATOM     77  C   UNL A   1      36.739  32.227  29.395  1.00  0.00     0.031 A 
ATOM     78  C   UNL A   1      37.176  31.610  31.682  1.00  0.00     0.131 A 
ATOM     79  C   UNL A   1      35.407  32.494  29.752  1.00  0.00     0.055 A 
ATOM     80  C   UNL A   1      35.841  31.832  32.022  1.00  0.00     0.041 A 
ATOM     81  F   UNL A   1      38.005  31.186  32.649  1.00  0.00    -0.206 F 
ATOM     82  C   UNL A   1      34.950  32.286  31.056  1.00  0.00     0.022 A 
BRANCH  79  83
ATOM     83  S   UNL A   1      34.287  33.170  28.496  1.00  0.00     0.124 S 
ATOM     84  O   UNL A   1      33.421  34.026  29.299  1.00  0.00    -0.237 OA
ATOM     85  O   UNL A   1      35.213  33.853  27.599  1.00  0.00    -0.237 OA
ATOM     86  O   UNL A   1      33.645  31.982  27.937  1.00  0.00    -0.744 OA
ENDBRANCH  79  83
ENDBRANCH  52  76
BRANCH  64  87
ATOM     87  C   UNL A   1      43.494  35.547  31.053  1.00  0.00     0.023 A 
ATOM     88  C   UNL A   1      43.596  36.610  30.137  1.00  0.00     0.031 A 
ATOM     89  C   UNL A   1      43.652  35.836  32.420  1.00  0.00     0.131 A 
ATOM     90  C   UNL A   1      43.915  37.898  30.593  1.00  0.00     0.055 A 
ATOM     91  C   UNL A   1      43.903  37.132  32.873  1.00  0.00     0.041 A 
ATOM     92  F   UNL A   1      43.570  34.861  33.339  1.00  0.00    -0.206 F 
ATOM     93  C   UNL A   1      44.052  38.169  31.956  1.00  0.00     0.022 A 
BRANCH  90  94
ATOM     94  S   UNL A   1      44.262  39.192  29.370  1.00  0.00     0.124 S 
ATOM     95  O   UNL A   1      44.211  40.400  30.187  1.00  0.00    -0.237 OA
ATOM     96  O   UNL A   1      45.580  38.810  28.877  1.00  0.00    -0.237 OA
ATOM     97  O   UNL A   1      43.173  39.052  28.404  1.00  0.00    -0.744 OA
ENDBRANCH  90  94
ENDBRANCH  64  87
ENDBRANCH  38  39
ENDBRANCH  30  33
ENDBRANCH  28  29
ENDBRANCH  27  28
ENDBRANCH  26  27
ENDBRANCH   1  26
TORSDOF 20
ENDMDL
MODEL 2
REMARK VINA RESULT:     -10.3      5.279     10.030
REMARK SMILES CC[NH+](CC)C[C@H](C)NC(=O)N[C@H]1C=C[C@@H](C(=O)NCCCCNC(=O)c2ccc(-c3c4nc(c(-c5cc(S(=O)(=O)[O-])ccc5F)c5ccc([nH]5)c(-c5cc(S(=O)(=O)[O-])ccc5F)c5nc(c(-c6cc(S(=O)(=O)[O-])ccc6F)c6ccc3[nH]6)C=C5)C=C4)cc2)C1
REMARK SMILES IDX 20 1 19 2 17 3 18 4 16 6 13 7 14 8 90 9 15 10 12 11 9 12
REMARK SMILES IDX 10 13 11 15 7 17 8 18 6 19 3 20 2 22 1 23 4 24 5 25 21 26
REMARK SMILES IDX 22 27 23 28 24 29 25 30 26 32 27 33 28 34 89 35 29 36 88 37
REMARK SMILES IDX 30 38 31 39 32 40 82 41 33 42 87 43 81 44 83 45 34 46 86 47
REMARK SMILES IDX 80 48 79 49 35 51 67 52 47 53 66 54 48 55 51 56 65 57 84 58
REMARK SMILES IDX 49 59 50 60 64 62 85 63 52 64 36 65 37 66 45 67 38 68 44 69
REMARK SMILES IDX 46 70 43 71 39 72 40 73 41 74 42 75 68 76 69 77 77 78 70 79
REMARK SMILES IDX 76 80 78 81 75 82 71 83 72 84 73 85 74 86 53 87 54 88 62 89
REMARK SMILES IDX 55 90 61 91 63 92 60 93 56 94 57 95 58 96 59 97
REMARK H PARENT 19 5 9 14 12 16 3 21 24 31 83 50 51 61
REMARK Flexibility Score: inf
ROOT
ATOM      1  C   UNL A   1      34.024  29.639  26.936  1.00  0.00     0.116 C 
ENDROOT
BRANCH   1   2
ATOM      2  N   UNL A   1      32.832  29.202  27.635  1.00  0.00    -0.356 N 
ATOM      3  C   UNL A   1      31.973  28.176  27.376  1.00  0.00     0.227 C 
ATOM      4  O   UNL A   1      31.047  27.990  28.172  1.00  0.00    -0.274 OA
ATOM      5  H   UNL A   1      32.605  29.735  28.432  1.00  0.00     0.163 HD
BRANCH   3   6
ATOM      6  C   UNL A   1      32.106  27.276  26.141  1.00  0.00     0.103 C 
ATOM      7  C   UNL A   1      31.112  25.114  25.532  1.00  0.00     0.107 C 
ATOM      8  C   UNL A   1      30.410  26.257  24.874  1.00  0.00    -0.006 C 
ATOM      9  C   UNL A   1      32.126  25.780  26.471  1.00  0.00     0.047 C 
ATOM     10  C   UNL A   1      30.982  27.432  25.163  1.00  0.00    -0.016 C 
BRANCH   7  11
ATOM     11  N   UNL A   1      30.186  24.293  26.267  1.00  0.00    -0.332 N 
ATOM     12  N   UNL A   1      31.488  22.547  27.193  1.00  0.00    -0.330 N 
ATOM     13  C   UNL A   1      30.341  23.217  27.046  1.00  0.00     0.315 C 
ATOM     14  H   UNL A   1      31.425  21.843  27.878  1.00  0.00     0.165 HD
ATOM     15  O   UNL A   1      29.355  22.807  27.663  1.00  0.00    -0.249 OA
ATOM     16  H   UNL A   1      29.249  24.583  26.178  1.00  0.00     0.165 HD
BRANCH  12  17
ATOM     17  C   UNL A   1      32.809  22.608  26.583  1.00  0.00     0.135 C 
ATOM     18  C   UNL A   1      33.835  22.001  27.547  1.00  0.00     0.037 C 
BRANCH  17  19
ATOM     19  C   UNL A   1      32.926  21.953  25.168  1.00  0.00     0.287 C 
BRANCH  19  20
ATOM     20  N   UNL A   1      34.010  22.254  24.237  1.00  0.00    -0.334 N 
ATOM     21  H   UNL A   1      34.241  23.150  24.667  1.00  0.00     0.348 HD
BRANCH  20  22
ATOM     22  C   UNL A   1      35.307  21.617  24.414  1.00  0.00     0.258 C 
ATOM     23  C   UNL A   1      36.384  22.552  24.953  1.00  0.00     0.071 C 
ENDBRANCH  20  22
BRANCH  20  24
ATOM     24  C   UNL A   1      33.666  22.691  22.890  1.00  0.00     0.258 C 
ATOM     25  C   UNL A   1      32.746  23.899  22.757  1.00  0.00     0.071 C 
ENDBRANCH  20  24
ENDBRANCH  19  20
ENDBRANCH  17  19
ENDBRANCH  12  17
ENDBRANCH   7  11
ENDBRANCH   3   6
ENDBRANCH   1   2
BRANCH   1  26
ATOM     26  C   UNL A   1      34.628  30.901  27.538  1.00  0.00     0.023 C 
BRANCH  26  27
ATOM     27  C   UNL A   1      33.598  31.923  28.010  1.00  0.00     0.023 C 
BRANCH  27  28
ATOM     28  C   UNL A   1      33.993  33.379  27.796  1.00  0.00     0.116 C 
BRANCH  28  29
ATOM     29  N   UNL A   1      33.262  34.309  28.644  1.00  0.00    -0.352 N 
ATOM     30  C   UNL A   1      33.497  34.620  29.967  1.00  0.00     0.251 C 
ATOM     31  H   UNL A   1      32.505  34.775  28.221  1.00  0.00     0.163 HD
ATOM     32  O   UNL A   1      32.732  35.342  30.581  1.00  0.00    -0.269 OA
BRANCH  30  33
ATOM     33  C   UNL A   1      34.675  34.016  30.630  1.00  0.00     0.039 A 
ATOM     34  C   UNL A   1      34.478  32.956  31.517  1.00  0.00     0.014 A 
ATOM     35  C   UNL A   1      35.964  34.447  30.309  1.00  0.00     0.014 A 
ATOM     36  C   UNL A   1      35.587  32.277  32.025  1.00  0.00     0.010 A 
ATOM     37  C   UNL A   1      37.061  33.716  30.749  1.00  0.00     0.010 A 
ATOM     38  C   UNL A   1      36.884  32.624  31.612  1.00  0.00    -0.014 A 
BRANCH  38  39
ATOM     39  C   UNL A   1      38.068  31.857  32.079  1.00  0.00     0.031 A 
ATOM     40  C   UNL A   1      38.732  32.218  33.378  1.00  0.00     0.074 A 
ATOM     41  C   UNL A   1      38.583  30.886  31.300  1.00  0.00     0.049 A 
ATOM     42  N   UNL A   1      39.806  31.713  33.929  1.00  0.00    -0.248 NA
ATOM     43  C   UNL A   1      38.128  33.322  34.136  1.00  0.00     0.031 C 
ATOM     44  C   UNL A   1      38.068  30.493  29.986  1.00  0.00     0.029 A 
ATOM     45  N   UNL A   1      39.662  30.060  31.492  1.00  0.00    -0.354 N 
ATOM     46  C   UNL A   1      40.010  32.443  35.095  1.00  0.00     0.074 A 
ATOM     47  C   UNL A   1      38.999  33.479  35.120  1.00  0.00     0.031 C 
ATOM     48  C   UNL A   1      38.818  29.491  29.501  1.00  0.00     0.029 A 
ATOM     49  C   UNL A   1      39.889  29.196  30.447  1.00  0.00     0.049 A 
ATOM     50  H   UNL A   1      40.221  30.084  32.303  1.00  0.00     0.167 HD
ATOM     51  C   UNL A   1      40.933  32.247  36.071  1.00  0.00     0.034 A 
ATOM     52  C   UNL A   1      40.857  28.276  30.266  1.00  0.00     0.034 A 
ATOM     53  C   UNL A   1      41.935  31.209  36.024  1.00  0.00     0.049 A 
ATOM     54  C   UNL A   1      41.878  28.074  31.355  1.00  0.00     0.074 A 
ATOM     55  C   UNL A   1      42.886  30.882  36.973  1.00  0.00     0.029 A 
ATOM     56  N   UNL A   1      42.124  30.335  34.957  1.00  0.00    -0.354 N 
ATOM     57  N   UNL A   1      42.018  28.724  32.488  1.00  0.00    -0.248 NA
ATOM     58  C   UNL A   1      42.859  27.004  31.147  1.00  0.00     0.031 C 
ATOM     59  C   UNL A   1      43.692  29.860  36.454  1.00  0.00     0.029 A 
ATOM     60  C   UNL A   1      43.196  29.492  35.213  1.00  0.00     0.049 A 
ATOM     61  H   UNL A   1      41.577  30.318  34.140  1.00  0.00     0.167 HD
ATOM     62  C   UNL A   1      43.095  28.129  33.137  1.00  0.00     0.074 A 
ATOM     63  C   UNL A   1      43.549  27.052  32.278  1.00  0.00     0.031 C 
ATOM     64  C   UNL A   1      43.658  28.441  34.333  1.00  0.00     0.034 A 
BRANCH  51  65
ATOM     65  C   UNL A   1      40.898  33.198  37.247  1.00  0.00     0.023 A 
ATOM     66  C   UNL A   1      40.210  32.875  38.433  1.00  0.00     0.031 A 
ATOM     67  C   UNL A   1      41.494  34.469  37.163  1.00  0.00     0.131 A 
ATOM     68  C   UNL A   1      40.040  33.845  39.432  1.00  0.00     0.055 A 
ATOM     69  C   UNL A   1      41.405  35.394  38.205  1.00  0.00     0.041 A 
ATOM     70  F   UNL A   1      42.147  34.846  36.053  1.00  0.00    -0.206 F 
ATOM     71  C   UNL A   1      40.655  35.094  39.339  1.00  0.00     0.022 A 
BRANCH  68  72
ATOM     72  S   UNL A   1      38.843  33.516  40.757  1.00  0.00     0.124 S 
ATOM     73  O   UNL A   1      38.940  34.737  41.551  1.00  0.00    -0.237 OA
ATOM     74  O   UNL A   1      37.600  33.329  40.018  1.00  0.00    -0.237 OA
ATOM     75  O   UNL A   1      39.371  32.317  41.406  1.00  0.00    -0.744 OA
ENDBRANCH  68  72
ENDBRANCH  51  65
BRANCH  52  76
ATOM     76  C   UNL A   1      40.911  27.489  29.001  1.00  0.00     0.023 A 
ATOM     77  C   UNL A   1      41.887  27.741  28.025  1.00  0.00     0.031 A 
ATOM     78  C   UNL A   1      39.974  26.470  28.751  1.00  0.00     0.131 A 
ATOM     79  C   UNL A   1      41.885  27.006  26.828  1.00  0.00     0.055 A 
ATOM     80  C   UNL A   1      40.004  25.712  27.581  1.00  0.00     0.041 A 
ATOM     81  F   UNL A   1      39.027  26.183  29.658  1.00  0.00    -0.206 F 
ATOM     82  C   UNL A   1      40.958  25.985  26.606  1.00  0.00     0.022 A 
BRANCH  79  83
ATOM     83  S   UNL A   1      43.082  27.441  25.536  1.00  0.00     0.124 S 
ATOM     84  O   UNL A   1      42.270  28.257  24.640  1.00  0.00    -0.237 OA
ATOM     85  O   UNL A   1      44.106  28.147  26.297  1.00  0.00    -0.237 OA
ATOM     86  O   UNL A   1      43.490  26.144  25.001  1.00  0.00    -0.744 OA
ENDBRANCH  79  83
ENDBRANCH  52  76
BRANCH  64  87
ATOM     87  C   UNL A   1      44.818  27.584  34.784  1.00  0.00     0.023 A 
ATOM     88  C   UNL A   1      44.626  26.446  35.587  1.00  0.00     0.031 A 
ATOM     89  C   UNL A   1      46.134  27.926  34.429  1.00  0.00     0.131 A 
ATOM     90  C   UNL A   1      45.734  25.730  36.064  1.00  0.00     0.055 A 
ATOM     91  C   UNL A   1      47.230  27.172  34.850  1.00  0.00     0.041 A 
ATOM     92  F   UNL A   1      46.378  29.005  33.667  1.00  0.00    -0.206 F 
ATOM     93  C   UNL A   1      47.035  26.075  35.686  1.00  0.00     0.022 A 
BRANCH  90  94
ATOM     94  S   UNL A   1      45.463  24.409  37.277  1.00  0.00     0.124 S 
ATOM     95  O   UNL A   1      46.786  24.271  37.875  1.00  0.00    -0.237 OA
ATOM     96  O   UNL A   1      44.431  24.982  38.135  1.00  0.00    -0.237 OA
ATOM     97  O   UNL A   1      45.031  23.277  36.460  1.00  0.00    -0.744 OA
ENDBRANCH  90  94
ENDBRANCH  64  87
ENDBRANCH  38  39
ENDBRANCH  30  33
ENDBRANCH  28  29
ENDBRANCH  27  28
ENDBRANCH  26  27
ENDBRANCH   1  26
TORSDOF 20
ENDMDL
MODEL 3
REMARK VINA RESULT:     -10.2      5.473      9.257
REMARK SMILES CC[NH+](CC)C[C@H](C)NC(=O)N[C@H]1C=C[C@@H](C(=O)NCCCCNC(=O)c2ccc(-c3c4nc(c(-c5cc(S(=O)(=O)[O-])ccc5F)c5ccc([nH]5)c(-c5cc(S(=O)(=O)[O-])ccc5F)c5nc(c(-c6cc(S(=O)(=O)[O-])ccc6F)c6ccc3[nH]6)C=C5)C=C4)cc2)C1
REMARK SMILES IDX 20 1 19 2 17 3 18 4 16 6 13 7 14 8 90 9 15 10 12 11 9 12
REMARK SMILES IDX 10 13 11 15 7 17 8 18 6 19 3 20 2 22 1 23 4 24 5 25 21 26
REMARK SMILES IDX 22 27 23 28 24 29 25 30 26 32 27 33 28 34 89 35 29 36 88 37
REMARK SMILES IDX 30 38 31 39 32 40 82 41 33 42 87 43 81 44 83 45 34 46 86 47
REMARK SMILES IDX 80 48 79 49 35 51 67 52 47 53 66 54 48 55 51 56 65 57 84 58
REMARK SMILES IDX 49 59 50 60 64 62 85 63 52 64 36 65 37 66 45 67 38 68 44 69
REMARK SMILES IDX 46 70 43 71 39 72 40 73 41 74 42 75 68 76 69 77 77 78 70 79
REMARK SMILES IDX 76 80 78 81 75 82 71 83 72 84 73 85 74 86 53 87 54 88 62 89
REMARK SMILES IDX 55 90 61 91 63 92 60 93 56 94 57 95 58 96 59 97
REMARK H PARENT 19 5 9 14 12 16 3 21 24 31 83 50 51 61
REMARK Flexibility Score: inf
ROOT
ATOM      1  C   UNL A   1      34.311  29.333  27.186  1.00  0.00     0.116 C 
ENDROOT
BRANCH   1   2
ATOM      2  N   UNL A   1      33.011  29.041  27.758  1.00  0.00    -0.356 N 
ATOM      3  C   UNL A   1      32.045  28.162  27.369  1.00  0.00     0.227 C 
ATOM      4  O   UNL A   1      31.034  28.074  28.074  1.00  0.00    -0.274 OA
ATOM      5  H   UNL A   1      32.790  29.563  28.563  1.00  0.00     0.163 HD
BRANCH   3   6
ATOM      6  C   UNL A   1      32.161  27.310  26.099  1.00  0.00     0.103 C 
ATOM      7  C   UNL A   1      31.217  25.138  25.448  1.00  0.00     0.107 C 
ATOM      8  C   UNL A   1      30.454  26.279  24.858  1.00  0.00    -0.006 C 
ATOM      9  C   UNL A   1      32.242  25.805  26.374  1.00  0.00     0.047 C 
ATOM     10  C   UNL A   1      30.997  27.461  25.168  1.00  0.00    -0.016 C 
BRANCH   7  11
ATOM     11  N   UNL A   1      30.346  24.262  26.186  1.00  0.00    -0.332 N 
ATOM     12  N   UNL A   1      31.121  22.072  25.732  1.00  0.00    -0.330 N 
ATOM     13  C   UNL A   1      30.330  22.937  26.374  1.00  0.00     0.315 C 
ATOM     14  H   UNL A   1      31.025  21.153  26.074  1.00  0.00     0.165 HD
ATOM     15  O   UNL A   1      29.523  22.481  27.187  1.00  0.00    -0.249 OA
ATOM     16  H   UNL A   1      29.613  24.732  26.646  1.00  0.00     0.165 HD
BRANCH  12  17
ATOM     17  C   UNL A   1      32.090  22.162  24.649  1.00  0.00     0.135 C 
ATOM     18  C   UNL A   1      31.423  22.819  23.434  1.00  0.00     0.037 C 
BRANCH  17  19
ATOM     19  C   UNL A   1      33.429  22.887  25.003  1.00  0.00     0.287 C 
BRANCH  19  20
ATOM     20  N   UNL A   1      34.640  22.175  25.401  1.00  0.00    -0.334 N 
ATOM     21  H   UNL A   1      34.424  21.337  24.861  1.00  0.00     0.348 HD
BRANCH  20  22
ATOM     22  C   UNL A   1      35.906  22.495  24.760  1.00  0.00     0.258 C 
ATOM     23  C   UNL A   1      35.773  22.864  23.286  1.00  0.00     0.071 C 
ENDBRANCH  20  22
BRANCH  20  24
ATOM     24  C   UNL A   1      34.703  21.611  26.744  1.00  0.00     0.258 C 
ATOM     25  C   UNL A   1      33.841  22.263  27.820  1.00  0.00     0.071 C 
ENDBRANCH  20  24
ENDBRANCH  19  20
ENDBRANCH  17  19
ENDBRANCH  12  17
ENDBRANCH   7  11
ENDBRANCH   3   6
ENDBRANCH   1   2
BRANCH   1  26
ATOM     26  C   UNL A   1      34.871  30.669  27.656  1.00  0.00     0.023 C 
BRANCH  26  27
ATOM     27  C   UNL A   1      33.807  31.705  28.002  1.00  0.00     0.023 C 
BRANCH  27  28
ATOM     28  C   UNL A   1      33.931  33.029  27.256  1.00  0.00     0.116 C 
BRANCH  28  29
ATOM     29  N   UNL A   1      33.148  34.104  27.846  1.00  0.00    -0.352 N 
ATOM     30  C   UNL A   1      33.314  34.700  29.078  1.00  0.00     0.251 C 
ATOM     31  H   UNL A   1      32.407  34.449  27.298  1.00  0.00     0.163 HD
ATOM     32  O   UNL A   1      32.511  35.521  29.485  1.00  0.00    -0.269 OA
BRANCH  30  33
ATOM     33  C   UNL A   1      34.465  34.283  29.910  1.00  0.00     0.039 A 
ATOM     34  C   UNL A   1      34.222  33.574  31.088  1.00  0.00     0.014 A 
ATOM     35  C   UNL A   1      35.772  34.522  29.479  1.00  0.00     0.014 A 
ATOM     36  C   UNL A   1      35.299  33.039  31.797  1.00  0.00     0.010 A 
ATOM     37  C   UNL A   1      36.834  33.916  30.140  1.00  0.00     0.010 A 
ATOM     38  C   UNL A   1      36.609  33.169  31.306  1.00  0.00    -0.014 A 
BRANCH  38  39
ATOM     39  C   UNL A   1      37.756  32.534  32.004  1.00  0.00     0.031 A 
ATOM     40  C   UNL A   1      38.484  31.387  31.361  1.00  0.00     0.074 A 
ATOM     41  C   UNL A   1      38.094  32.944  33.242  1.00  0.00     0.049 A 
ATOM     42  N   UNL A   1      39.467  30.661  31.830  1.00  0.00    -0.248 NA
ATOM     43  C   UNL A   1      38.014  30.977  30.031  1.00  0.00     0.031 C 
ATOM     44  C   UNL A   1      37.416  34.001  33.997  1.00  0.00     0.029 A 
ATOM     45  N   UNL A   1      39.084  32.515  34.089  1.00  0.00    -0.354 N 
ATOM     46  C   UNL A   1      39.729  29.706  30.854  1.00  0.00     0.074 A 
ATOM     47  C   UNL A   1      38.740  29.893  29.812  1.00  0.00     0.031 C 
ATOM     48  C   UNL A   1      38.022  34.149  35.186  1.00  0.00     0.029 A 
ATOM     49  C   UNL A   1      39.103  33.176  35.295  1.00  0.00     0.049 A 
ATOM     50  H   UNL A   1      39.720  31.800  33.857  1.00  0.00     0.167 HD
ATOM     51  C   UNL A   1      40.720  28.780  30.814  1.00  0.00     0.034 A 
ATOM     52  C   UNL A   1      39.897  33.010  36.372  1.00  0.00     0.034 A 
ATOM     53  C   UNL A   1      41.693  28.608  31.866  1.00  0.00     0.049 A 
ATOM     54  C   UNL A   1      40.988  31.974  36.316  1.00  0.00     0.074 A 
ATOM     55  C   UNL A   1      42.770  27.742  31.915  1.00  0.00     0.029 A 
ATOM     56  N   UNL A   1      41.697  29.310  33.068  1.00  0.00    -0.354 N 
ATOM     57  N   UNL A   1      41.271  31.123  35.357  1.00  0.00    -0.248 NA
ATOM     58  C   UNL A   1      41.878  31.891  37.479  1.00  0.00     0.031 C 
ATOM     59  C   UNL A   1      43.382  27.870  33.168  1.00  0.00     0.029 A 
ATOM     60  C   UNL A   1      42.738  28.874  33.874  1.00  0.00     0.049 A 
ATOM     61  H   UNL A   1      41.054  30.014  33.310  1.00  0.00     0.167 HD
ATOM     62  C   UNL A   1      42.384  30.411  35.795  1.00  0.00     0.074 A 
ATOM     63  C   UNL A   1      42.733  30.954  37.094  1.00  0.00     0.031 C 
ATOM     64  C   UNL A   1      43.057  29.403  35.182  1.00  0.00     0.034 A 
BRANCH  51  65
ATOM     65  C   UNL A   1      40.768  27.879  29.599  1.00  0.00     0.023 A 
ATOM     66  C   UNL A   1      41.727  28.065  28.585  1.00  0.00     0.031 A 
ATOM     67  C   UNL A   1      39.805  26.872  29.411  1.00  0.00     0.131 A 
ATOM     68  C   UNL A   1      41.635  27.337  27.389  1.00  0.00     0.055 A 
ATOM     69  C   UNL A   1      39.781  26.082  28.259  1.00  0.00     0.041 A 
ATOM     70  F   UNL A   1      38.851  26.657  30.331  1.00  0.00    -0.206 F 
ATOM     71  C   UNL A   1      40.684  26.328  27.229  1.00  0.00     0.022 A 
BRANCH  68  72
ATOM     72  S   UNL A   1      42.647  27.866  25.978  1.00  0.00     0.124 S 
ATOM     73  O   UNL A   1      43.963  27.356  26.352  1.00  0.00    -0.237 OA
ATOM     74  O   UNL A   1      41.997  27.199  24.856  1.00  0.00    -0.237 OA
ATOM     75  O   UNL A   1      42.525  29.323  25.996  1.00  0.00    -0.744 OA
ENDBRANCH  68  72
ENDBRANCH  51  65
BRANCH  52  76
ATOM     76  C   UNL A   1      39.677  33.835  37.594  1.00  0.00     0.023 A 
ATOM     77  C   UNL A   1      38.892  33.368  38.660  1.00  0.00     0.031 A 
ATOM     78  C   UNL A   1      40.251  35.115  37.707  1.00  0.00     0.131 A 
ATOM     79  C   UNL A   1      38.675  34.187  39.779  1.00  0.00     0.055 A 
ATOM     80  C   UNL A   1      40.070  35.906  38.842  1.00  0.00     0.041 A 
ATOM     81  F   UNL A   1      41.018  35.603  36.720  1.00  0.00    -0.206 F 
ATOM     82  C   UNL A   1      39.270  35.448  39.882  1.00  0.00     0.022 A 
BRANCH  79  83
ATOM     83  S   UNL A   1      37.556  33.604  41.083  1.00  0.00     0.124 S 
ATOM     84  O   UNL A   1      37.262  34.841  41.798  1.00  0.00    -0.237 OA
ATOM     85  O   UNL A   1      36.460  33.034  40.308  1.00  0.00    -0.237 OA
ATOM     86  O   UNL A   1      38.366  32.635  41.818  1.00  0.00    -0.744 OA
ENDBRANCH  79  83
ENDBRANCH  52  76
BRANCH  64  87
ATOM     87  C   UNL A   1      44.254  28.841  35.913  1.00  0.00     0.023 A 
ATOM     88  C   UNL A   1      44.140  27.737  36.777  1.00  0.00     0.031 A 
ATOM     89  C   UNL A   1      45.519  29.436  35.765  1.00  0.00     0.131 A 
ATOM     90  C   UNL A   1      45.256  27.304  37.510  1.00  0.00     0.055 A 
ATOM     91  C   UNL A   1      46.640  28.959  36.445  1.00  0.00     0.041 A 
ATOM     92  F   UNL A   1      45.686  30.495  34.957  1.00  0.00    -0.206 F 
ATOM     93  C   UNL A   1      46.509  27.897  37.336  1.00  0.00     0.022 A 
BRANCH  90  94
ATOM     94  S   UNL A   1      45.022  26.030  38.779  1.00  0.00     0.124 S 
ATOM     95  O   UNL A   1      46.390  25.803  39.235  1.00  0.00    -0.237 OA
ATOM     96  O   UNL A   1      44.136  26.694  39.728  1.00  0.00    -0.237 OA
ATOM     97  O   UNL A   1      44.423  24.918  38.043  1.00  0.00    -0.744 OA
ENDBRANCH  90  94
ENDBRANCH  64  87
ENDBRANCH  38  39
ENDBRANCH  30  33
ENDBRANCH  28  29
ENDBRANCH  27  28
ENDBRANCH  26  27
ENDBRANCH   1  26
TORSDOF 20
ENDMDL
