MODEL 1
REMARK VINA RESULT:     -12.7      0.000      0.000
REMARK SMILES Cc1ccc2cc(C[N@H+]3CC[NH2+][C@H](C(=O)NCCCCNC(=O)c4ccc(-c5c6nc(c(-c7cc(S(=O)(=O)[O-])ccc7F)c7ccc([nH]7)c(-c7cc(S(=O)(=O)[O-])ccc7F)c7nc(c(-c8cc(S(=O)(=O)[O-])ccc8F)c8ccc5[nH]8)C=C7)C=C6)cc4)C3)c(N3CCOCC3)nc2c1
REMARK SMILES IDX 18 1 17 2 16 3 14 4 15 5 13 7 9 8 10 9 87 10 11 12 12 13
REMARK SMILES IDX 8 16 7 17 1 18 2 19 3 20 97 21 4 22 96 23 5 24 95 25 6 26
REMARK SMILES IDX 88 27 89 28 90 29 94 30 91 31 93 32 92 33 19 34 20 35 21 36
REMARK SMILES IDX 22 37 23 39 24 40 25 41 86 42 26 43 85 44 27 45 28 46 29 47
REMARK SMILES IDX 79 48 30 49 84 50 78 51 80 52 31 53 83 54 77 55 76 56 32 58
REMARK SMILES IDX 64 59 44 60 63 61 45 62 48 63 62 64 81 65 46 66 47 67 61 69
REMARK SMILES IDX 82 70 49 71 33 72 34 73 42 74 35 75 41 76 43 77 40 78 36 79
REMARK SMILES IDX 37 80 38 81 39 82 65 83 66 84 74 85 67 86 73 87 75 88 72 89
REMARK SMILES IDX 68 90 69 91 70 92 71 93 50 94 51 95 59 96 52 97 58 98 60 99
REMARK SMILES IDX 57 100 53 101 54 102 55 103 56 104
REMARK H PARENT 16 6 9 11 12 14 12 15 21 38 80 57 48 68
REMARK Flexibility Score: inf
ROOT
ATOM      1  C   UNL A   1      35.224  24.427  25.635  1.00  0.00     0.023 C 
ENDROOT
BRANCH   1   2
ATOM      2  C   UNL A   1      33.765  24.458  26.108  1.00  0.00     0.116 C 
BRANCH   2   3
ATOM      3  N   UNL A   1      33.043  23.340  25.538  1.00  0.00    -0.351 N 
ATOM      4  C   UNL A   1      32.273  23.294  24.405  1.00  0.00     0.284 C 
ATOM      5  O   UNL A   1      31.476  22.358  24.310  1.00  0.00    -0.268 OA
ATOM      6  H   UNL A   1      33.116  22.492  26.033  1.00  0.00     0.163 HD
BRANCH   4   7
ATOM      7  C   UNL A   1      32.494  24.325  23.268  1.00  0.00     0.328 C 
ATOM      8  N   UNL A   1      31.647  26.451  22.141  1.00  0.00    -0.321 N 
ATOM      9  C   UNL A   1      31.903  25.803  20.851  1.00  0.00     0.324 C 
ATOM     10  C   UNL A   1      31.424  25.432  23.173  1.00  0.00     0.339 C 
ATOM     11  H   UNL A   1      30.784  26.982  22.020  1.00  0.00     0.348 HD
ATOM     12  C   UNL A   1      32.868  24.590  20.879  1.00  0.00     0.323 C 
ATOM     13  N   UNL A   1      32.634  23.624  21.963  1.00  0.00    -0.327 N 
ATOM     14  H   UNL A   1      33.422  22.978  22.012  1.00  0.00     0.347 HD
ATOM     15  H   UNL A   1      31.772  23.115  21.769  1.00  0.00     0.347 HD
BRANCH   8  16
ATOM     16  C   UNL A   1      32.538  27.571  22.533  1.00  0.00     0.303 C 
BRANCH  16  17
ATOM     17  C   UNL A   1      32.385  28.158  23.922  1.00  0.00     0.049 A 
ATOM     18  C   UNL A   1      34.385  31.976  28.686  1.00  0.00     0.044 C 
ATOM     19  C   UNL A   1      34.055  30.817  27.792  1.00  0.00    -0.049 A 
ATOM     20  C   UNL A   1      34.935  29.741  27.674  1.00  0.00     0.004 A 
ATOM     21  C   UNL A   1      32.888  30.838  27.006  1.00  0.00     0.032 A 
ATOM     22  C   UNL A   1      34.661  28.722  26.768  1.00  0.00     0.010 A 
ATOM     23  C   UNL A   1      32.606  29.851  26.065  1.00  0.00     0.073 A 
ATOM     24  C   UNL A   1      33.525  28.794  25.946  1.00  0.00     0.001 A 
ATOM     25  N   UNL A   1      31.525  29.955  25.262  1.00  0.00    -0.230 NA
ATOM     26  C   UNL A   1      33.349  27.895  24.898  1.00  0.00     0.023 A 
ATOM     27  C   UNL A   1      31.400  29.109  24.214  1.00  0.00     0.138 A 
BRANCH  27  28
ATOM     28  N   UNL A   1      30.310  29.232  23.375  1.00  0.00    -0.352 N 
ATOM     29  C   UNL A   1      30.533  29.814  22.046  1.00  0.00     0.146 C 
ATOM     30  C   UNL A   1      29.242  28.238  23.416  1.00  0.00     0.146 C 
ATOM     31  C   UNL A   1      29.210  30.427  21.558  1.00  0.00     0.181 C 
ATOM     32  C   UNL A   1      27.961  28.916  22.887  1.00  0.00     0.181 C 
ATOM     33  O   UNL A   1      28.146  29.457  21.562  1.00  0.00    -0.378 OA
ENDBRANCH  27  28
ENDBRANCH  16  17
ENDBRANCH   8  16
ENDBRANCH   4   7
ENDBRANCH   2   3
ENDBRANCH   1   2
BRANCH   1  34
ATOM     34  C   UNL A   1      35.901  23.075  25.825  1.00  0.00     0.023 C 
BRANCH  34  35
ATOM     35  C   UNL A   1      37.305  23.028  25.252  1.00  0.00     0.116 C 
BRANCH  35  36
ATOM     36  N   UNL A   1      38.051  21.845  25.661  1.00  0.00    -0.352 N 
ATOM     37  C   UNL A   1      39.206  21.806  26.411  1.00  0.00     0.251 C 
ATOM     38  H   UNL A   1      37.690  20.977  25.369  1.00  0.00     0.163 HD
ATOM     39  O   UNL A   1      39.791  20.746  26.603  1.00  0.00    -0.269 OA
BRANCH  37  40
ATOM     40  C   UNL A   1      39.742  23.083  26.918  1.00  0.00     0.039 A 
ATOM     41  C   UNL A   1      39.362  24.283  26.314  1.00  0.00     0.014 A 
ATOM     42  C   UNL A   1      40.726  23.063  27.909  1.00  0.00     0.014 A 
ATOM     43  C   UNL A   1      40.093  25.433  26.569  1.00  0.00     0.010 A 
ATOM     44  C   UNL A   1      41.392  24.247  28.236  1.00  0.00     0.010 A 
ATOM     45  C   UNL A   1      41.116  25.429  27.533  1.00  0.00    -0.014 A 
BRANCH  45  46
ATOM     46  C   UNL A   1      41.858  26.688  27.798  1.00  0.00     0.031 A 
ATOM     47  C   UNL A   1      43.220  26.930  27.206  1.00  0.00     0.074 A 
ATOM     48  C   UNL A   1      41.259  27.640  28.538  1.00  0.00     0.049 A 
ATOM     49  N   UNL A   1      43.979  27.991  27.307  1.00  0.00    -0.248 NA
ATOM     50  C   UNL A   1      43.810  25.849  26.401  1.00  0.00     0.031 C 
ATOM     51  C   UNL A   1      39.938  27.504  29.157  1.00  0.00     0.029 A 
ATOM     52  N   UNL A   1      41.653  28.911  28.871  1.00  0.00    -0.354 N 
ATOM     53  C   UNL A   1      45.140  27.701  26.600  1.00  0.00     0.074 A 
ATOM     54  C   UNL A   1      44.999  26.352  26.097  1.00  0.00     0.031 C 
ATOM     55  C   UNL A   1      39.604  28.664  29.734  1.00  0.00     0.029 A 
ATOM     56  C   UNL A   1      40.715  29.601  29.602  1.00  0.00     0.049 A 
ATOM     57  H   UNL A   1      42.522  29.292  28.612  1.00  0.00     0.167 HD
ATOM     58  C   UNL A   1      46.216  28.495  26.383  1.00  0.00     0.034 A 
ATOM     59  C   UNL A   1      40.743  30.846  30.121  1.00  0.00     0.034 A 
ATOM     60  C   UNL A   1      46.326  29.846  26.875  1.00  0.00     0.049 A 
ATOM     61  C   UNL A   1      41.957  31.699  29.878  1.00  0.00     0.074 A 
ATOM     62  C   UNL A   1      47.365  30.742  26.683  1.00  0.00     0.029 A 
ATOM     63  N   UNL A   1      45.375  30.500  27.644  1.00  0.00    -0.354 N 
ATOM     64  N   UNL A   1      43.030  31.421  29.175  1.00  0.00    -0.248 NA
ATOM     65  C   UNL A   1      41.973  33.030  30.498  1.00  0.00     0.031 C 
ATOM     66  C   UNL A   1      47.067  31.913  27.380  1.00  0.00     0.029 A 
ATOM     67  C   UNL A   1      45.813  31.777  27.956  1.00  0.00     0.049 A 
ATOM     68  H   UNL A   1      44.514  30.113  27.927  1.00  0.00     0.167 HD
ATOM     69  C   UNL A   1      43.846  32.545  29.262  1.00  0.00     0.074 A 
ATOM     70  C   UNL A   1      43.124  33.519  30.054  1.00  0.00     0.031 C 
ATOM     71  C   UNL A   1      45.084  32.742  28.744  1.00  0.00     0.034 A 
BRANCH  58  72
ATOM     72  C   UNL A   1      47.368  27.953  25.573  1.00  0.00     0.023 A 
ATOM     73  C   UNL A   1      47.414  28.168  24.182  1.00  0.00     0.031 A 
ATOM     74  C   UNL A   1      48.339  27.114  26.149  1.00  0.00     0.131 A 
ATOM     75  C   UNL A   1      48.388  27.524  23.409  1.00  0.00     0.055 A 
ATOM     76  C   UNL A   1      49.331  26.504  25.379  1.00  0.00     0.041 A 
ATOM     77  F   UNL A   1      48.338  26.880  27.471  1.00  0.00    -0.206 F 
ATOM     78  C   UNL A   1      49.350  26.698  24.001  1.00  0.00     0.022 A 
BRANCH  75  79
ATOM     79  S   UNL A   1      48.411  27.682  21.603  1.00  0.00     0.124 S 
ATOM     80  O   UNL A   1      49.493  28.643  21.400  1.00  0.00    -0.237 OA
ATOM     81  O   UNL A   1      48.703  26.315  21.181  1.00  0.00    -0.237 OA
ATOM     82  O   UNL A   1      47.076  28.173  21.277  1.00  0.00    -0.744 OA
ENDBRANCH  75  79
ENDBRANCH  58  72
BRANCH  59  83
ATOM     83  C   UNL A   1      39.556  31.341  30.878  1.00  0.00     0.023 A 
ATOM     84  C   UNL A   1      39.574  31.408  32.283  1.00  0.00     0.031 A 
ATOM     85  C   UNL A   1      38.350  31.626  30.219  1.00  0.00     0.131 A 
ATOM     86  C   UNL A   1      38.391  31.666  32.985  1.00  0.00     0.055 A 
ATOM     87  C   UNL A   1      37.190  31.962  30.919  1.00  0.00     0.041 A 
ATOM     88  F   UNL A   1      38.279  31.561  28.880  1.00  0.00    -0.206 F 
ATOM     89  C   UNL A   1      37.201  31.961  32.310  1.00  0.00     0.022 A 
BRANCH  86  90
ATOM     90  S   UNL A   1      38.318  31.462  34.787  1.00  0.00     0.124 S 
ATOM     91  O   UNL A   1      37.086  32.169  35.123  1.00  0.00    -0.237 OA
ATOM     92  O   UNL A   1      38.270  30.009  34.922  1.00  0.00    -0.237 OA
ATOM     93  O   UNL A   1      39.553  32.084  35.253  1.00  0.00    -0.744 OA
ENDBRANCH  86  90
ENDBRANCH  59  83
BRANCH  71  94
ATOM     94  C   UNL A   1      45.769  34.059  29.018  1.00  0.00     0.023 A 
ATOM     95  C   UNL A   1      45.615  35.136  28.124  1.00  0.00     0.031 A 
ATOM     96  C   UNL A   1      46.679  34.199  30.079  1.00  0.00     0.131 A 
ATOM     97  C   UNL A   1      46.386  36.293  28.288  1.00  0.00     0.055 A 
ATOM     98  C   UNL A   1      47.414  35.371  30.264  1.00  0.00     0.041 A 
ATOM     99  F   UNL A   1      46.868  33.196  30.951  1.00  0.00    -0.206 F 
ATOM    100  C   UNL A   1      47.279  36.419  29.358  1.00  0.00     0.022 A 
BRANCH  97 101
ATOM    101  S   UNL A   1      46.327  37.638  27.073  1.00  0.00     0.124 S 
ATOM    102  O   UNL A   1      44.890  37.880  26.962  1.00  0.00    -0.237 OA
ATOM    103  O   UNL A   1      47.087  38.692  27.741  1.00  0.00    -0.237 OA
ATOM    104  O   UNL A   1      46.956  37.068  25.886  1.00  0.00    -0.744 OA
ENDBRANCH  97 101
ENDBRANCH  71  94
ENDBRANCH  45  46
ENDBRANCH  37  40
ENDBRANCH  35  36
ENDBRANCH  34  35
ENDBRANCH   1  34
TORSDOF 17
ENDMDL
MODEL 2
REMARK VINA RESULT:     -12.6      2.005      3.257
REMARK SMILES Cc1ccc2cc(C[N@H+]3CC[NH2+][C@H](C(=O)NCCCCNC(=O)c4ccc(-c5c6nc(c(-c7cc(S(=O)(=O)[O-])ccc7F)c7ccc([nH]7)c(-c7cc(S(=O)(=O)[O-])ccc7F)c7nc(c(-c8cc(S(=O)(=O)[O-])ccc8F)c8ccc5[nH]8)C=C7)C=C6)cc4)C3)c(N3CCOCC3)nc2c1
REMARK SMILES IDX 18 1 17 2 16 3 14 4 15 5 13 7 9 8 10 9 87 10 11 12 12 13
REMARK SMILES IDX 8 16 7 17 1 18 2 19 3 20 97 21 4 22 96 23 5 24 95 25 6 26
REMARK SMILES IDX 88 27 89 28 90 29 94 30 91 31 93 32 92 33 19 34 20 35 21 36
REMARK SMILES IDX 22 37 23 39 24 40 25 41 86 42 26 43 85 44 27 45 28 46 29 47
REMARK SMILES IDX 79 48 30 49 84 50 78 51 80 52 31 53 83 54 77 55 76 56 32 58
REMARK SMILES IDX 64 59 44 60 63 61 45 62 48 63 62 64 81 65 46 66 47 67 61 69
REMARK SMILES IDX 82 70 49 71 33 72 34 73 42 74 35 75 41 76 43 77 40 78 36 79
REMARK SMILES IDX 37 80 38 81 39 82 65 83 66 84 74 85 67 86 73 87 75 88 72 89
REMARK SMILES IDX 68 90 69 91 70 92 71 93 50 94 51 95 59 96 52 97 58 98 60 99
REMARK SMILES IDX 57 100 53 101 54 102 55 103 56 104
REMARK H PARENT 16 6 9 11 12 14 12 15 21 38 80 57 48 68
REMARK Flexibility Score: inf
ROOT
ATOM      1  C   UNL A   1      35.519  22.947  26.274  1.00  0.00     0.023 C 
ENDROOT
BRANCH   1   2
ATOM      2  C   UNL A   1      34.177  22.846  27.010  1.00  0.00     0.116 C 
BRANCH   2   3
ATOM      3  N   UNL A   1      33.334  21.866  26.355  1.00  0.00    -0.351 N 
ATOM      4  C   UNL A   1      32.260  22.064  25.528  1.00  0.00     0.284 C 
ATOM      5  O   UNL A   1      31.487  21.114  25.383  1.00  0.00    -0.268 OA
ATOM      6  H   UNL A   1      33.568  20.925  26.528  1.00  0.00     0.163 HD
BRANCH   4   7
ATOM      7  C   UNL A   1      32.111  23.393  24.744  1.00  0.00     0.328 C 
ATOM      8  N   UNL A   1      30.501  25.021  23.619  1.00  0.00    -0.321 N 
ATOM      9  C   UNL A   1      31.461  25.120  22.514  1.00  0.00     0.324 C 
ATOM     10  C   UNL A   1      30.672  23.738  24.310  1.00  0.00     0.339 C 
ATOM     11  H   UNL A   1      29.577  25.034  23.187  1.00  0.00     0.348 HD
ATOM     12  C   UNL A   1      32.909  24.663  22.829  1.00  0.00     0.323 C 
ATOM     13  N   UNL A   1      33.023  23.397  23.568  1.00  0.00    -0.327 N 
ATOM     14  H   UNL A   1      33.985  23.282  23.888  1.00  0.00     0.347 HD
ATOM     15  H   UNL A   1      32.763  22.629  22.948  1.00  0.00     0.347 HD
BRANCH   8  16
ATOM     16  C   UNL A   1      30.347  26.205  24.499  1.00  0.00     0.303 C 
BRANCH  16  17
ATOM     17  C   UNL A   1      30.405  27.582  23.868  1.00  0.00     0.049 A 
ATOM     18  C   UNL A   1      27.808  33.315  22.581  1.00  0.00     0.044 C 
ATOM     19  C   UNL A   1      28.328  31.909  22.526  1.00  0.00    -0.049 A 
ATOM     20  C   UNL A   1      27.648  30.930  21.801  1.00  0.00     0.004 A 
ATOM     21  C   UNL A   1      29.467  31.545  23.268  1.00  0.00     0.032 A 
ATOM     22  C   UNL A   1      28.089  29.611  21.840  1.00  0.00     0.010 A 
ATOM     23  C   UNL A   1      29.909  30.228  23.356  1.00  0.00     0.073 A 
ATOM     24  C   UNL A   1      29.188  29.257  22.639  1.00  0.00     0.001 A 
ATOM     25  N   UNL A   1      30.949  29.903  24.155  1.00  0.00    -0.230 NA
ATOM     26  C   UNL A   1      29.511  27.920  22.851  1.00  0.00     0.023 A 
ATOM     27  C   UNL A   1      31.212  28.598  24.395  1.00  0.00     0.138 A 
BRANCH  27  28
ATOM     28  N   UNL A   1      32.257  28.265  25.234  1.00  0.00    -0.352 N 
ATOM     29  C   UNL A   1      33.380  27.512  24.659  1.00  0.00     0.146 C 
ATOM     30  C   UNL A   1      32.639  29.163  26.317  1.00  0.00     0.146 C 
ATOM     31  C   UNL A   1      34.066  26.729  25.791  1.00  0.00     0.181 C 
ATOM     32  C   UNL A   1      33.343  28.314  27.395  1.00  0.00     0.181 C 
ATOM     33  O   UNL A   1      34.477  27.600  26.861  1.00  0.00    -0.378 OA
ENDBRANCH  27  28
ENDBRANCH  16  17
ENDBRANCH   8  16
ENDBRANCH   4   7
ENDBRANCH   2   3
ENDBRANCH   1   2
BRANCH   1  34
ATOM     34  C   UNL A   1      35.987  21.629  25.667  1.00  0.00     0.023 C 
BRANCH  34  35
ATOM     35  C   UNL A   1      37.333  21.738  24.976  1.00  0.00     0.116 C 
BRANCH  35  36
ATOM     36  N   UNL A   1      38.224  20.626  25.281  1.00  0.00    -0.352 N 
ATOM     37  C   UNL A   1      39.391  20.669  26.011  1.00  0.00     0.251 C 
ATOM     38  H   UNL A   1      37.963  19.746  24.925  1.00  0.00     0.163 HD
ATOM     39  O   UNL A   1      40.104  19.676  26.111  1.00  0.00    -0.269 OA
BRANCH  37  40
ATOM     40  C   UNL A   1      39.782  21.958  26.612  1.00  0.00     0.039 A 
ATOM     41  C   UNL A   1      39.251  23.147  26.107  1.00  0.00     0.014 A 
ATOM     42  C   UNL A   1      40.780  21.981  27.588  1.00  0.00     0.014 A 
ATOM     43  C   UNL A   1      39.845  24.353  26.444  1.00  0.00     0.010 A 
ATOM     44  C   UNL A   1      41.306  23.207  28.001  1.00  0.00     0.010 A 
ATOM     45  C   UNL A   1      40.879  24.398  27.395  1.00  0.00    -0.014 A 
BRANCH  45  46
ATOM     46  C   UNL A   1      41.471  25.712  27.751  1.00  0.00     0.031 A 
ATOM     47  C   UNL A   1      42.851  26.097  27.290  1.00  0.00     0.074 A 
ATOM     48  C   UNL A   1      40.721  26.584  28.452  1.00  0.00     0.049 A 
ATOM     49  N   UNL A   1      43.493  27.221  27.480  1.00  0.00    -0.248 NA
ATOM     50  C   UNL A   1      43.610  25.099  26.521  1.00  0.00     0.031 C 
ATOM     51  C   UNL A   1      39.370  26.308  28.945  1.00  0.00     0.029 A 
ATOM     52  N   UNL A   1      40.960  27.876  28.844  1.00  0.00    -0.354 N 
ATOM     53  C   UNL A   1      44.735  27.060  26.877  1.00  0.00     0.074 A 
ATOM     54  C   UNL A   1      44.768  25.718  26.337  1.00  0.00     0.031 C 
ATOM     55  C   UNL A   1      38.876  27.415  29.512  1.00  0.00     0.029 A 
ATOM     56  C   UNL A   1      39.900  28.456  29.500  1.00  0.00     0.049 A 
ATOM     57  H   UNL A   1      41.809  28.343  28.673  1.00  0.00     0.167 HD
ATOM     58  C   UNL A   1      45.745  27.957  26.774  1.00  0.00     0.034 A 
ATOM     59  C   UNL A   1      39.763  29.682  30.043  1.00  0.00     0.034 A 
ATOM     60  C   UNL A   1      45.682  29.298  27.299  1.00  0.00     0.049 A 
ATOM     61  C   UNL A   1      40.908  30.652  29.928  1.00  0.00     0.074 A 
ATOM     62  C   UNL A   1      46.644  30.291  27.220  1.00  0.00     0.029 A 
ATOM     63  N   UNL A   1      44.609  29.839  27.991  1.00  0.00    -0.354 N 
ATOM     64  N   UNL A   1      42.060  30.494  29.320  1.00  0.00    -0.248 NA
ATOM     65  C   UNL A   1      40.741  31.960  30.572  1.00  0.00     0.031 C 
ATOM     66  C   UNL A   1      46.175  31.409  27.910  1.00  0.00     0.029 A 
ATOM     67  C   UNL A   1      44.893  31.141  28.367  1.00  0.00     0.049 A 
ATOM     68  H   UNL A   1      43.767  29.366  28.187  1.00  0.00     0.167 HD
ATOM     69  C   UNL A   1      42.754  31.686  29.503  1.00  0.00     0.074 A 
ATOM     70  C   UNL A   1      41.875  32.567  30.245  1.00  0.00     0.031 C 
ATOM     71  C   UNL A   1      44.009  32.013  29.104  1.00  0.00     0.034 A 
BRANCH  58  72
ATOM     72  C   UNL A   1      47.011  27.547  26.062  1.00  0.00     0.023 A 
ATOM     73  C   UNL A   1      47.171  27.829  24.691  1.00  0.00     0.031 A 
ATOM     74  C   UNL A   1      47.990  26.764  26.699  1.00  0.00     0.131 A 
ATOM     75  C   UNL A   1      48.265  27.301  23.995  1.00  0.00     0.055 A 
ATOM     76  C   UNL A   1      49.099  26.272  26.008  1.00  0.00     0.041 A 
ATOM     77  F   UNL A   1      47.883  26.470  28.004  1.00  0.00    -0.206 F 
ATOM     78  C   UNL A   1      49.233  26.529  24.646  1.00  0.00     0.022 A 
BRANCH  75  79
ATOM     79  S   UNL A   1      48.447  27.543  22.206  1.00  0.00     0.124 S 
ATOM     80  O   UNL A   1      47.170  28.164  21.858  1.00  0.00    -0.237 OA
ATOM     81  O   UNL A   1      49.609  28.423  22.133  1.00  0.00    -0.237 OA
ATOM     82  O   UNL A   1      48.641  26.192  21.688  1.00  0.00    -0.744 OA
ENDBRANCH  75  79
ENDBRANCH  58  72
BRANCH  59  83
ATOM     83  C   UNL A   1      38.472  30.044  30.698  1.00  0.00     0.023 A 
ATOM     84  C   UNL A   1      37.473  30.735  29.990  1.00  0.00     0.031 A 
ATOM     85  C   UNL A   1      38.276  29.822  32.071  1.00  0.00     0.131 A 
ATOM     86  C   UNL A   1      36.366  31.255  30.672  1.00  0.00     0.055 A 
ATOM     87  C   UNL A   1      37.132  30.272  32.733  1.00  0.00     0.041 A 
ATOM     88  F   UNL A   1      39.208  29.180  32.792  1.00  0.00    -0.206 F 
ATOM     89  C   UNL A   1      36.181  31.012  32.037  1.00  0.00     0.022 A 
BRANCH  86  90
ATOM     90  S   UNL A   1      35.223  32.399  29.849  1.00  0.00     0.124 S 
ATOM     91  O   UNL A   1      36.134  33.415  29.329  1.00  0.00    -0.237 OA
ATOM     92  O   UNL A   1      34.603  31.535  28.849  1.00  0.00    -0.237 OA
ATOM     93  O   UNL A   1      34.338  32.834  30.924  1.00  0.00    -0.744 OA
ENDBRANCH  86  90
ENDBRANCH  59  83
BRANCH  71  94
ATOM     94  C   UNL A   1      44.538  33.379  29.464  1.00  0.00     0.023 A 
ATOM     95  C   UNL A   1      44.288  34.480  28.622  1.00  0.00     0.031 A 
ATOM     96  C   UNL A   1      45.402  33.560  30.557  1.00  0.00     0.131 A 
ATOM     97  C   UNL A   1      44.924  35.703  28.867  1.00  0.00     0.055 A 
ATOM     98  C   UNL A   1      45.999  34.793  30.824  1.00  0.00     0.041 A 
ATOM     99  F   UNL A   1      45.679  32.538  31.383  1.00  0.00    -0.206 F 
ATOM    100  C   UNL A   1      45.772  35.868  29.968  1.00  0.00     0.022 A 
BRANCH  97 101
ATOM    101  S   UNL A   1      44.746  37.097  27.721  1.00  0.00     0.124 S 
ATOM    102  O   UNL A   1      46.071  37.152  27.106  1.00  0.00    -0.237 OA
ATOM    103  O   UNL A   1      43.671  36.642  26.844  1.00  0.00    -0.237 OA
ATOM    104  O   UNL A   1      44.415  38.225  28.586  1.00  0.00    -0.744 OA
ENDBRANCH  97 101
ENDBRANCH  71  94
ENDBRANCH  45  46
ENDBRANCH  37  40
ENDBRANCH  35  36
ENDBRANCH  34  35
ENDBRANCH   1  34
TORSDOF 17
ENDMDL
MODEL 3
REMARK VINA RESULT:     -12.5      2.035      2.347
REMARK SMILES Cc1ccc2cc(C[N@H+]3CC[NH2+][C@H](C(=O)NCCCCNC(=O)c4ccc(-c5c6nc(c(-c7cc(S(=O)(=O)[O-])ccc7F)c7ccc([nH]7)c(-c7cc(S(=O)(=O)[O-])ccc7F)c7nc(c(-c8cc(S(=O)(=O)[O-])ccc8F)c8ccc5[nH]8)C=C7)C=C6)cc4)C3)c(N3CCOCC3)nc2c1
REMARK SMILES IDX 18 1 17 2 16 3 14 4 15 5 13 7 9 8 10 9 87 10 11 12 12 13
REMARK SMILES IDX 8 16 7 17 1 18 2 19 3 20 97 21 4 22 96 23 5 24 95 25 6 26
REMARK SMILES IDX 88 27 89 28 90 29 94 30 91 31 93 32 92 33 19 34 20 35 21 36
REMARK SMILES IDX 22 37 23 39 24 40 25 41 86 42 26 43 85 44 27 45 28 46 29 47
REMARK SMILES IDX 79 48 30 49 84 50 78 51 80 52 31 53 83 54 77 55 76 56 32 58
REMARK SMILES IDX 64 59 44 60 63 61 45 62 48 63 62 64 81 65 46 66 47 67 61 69
REMARK SMILES IDX 82 70 49 71 33 72 34 73 42 74 35 75 41 76 43 77 40 78 36 79
REMARK SMILES IDX 37 80 38 81 39 82 65 83 66 84 74 85 67 86 73 87 75 88 72 89
REMARK SMILES IDX 68 90 69 91 70 92 71 93 50 94 51 95 59 96 52 97 58 98 60 99
REMARK SMILES IDX 57 100 53 101 54 102 55 103 56 104
REMARK H PARENT 16 6 9 11 12 14 12 15 21 38 80 57 48 68
REMARK Flexibility Score: inf
ROOT
ATOM      1  C   UNL A   1      35.336  23.407  25.858  1.00  0.00     0.023 C 
ENDROOT
BRANCH   1   2
ATOM      2  C   UNL A   1      33.802  23.421  25.882  1.00  0.00     0.116 C 
BRANCH   2   3
ATOM      3  N   UNL A   1      33.289  22.787  24.686  1.00  0.00    -0.351 N 
ATOM      4  C   UNL A   1      32.424  23.284  23.746  1.00  0.00     0.284 C 
ATOM      5  O   UNL A   1      31.852  22.462  23.026  1.00  0.00    -0.268 OA
ATOM      6  H   UNL A   1      33.607  21.869  24.525  1.00  0.00     0.163 HD
BRANCH   4   7
ATOM      7  C   UNL A   1      32.276  24.815  23.552  1.00  0.00     0.328 C 
ATOM      8  N   UNL A   1      31.073  26.686  22.303  1.00  0.00    -0.321 N 
ATOM      9  C   UNL A   1      32.372  27.352  22.163  1.00  0.00     0.324 C 
ATOM     10  C   UNL A   1      31.271  25.241  22.462  1.00  0.00     0.339 C 
ATOM     11  H   UNL A   1      30.580  26.849  21.425  1.00  0.00     0.348 HD
ATOM     12  C   UNL A   1      33.485  26.884  23.136  1.00  0.00     0.323 C 
ATOM     13  N   UNL A   1      33.608  25.428  23.299  1.00  0.00    -0.327 N 
ATOM     14  H   UNL A   1      34.224  25.230  24.087  1.00  0.00     0.347 HD
ATOM     15  H   UNL A   1      33.995  25.033  22.441  1.00  0.00     0.347 HD
BRANCH   8  16
ATOM     16  C   UNL A   1      30.086  27.300  23.225  1.00  0.00     0.303 C 
BRANCH  16  17
ATOM     17  C   UNL A   1      30.601  28.180  24.347  1.00  0.00     0.049 A 
ATOM     18  C   UNL A   1      35.404  30.814  27.702  1.00  0.00     0.044 C 
ATOM     19  C   UNL A   1      34.258  29.977  27.216  1.00  0.00    -0.049 A 
ATOM     20  C   UNL A   1      34.219  28.607  27.479  1.00  0.00     0.004 A 
ATOM     21  C   UNL A   1      33.246  30.552  26.425  1.00  0.00     0.032 A 
ATOM     22  C   UNL A   1      33.199  27.830  26.939  1.00  0.00     0.010 A 
ATOM     23  C   UNL A   1      32.236  29.793  25.840  1.00  0.00     0.073 A 
ATOM     24  C   UNL A   1      32.237  28.411  26.098  1.00  0.00     0.001 A 
ATOM     25  N   UNL A   1      31.337  30.366  25.010  1.00  0.00    -0.230 NA
ATOM     26  C   UNL A   1      31.341  27.617  25.388  1.00  0.00     0.023 A 
ATOM     27  C   UNL A   1      30.514  29.575  24.285  1.00  0.00     0.138 A 
BRANCH  27  28
ATOM     28  N   UNL A   1      29.614  30.158  23.414  1.00  0.00    -0.352 N 
ATOM     29  C   UNL A   1      28.965  31.406  23.837  1.00  0.00     0.146 C 
ATOM     30  C   UNL A   1      29.822  30.057  21.974  1.00  0.00     0.146 C 
ATOM     31  C   UNL A   1      27.627  31.532  23.091  1.00  0.00     0.181 C 
ATOM     32  C   UNL A   1      28.447  30.221  21.296  1.00  0.00     0.181 C 
ATOM     33  O   UNL A   1      27.810  31.463  21.664  1.00  0.00    -0.378 OA
ENDBRANCH  27  28
ENDBRANCH  16  17
ENDBRANCH   8  16
ENDBRANCH   4   7
ENDBRANCH   2   3
ENDBRANCH   1   2
BRANCH   1  34
ATOM     34  C   UNL A   1      35.928  22.091  25.365  1.00  0.00     0.023 C 
BRANCH  34  35
ATOM     35  C   UNL A   1      37.381  22.215  24.945  1.00  0.00     0.116 C 
BRANCH  35  36
ATOM     36  N   UNL A   1      38.182  21.052  25.309  1.00  0.00    -0.352 N 
ATOM     37  C   UNL A   1      39.317  21.032  26.089  1.00  0.00     0.251 C 
ATOM     38  H   UNL A   1      37.878  20.184  24.957  1.00  0.00     0.163 HD
ATOM     39  O   UNL A   1      39.956  19.997  26.238  1.00  0.00    -0.269 OA
BRANCH  37  40
ATOM     40  C   UNL A   1      39.766  22.306  26.684  1.00  0.00     0.039 A 
ATOM     41  C   UNL A   1      39.261  23.513  26.200  1.00  0.00     0.014 A 
ATOM     42  C   UNL A   1      40.792  22.290  27.632  1.00  0.00     0.014 A 
ATOM     43  C   UNL A   1      39.903  24.698  26.525  1.00  0.00     0.010 A 
ATOM     44  C   UNL A   1      41.369  23.496  28.035  1.00  0.00     0.010 A 
ATOM     45  C   UNL A   1      40.965  24.704  27.447  1.00  0.00    -0.014 A 
BRANCH  45  46
ATOM     46  C   UNL A   1      41.610  25.996  27.792  1.00  0.00     0.031 A 
ATOM     47  C   UNL A   1      42.977  26.349  27.271  1.00  0.00     0.074 A 
ATOM     48  C   UNL A   1      40.918  26.878  28.537  1.00  0.00     0.049 A 
ATOM     49  N   UNL A   1      43.659  27.452  27.446  1.00  0.00    -0.248 NA
ATOM     50  C   UNL A   1      43.671  25.341  26.455  1.00  0.00     0.031 C 
ATOM     51  C   UNL A   1      39.584  26.633  29.089  1.00  0.00     0.029 A 
ATOM     52  N   UNL A   1      41.212  28.158  28.934  1.00  0.00    -0.354 N 
ATOM     53  C   UNL A   1      44.866  27.265  26.782  1.00  0.00     0.074 A 
ATOM     54  C   UNL A   1      44.837  25.931  26.225  1.00  0.00     0.031 C 
ATOM     55  C   UNL A   1      39.148  27.745  29.693  1.00  0.00     0.029 A 
ATOM     56  C   UNL A   1      40.199  28.757  29.646  1.00  0.00     0.049 A 
ATOM     57  H   UNL A   1      42.065  28.603  28.729  1.00  0.00     0.167 HD
ATOM     58  C   UNL A   1      45.896  28.135  26.644  1.00  0.00     0.034 A 
ATOM     59  C   UNL A   1      40.123  29.979  30.211  1.00  0.00     0.034 A 
ATOM     60  C   UNL A   1      45.895  29.470  27.189  1.00  0.00     0.049 A 
ATOM     61  C   UNL A   1      41.288  30.918  30.055  1.00  0.00     0.074 A 
ATOM     62  C   UNL A   1      46.880  30.437  27.078  1.00  0.00     0.029 A 
ATOM     63  N   UNL A   1      44.871  30.030  27.937  1.00  0.00    -0.354 N 
ATOM     64  N   UNL A   1      42.406  30.737  29.392  1.00  0.00    -0.248 NA
ATOM     65  C   UNL A   1      41.189  32.222  30.723  1.00  0.00     0.031 C 
ATOM     66  C   UNL A   1      46.475  31.558  27.803  1.00  0.00     0.029 A 
ATOM     67  C   UNL A   1      45.209  31.319  28.315  1.00  0.00     0.049 A 
ATOM     68  H   UNL A   1      44.025  29.578  28.166  1.00  0.00     0.167 HD
ATOM     69  C   UNL A   1      43.141  31.907  29.558  1.00  0.00     0.074 A 
ATOM     70  C   UNL A   1      42.323  32.801  30.350  1.00  0.00     0.031 C 
ATOM     71  C   UNL A   1      44.385  32.204  29.105  1.00  0.00     0.034 A 
BRANCH  58  72
ATOM     72  C   UNL A   1      47.115  27.701  25.869  1.00  0.00     0.023 A 
ATOM     73  C   UNL A   1      47.217  27.992  24.495  1.00  0.00     0.031 A 
ATOM     74  C   UNL A   1      48.103  26.886  26.451  1.00  0.00     0.131 A 
ATOM     75  C   UNL A   1      48.263  27.444  23.741  1.00  0.00     0.055 A 
ATOM     76  C   UNL A   1      49.164  26.373  25.703  1.00  0.00     0.041 A 
ATOM     77  F   UNL A   1      48.051  26.581  27.757  1.00  0.00    -0.206 F 
ATOM     78  C   UNL A   1      49.240  26.641  24.339  1.00  0.00     0.022 A 
BRANCH  75  79
ATOM     79  S   UNL A   1      48.365  27.699  21.948  1.00  0.00     0.124 S 
ATOM     80  O   UNL A   1      49.497  28.618  21.841  1.00  0.00    -0.237 OA
ATOM     81  O   UNL A   1      48.611  26.346  21.461  1.00  0.00    -0.237 OA
ATOM     82  O   UNL A   1      47.068  28.271  21.602  1.00  0.00    -0.744 OA
ENDBRANCH  75  79
ENDBRANCH  58  72
BRANCH  59  83
ATOM     83  C   UNL A   1      38.874  30.367  30.930  1.00  0.00     0.023 A 
ATOM     84  C   UNL A   1      37.994  31.319  30.385  1.00  0.00     0.031 A 
ATOM     85  C   UNL A   1      38.615  29.893  32.226  1.00  0.00     0.131 A 
ATOM     86  C   UNL A   1      36.949  31.830  31.164  1.00  0.00     0.055 A 
ATOM     87  C   UNL A   1      37.524  30.345  32.970  1.00  0.00     0.041 A 
ATOM     88  F   UNL A   1      39.434  28.994  32.794  1.00  0.00    -0.206 F 
ATOM     89  C   UNL A   1      36.697  31.335  32.448  1.00  0.00     0.022 A 
BRANCH  86  90
ATOM     90  S   UNL A   1      35.990  33.264  30.602  1.00  0.00     0.124 S 
ATOM     91  O   UNL A   1      34.642  32.710  30.508  1.00  0.00    -0.237 OA
ATOM     92  O   UNL A   1      36.207  34.215  31.690  1.00  0.00    -0.237 OA
ATOM     93  O   UNL A   1      36.617  33.623  29.335  1.00  0.00    -0.744 OA
ENDBRANCH  86  90
ENDBRANCH  59  83
BRANCH  71  94
ATOM     94  C   UNL A   1      44.969  33.550  29.457  1.00  0.00     0.023 A 
ATOM     95  C   UNL A   1      45.652  33.729  30.675  1.00  0.00     0.031 A 
ATOM     96  C   UNL A   1      44.727  34.680  28.656  1.00  0.00     0.131 A 
ATOM     97  C   UNL A   1      46.038  35.014  31.074  1.00  0.00     0.055 A 
ATOM     98  C   UNL A   1      45.154  35.953  29.038  1.00  0.00     0.041 A 
ATOM     99  F   UNL A   1      44.072  34.560  27.490  1.00  0.00    -0.206 F 
ATOM    100  C   UNL A   1      45.800  36.126  30.259  1.00  0.00     0.022 A 
BRANCH  97 101
ATOM    101  S   UNL A   1      46.782  35.305  32.703  1.00  0.00     0.124 S 
ATOM    102  O   UNL A   1      47.675  36.429  32.429  1.00  0.00    -0.237 OA
ATOM    103  O   UNL A   1      45.616  35.620  33.524  1.00  0.00    -0.237 OA
ATOM    104  O   UNL A   1      47.448  34.045  33.016  1.00  0.00    -0.744 OA
ENDBRANCH  97 101
ENDBRANCH  71  94
ENDBRANCH  45  46
ENDBRANCH  37  40
ENDBRANCH  35  36
ENDBRANCH  34  35
ENDBRANCH   1  34
TORSDOF 17
ENDMDL
