MODEL 1
REMARK VINA RESULT:     -11.0      0.000      0.000
REMARK SMILES CC(C)CCNC(=O)[C@@H](C)Oc1ccc(N)cc1C(=O)NCCCCNC(=O)c1ccc(-c2c3nc(c(-c4cc(S(=O)(=O)[O-])ccc4F)c4ccc([nH]4)c(-c4cc(S(=O)(=O)[O-])ccc4F)c4nc(c(-c5cc(S(=O)(=O)[O-])ccc5F)c5ccc2[nH]5)C=C4)C=C3)cc1
REMARK SMILES IDX 22 1 21 2 19 3 20 4 18 6 12 7 13 8 14 9 17 10 15 11 11 12
REMARK SMILES IDX 9 13 10 14 7 15 6 16 8 18 5 19 4 20 2 21 1 22 3 23 16 24
REMARK SMILES IDX 23 27 24 28 25 29 26 30 27 31 28 33 29 34 30 35 91 36 31 37
REMARK SMILES IDX 90 38 32 39 33 40 34 41 84 42 35 43 89 44 83 45 85 46 36 47
REMARK SMILES IDX 88 48 82 49 81 50 37 52 69 53 49 54 68 55 50 56 53 57 67 58
REMARK SMILES IDX 86 59 51 60 52 61 66 63 87 64 54 65 38 66 39 67 47 68 40 69
REMARK SMILES IDX 46 70 48 71 45 72 41 73 42 74 43 75 44 76 70 77 71 78 79 79
REMARK SMILES IDX 72 80 78 81 80 82 77 83 73 84 74 85 75 86 76 87 55 88 56 89
REMARK SMILES IDX 64 90 57 91 63 92 65 93 62 94 58 95 59 96 60 97 61 98
REMARK H PARENT 21 5 6 17 16 25 16 26 26 32 85 51 53 62
REMARK Flexibility Score: inf
ROOT
ATOM      1  C   UNL A   1      35.449  23.688  24.014  1.00  0.00     0.116 C 
ENDROOT
BRANCH   1   2
ATOM      2  N   UNL A   1      34.381  23.870  23.089  1.00  0.00    -0.352 N 
ATOM      3  C   UNL A   1      33.361  24.788  23.123  1.00  0.00     0.255 C 
ATOM      4  O   UNL A   1      32.497  24.622  22.253  1.00  0.00    -0.269 OA
ATOM      5  H   UNL A   1      34.373  23.252  22.322  1.00  0.00     0.163 HD
BRANCH   3   6
ATOM      6  C   UNL A   1      33.207  25.968  24.069  1.00  0.00     0.083 A 
ATOM      7  C   UNL A   1      33.000  26.025  25.464  1.00  0.00     0.133 A 
ATOM      8  C   UNL A   1      33.384  27.186  26.153  1.00  0.00     0.049 A 
ATOM      9  C   UNL A   1      33.681  28.370  25.475  1.00  0.00     0.029 A 
ATOM     10  C   UNL A   1      33.449  27.206  23.415  1.00  0.00     0.043 A 
ATOM     11  C   UNL A   1      33.599  28.416  24.094  1.00  0.00     0.032 A 
BRANCH   7  12
ATOM     12  O   UNL A   1      32.557  24.993  26.234  1.00  0.00    -0.480 OA
BRANCH  12  13
ATOM     13  C   UNL A   1      31.236  24.448  26.018  1.00  0.00     0.258 C 
ATOM     14  C   UNL A   1      30.051  25.442  26.074  1.00  0.00     0.064 C 
BRANCH  13  15
ATOM     15  C   UNL A   1      30.777  23.069  26.567  1.00  0.00     0.260 C 
ATOM     16  N   UNL A   1      31.232  21.895  26.035  1.00  0.00    -0.353 N 
ATOM     17  H   UNL A   1      31.161  21.106  26.620  1.00  0.00     0.163 HD
ATOM     18  O   UNL A   1      30.025  22.993  27.543  1.00  0.00    -0.271 OA
BRANCH  16  19
ATOM     19  C   UNL A   1      31.804  21.656  24.728  1.00  0.00     0.116 C 
BRANCH  19  20
ATOM     20  C   UNL A   1      33.094  20.855  24.743  1.00  0.00     0.024 C 
BRANCH  20  21
ATOM     21  C   UNL A   1      32.911  19.356  24.450  1.00  0.00    -0.016 C 
ATOM     22  C   UNL A   1      32.277  19.092  23.079  1.00  0.00     0.007 C 
ATOM     23  C   UNL A   1      34.276  18.668  24.521  1.00  0.00     0.007 C 
ENDBRANCH  20  21
ENDBRANCH  19  20
ENDBRANCH  16  19
ENDBRANCH  13  15
ENDBRANCH  12  13
ENDBRANCH   7  12
BRANCH  11  24
ATOM     24  N   UNL A   1      33.824  29.594  23.404  1.00  0.00    -0.399 N 
ATOM     25  H   UNL A   1      33.084  30.036  22.930  1.00  0.00     0.156 HD
ATOM     26  H   UNL A   1      34.726  29.990  23.387  1.00  0.00     0.156 HD
ENDBRANCH  11  24
ENDBRANCH   3   6
ENDBRANCH   1   2
BRANCH   1  27
ATOM     27  C   UNL A   1      36.657  22.920  23.510  1.00  0.00     0.023 C 
BRANCH  27  28
ATOM     28  C   UNL A   1      37.118  21.775  24.386  1.00  0.00     0.023 C 
BRANCH  28  29
ATOM     29  C   UNL A   1      37.868  22.192  25.643  1.00  0.00     0.116 C 
BRANCH  29  30
ATOM     30  N   UNL A   1      39.224  21.651  25.740  1.00  0.00    -0.352 N 
ATOM     31  C   UNL A   1      40.369  22.241  26.229  1.00  0.00     0.251 C 
ATOM     32  H   UNL A   1      39.334  20.732  25.407  1.00  0.00     0.163 HD
ATOM     33  O   UNL A   1      41.450  21.662  26.154  1.00  0.00    -0.269 OA
BRANCH  31  34
ATOM     34  C   UNL A   1      40.283  23.605  26.789  1.00  0.00     0.039 A 
ATOM     35  C   UNL A   1      40.637  23.820  28.122  1.00  0.00     0.014 A 
ATOM     36  C   UNL A   1      39.990  24.679  25.950  1.00  0.00     0.014 A 
ATOM     37  C   UNL A   1      40.827  25.128  28.573  1.00  0.00     0.010 A 
ATOM     38  C   UNL A   1      40.309  25.964  26.363  1.00  0.00     0.010 A 
ATOM     39  C   UNL A   1      40.738  26.207  27.677  1.00  0.00    -0.014 A 
BRANCH  39  40
ATOM     40  C   UNL A   1      41.094  27.596  28.075  1.00  0.00     0.031 A 
ATOM     41  C   UNL A   1      42.537  28.025  28.060  1.00  0.00     0.074 A 
ATOM     42  C   UNL A   1      40.142  28.428  28.550  1.00  0.00     0.049 A 
ATOM     43  N   UNL A   1      43.078  29.129  28.504  1.00  0.00    -0.248 NA
ATOM     44  C   UNL A   1      43.509  27.056  27.525  1.00  0.00     0.031 C 
ATOM     45  C   UNL A   1      38.717  28.107  28.682  1.00  0.00     0.029 A 
ATOM     46  N   UNL A   1      40.230  29.715  29.024  1.00  0.00    -0.354 N 
ATOM     47  C   UNL A   1      44.452  28.967  28.344  1.00  0.00     0.074 A 
ATOM     48  C   UNL A   1      44.661  27.635  27.822  1.00  0.00     0.031 C 
ATOM     49  C   UNL A   1      38.064  29.178  29.163  1.00  0.00     0.029 A 
ATOM     50  C   UNL A   1      39.023  30.244  29.426  1.00  0.00     0.049 A 
ATOM     51  H   UNL A   1      41.078  30.213  29.072  1.00  0.00     0.167 HD
ATOM     52  C   UNL A   1      45.444  29.858  28.584  1.00  0.00     0.034 A 
ATOM     53  C   UNL A   1      38.728  31.450  29.955  1.00  0.00     0.034 A 
ATOM     54  C   UNL A   1      45.211  31.205  29.039  1.00  0.00     0.049 A 
ATOM     55  C   UNL A   1      39.848  32.438  30.174  1.00  0.00     0.074 A 
ATOM     56  C   UNL A   1      46.129  32.226  29.207  1.00  0.00     0.029 A 
ATOM     57  N   UNL A   1      43.972  31.720  29.392  1.00  0.00    -0.354 N 
ATOM     58  N   UNL A   1      41.133  32.294  29.943  1.00  0.00    -0.248 NA
ATOM     59  C   UNL A   1      39.477  33.752  30.714  1.00  0.00     0.031 C 
ATOM     60  C   UNL A   1      45.454  33.340  29.718  1.00  0.00     0.029 A 
ATOM     61  C   UNL A   1      44.105  33.037  29.804  1.00  0.00     0.049 A 
ATOM     62  H   UNL A   1      43.123  31.223  29.355  1.00  0.00     0.167 HD
ATOM     63  C   UNL A   1      41.715  33.514  30.275  1.00  0.00     0.074 A 
ATOM     64  C   UNL A   1      40.641  34.383  30.707  1.00  0.00     0.031 C 
ATOM     65  C   UNL A   1      43.020  33.887  30.225  1.00  0.00     0.034 A 
BRANCH  52  66
ATOM     66  C   UNL A   1      46.864  29.398  28.369  1.00  0.00     0.023 A 
ATOM     67  C   UNL A   1      47.614  28.796  29.394  1.00  0.00     0.031 A 
ATOM     68  C   UNL A   1      47.486  29.583  27.121  1.00  0.00     0.131 A 
ATOM     69  C   UNL A   1      48.962  28.471  29.177  1.00  0.00     0.055 A 
ATOM     70  C   UNL A   1      48.802  29.181  26.887  1.00  0.00     0.041 A 
ATOM     71  F   UNL A   1      46.826  30.170  26.110  1.00  0.00    -0.206 F 
ATOM     72  C   UNL A   1      49.553  28.635  27.923  1.00  0.00     0.022 A 
BRANCH  69  73
ATOM     73  S   UNL A   1      49.964  27.951  30.596  1.00  0.00     0.124 S 
ATOM     74  O   UNL A   1      51.318  28.083  30.062  1.00  0.00    -0.237 OA
ATOM     75  O   UNL A   1      49.586  28.915  31.622  1.00  0.00    -0.237 OA
ATOM     76  O   UNL A   1      49.529  26.576  30.838  1.00  0.00    -0.744 OA
ENDBRANCH  69  73
ENDBRANCH  52  66
BRANCH  53  77
ATOM     77  C   UNL A   1      37.325  31.808  30.319  1.00  0.00     0.023 A 
ATOM     78  C   UNL A   1      36.415  32.233  29.336  1.00  0.00     0.031 A 
ATOM     79  C   UNL A   1      36.892  31.802  31.656  1.00  0.00     0.131 A 
ATOM     80  C   UNL A   1      35.143  32.695  29.709  1.00  0.00     0.055 A 
ATOM     81  C   UNL A   1      35.605  32.208  32.016  1.00  0.00     0.041 A 
ATOM     82  F   UNL A   1      37.717  31.400  32.635  1.00  0.00    -0.206 F 
ATOM     83  C   UNL A   1      34.728  32.674  31.043  1.00  0.00     0.022 A 
BRANCH  80  84
ATOM     84  S   UNL A   1      34.078  33.428  28.437  1.00  0.00     0.124 S 
ATOM     85  O   UNL A   1      33.156  34.221  29.242  1.00  0.00    -0.237 OA
ATOM     86  O   UNL A   1      35.039  34.178  27.635  1.00  0.00    -0.237 OA
ATOM     87  O   UNL A   1      33.489  32.265  27.775  1.00  0.00    -0.744 OA
ENDBRANCH  80  84
ENDBRANCH  53  77
BRANCH  65  88
ATOM     88  C   UNL A   1      43.338  35.314  30.591  1.00  0.00     0.023 A 
ATOM     89  C   UNL A   1      43.526  35.711  31.926  1.00  0.00     0.031 A 
ATOM     90  C   UNL A   1      43.447  36.290  29.585  1.00  0.00     0.131 A 
ATOM     91  C   UNL A   1      43.760  37.062  32.224  1.00  0.00     0.055 A 
ATOM     92  C   UNL A   1      43.738  37.622  29.883  1.00  0.00     0.041 A 
ATOM     93  F   UNL A   1      43.276  35.963  28.294  1.00  0.00    -0.206 F 
ATOM     94  C   UNL A   1      43.884  38.016  31.210  1.00  0.00     0.022 A 
BRANCH  91  95
ATOM     95  S   UNL A   1      43.818  37.571  33.963  1.00  0.00     0.124 S 
ATOM     96  O   UNL A   1      42.894  38.701  33.980  1.00  0.00    -0.237 OA
ATOM     97  O   UNL A   1      43.366  36.369  34.656  1.00  0.00    -0.237 OA
ATOM     98  O   UNL A   1      45.223  37.915  34.173  1.00  0.00    -0.744 OA
ENDBRANCH  91  95
ENDBRANCH  65  88
ENDBRANCH  39  40
ENDBRANCH  31  34
ENDBRANCH  29  30
ENDBRANCH  28  29
ENDBRANCH  27  28
ENDBRANCH   1  27
TORSDOF 21
ENDMDL
MODEL 2
REMARK VINA RESULT:     -11.0      4.612      9.547
REMARK SMILES CC(C)CCNC(=O)[C@@H](C)Oc1ccc(N)cc1C(=O)NCCCCNC(=O)c1ccc(-c2c3nc(c(-c4cc(S(=O)(=O)[O-])ccc4F)c4ccc([nH]4)c(-c4cc(S(=O)(=O)[O-])ccc4F)c4nc(c(-c5cc(S(=O)(=O)[O-])ccc5F)c5ccc2[nH]5)C=C4)C=C3)cc1
REMARK SMILES IDX 22 1 21 2 19 3 20 4 18 6 12 7 13 8 14 9 17 10 15 11 11 12
REMARK SMILES IDX 9 13 10 14 7 15 6 16 8 18 5 19 4 20 2 21 1 22 3 23 16 24
REMARK SMILES IDX 23 27 24 28 25 29 26 30 27 31 28 33 29 34 30 35 91 36 31 37
REMARK SMILES IDX 90 38 32 39 33 40 34 41 84 42 35 43 89 44 83 45 85 46 36 47
REMARK SMILES IDX 88 48 82 49 81 50 37 52 69 53 49 54 68 55 50 56 53 57 67 58
REMARK SMILES IDX 86 59 51 60 52 61 66 63 87 64 54 65 38 66 39 67 47 68 40 69
REMARK SMILES IDX 46 70 48 71 45 72 41 73 42 74 43 75 44 76 70 77 71 78 79 79
REMARK SMILES IDX 72 80 78 81 80 82 77 83 73 84 74 85 75 86 76 87 55 88 56 89
REMARK SMILES IDX 64 90 57 91 63 92 65 93 62 94 58 95 59 96 60 97 61 98
REMARK H PARENT 21 5 6 17 16 25 16 26 26 32 85 51 53 62
REMARK Flexibility Score: inf
ROOT
ATOM      1  C   UNL A   1      32.479  29.672  25.726  1.00  0.00     0.116 C 
ENDROOT
BRANCH   1   2
ATOM      2  N   UNL A   1      33.113  29.499  24.462  1.00  0.00    -0.352 N 
ATOM      3  C   UNL A   1      32.618  28.910  23.325  1.00  0.00     0.255 C 
ATOM      4  O   UNL A   1      33.447  28.780  22.416  1.00  0.00    -0.269 OA
ATOM      5  H   UNL A   1      34.032  29.846  24.396  1.00  0.00     0.163 HD
BRANCH   3   6
ATOM      6  C   UNL A   1      31.192  28.448  23.066  1.00  0.00     0.083 A 
ATOM      7  C   UNL A   1      30.496  27.293  23.481  1.00  0.00     0.133 A 
ATOM      8  C   UNL A   1      29.094  27.338  23.536  1.00  0.00     0.049 A 
ATOM      9  C   UNL A   1      28.374  28.364  22.922  1.00  0.00     0.029 A 
ATOM     10  C   UNL A   1      30.428  29.441  22.395  1.00  0.00     0.043 A 
ATOM     11  C   UNL A   1      29.042  29.368  22.243  1.00  0.00     0.032 A 
BRANCH   7  12
ATOM     12  O   UNL A   1      31.076  26.154  23.950  1.00  0.00    -0.480 OA
BRANCH  12  13
ATOM     13  C   UNL A   1      31.475  25.116  23.028  1.00  0.00     0.258 C 
ATOM     14  C   UNL A   1      30.982  23.681  23.333  1.00  0.00     0.064 C 
BRANCH  13  15
ATOM     15  C   UNL A   1      32.881  25.047  22.369  1.00  0.00     0.260 C 
ATOM     16  N   UNL A   1      34.025  25.017  23.117  1.00  0.00    -0.353 N 
ATOM     17  H   UNL A   1      34.821  24.655  22.665  1.00  0.00     0.163 HD
ATOM     18  O   UNL A   1      33.005  24.960  21.144  1.00  0.00    -0.271 OA
BRANCH  16  19
ATOM     19  C   UNL A   1      34.222  25.446  24.485  1.00  0.00     0.116 C 
BRANCH  19  20
ATOM     20  C   UNL A   1      35.051  24.495  25.329  1.00  0.00     0.024 C 
BRANCH  20  21
ATOM     21  C   UNL A   1      34.223  23.504  26.165  1.00  0.00    -0.016 C 
ATOM     22  C   UNL A   1      32.805  24.010  26.452  1.00  0.00     0.007 C 
ATOM     23  C   UNL A   1      34.147  22.170  25.421  1.00  0.00     0.007 C 
ENDBRANCH  20  21
ENDBRANCH  19  20
ENDBRANCH  16  19
ENDBRANCH  13  15
ENDBRANCH  12  13
ENDBRANCH   7  12
BRANCH  11  24
ATOM     24  N   UNL A   1      28.349  30.359  21.572  1.00  0.00    -0.399 N 
ATOM     25  H   UNL A   1      28.744  30.783  20.776  1.00  0.00     0.156 HD
ATOM     26  H   UNL A   1      27.461  30.642  21.890  1.00  0.00     0.156 HD
ENDBRANCH  11  24
ENDBRANCH   3   6
ENDBRANCH   1   2
BRANCH   1  27
ATOM     27  C   UNL A   1      31.317  30.648  25.771  1.00  0.00     0.023 C 
BRANCH  27  28
ATOM     28  C   UNL A   1      31.430  31.754  26.798  1.00  0.00     0.023 C 
BRANCH  28  29
ATOM     29  C   UNL A   1      32.661  32.638  26.654  1.00  0.00     0.116 C 
BRANCH  29  30
ATOM     30  N   UNL A   1      32.697  33.773  27.577  1.00  0.00    -0.352 N 
ATOM     31  C   UNL A   1      33.619  34.078  28.554  1.00  0.00     0.251 C 
ATOM     32  H   UNL A   1      31.953  34.411  27.486  1.00  0.00     0.163 HD
ATOM     33  O   UNL A   1      33.441  35.039  29.299  1.00  0.00    -0.269 OA
BRANCH  31  34
ATOM     34  C   UNL A   1      34.790  33.197  28.728  1.00  0.00     0.039 A 
ATOM     35  C   UNL A   1      36.073  33.730  28.600  1.00  0.00     0.014 A 
ATOM     36  C   UNL A   1      34.608  31.882  29.155  1.00  0.00     0.014 A 
ATOM     37  C   UNL A   1      37.168  32.982  29.034  1.00  0.00     0.010 A 
ATOM     38  C   UNL A   1      35.680  31.197  29.707  1.00  0.00     0.010 A 
ATOM     39  C   UNL A   1      36.974  31.739  29.661  1.00  0.00    -0.014 A 
BRANCH  39  40
ATOM     40  C   UNL A   1      38.095  30.985  30.284  1.00  0.00     0.031 A 
ATOM     41  C   UNL A   1      38.482  31.276  31.711  1.00  0.00     0.074 A 
ATOM     42  C   UNL A   1      38.828  30.126  29.544  1.00  0.00     0.049 A 
ATOM     43  N   UNL A   1      39.510  30.846  32.395  1.00  0.00    -0.248 NA
ATOM     44  C   UNL A   1      37.628  32.224  32.446  1.00  0.00     0.031 C 
ATOM     45  C   UNL A   1      38.599  29.809  28.130  1.00  0.00     0.029 A 
ATOM     46  N   UNL A   1      39.926  29.367  29.872  1.00  0.00    -0.354 N 
ATOM     47  C   UNL A   1      39.449  31.505  33.620  1.00  0.00     0.074 A 
ATOM     48  C   UNL A   1      38.322  32.408  33.557  1.00  0.00     0.031 C 
ATOM     49  C   UNL A   1      39.500  28.898  27.728  1.00  0.00     0.029 A 
ATOM     50  C   UNL A   1      40.405  28.601  28.832  1.00  0.00     0.049 A 
ATOM     51  H   UNL A   1      40.332  29.371  30.768  1.00  0.00     0.167 HD
ATOM     52  C   UNL A   1      40.245  31.350  34.706  1.00  0.00     0.034 A 
ATOM     53  C   UNL A   1      41.460  27.762  28.776  1.00  0.00     0.034 A 
ATOM     54  C   UNL A   1      41.321  30.396  34.774  1.00  0.00     0.049 A 
ATOM     55  C   UNL A   1      42.305  27.578  30.013  1.00  0.00     0.074 A 
ATOM     56  C   UNL A   1      42.118  30.075  35.858  1.00  0.00     0.029 A 
ATOM     57  N   UNL A   1      41.748  29.605  33.716  1.00  0.00    -0.354 N 
ATOM     58  N   UNL A   1      42.185  28.153  31.188  1.00  0.00    -0.248 NA
ATOM     59  C   UNL A   1      43.419  26.626  29.920  1.00  0.00     0.031 C 
ATOM     60  C   UNL A   1      43.065  29.132  35.440  1.00  0.00     0.029 A 
ATOM     61  C   UNL A   1      42.816  28.816  34.115  1.00  0.00     0.049 A 
ATOM     62  H   UNL A   1      41.351  29.605  32.815  1.00  0.00     0.167 HD
ATOM     63  C   UNL A   1      43.186  27.601  31.982  1.00  0.00     0.074 A 
ATOM     64  C   UNL A   1      43.889  26.641  31.158  1.00  0.00     0.031 C 
ATOM     65  C   UNL A   1      43.498  27.860  33.278  1.00  0.00     0.034 A 
BRANCH  52  66
ATOM     66  C   UNL A   1      39.983  32.239  35.896  1.00  0.00     0.023 A 
ATOM     67  C   UNL A   1      39.009  31.924  36.859  1.00  0.00     0.031 A 
ATOM     68  C   UNL A   1      40.708  33.434  36.060  1.00  0.00     0.131 A 
ATOM     69  C   UNL A   1      38.733  32.827  37.897  1.00  0.00     0.055 A 
ATOM     70  C   UNL A   1      40.486  34.286  37.141  1.00  0.00     0.041 A 
ATOM     71  F   UNL A   1      41.638  33.796  35.162  1.00  0.00    -0.206 F 
ATOM     72  C   UNL A   1      39.483  33.993  38.060  1.00  0.00     0.022 A 
BRANCH  69  73
ATOM     73  S   UNL A   1      37.293  32.514  38.955  1.00  0.00     0.124 S 
ATOM     74  O   UNL A   1      36.193  32.881  38.066  1.00  0.00    -0.237 OA
ATOM     75  O   UNL A   1      37.424  31.094  39.256  1.00  0.00    -0.237 OA
ATOM     76  O   UNL A   1      37.498  33.415  40.087  1.00  0.00    -0.744 OA
ENDBRANCH  69  73
ENDBRANCH  52  66
BRANCH  53  77
ATOM     77  C   UNL A   1      41.793  27.027  27.520  1.00  0.00     0.023 A 
ATOM     78  C   UNL A   1      41.627  25.633  27.438  1.00  0.00     0.031 A 
ATOM     79  C   UNL A   1      42.346  27.688  26.410  1.00  0.00     0.131 A 
ATOM     80  C   UNL A   1      42.070  24.939  26.302  1.00  0.00     0.055 A 
ATOM     81  C   UNL A   1      42.732  26.999  25.257  1.00  0.00     0.041 A 
ATOM     82  F   UNL A   1      42.521  29.019  26.429  1.00  0.00    -0.206 F 
ATOM     83  C   UNL A   1      42.611  25.614  25.205  1.00  0.00     0.022 A 
BRANCH  80  84
ATOM     84  S   UNL A   1      42.029  23.126  26.323  1.00  0.00     0.124 S 
ATOM     85  O   UNL A   1      40.618  22.863  26.581  1.00  0.00    -0.237 OA
ATOM     86  O   UNL A   1      42.509  22.799  24.984  1.00  0.00    -0.237 OA
ATOM     87  O   UNL A   1      42.940  22.777  27.412  1.00  0.00    -0.744 OA
ENDBRANCH  80  84
ENDBRANCH  53  77
BRANCH  65  88
ATOM     88  C   UNL A   1      44.607  27.045  33.891  1.00  0.00     0.023 A 
ATOM     89  C   UNL A   1      44.356  25.824  34.541  1.00  0.00     0.031 A 
ATOM     90  C   UNL A   1      45.935  27.503  33.826  1.00  0.00     0.131 A 
ATOM     91  C   UNL A   1      45.412  25.130  35.150  1.00  0.00     0.055 A 
ATOM     92  C   UNL A   1      46.989  26.778  34.383  1.00  0.00     0.041 A 
ATOM     93  F   UNL A   1      46.228  28.663  33.217  1.00  0.00    -0.206 F 
ATOM     94  C   UNL A   1      46.728  25.590  35.061  1.00  0.00     0.022 A 
BRANCH  91  95
ATOM     95  S   UNL A   1      45.030  23.655  36.134  1.00  0.00     0.124 S 
ATOM     96  O   UNL A   1      46.254  22.872  35.995  1.00  0.00    -0.237 OA
ATOM     97  O   UNL A   1      44.781  24.219  37.457  1.00  0.00    -0.237 OA
ATOM     98  O   UNL A   1      43.856  23.094  35.469  1.00  0.00    -0.744 OA
ENDBRANCH  91  95
ENDBRANCH  65  88
ENDBRANCH  39  40
ENDBRANCH  31  34
ENDBRANCH  29  30
ENDBRANCH  28  29
ENDBRANCH  27  28
ENDBRANCH   1  27
TORSDOF 21
ENDMDL
MODEL 3
REMARK VINA RESULT:     -10.9      5.094      8.740
REMARK SMILES CC(C)CCNC(=O)[C@@H](C)Oc1ccc(N)cc1C(=O)NCCCCNC(=O)c1ccc(-c2c3nc(c(-c4cc(S(=O)(=O)[O-])ccc4F)c4ccc([nH]4)c(-c4cc(S(=O)(=O)[O-])ccc4F)c4nc(c(-c5cc(S(=O)(=O)[O-])ccc5F)c5ccc2[nH]5)C=C4)C=C3)cc1
REMARK SMILES IDX 22 1 21 2 19 3 20 4 18 6 12 7 13 8 14 9 17 10 15 11 11 12
REMARK SMILES IDX 9 13 10 14 7 15 6 16 8 18 5 19 4 20 2 21 1 22 3 23 16 24
REMARK SMILES IDX 23 27 24 28 25 29 26 30 27 31 28 33 29 34 30 35 91 36 31 37
REMARK SMILES IDX 90 38 32 39 33 40 34 41 84 42 35 43 89 44 83 45 85 46 36 47
REMARK SMILES IDX 88 48 82 49 81 50 37 52 69 53 49 54 68 55 50 56 53 57 67 58
REMARK SMILES IDX 86 59 51 60 52 61 66 63 87 64 54 65 38 66 39 67 47 68 40 69
REMARK SMILES IDX 46 70 48 71 45 72 41 73 42 74 43 75 44 76 70 77 71 78 79 79
REMARK SMILES IDX 72 80 78 81 80 82 77 83 73 84 74 85 75 86 76 87 55 88 56 89
REMARK SMILES IDX 64 90 57 91 63 92 65 93 62 94 58 95 59 96 60 97 61 98
REMARK H PARENT 21 5 6 17 16 25 16 26 26 32 85 51 53 62
REMARK Flexibility Score: inf
ROOT
ATOM      1  C   UNL A   1      31.494  30.207  25.478  1.00  0.00     0.116 C 
ENDROOT
BRANCH   1   2
ATOM      2  N   UNL A   1      32.529  29.675  26.298  1.00  0.00    -0.352 N 
ATOM      3  C   UNL A   1      32.859  28.362  26.524  1.00  0.00     0.255 C 
ATOM      4  O   UNL A   1      33.723  28.195  27.393  1.00  0.00    -0.269 OA
ATOM      5  H   UNL A   1      33.084  30.340  26.768  1.00  0.00     0.163 HD
BRANCH   3   6
ATOM      6  C   UNL A   1      32.312  27.134  25.813  1.00  0.00     0.083 A 
ATOM      7  C   UNL A   1      32.892  26.273  24.857  1.00  0.00     0.133 A 
ATOM      8  C   UNL A   1      32.387  24.969  24.736  1.00  0.00     0.049 A 
ATOM      9  C   UNL A   1      31.166  24.604  25.307  1.00  0.00     0.029 A 
ATOM     10  C   UNL A   1      31.042  26.750  26.323  1.00  0.00     0.043 A 
ATOM     11  C   UNL A   1      30.426  25.537  26.011  1.00  0.00     0.032 A 
BRANCH   7  12
ATOM     12  O   UNL A   1      33.990  26.561  24.106  1.00  0.00    -0.480 OA
BRANCH  12  13
ATOM     13  C   UNL A   1      33.836  27.188  22.814  1.00  0.00     0.258 C 
ATOM     14  C   UNL A   1      33.845  28.735  22.781  1.00  0.00     0.064 C 
BRANCH  13  15
ATOM     15  C   UNL A   1      32.879  26.656  21.712  1.00  0.00     0.260 C 
ATOM     16  N   UNL A   1      31.582  27.080  21.618  1.00  0.00    -0.353 N 
ATOM     17  H   UNL A   1      31.156  26.959  20.740  1.00  0.00     0.163 HD
ATOM     18  O   UNL A   1      33.279  25.872  20.847  1.00  0.00    -0.271 OA
BRANCH  16  19
ATOM     19  C   UNL A   1      30.753  27.684  22.640  1.00  0.00     0.116 C 
BRANCH  19  20
ATOM     20  C   UNL A   1      30.083  28.980  22.220  1.00  0.00     0.024 C 
BRANCH  20  21
ATOM     21  C   UNL A   1      28.948  29.437  23.153  1.00  0.00    -0.016 C 
ATOM     22  C   UNL A   1      28.629  30.930  23.012  1.00  0.00     0.007 C 
ATOM     23  C   UNL A   1      27.694  28.617  22.846  1.00  0.00     0.007 C 
ENDBRANCH  20  21
ENDBRANCH  19  20
ENDBRANCH  16  19
ENDBRANCH  13  15
ENDBRANCH  12  13
ENDBRANCH   7  12
BRANCH  11  24
ATOM     24  N   UNL A   1      29.184  25.219  26.530  1.00  0.00    -0.399 N 
ATOM     25  H   UNL A   1      28.889  25.616  27.381  1.00  0.00     0.156 HD
ATOM     26  H   UNL A   1      28.594  24.594  26.048  1.00  0.00     0.156 HD
ENDBRANCH  11  24
ENDBRANCH   3   6
ENDBRANCH   1   2
BRANCH   1  27
ATOM     27  C   UNL A   1      31.023  31.611  25.809  1.00  0.00     0.023 C 
BRANCH  27  28
ATOM     28  C   UNL A   1      31.518  32.177  27.123  1.00  0.00     0.023 C 
BRANCH  28  29
ATOM     29  C   UNL A   1      32.635  33.203  26.998  1.00  0.00     0.116 C 
BRANCH  29  30
ATOM     30  N   UNL A   1      32.498  34.352  27.894  1.00  0.00    -0.352 N 
ATOM     31  C   UNL A   1      33.279  34.723  28.966  1.00  0.00     0.251 C 
ATOM     32  H   UNL A   1      31.736  34.945  27.702  1.00  0.00     0.163 HD
ATOM     33  O   UNL A   1      32.961  35.683  29.665  1.00  0.00    -0.269 OA
BRANCH  31  34
ATOM     34  C   UNL A   1      34.468  33.913  29.295  1.00  0.00     0.039 A 
ATOM     35  C   UNL A   1      35.738  34.410  29.001  1.00  0.00     0.014 A 
ATOM     36  C   UNL A   1      34.319  32.731  30.020  1.00  0.00     0.014 A 
ATOM     37  C   UNL A   1      36.858  33.789  29.556  1.00  0.00     0.010 A 
ATOM     38  C   UNL A   1      35.419  32.198  30.676  1.00  0.00     0.010 A 
ATOM     39  C   UNL A   1      36.703  32.723  30.459  1.00  0.00    -0.014 A 
BRANCH  39  40
ATOM     40  C   UNL A   1      37.856  32.140  31.198  1.00  0.00     0.031 A 
ATOM     41  C   UNL A   1      38.651  31.025  30.571  1.00  0.00     0.074 A 
ATOM     42  C   UNL A   1      38.116  32.532  32.464  1.00  0.00     0.049 A 
ATOM     43  N   UNL A   1      39.591  30.282  31.094  1.00  0.00    -0.248 NA
ATOM     44  C   UNL A   1      38.301  30.662  29.188  1.00  0.00     0.031 C 
ATOM     45  C   UNL A   1      37.374  33.553  33.210  1.00  0.00     0.029 A 
ATOM     46  N   UNL A   1      39.073  32.110  33.356  1.00  0.00    -0.354 N 
ATOM     47  C   UNL A   1      39.909  29.338  30.122  1.00  0.00     0.074 A 
ATOM     48  C   UNL A   1      39.018  29.565  29.006  1.00  0.00     0.031 C 
ATOM     49  C   UNL A   1      37.926  33.703  34.425  1.00  0.00     0.029 A 
ATOM     50  C   UNL A   1      39.025  32.757  34.571  1.00  0.00     0.049 A 
ATOM     51  H   UNL A   1      39.731  31.409  33.145  1.00  0.00     0.167 HD
ATOM     52  C   UNL A   1      40.875  28.387  30.147  1.00  0.00     0.034 A 
ATOM     53  C   UNL A   1      39.779  32.596  35.679  1.00  0.00     0.034 A 
ATOM     54  C   UNL A   1      41.798  28.221  31.239  1.00  0.00     0.049 A 
ATOM     55  C   UNL A   1      40.874  31.557  35.665  1.00  0.00     0.074 A 
ATOM     56  C   UNL A   1      42.884  27.368  31.325  1.00  0.00     0.029 A 
ATOM     57  N   UNL A   1      41.749  28.925  32.435  1.00  0.00    -0.354 N 
ATOM     58  N   UNL A   1      41.211  30.726  34.706  1.00  0.00    -0.248 NA
ATOM     59  C   UNL A   1      41.695  31.443  36.877  1.00  0.00     0.031 C 
ATOM     60  C   UNL A   1      43.456  27.514  32.593  1.00  0.00     0.029 A 
ATOM     61  C   UNL A   1      42.769  28.506  33.274  1.00  0.00     0.049 A 
ATOM     62  H   UNL A   1      41.086  29.619  32.654  1.00  0.00     0.167 HD
ATOM     63  C   UNL A   1      42.308  30.018  35.189  1.00  0.00     0.074 A 
ATOM     64  C   UNL A   1      42.583  30.530  36.514  1.00  0.00     0.031 C 
ATOM     65  C   UNL A   1      43.029  29.034  34.591  1.00  0.00     0.034 A 
BRANCH  52  66
ATOM     66  C   UNL A   1      40.969  27.454  28.965  1.00  0.00     0.023 A 
ATOM     67  C   UNL A   1      41.969  27.591  27.988  1.00  0.00     0.031 A 
ATOM     68  C   UNL A   1      40.027  26.422  28.803  1.00  0.00     0.131 A 
ATOM     69  C   UNL A   1      41.961  26.762  26.857  1.00  0.00     0.055 A 
ATOM     70  C   UNL A   1      40.074  25.547  27.717  1.00  0.00     0.041 A 
ATOM     71  F   UNL A   1      39.037  26.255  29.694  1.00  0.00    -0.206 F 
ATOM     72  C   UNL A   1      41.037  25.723  26.727  1.00  0.00     0.022 A 
BRANCH  69  73
ATOM     73  S   UNL A   1      43.098  27.144  25.497  1.00  0.00     0.124 S 
ATOM     74  O   UNL A   1      44.190  27.809  26.206  1.00  0.00    -0.237 OA
ATOM     75  O   UNL A   1      43.400  25.824  24.955  1.00  0.00    -0.237 OA
ATOM     76  O   UNL A   1      42.310  28.013  24.625  1.00  0.00    -0.744 OA
ENDBRANCH  69  73
ENDBRANCH  52  66
BRANCH  53  77
ATOM     77  C   UNL A   1      39.542  33.425  36.898  1.00  0.00     0.023 A 
ATOM     78  C   UNL A   1      38.836  32.902  37.995  1.00  0.00     0.031 A 
ATOM     79  C   UNL A   1      39.950  34.768  36.960  1.00  0.00     0.131 A 
ATOM     80  C   UNL A   1      38.504  33.732  39.076  1.00  0.00     0.055 A 
ATOM     81  C   UNL A   1      39.667  35.575  38.065  1.00  0.00     0.041 A 
ATOM     82  F   UNL A   1      40.633  35.318  35.944  1.00  0.00    -0.206 F 
ATOM     83  C   UNL A   1      38.924  35.064  39.124  1.00  0.00     0.022 A 
BRANCH  80  84
ATOM     84  S   UNL A   1      37.416  33.076  40.372  1.00  0.00     0.124 S 
ATOM     85  O   UNL A   1      37.150  34.269  41.169  1.00  0.00    -0.237 OA
ATOM     86  O   UNL A   1      36.295  32.562  39.592  1.00  0.00    -0.237 OA
ATOM     87  O   UNL A   1      38.238  32.059  41.025  1.00  0.00    -0.744 OA
ENDBRANCH  80  84
ENDBRANCH  53  77
BRANCH  65  88
ATOM     88  C   UNL A   1      44.216  28.499  35.348  1.00  0.00     0.023 A 
ATOM     89  C   UNL A   1      44.079  27.505  36.333  1.00  0.00     0.031 A 
ATOM     90  C   UNL A   1      45.503  28.999  35.082  1.00  0.00     0.131 A 
ATOM     91  C   UNL A   1      45.204  27.081  37.055  1.00  0.00     0.055 A 
ATOM     92  C   UNL A   1      46.627  28.530  35.763  1.00  0.00     0.041 A 
ATOM     93  F   UNL A   1      45.689  29.948  34.152  1.00  0.00    -0.206 F 
ATOM     94  C   UNL A   1      46.479  27.575  36.765  1.00  0.00     0.022 A 
BRANCH  91  95
ATOM     95  S   UNL A   1      44.967  25.933  38.439  1.00  0.00     0.124 S 
ATOM     96  O   UNL A   1      44.294  24.811  37.791  1.00  0.00    -0.237 OA
ATOM     97  O   UNL A   1      46.336  25.687  38.878  1.00  0.00    -0.237 OA
ATOM     98  O   UNL A   1      44.143  26.692  39.377  1.00  0.00    -0.744 OA
ENDBRANCH  91  95
ENDBRANCH  65  88
ENDBRANCH  39  40
ENDBRANCH  31  34
ENDBRANCH  29  30
ENDBRANCH  28  29
ENDBRANCH  27  28
ENDBRANCH   1  27
TORSDOF 21
ENDMDL
