MODEL 1
REMARK VINA RESULT:     -12.3      0.000      0.000
REMARK SMILES CCCn1ncc(C(=O)N2CCC[C@@H]2C(=O)NCCCCNC(=O)c2ccc(-c3c4nc(c(-c5cc(S(=O)(=O)[O-])ccc5F)c5ccc([nH]5)c(-c5cc(S(=O)(=O)[O-])ccc5F)c5nc(c(-c6cc(S(=O)(=O)[O-])ccc6F)c6ccc3[nH]6)C=C5)C=C4)cc2)c1C
REMARK SMILES IDX 19 1 18 2 17 3 15 4 16 5 14 7 10 8 11 9 12 10 13 11 8 12
REMARK SMILES IDX 9 13 7 14 4 15 5 16 88 17 6 18 89 19 3 20 2 21 1 22 20 23
REMARK SMILES IDX 21 24 22 25 23 26 24 28 25 29 26 30 87 31 27 32 86 33 28 34
REMARK SMILES IDX 29 35 30 36 80 37 31 38 85 39 79 40 81 41 32 42 84 43 78 44
REMARK SMILES IDX 77 45 33 47 65 48 45 49 64 50 46 51 49 52 63 53 82 54 47 55
REMARK SMILES IDX 48 56 62 58 83 59 50 60 34 61 35 62 43 63 36 64 42 65 44 66
REMARK SMILES IDX 41 67 37 68 38 69 39 70 40 71 66 72 67 73 75 74 68 75 74 76
REMARK SMILES IDX 76 77 73 78 69 79 70 80 71 81 72 82 51 83 52 84 60 85 53 86
REMARK SMILES IDX 59 87 61 88 58 89 54 90 55 91 56 92 57 93
REMARK H PARENT 17 6 22 27 81 46 49 57
REMARK Flexibility Score: inf
ROOT
ATOM      1  C   UNL A   1      37.282  21.595  24.590  1.00  0.00     0.023 C 
ENDROOT
BRANCH   1   2
ATOM      2  C   UNL A   1      36.422  20.846  25.609  1.00  0.00     0.116 C 
BRANCH   2   3
ATOM      3  N   UNL A   1      35.360  20.086  24.978  1.00  0.00    -0.354 N 
ATOM      4  C   UNL A   1      34.012  20.292  24.928  1.00  0.00     0.242 C 
ATOM      5  O   UNL A   1      33.325  19.355  24.503  1.00  0.00    -0.273 OA
ATOM      6  H   UNL A   1      35.666  19.280  24.501  1.00  0.00     0.163 HD
BRANCH   4   7
ATOM      7  C   UNL A   1      33.327  21.530  25.545  1.00  0.00     0.174 C 
ATOM      8  N   UNL A   1      33.806  22.811  25.044  1.00  0.00    -0.327 N 
ATOM      9  C   UNL A   1      33.874  23.780  26.123  1.00  0.00     0.121 C 
ATOM     10  C   UNL A   1      34.207  22.936  27.339  1.00  0.00     0.024 C 
ATOM     11  C   UNL A   1      33.521  21.597  27.066  1.00  0.00     0.037 C 
BRANCH   8  12
ATOM     12  C   UNL A   1      33.580  23.142  23.721  1.00  0.00     0.258 C 
ATOM     13  O   UNL A   1      34.414  22.872  22.847  1.00  0.00    -0.269 OA
BRANCH  12  14
ATOM     14  C   UNL A   1      32.406  23.955  23.441  1.00  0.00     0.080 A 
ATOM     15  N   UNL A   1      31.080  25.676  23.013  1.00  0.00    -0.269 N 
ATOM     16  N   UNL A   1      30.235  24.658  23.282  1.00  0.00    -0.180 NA
ATOM     17  C   UNL A   1      32.398  25.286  23.026  1.00  0.00     0.048 A 
ATOM     18  C   UNL A   1      31.039  23.661  23.633  1.00  0.00     0.149 A 
ATOM     19  C   UNL A   1      33.536  26.190  22.706  1.00  0.00     0.067 C 
BRANCH  15  20
ATOM     20  C   UNL A   1      30.541  27.020  22.853  1.00  0.00     0.144 C 
BRANCH  20  21
ATOM     21  C   UNL A   1      30.370  27.770  24.166  1.00  0.00     0.020 C 
ATOM     22  C   UNL A   1      31.369  28.893  24.259  1.00  0.00     0.006 C 
ENDBRANCH  20  21
ENDBRANCH  15  20
ENDBRANCH  12  14
ENDBRANCH   8  12
ENDBRANCH   4   7
ENDBRANCH   2   3
ENDBRANCH   1   2
BRANCH   1  23
ATOM     23  C   UNL A   1      37.340  23.119  24.757  1.00  0.00     0.023 C 
BRANCH  23  24
ATOM     24  C   UNL A   1      37.827  23.607  26.121  1.00  0.00     0.116 C 
BRANCH  24  25
ATOM     25  N   UNL A   1      38.987  22.874  26.616  1.00  0.00    -0.352 N 
ATOM     26  C   UNL A   1      40.161  23.380  27.148  1.00  0.00     0.251 C 
ATOM     27  H   UNL A   1      38.927  21.893  26.567  1.00  0.00     0.163 HD
ATOM     28  O   UNL A   1      41.178  22.691  27.110  1.00  0.00    -0.269 OA
BRANCH  26  29
ATOM     29  C   UNL A   1      40.194  24.730  27.763  1.00  0.00     0.039 A 
ATOM     30  C   UNL A   1      41.352  25.228  28.375  1.00  0.00     0.014 A 
ATOM     31  C   UNL A   1      39.039  25.503  27.775  1.00  0.00     0.014 A 
ATOM     32  C   UNL A   1      41.338  26.503  28.964  1.00  0.00     0.010 A 
ATOM     33  C   UNL A   1      39.066  26.806  28.240  1.00  0.00     0.010 A 
ATOM     34  C   UNL A   1      40.179  27.294  28.913  1.00  0.00    -0.014 A 
BRANCH  34  35
ATOM     35  C   UNL A   1      40.191  28.732  29.227  1.00  0.00     0.031 A 
ATOM     36  C   UNL A   1      41.376  29.371  28.619  1.00  0.00     0.074 A 
ATOM     37  C   UNL A   1      39.199  29.488  29.759  1.00  0.00     0.049 A 
ATOM     38  N   UNL A   1      42.435  29.742  29.254  1.00  0.00    -0.248 NA
ATOM     39  C   UNL A   1      41.529  29.370  27.154  1.00  0.00     0.031 C 
ATOM     40  C   UNL A   1      37.907  29.037  30.263  1.00  0.00     0.029 A 
ATOM     41  N   UNL A   1      39.083  30.853  29.879  1.00  0.00    -0.354 N 
ATOM     42  C   UNL A   1      43.244  30.326  28.293  1.00  0.00     0.074 A 
ATOM     43  C   UNL A   1      42.785  29.805  27.037  1.00  0.00     0.031 C 
ATOM     44  C   UNL A   1      37.043  30.075  30.362  1.00  0.00     0.029 A 
ATOM     45  C   UNL A   1      37.781  31.307  30.139  1.00  0.00     0.049 A 
ATOM     46  H   UNL A   1      39.852  31.463  29.792  1.00  0.00     0.167 HD
ATOM     47  C   UNL A   1      43.956  31.443  28.606  1.00  0.00     0.034 A 
ATOM     48  C   UNL A   1      37.330  32.588  30.260  1.00  0.00     0.034 A 
ATOM     49  C   UNL A   1      43.954  31.642  30.046  1.00  0.00     0.049 A 
ATOM     50  C   UNL A   1      38.486  33.384  30.715  1.00  0.00     0.074 A 
ATOM     51  C   UNL A   1      44.428  30.951  31.142  1.00  0.00     0.029 A 
ATOM     52  N   UNL A   1      43.002  32.520  30.511  1.00  0.00    -0.354 N 
ATOM     53  N   UNL A   1      39.041  33.214  31.883  1.00  0.00    -0.248 NA
ATOM     54  C   UNL A   1      39.295  34.104  29.743  1.00  0.00     0.031 C 
ATOM     55  C   UNL A   1      43.529  31.246  32.210  1.00  0.00     0.029 A 
ATOM     56  C   UNL A   1      42.577  32.165  31.764  1.00  0.00     0.049 A 
ATOM     57  H   UNL A   1      42.669  33.300  30.009  1.00  0.00     0.167 HD
ATOM     58  C   UNL A   1      40.393  33.357  31.639  1.00  0.00     0.074 A 
ATOM     59  C   UNL A   1      40.471  34.084  30.378  1.00  0.00     0.031 C 
ATOM     60  C   UNL A   1      41.298  32.590  32.314  1.00  0.00     0.034 A 
BRANCH  47  61
ATOM     61  C   UNL A   1      44.202  32.608  27.659  1.00  0.00     0.023 A 
ATOM     62  C   UNL A   1      43.617  33.837  28.026  1.00  0.00     0.031 A 
ATOM     63  C   UNL A   1      44.688  32.543  26.334  1.00  0.00     0.131 A 
ATOM     64  C   UNL A   1      43.400  34.852  27.080  1.00  0.00     0.055 A 
ATOM     65  C   UNL A   1      44.518  33.578  25.409  1.00  0.00     0.041 A 
ATOM     66  F   UNL A   1      45.291  31.467  25.823  1.00  0.00    -0.206 F 
ATOM     67  C   UNL A   1      43.838  34.727  25.768  1.00  0.00     0.022 A 
BRANCH  64  68
ATOM     68  S   UNL A   1      42.378  36.264  27.563  1.00  0.00     0.124 S 
ATOM     69  O   UNL A   1      41.039  35.753  27.292  1.00  0.00    -0.237 OA
ATOM     70  O   UNL A   1      42.739  36.428  28.966  1.00  0.00    -0.237 OA
ATOM     71  O   UNL A   1      42.834  37.328  26.673  1.00  0.00    -0.744 OA
ENDBRANCH  64  68
ENDBRANCH  47  61
BRANCH  48  72
ATOM     72  C   UNL A   1      36.016  33.207  29.910  1.00  0.00     0.023 A 
ATOM     73  C   UNL A   1      35.246  33.974  30.821  1.00  0.00     0.031 A 
ATOM     74  C   UNL A   1      35.642  33.289  28.553  1.00  0.00     0.131 A 
ATOM     75  C   UNL A   1      34.184  34.793  30.358  1.00  0.00     0.055 A 
ATOM     76  C   UNL A   1      34.600  34.107  28.100  1.00  0.00     0.041 A 
ATOM     77  F   UNL A   1      36.342  32.642  27.605  1.00  0.00    -0.206 F 
ATOM     78  C   UNL A   1      33.875  34.874  28.999  1.00  0.00     0.022 A 
BRANCH  75  79
ATOM     79  S   UNL A   1      33.243  35.859  31.509  1.00  0.00     0.124 S 
ATOM     80  O   UNL A   1      34.298  36.428  32.340  1.00  0.00    -0.237 OA
ATOM     81  O   UNL A   1      32.560  36.777  30.605  1.00  0.00    -0.237 OA
ATOM     82  O   UNL A   1      32.360  34.919  32.202  1.00  0.00    -0.744 OA
ENDBRANCH  75  79
ENDBRANCH  48  72
BRANCH  60  83
ATOM     83  C   UNL A   1      40.892  32.051  33.669  1.00  0.00     0.023 A 
ATOM     84  C   UNL A   1      40.880  32.776  34.881  1.00  0.00     0.031 A 
ATOM     85  C   UNL A   1      40.446  30.718  33.702  1.00  0.00     0.131 A 
ATOM     86  C   UNL A   1      40.437  32.154  36.066  1.00  0.00     0.055 A 
ATOM     87  C   UNL A   1      39.985  30.113  34.869  1.00  0.00     0.041 A 
ATOM     88  F   UNL A   1      40.428  29.977  32.580  1.00  0.00    -0.206 F 
ATOM     89  C   UNL A   1      39.987  30.829  36.059  1.00  0.00     0.022 A 
BRANCH  86  90
ATOM     90  S   UNL A   1      40.469  33.043  37.657  1.00  0.00     0.124 S 
ATOM     91  O   UNL A   1      39.464  32.355  38.458  1.00  0.00    -0.237 OA
ATOM     92  O   UNL A   1      41.854  32.870  38.087  1.00  0.00    -0.237 OA
ATOM     93  O   UNL A   1      40.118  34.416  37.285  1.00  0.00    -0.744 OA
ENDBRANCH  86  90
ENDBRANCH  60  83
ENDBRANCH  34  35
ENDBRANCH  26  29
ENDBRANCH  24  25
ENDBRANCH  23  24
ENDBRANCH   1  23
TORSDOF 18
ENDMDL
MODEL 2
REMARK VINA RESULT:     -12.3      4.077      9.853
REMARK SMILES CCCn1ncc(C(=O)N2CCC[C@@H]2C(=O)NCCCCNC(=O)c2ccc(-c3c4nc(c(-c5cc(S(=O)(=O)[O-])ccc5F)c5ccc([nH]5)c(-c5cc(S(=O)(=O)[O-])ccc5F)c5nc(c(-c6cc(S(=O)(=O)[O-])ccc6F)c6ccc3[nH]6)C=C5)C=C4)cc2)c1C
REMARK SMILES IDX 19 1 18 2 17 3 15 4 16 5 14 7 10 8 11 9 12 10 13 11 8 12
REMARK SMILES IDX 9 13 7 14 4 15 5 16 88 17 6 18 89 19 3 20 2 21 1 22 20 23
REMARK SMILES IDX 21 24 22 25 23 26 24 28 25 29 26 30 87 31 27 32 86 33 28 34
REMARK SMILES IDX 29 35 30 36 80 37 31 38 85 39 79 40 81 41 32 42 84 43 78 44
REMARK SMILES IDX 77 45 33 47 65 48 45 49 64 50 46 51 49 52 63 53 82 54 47 55
REMARK SMILES IDX 48 56 62 58 83 59 50 60 34 61 35 62 43 63 36 64 42 65 44 66
REMARK SMILES IDX 41 67 37 68 38 69 39 70 40 71 66 72 67 73 75 74 68 75 74 76
REMARK SMILES IDX 76 77 73 78 69 79 70 80 71 81 72 82 51 83 52 84 60 85 53 86
REMARK SMILES IDX 59 87 61 88 58 89 54 90 55 91 56 92 57 93
REMARK H PARENT 17 6 22 27 81 46 49 57
REMARK Flexibility Score: inf
ROOT
ATOM      1  C   UNL A   1      34.769  29.590  27.285  1.00  0.00     0.023 C 
ENDROOT
BRANCH   1   2
ATOM      2  C   UNL A   1      34.043  28.645  26.326  1.00  0.00     0.116 C 
BRANCH   2   3
ATOM      3  N   UNL A   1      34.217  29.031  24.939  1.00  0.00    -0.354 N 
ATOM      4  C   UNL A   1      33.492  28.730  23.823  1.00  0.00     0.242 C 
ATOM      5  O   UNL A   1      34.006  29.020  22.735  1.00  0.00    -0.273 OA
ATOM      6  H   UNL A   1      34.996  29.612  24.774  1.00  0.00     0.163 HD
BRANCH   4   7
ATOM      7  C   UNL A   1      32.193  27.896  23.863  1.00  0.00     0.174 C 
ATOM      8  N   UNL A   1      31.975  27.041  22.705  1.00  0.00    -0.327 N 
ATOM      9  C   UNL A   1      30.570  27.031  22.344  1.00  0.00     0.121 C 
ATOM     10  C   UNL A   1      30.093  28.419  22.730  1.00  0.00     0.024 C 
ATOM     11  C   UNL A   1      30.943  28.782  23.948  1.00  0.00     0.037 C 
BRANCH   8  12
ATOM     12  C   UNL A   1      32.839  25.986  22.476  1.00  0.00     0.258 C 
ATOM     13  O   UNL A   1      33.638  26.013  21.531  1.00  0.00    -0.269 OA
BRANCH  12  14
ATOM     14  C   UNL A   1      32.650  24.796  23.292  1.00  0.00     0.080 A 
ATOM     15  N   UNL A   1      32.955  23.180  24.775  1.00  0.00    -0.269 N 
ATOM     16  N   UNL A   1      31.898  22.770  24.041  1.00  0.00    -0.180 NA
ATOM     17  C   UNL A   1      33.398  24.429  24.409  1.00  0.00     0.048 A 
ATOM     18  C   UNL A   1      31.788  23.696  23.096  1.00  0.00     0.149 A 
ATOM     19  C   UNL A   1      34.510  25.148  25.088  1.00  0.00     0.067 C 
BRANCH  15  20
ATOM     20  C   UNL A   1      33.540  22.265  25.745  1.00  0.00     0.144 C 
BRANCH  20  21
ATOM     21  C   UNL A   1      34.631  21.377  25.167  1.00  0.00     0.020 C 
ATOM     22  C   UNL A   1      34.075  20.020  24.828  1.00  0.00     0.006 C 
ENDBRANCH  20  21
ENDBRANCH  15  20
ENDBRANCH  12  14
ENDBRANCH   8  12
ENDBRANCH   4   7
ENDBRANCH   2   3
ENDBRANCH   1   2
BRANCH   1  23
ATOM     23  C   UNL A   1      34.013  30.871  27.661  1.00  0.00     0.023 C 
BRANCH  23  24
ATOM     24  C   UNL A   1      34.894  32.073  27.997  1.00  0.00     0.116 C 
BRANCH  24  25
ATOM     25  N   UNL A   1      34.800  32.488  29.392  1.00  0.00    -0.352 N 
ATOM     26  C   UNL A   1      35.447  31.955  30.494  1.00  0.00     0.251 C 
ATOM     27  H   UNL A   1      34.199  33.246  29.573  1.00  0.00     0.163 HD
ATOM     28  O   UNL A   1      34.952  32.110  31.608  1.00  0.00    -0.269 OA
BRANCH  26  29
ATOM     29  C   UNL A   1      36.723  31.215  30.338  1.00  0.00     0.039 A 
ATOM     30  C   UNL A   1      37.961  31.868  30.401  1.00  0.00     0.014 A 
ATOM     31  C   UNL A   1      36.693  29.850  30.076  1.00  0.00     0.014 A 
ATOM     32  C   UNL A   1      39.148  31.136  30.228  1.00  0.00     0.010 A 
ATOM     33  C   UNL A   1      37.863  29.113  30.036  1.00  0.00     0.010 A 
ATOM     34  C   UNL A   1      39.099  29.748  30.026  1.00  0.00    -0.014 A 
BRANCH  34  35
ATOM     35  C   UNL A   1      40.290  28.891  30.148  1.00  0.00     0.031 A 
ATOM     36  C   UNL A   1      40.545  28.583  31.570  1.00  0.00     0.074 A 
ATOM     37  C   UNL A   1      40.960  28.230  29.171  1.00  0.00     0.049 A 
ATOM     38  N   UNL A   1      41.474  29.107  32.295  1.00  0.00    -0.248 NA
ATOM     39  C   UNL A   1      39.539  27.832  32.341  1.00  0.00     0.031 C 
ATOM     40  C   UNL A   1      40.734  28.301  27.731  1.00  0.00     0.029 A 
ATOM     41  N   UNL A   1      41.936  27.266  29.252  1.00  0.00    -0.354 N 
ATOM     42  C   UNL A   1      41.360  28.486  33.528  1.00  0.00     0.074 A 
ATOM     43  C   UNL A   1      40.021  27.974  33.577  1.00  0.00     0.031 C 
ATOM     44  C   UNL A   1      41.313  27.251  27.104  1.00  0.00     0.029 A 
ATOM     45  C   UNL A   1      42.142  26.545  28.066  1.00  0.00     0.049 A 
ATOM     46  H   UNL A   1      42.450  27.096  30.075  1.00  0.00     0.167 HD
ATOM     47  C   UNL A   1      42.486  28.149  34.215  1.00  0.00     0.034 A 
ATOM     48  C   UNL A   1      42.991  25.501  27.836  1.00  0.00     0.034 A 
ATOM     49  C   UNL A   1      43.640  28.806  33.622  1.00  0.00     0.049 A 
ATOM     50  C   UNL A   1      44.098  25.660  28.799  1.00  0.00     0.074 A 
ATOM     51  C   UNL A   1      44.056  30.110  33.445  1.00  0.00     0.029 A 
ATOM     52  N   UNL A   1      44.352  28.038  32.730  1.00  0.00    -0.354 N 
ATOM     53  N   UNL A   1      44.931  26.661  28.752  1.00  0.00    -0.248 NA
ATOM     54  C   UNL A   1      44.068  24.934  30.060  1.00  0.00     0.031 C 
ATOM     55  C   UNL A   1      44.816  30.118  32.239  1.00  0.00     0.029 A 
ATOM     56  C   UNL A   1      44.910  28.815  31.749  1.00  0.00     0.049 A 
ATOM     57  H   UNL A   1      44.448  27.059  32.789  1.00  0.00     0.167 HD
ATOM     58  C   UNL A   1      45.148  26.982  30.078  1.00  0.00     0.074 A 
ATOM     59  C   UNL A   1      44.760  25.789  30.820  1.00  0.00     0.031 C 
ATOM     60  C   UNL A   1      45.308  28.284  30.453  1.00  0.00     0.034 A 
BRANCH  47  61
ATOM     61  C   UNL A   1      42.651  26.885  35.045  1.00  0.00     0.023 A 
ATOM     62  C   UNL A   1      43.481  25.887  34.494  1.00  0.00     0.031 A 
ATOM     63  C   UNL A   1      41.858  26.473  36.139  1.00  0.00     0.131 A 
ATOM     64  C   UNL A   1      43.391  24.551  34.915  1.00  0.00     0.055 A 
ATOM     65  C   UNL A   1      41.811  25.151  36.590  1.00  0.00     0.041 A 
ATOM     66  F   UNL A   1      41.030  27.289  36.796  1.00  0.00    -0.206 F 
ATOM     67  C   UNL A   1      42.553  24.172  35.955  1.00  0.00     0.022 A 
BRANCH  64  68
ATOM     68  S   UNL A   1      44.268  23.294  33.955  1.00  0.00     0.124 S 
ATOM     69  O   UNL A   1      44.398  22.224  34.937  1.00  0.00    -0.237 OA
ATOM     70  O   UNL A   1      43.340  23.057  32.855  1.00  0.00    -0.237 OA
ATOM     71  O   UNL A   1      45.514  23.962  33.587  1.00  0.00    -0.744 OA
ENDBRANCH  64  68
ENDBRANCH  47  61
BRANCH  48  72
ATOM     72  C   UNL A   1      42.873  24.317  26.933  1.00  0.00     0.023 A 
ATOM     73  C   UNL A   1      43.902  23.903  26.049  1.00  0.00     0.031 A 
ATOM     74  C   UNL A   1      41.830  23.394  27.154  1.00  0.00     0.131 A 
ATOM     75  C   UNL A   1      43.870  22.614  25.458  1.00  0.00     0.055 A 
ATOM     76  C   UNL A   1      41.810  22.118  26.578  1.00  0.00     0.041 A 
ATOM     77  F   UNL A   1      40.837  23.669  28.016  1.00  0.00    -0.206 F 
ATOM     78  C   UNL A   1      42.839  21.717  25.738  1.00  0.00     0.022 A 
BRANCH  75  79
ATOM     79  S   UNL A   1      45.237  22.032  24.391  1.00  0.00     0.124 S 
ATOM     80  O   UNL A   1      46.139  21.408  25.350  1.00  0.00    -0.237 OA
ATOM     81  O   UNL A   1      44.555  21.138  23.462  1.00  0.00    -0.237 OA
ATOM     82  O   UNL A   1      45.746  23.264  23.784  1.00  0.00    -0.744 OA
ENDBRANCH  75  79
ENDBRANCH  48  72
BRANCH  60  83
ATOM     83  C   UNL A   1      45.818  29.258  29.413  1.00  0.00     0.023 A 
ATOM     84  C   UNL A   1      45.023  30.078  28.582  1.00  0.00     0.031 A 
ATOM     85  C   UNL A   1      47.215  29.380  29.304  1.00  0.00     0.131 A 
ATOM     86  C   UNL A   1      45.637  30.971  27.681  1.00  0.00     0.055 A 
ATOM     87  C   UNL A   1      47.820  30.281  28.432  1.00  0.00     0.041 A 
ATOM     88  F   UNL A   1      48.027  28.632  30.071  1.00  0.00    -0.206 F 
ATOM     89  C   UNL A   1      47.032  31.076  27.610  1.00  0.00     0.022 A 
BRANCH  86  90
ATOM     90  S   UNL A   1      44.639  31.996  26.553  1.00  0.00     0.124 S 
ATOM     91  O   UNL A   1      43.560  31.106  26.141  1.00  0.00    -0.237 OA
ATOM     92  O   UNL A   1      44.248  33.116  27.406  1.00  0.00    -0.237 OA
ATOM     93  O   UNL A   1      45.582  32.346  25.487  1.00  0.00    -0.744 OA
ENDBRANCH  86  90
ENDBRANCH  60  83
ENDBRANCH  34  35
ENDBRANCH  26  29
ENDBRANCH  24  25
ENDBRANCH  23  24
ENDBRANCH   1  23
TORSDOF 18
ENDMDL
MODEL 3
REMARK VINA RESULT:     -12.2      4.635      9.313
REMARK SMILES CCCn1ncc(C(=O)N2CCC[C@@H]2C(=O)NCCCCNC(=O)c2ccc(-c3c4nc(c(-c5cc(S(=O)(=O)[O-])ccc5F)c5ccc([nH]5)c(-c5cc(S(=O)(=O)[O-])ccc5F)c5nc(c(-c6cc(S(=O)(=O)[O-])ccc6F)c6ccc3[nH]6)C=C5)C=C4)cc2)c1C
REMARK SMILES IDX 19 1 18 2 17 3 15 4 16 5 14 7 10 8 11 9 12 10 13 11 8 12
REMARK SMILES IDX 9 13 7 14 4 15 5 16 88 17 6 18 89 19 3 20 2 21 1 22 20 23
REMARK SMILES IDX 21 24 22 25 23 26 24 28 25 29 26 30 87 31 27 32 86 33 28 34
REMARK SMILES IDX 29 35 30 36 80 37 31 38 85 39 79 40 81 41 32 42 84 43 78 44
REMARK SMILES IDX 77 45 33 47 65 48 45 49 64 50 46 51 49 52 63 53 82 54 47 55
REMARK SMILES IDX 48 56 62 58 83 59 50 60 34 61 35 62 43 63 36 64 42 65 44 66
REMARK SMILES IDX 41 67 37 68 38 69 39 70 40 71 66 72 67 73 75 74 68 75 74 76
REMARK SMILES IDX 76 77 73 78 69 79 70 80 71 81 72 82 51 83 52 84 60 85 53 86
REMARK SMILES IDX 59 87 61 88 58 89 54 90 55 91 56 92 57 93
REMARK H PARENT 17 6 22 27 81 46 49 57
REMARK Flexibility Score: inf
ROOT
ATOM      1  C   UNL A   1      33.134  28.569  25.654  1.00  0.00     0.023 C 
ENDROOT
BRANCH   1   2
ATOM      2  C   UNL A   1      33.705  27.459  24.769  1.00  0.00     0.116 C 
BRANCH   2   3
ATOM      3  N   UNL A   1      32.708  26.907  23.872  1.00  0.00    -0.354 N 
ATOM      4  C   UNL A   1      32.068  25.701  23.870  1.00  0.00     0.242 C 
ATOM      5  O   UNL A   1      31.428  25.417  22.851  1.00  0.00    -0.273 OA
ATOM      6  H   UNL A   1      32.447  27.506  23.136  1.00  0.00     0.163 HD
BRANCH   4   7
ATOM      7  C   UNL A   1      32.272  24.639  24.972  1.00  0.00     0.174 C 
ATOM      8  N   UNL A   1      31.833  23.295  24.621  1.00  0.00    -0.327 N 
ATOM      9  C   UNL A   1      31.214  22.653  25.766  1.00  0.00     0.121 C 
ATOM     10  C   UNL A   1      30.574  23.804  26.519  1.00  0.00     0.024 C 
ATOM     11  C   UNL A   1      31.506  24.988  26.256  1.00  0.00     0.037 C 
BRANCH   8  12
ATOM     12  C   UNL A   1      32.492  22.614  23.615  1.00  0.00     0.258 C 
ATOM     13  O   UNL A   1      31.863  21.997  22.747  1.00  0.00    -0.269 OA
BRANCH  12  14
ATOM     14  C   UNL A   1      33.942  22.530  23.723  1.00  0.00     0.080 A 
ATOM     15  N   UNL A   1      35.983  22.063  24.442  1.00  0.00    -0.269 N 
ATOM     16  N   UNL A   1      36.171  22.956  23.446  1.00  0.00    -0.180 NA
ATOM     17  C   UNL A   1      34.662  21.720  24.599  1.00  0.00     0.048 A 
ATOM     18  C   UNL A   1      34.939  23.302  23.091  1.00  0.00     0.149 A 
ATOM     19  C   UNL A   1      34.176  20.713  25.582  1.00  0.00     0.067 C 
BRANCH  15  20
ATOM     20  C   UNL A   1      37.121  21.666  25.260  1.00  0.00     0.144 C 
BRANCH  20  21
ATOM     21  C   UNL A   1      38.150  22.771  25.453  1.00  0.00     0.020 C 
ATOM     22  C   UNL A   1      37.638  23.795  26.431  1.00  0.00     0.006 C 
ENDBRANCH  20  21
ENDBRANCH  15  20
ENDBRANCH  12  14
ENDBRANCH   8  12
ENDBRANCH   4   7
ENDBRANCH   2   3
ENDBRANCH   1   2
BRANCH   1  23
ATOM     23  C   UNL A   1      33.630  28.587  27.106  1.00  0.00     0.023 C 
BRANCH  23  24
ATOM     24  C   UNL A   1      35.084  29.022  27.291  1.00  0.00     0.116 C 
BRANCH  24  25
ATOM     25  N   UNL A   1      35.294  29.846  28.476  1.00  0.00    -0.352 N 
ATOM     26  C   UNL A   1      36.326  29.781  29.397  1.00  0.00     0.251 C 
ATOM     27  H   UNL A   1      34.615  30.539  28.642  1.00  0.00     0.163 HD
ATOM     28  O   UNL A   1      36.142  30.220  30.530  1.00  0.00    -0.269 OA
BRANCH  26  29
ATOM     29  C   UNL A   1      37.639  29.199  29.023  1.00  0.00     0.039 A 
ATOM     30  C   UNL A   1      38.327  29.619  27.878  1.00  0.00     0.014 A 
ATOM     31  C   UNL A   1      38.179  28.180  29.800  1.00  0.00     0.014 A 
ATOM     32  C   UNL A   1      39.558  29.029  27.546  1.00  0.00     0.010 A 
ATOM     33  C   UNL A   1      39.449  27.694  29.542  1.00  0.00     0.010 A 
ATOM     34  C   UNL A   1      40.117  28.045  28.375  1.00  0.00    -0.014 A 
BRANCH  34  35
ATOM     35  C   UNL A   1      41.522  27.619  28.258  1.00  0.00     0.031 A 
ATOM     36  C   UNL A   1      41.602  26.350  27.505  1.00  0.00     0.074 A 
ATOM     37  C   UNL A   1      42.645  28.326  28.535  1.00  0.00     0.049 A 
ATOM     38  N   UNL A   1      41.823  25.188  28.017  1.00  0.00    -0.248 NA
ATOM     39  C   UNL A   1      41.145  26.308  26.105  1.00  0.00     0.031 C 
ATOM     40  C   UNL A   1      42.738  29.653  29.134  1.00  0.00     0.029 A 
ATOM     41  N   UNL A   1      43.963  28.056  28.253  1.00  0.00    -0.354 N 
ATOM     42  C   UNL A   1      41.859  24.321  26.937  1.00  0.00     0.074 A 
ATOM     43  C   UNL A   1      41.157  24.992  25.882  1.00  0.00     0.031 C 
ATOM     44  C   UNL A   1      43.960  30.192  28.916  1.00  0.00     0.029 A 
ATOM     45  C   UNL A   1      44.819  29.163  28.354  1.00  0.00     0.049 A 
ATOM     46  H   UNL A   1      44.281  27.159  28.001  1.00  0.00     0.167 HD
ATOM     47  C   UNL A   1      42.772  23.311  26.921  1.00  0.00     0.034 A 
ATOM     48  C   UNL A   1      46.156  29.238  28.092  1.00  0.00     0.034 A 
ATOM     49  C   UNL A   1      43.361  23.157  28.241  1.00  0.00     0.049 A 
ATOM     50  C   UNL A   1      46.688  27.879  28.310  1.00  0.00     0.074 A 
ATOM     51  C   UNL A   1      42.903  22.813  29.496  1.00  0.00     0.029 A 
ATOM     52  N   UNL A   1      44.566  23.797  28.419  1.00  0.00    -0.354 N 
ATOM     53  N   UNL A   1      46.705  27.311  29.483  1.00  0.00    -0.248 NA
ATOM     54  C   UNL A   1      46.847  26.976  27.180  1.00  0.00     0.031 C 
ATOM     55  C   UNL A   1      43.729  23.518  30.421  1.00  0.00     0.029 A 
ATOM     56  C   UNL A   1      44.713  24.213  29.716  1.00  0.00     0.049 A 
ATOM     57  H   UNL A   1      45.233  23.939  27.709  1.00  0.00     0.167 HD
ATOM     58  C   UNL A   1      46.387  25.992  29.224  1.00  0.00     0.074 A 
ATOM     59  C   UNL A   1      46.676  25.808  27.807  1.00  0.00     0.031 C 
ATOM     60  C   UNL A   1      45.619  25.284  30.103  1.00  0.00     0.034 A 
BRANCH  47  61
ATOM     61  C   UNL A   1      43.504  22.824  25.679  1.00  0.00     0.023 A 
ATOM     62  C   UNL A   1      43.637  21.426  25.548  1.00  0.00     0.031 A 
ATOM     63  C   UNL A   1      44.310  23.590  24.808  1.00  0.00     0.131 A 
ATOM     64  C   UNL A   1      44.619  20.863  24.718  1.00  0.00     0.055 A 
ATOM     65  C   UNL A   1      45.250  23.022  23.943  1.00  0.00     0.041 A 
ATOM     66  F   UNL A   1      44.298  24.925  24.778  1.00  0.00    -0.206 F 
ATOM     67  C   UNL A   1      45.436  21.652  23.920  1.00  0.00     0.022 A 
BRANCH  64  68
ATOM     68  S   UNL A   1      44.919  19.083  24.840  1.00  0.00     0.124 S 
ATOM     69  O   UNL A   1      46.136  19.053  25.643  1.00  0.00    -0.237 OA
ATOM     70  O   UNL A   1      43.700  18.618  25.491  1.00  0.00    -0.237 OA
ATOM     71  O   UNL A   1      45.078  18.674  23.447  1.00  0.00    -0.744 OA
ENDBRANCH  64  68
ENDBRANCH  47  61
BRANCH  48  72
ATOM     72  C   UNL A   1      46.995  30.355  27.561  1.00  0.00     0.023 A 
ATOM     73  C   UNL A   1      46.460  31.485  26.893  1.00  0.00     0.031 A 
ATOM     74  C   UNL A   1      48.339  30.452  27.977  1.00  0.00     0.131 A 
ATOM     75  C   UNL A   1      47.249  32.647  26.696  1.00  0.00     0.055 A 
ATOM     76  C   UNL A   1      49.110  31.606  27.790  1.00  0.00     0.041 A 
ATOM     77  F   UNL A   1      48.922  29.457  28.665  1.00  0.00    -0.206 F 
ATOM     78  C   UNL A   1      48.563  32.715  27.161  1.00  0.00     0.022 A 
BRANCH  75  79
ATOM     79  S   UNL A   1      46.543  34.146  25.920  1.00  0.00     0.124 S 
ATOM     80  O   UNL A   1      47.646  34.618  25.092  1.00  0.00    -0.237 OA
ATOM     81  O   UNL A   1      45.379  33.621  25.216  1.00  0.00    -0.237 OA
ATOM     82  O   UNL A   1      46.226  35.006  27.062  1.00  0.00    -0.744 OA
ENDBRANCH  75  79
ENDBRANCH  48  72
BRANCH  60  83
ATOM     83  C   UNL A   1      45.621  25.725  31.551  1.00  0.00     0.023 A 
ATOM     84  C   UNL A   1      46.612  25.420  32.511  1.00  0.00     0.031 A 
ATOM     85  C   UNL A   1      44.556  26.551  31.955  1.00  0.00     0.131 A 
ATOM     86  C   UNL A   1      46.504  25.933  33.819  1.00  0.00     0.055 A 
ATOM     87  C   UNL A   1      44.465  27.078  33.240  1.00  0.00     0.041 A 
ATOM     88  F   UNL A   1      43.584  26.883  31.087  1.00  0.00    -0.206 F 
ATOM     89  C   UNL A   1      45.437  26.764  34.181  1.00  0.00     0.022 A 
BRANCH  86  90
ATOM     90  S   UNL A   1      47.733  25.506  35.095  1.00  0.00     0.124 S 
ATOM     91  O   UNL A   1      48.911  25.123  34.326  1.00  0.00    -0.237 OA
ATOM     92  O   UNL A   1      47.845  26.749  35.854  1.00  0.00    -0.237 OA
ATOM     93  O   UNL A   1      47.096  24.406  35.825  1.00  0.00    -0.744 OA
ENDBRANCH  86  90
ENDBRANCH  60  83
ENDBRANCH  34  35
ENDBRANCH  26  29
ENDBRANCH  24  25
ENDBRANCH  23  24
ENDBRANCH   1  23
TORSDOF 18
ENDMDL
