MODEL 1
REMARK VINA RESULT:     -12.3      0.000      0.000
REMARK SMILES Cc1ccc(OC2(C(=O)NCCCCNC(=O)c3ccc(-c4c5nc(c(-c6cc(S(=O)(=O)[O-])ccc6F)c6ccc([nH]6)c(-c6cc(S(=O)(=O)[O-])ccc6F)c6nc(c(-c7cc(S(=O)(=O)[O-])ccc7F)c7ccc4[nH]7)C=C6)C=C5)cc3)CC[NH+](C[C@@H]3CC=CCC3)CC2)cn1
REMARK SMILES IDX 13 1 12 2 11 3 10 4 8 5 9 6 7 8 81 9 92 10 82 11 91 12 83 13
REMARK SMILES IDX 6 15 5 16 1 17 2 18 3 19 94 20 4 21 93 22 84 23 85 24 86 25
REMARK SMILES IDX 90 26 87 27 89 28 88 29 14 30 15 31 16 32 17 34 18 35 19 36
REMARK SMILES IDX 80 37 20 38 79 39 21 40 22 41 23 42 73 43 24 44 78 45 72 46
REMARK SMILES IDX 74 47 25 48 77 49 71 50 70 51 26 53 58 54 38 55 57 56 39 57
REMARK SMILES IDX 42 58 56 59 75 60 40 61 41 62 55 64 76 65 43 66 27 67 28 68
REMARK SMILES IDX 36 69 29 70 35 71 37 72 34 73 30 74 31 75 32 76 33 77 59 78
REMARK SMILES IDX 60 79 68 80 61 81 67 82 69 83 66 84 62 85 63 86 64 87 65 88
REMARK SMILES IDX 44 89 45 90 53 91 46 92 52 93 54 94 51 95 47 96 48 97 49 98
REMARK SMILES IDX 50 99
REMARK H PARENT 10 7 83 14 15 33 74 52 42 63
REMARK Flexibility Score: inf
ROOT
ATOM      1  C   UNL A   1      37.943  20.878  25.376  1.00  0.00     0.023 C 
ENDROOT
BRANCH   1   2
ATOM      2  C   UNL A   1      37.431  22.092  24.637  1.00  0.00     0.023 C 
BRANCH   2   3
ATOM      3  C   UNL A   1      36.995  23.331  25.448  1.00  0.00     0.116 C 
BRANCH   3   4
ATOM      4  N   UNL A   1      36.149  23.077  26.617  1.00  0.00    -0.353 N 
ATOM      5  C   UNL A   1      34.789  22.979  26.809  1.00  0.00     0.264 C 
ATOM      6  O   UNL A   1      34.445  22.425  27.863  1.00  0.00    -0.270 OA
ATOM      7  H   UNL A   1      36.665  22.945  27.446  1.00  0.00     0.163 HD
BRANCH   5   8
ATOM      8  C   UNL A   1      33.703  23.526  25.809  1.00  0.00     0.197 C 
ATOM      9  C   UNL A   1      32.368  23.561  26.497  1.00  0.00     0.120 C 
ATOM     10  C   UNL A   1      34.019  24.985  25.388  1.00  0.00     0.120 C 
ATOM     11  C   UNL A   1      31.242  24.195  25.750  1.00  0.00     0.267 C 
ATOM     12  C   UNL A   1      32.812  25.672  24.686  1.00  0.00     0.267 C 
ATOM     13  N   UNL A   1      31.588  25.579  25.494  1.00  0.00    -0.334 N 
ATOM     14  H   UNL A   1      31.841  26.029  26.373  1.00  0.00     0.348 HD
BRANCH   8  15
ATOM     15  O   UNL A   1      33.753  22.777  24.571  1.00  0.00    -0.475 OA
BRANCH  15  16
ATOM     16  C   UNL A   1      33.377  21.485  24.371  1.00  0.00     0.139 A 
ATOM     17  C   UNL A   1      33.149  17.321  23.401  1.00  0.00     0.066 C 
ATOM     18  C   UNL A   1      33.193  18.771  23.774  1.00  0.00     0.038 A 
ATOM     19  C   UNL A   1      32.274  19.653  23.235  1.00  0.00     0.027 A 
ATOM     20  N   UNL A   1      34.154  19.179  24.633  1.00  0.00    -0.258 NA
ATOM     21  C   UNL A   1      32.371  21.009  23.542  1.00  0.00     0.050 A 
ATOM     22  C   UNL A   1      34.219  20.513  24.904  1.00  0.00     0.157 A 
ENDBRANCH  15  16
ENDBRANCH   8  15
BRANCH  13  23
ATOM     23  C   UNL A   1      30.439  26.395  25.081  1.00  0.00     0.266 C 
BRANCH  23  24
ATOM     24  C   UNL A   1      30.572  27.543  24.030  1.00  0.00     0.048 C 
ATOM     25  C   UNL A   1      31.205  28.864  24.563  1.00  0.00     0.036 C 
ATOM     26  C   UNL A   1      29.272  27.730  23.228  1.00  0.00     0.014 C 
ATOM     27  C   UNL A   1      30.407  30.116  24.323  1.00  0.00    -0.031 C 
ATOM     28  C   UNL A   1      29.226  29.036  22.443  1.00  0.00     0.027 C 
ATOM     29  C   UNL A   1      29.509  30.204  23.334  1.00  0.00    -0.031 C 
ENDBRANCH  23  24
ENDBRANCH  13  23
ENDBRANCH   5   8
ENDBRANCH   3   4
ENDBRANCH   2   3
ENDBRANCH   1   2
BRANCH   1  30
ATOM     30  C   UNL A   1      39.334  21.020  25.936  1.00  0.00     0.116 C 
BRANCH  30  31
ATOM     31  N   UNL A   1      40.121  19.795  25.927  1.00  0.00    -0.352 N 
ATOM     32  C   UNL A   1      41.485  19.684  26.086  1.00  0.00     0.251 C 
ATOM     33  H   UNL A   1      39.624  18.955  25.792  1.00  0.00     0.163 HD
ATOM     34  O   UNL A   1      42.041  18.595  25.994  1.00  0.00    -0.269 OA
BRANCH  32  35
ATOM     35  C   UNL A   1      42.256  20.925  26.298  1.00  0.00     0.039 A 
ATOM     36  C   UNL A   1      42.592  21.710  25.195  1.00  0.00     0.014 A 
ATOM     37  C   UNL A   1      42.503  21.377  27.597  1.00  0.00     0.014 A 
ATOM     38  C   UNL A   1      43.105  22.989  25.403  1.00  0.00     0.010 A 
ATOM     39  C   UNL A   1      42.889  22.691  27.800  1.00  0.00     0.010 A 
ATOM     40  C   UNL A   1      43.213  23.506  26.705  1.00  0.00    -0.014 A 
BRANCH  40  41
ATOM     41  C   UNL A   1      43.708  24.881  26.956  1.00  0.00     0.031 A 
ATOM     42  C   UNL A   1      42.777  25.896  27.563  1.00  0.00     0.074 A 
ATOM     43  C   UNL A   1      44.956  25.227  26.582  1.00  0.00     0.049 A 
ATOM     44  N   UNL A   1      42.978  27.166  27.802  1.00  0.00    -0.248 NA
ATOM     45  C   UNL A   1      41.423  25.429  27.903  1.00  0.00     0.031 C 
ATOM     46  C   UNL A   1      45.919  24.342  25.922  1.00  0.00     0.029 A 
ATOM     47  N   UNL A   1      45.626  26.416  26.699  1.00  0.00    -0.354 N 
ATOM     48  C   UNL A   1      41.771  27.649  28.297  1.00  0.00     0.074 A 
ATOM     49  C   UNL A   1      40.824  26.559  28.242  1.00  0.00     0.031 C 
ATOM     50  C   UNL A   1      47.069  25.010  25.729  1.00  0.00     0.029 A 
ATOM     51  C   UNL A   1      46.913  26.377  26.212  1.00  0.00     0.049 A 
ATOM     52  H   UNL A   1      45.225  27.224  27.093  1.00  0.00     0.167 HD
ATOM     53  C   UNL A   1      41.489  28.880  28.790  1.00  0.00     0.034 A 
ATOM     54  C   UNL A   1      47.856  27.338  26.166  1.00  0.00     0.034 A 
ATOM     55  C   UNL A   1      42.459  29.943  28.864  1.00  0.00     0.049 A 
ATOM     56  C   UNL A   1      47.527  28.696  26.734  1.00  0.00     0.074 A 
ATOM     57  C   UNL A   1      42.313  31.209  29.398  1.00  0.00     0.029 A 
ATOM     58  N   UNL A   1      43.763  29.858  28.388  1.00  0.00    -0.354 N 
ATOM     59  N   UNL A   1      46.401  29.121  27.259  1.00  0.00    -0.248 NA
ATOM     60  C   UNL A   1      48.602  29.696  26.719  1.00  0.00     0.031 C 
ATOM     61  C   UNL A   1      43.507  31.910  29.192  1.00  0.00     0.029 A 
ATOM     62  C   UNL A   1      44.423  31.058  28.596  1.00  0.00     0.049 A 
ATOM     63  H   UNL A   1      44.159  29.062  27.965  1.00  0.00     0.167 HD
ATOM     64  C   UNL A   1      46.642  30.431  27.664  1.00  0.00     0.074 A 
ATOM     65  C   UNL A   1      48.026  30.714  27.339  1.00  0.00     0.031 C 
ATOM     66  C   UNL A   1      45.802  31.320  28.253  1.00  0.00     0.034 A 
BRANCH  53  67
ATOM     67  C   UNL A   1      40.078  29.127  29.265  1.00  0.00     0.023 A 
ATOM     68  C   UNL A   1      39.739  29.078  30.631  1.00  0.00     0.031 A 
ATOM     69  C   UNL A   1      39.044  29.364  28.343  1.00  0.00     0.131 A 
ATOM     70  C   UNL A   1      38.397  29.171  31.025  1.00  0.00     0.055 A 
ATOM     71  C   UNL A   1      37.720  29.545  28.750  1.00  0.00     0.041 A 
ATOM     72  F   UNL A   1      39.299  29.400  27.025  1.00  0.00    -0.206 F 
ATOM     73  C   UNL A   1      37.388  29.431  30.097  1.00  0.00     0.022 A 
BRANCH  70  74
ATOM     74  S   UNL A   1      37.973  28.786  32.747  1.00  0.00     0.124 S 
ATOM     75  O   UNL A   1      36.629  29.350  32.852  1.00  0.00    -0.237 OA
ATOM     76  O   UNL A   1      38.058  27.331  32.775  1.00  0.00    -0.237 OA
ATOM     77  O   UNL A   1      38.998  29.488  33.517  1.00  0.00    -0.744 OA
ENDBRANCH  70  74
ENDBRANCH  53  67
BRANCH  54  78
ATOM     78  C   UNL A   1      49.197  27.059  25.575  1.00  0.00     0.023 A 
ATOM     79  C   UNL A   1      50.270  26.647  26.382  1.00  0.00     0.031 A 
ATOM     80  C   UNL A   1      49.436  27.236  24.201  1.00  0.00     0.131 A 
ATOM     81  C   UNL A   1      51.544  26.472  25.818  1.00  0.00     0.055 A 
ATOM     82  C   UNL A   1      50.694  27.014  23.636  1.00  0.00     0.041 A 
ATOM     83  F   UNL A   1      48.443  27.619  23.383  1.00  0.00    -0.206 F 
ATOM     84  C   UNL A   1      51.760  26.643  24.449  1.00  0.00     0.022 A 
BRANCH  81  85
ATOM     85  S   UNL A   1      52.937  26.099  26.919  1.00  0.00     0.124 S 
ATOM     86  O   UNL A   1      53.792  27.264  26.723  1.00  0.00    -0.237 OA
ATOM     87  O   UNL A   1      52.278  25.996  28.215  1.00  0.00    -0.237 OA
ATOM     88  O   UNL A   1      53.463  24.843  26.387  1.00  0.00    -0.744 OA
ENDBRANCH  81  85
ENDBRANCH  54  78
BRANCH  66  89
ATOM     89  C   UNL A   1      46.379  32.664  28.619  1.00  0.00     0.023 A 
ATOM     90  C   UNL A   1      46.331  33.753  27.732  1.00  0.00     0.031 A 
ATOM     91  C   UNL A   1      46.998  32.850  29.867  1.00  0.00     0.131 A 
ATOM     92  C   UNL A   1      46.946  34.963  28.082  1.00  0.00     0.055 A 
ATOM     93  C   UNL A   1      47.553  34.076  30.235  1.00  0.00     0.041 A 
ATOM     94  F   UNL A   1      47.073  31.842  30.751  1.00  0.00    -0.206 F 
ATOM     95  C   UNL A   1      47.542  35.137  29.334  1.00  0.00     0.022 A 
BRANCH  92  96
ATOM     96  S   UNL A   1      47.044  36.279  26.838  1.00  0.00     0.124 S 
ATOM     97  O   UNL A   1      47.237  35.520  25.607  1.00  0.00    -0.237 OA
ATOM     98  O   UNL A   1      45.751  36.942  26.982  1.00  0.00    -0.237 OA
ATOM     99  O   UNL A   1      48.196  37.071  27.266  1.00  0.00    -0.744 OA
ENDBRANCH  92  96
ENDBRANCH  66  89
ENDBRANCH  40  41
ENDBRANCH  32  35
ENDBRANCH  30  31
ENDBRANCH   1  30
TORSDOF 18
ENDMDL
MODEL 2
REMARK VINA RESULT:     -12.3      1.922      2.191
REMARK SMILES Cc1ccc(OC2(C(=O)NCCCCNC(=O)c3ccc(-c4c5nc(c(-c6cc(S(=O)(=O)[O-])ccc6F)c6ccc([nH]6)c(-c6cc(S(=O)(=O)[O-])ccc6F)c6nc(c(-c7cc(S(=O)(=O)[O-])ccc7F)c7ccc4[nH]7)C=C6)C=C5)cc3)CC[NH+](C[C@@H]3CC=CCC3)CC2)cn1
REMARK SMILES IDX 13 1 12 2 11 3 10 4 8 5 9 6 7 8 81 9 92 10 82 11 91 12 83 13
REMARK SMILES IDX 6 15 5 16 1 17 2 18 3 19 94 20 4 21 93 22 84 23 85 24 86 25
REMARK SMILES IDX 90 26 87 27 89 28 88 29 14 30 15 31 16 32 17 34 18 35 19 36
REMARK SMILES IDX 80 37 20 38 79 39 21 40 22 41 23 42 73 43 24 44 78 45 72 46
REMARK SMILES IDX 74 47 25 48 77 49 71 50 70 51 26 53 58 54 38 55 57 56 39 57
REMARK SMILES IDX 42 58 56 59 75 60 40 61 41 62 55 64 76 65 43 66 27 67 28 68
REMARK SMILES IDX 36 69 29 70 35 71 37 72 34 73 30 74 31 75 32 76 33 77 59 78
REMARK SMILES IDX 60 79 68 80 61 81 67 82 69 83 66 84 62 85 63 86 64 87 65 88
REMARK SMILES IDX 44 89 45 90 53 91 46 92 52 93 54 94 51 95 47 96 48 97 49 98
REMARK SMILES IDX 50 99
REMARK H PARENT 10 7 83 14 15 33 74 52 42 63
REMARK Flexibility Score: inf
ROOT
ATOM      1  C   UNL A   1      37.800  20.874  25.032  1.00  0.00     0.023 C 
ENDROOT
BRANCH   1   2
ATOM      2  C   UNL A   1      37.366  22.220  24.497  1.00  0.00     0.023 C 
BRANCH   2   3
ATOM      3  C   UNL A   1      36.914  23.308  25.494  1.00  0.00     0.116 C 
BRANCH   3   4
ATOM      4  N   UNL A   1      36.067  22.861  26.603  1.00  0.00    -0.353 N 
ATOM      5  C   UNL A   1      34.718  22.616  26.737  1.00  0.00     0.264 C 
ATOM      6  O   UNL A   1      34.403  21.932  27.721  1.00  0.00    -0.270 OA
ATOM      7  H   UNL A   1      36.572  22.698  27.432  1.00  0.00     0.163 HD
BRANCH   5   8
ATOM      8  C   UNL A   1      33.609  23.154  25.757  1.00  0.00     0.197 C 
ATOM      9  C   UNL A   1      32.288  23.181  26.470  1.00  0.00     0.120 C 
ATOM     10  C   UNL A   1      33.907  24.614  25.327  1.00  0.00     0.120 C 
ATOM     11  C   UNL A   1      31.144  23.806  25.743  1.00  0.00     0.267 C 
ATOM     12  C   UNL A   1      32.683  25.292  24.647  1.00  0.00     0.267 C 
ATOM     13  N   UNL A   1      31.475  25.192  25.478  1.00  0.00    -0.334 N 
ATOM     14  H   UNL A   1      31.741  25.646  26.351  1.00  0.00     0.348 HD
BRANCH   8  15
ATOM     15  O   UNL A   1      33.641  22.404  24.520  1.00  0.00    -0.475 OA
BRANCH  15  16
ATOM     16  C   UNL A   1      33.362  21.083  24.347  1.00  0.00     0.139 A 
ATOM     17  C   UNL A   1      33.425  16.905  23.412  1.00  0.00     0.066 C 
ATOM     18  C   UNL A   1      33.370  18.357  23.775  1.00  0.00     0.038 A 
ATOM     19  C   UNL A   1      32.354  19.156  23.280  1.00  0.00     0.027 A 
ATOM     20  N   UNL A   1      34.338  18.850  24.579  1.00  0.00    -0.258 NA
ATOM     21  C   UNL A   1      32.356  20.519  23.575  1.00  0.00     0.050 A 
ATOM     22  C   UNL A   1      34.308  20.188  24.839  1.00  0.00     0.157 A 
ENDBRANCH  15  16
ENDBRANCH   8  15
BRANCH  13  23
ATOM     23  C   UNL A   1      30.312  25.999  25.086  1.00  0.00     0.266 C 
BRANCH  23  24
ATOM     24  C   UNL A   1      30.410  27.122  24.004  1.00  0.00     0.048 C 
ATOM     25  C   UNL A   1      31.281  28.353  24.398  1.00  0.00     0.036 C 
ATOM     26  C   UNL A   1      29.028  27.471  23.424  1.00  0.00     0.014 C 
ATOM     27  C   UNL A   1      30.616  29.695  24.268  1.00  0.00    -0.031 C 
ATOM     28  C   UNL A   1      29.014  28.774  22.632  1.00  0.00     0.027 C 
ATOM     29  C   UNL A   1      29.583  29.896  23.440  1.00  0.00    -0.031 C 
ENDBRANCH  23  24
ENDBRANCH  13  23
ENDBRANCH   5   8
ENDBRANCH   3   4
ENDBRANCH   2   3
ENDBRANCH   1   2
BRANCH   1  30
ATOM     30  C   UNL A   1      38.965  20.919  25.985  1.00  0.00     0.116 C 
BRANCH  30  31
ATOM     31  N   UNL A   1      39.800  19.725  25.980  1.00  0.00    -0.352 N 
ATOM     32  C   UNL A   1      41.162  19.666  26.173  1.00  0.00     0.251 C 
ATOM     33  H   UNL A   1      39.339  18.869  25.823  1.00  0.00     0.163 HD
ATOM     34  O   UNL A   1      41.762  18.601  26.083  1.00  0.00    -0.269 OA
BRANCH  32  35
ATOM     35  C   UNL A   1      41.878  20.933  26.420  1.00  0.00     0.039 A 
ATOM     36  C   UNL A   1      42.183  21.760  25.338  1.00  0.00     0.014 A 
ATOM     37  C   UNL A   1      42.102  21.362  27.730  1.00  0.00     0.014 A 
ATOM     38  C   UNL A   1      42.640  23.054  25.581  1.00  0.00     0.010 A 
ATOM     39  C   UNL A   1      42.431  22.685  27.968  1.00  0.00     0.010 A 
ATOM     40  C   UNL A   1      42.722  23.542  26.896  1.00  0.00    -0.014 A 
BRANCH  40  41
ATOM     41  C   UNL A   1      43.156  24.930  27.184  1.00  0.00     0.031 A 
ATOM     42  C   UNL A   1      42.205  25.868  27.877  1.00  0.00     0.074 A 
ATOM     43  C   UNL A   1      44.365  25.357  26.768  1.00  0.00     0.049 A 
ATOM     44  N   UNL A   1      42.351  27.135  28.161  1.00  0.00    -0.248 NA
ATOM     45  C   UNL A   1      40.895  25.314  28.258  1.00  0.00     0.031 C 
ATOM     46  C   UNL A   1      45.340  24.554  26.027  1.00  0.00     0.029 A 
ATOM     47  N   UNL A   1      44.978  26.576  26.906  1.00  0.00    -0.354 N 
ATOM     48  C   UNL A   1      41.146  27.532  28.733  1.00  0.00     0.074 A 
ATOM     49  C   UNL A   1      40.255  26.396  28.673  1.00  0.00     0.031 C 
ATOM     50  C   UNL A   1      46.443  25.290  25.810  1.00  0.00     0.029 A 
ATOM     51  C   UNL A   1      46.240  26.626  26.359  1.00  0.00     0.049 A 
ATOM     52  H   UNL A   1      44.555  27.343  27.353  1.00  0.00     0.167 HD
ATOM     53  C   UNL A   1      40.825  28.724  29.291  1.00  0.00     0.034 A 
ATOM     54  C   UNL A   1      47.129  27.637  26.311  1.00  0.00     0.034 A 
ATOM     55  C   UNL A   1      41.741  29.834  29.367  1.00  0.00     0.049 A 
ATOM     56  C   UNL A   1      46.757  28.951  26.953  1.00  0.00     0.074 A 
ATOM     57  C   UNL A   1      41.555  31.068  29.962  1.00  0.00     0.029 A 
ATOM     58  N   UNL A   1      43.023  29.840  28.828  1.00  0.00    -0.354 N 
ATOM     59  N   UNL A   1      45.637  29.293  27.548  1.00  0.00    -0.248 NA
ATOM     60  C   UNL A   1      47.777  30.007  26.932  1.00  0.00     0.031 C 
ATOM     61  C   UNL A   1      42.700  31.840  29.731  1.00  0.00     0.029 A 
ATOM     62  C   UNL A   1      43.629  31.064  29.057  1.00  0.00     0.049 A 
ATOM     63  H   UNL A   1      43.439  29.084  28.353  1.00  0.00     0.167 HD
ATOM     64  C   UNL A   1      45.829  30.596  27.997  1.00  0.00     0.074 A 
ATOM     65  C   UNL A   1      47.180  30.967  27.621  1.00  0.00     0.031 C 
ATOM     66  C   UNL A   1      44.974  31.413  28.663  1.00  0.00     0.034 A 
BRANCH  53  67
ATOM     67  C   UNL A   1      39.427  28.876  29.842  1.00  0.00     0.023 A 
ATOM     68  C   UNL A   1      38.398  29.476  29.091  1.00  0.00     0.031 A 
ATOM     69  C   UNL A   1      39.127  28.465  31.152  1.00  0.00     0.131 A 
ATOM     70  C   UNL A   1      37.153  29.730  29.684  1.00  0.00     0.055 A 
ATOM     71  C   UNL A   1      37.857  28.639  31.706  1.00  0.00     0.041 A 
ATOM     72  F   UNL A   1      40.072  27.907  31.926  1.00  0.00    -0.206 F 
ATOM     73  C   UNL A   1      36.866  29.291  30.977  1.00  0.00     0.022 A 
BRANCH  70  74
ATOM     74  S   UNL A   1      35.972  30.781  28.795  1.00  0.00     0.124 S 
ATOM     75  O   UNL A   1      35.283  31.447  29.899  1.00  0.00    -0.237 OA
ATOM     76  O   UNL A   1      36.845  31.624  27.987  1.00  0.00    -0.237 OA
ATOM     77  O   UNL A   1      35.157  29.826  28.048  1.00  0.00    -0.744 OA
ENDBRANCH  70  74
ENDBRANCH  53  67
BRANCH  54  78
ATOM     78  C   UNL A   1      48.452  27.455  25.647  1.00  0.00     0.023 A 
ATOM     79  C   UNL A   1      48.591  27.611  24.259  1.00  0.00     0.031 A 
ATOM     80  C   UNL A   1      49.590  27.086  26.386  1.00  0.00     0.131 A 
ATOM     81  C   UNL A   1      49.826  27.351  23.644  1.00  0.00     0.055 A 
ATOM     82  C   UNL A   1      50.829  26.876  25.776  1.00  0.00     0.041 A 
ATOM     83  F   UNL A   1      49.515  26.933  27.718  1.00  0.00    -0.206 F 
ATOM     84  C   UNL A   1      50.948  26.995  24.396  1.00  0.00     0.022 A 
BRANCH  81  85
ATOM     85  S   UNL A   1      49.925  27.405  21.834  1.00  0.00     0.124 S 
ATOM     86  O   UNL A   1      49.798  28.835  21.571  1.00  0.00    -0.237 OA
ATOM     87  O   UNL A   1      51.237  26.820  21.585  1.00  0.00    -0.237 OA
ATOM     88  O   UNL A   1      48.789  26.589  21.407  1.00  0.00    -0.744 OA
ENDBRANCH  81  85
ENDBRANCH  54  78
BRANCH  66  89
ATOM     89  C   UNL A   1      45.498  32.770  29.060  1.00  0.00     0.023 A 
ATOM     90  C   UNL A   1      45.324  33.897  28.239  1.00  0.00     0.031 A 
ATOM     91  C   UNL A   1      46.193  32.932  30.271  1.00  0.00     0.131 A 
ATOM     92  C   UNL A   1      45.892  35.124  28.610  1.00  0.00     0.055 A 
ATOM     93  C   UNL A   1      46.701  34.169  30.666  1.00  0.00     0.041 A 
ATOM     94  F   UNL A   1      46.388  31.887  31.093  1.00  0.00    -0.206 F 
ATOM     95  C   UNL A   1      46.565  35.272  29.826  1.00  0.00     0.022 A 
BRANCH  92  96
ATOM     96  S   UNL A   1      45.825  36.503  27.435  1.00  0.00     0.124 S 
ATOM     97  O   UNL A   1      44.521  36.308  26.810  1.00  0.00    -0.237 OA
ATOM     98  O   UNL A   1      45.945  37.665  28.310  1.00  0.00    -0.237 OA
ATOM     99  O   UNL A   1      46.973  36.265  26.561  1.00  0.00    -0.744 OA
ENDBRANCH  92  96
ENDBRANCH  66  89
ENDBRANCH  40  41
ENDBRANCH  32  35
ENDBRANCH  30  31
ENDBRANCH   1  30
TORSDOF 18
ENDMDL
MODEL 3
REMARK VINA RESULT:     -12.3      5.716     10.161
REMARK SMILES Cc1ccc(OC2(C(=O)NCCCCNC(=O)c3ccc(-c4c5nc(c(-c6cc(S(=O)(=O)[O-])ccc6F)c6ccc([nH]6)c(-c6cc(S(=O)(=O)[O-])ccc6F)c6nc(c(-c7cc(S(=O)(=O)[O-])ccc7F)c7ccc4[nH]7)C=C6)C=C5)cc3)CC[NH+](C[C@@H]3CC=CCC3)CC2)cn1
REMARK SMILES IDX 13 1 12 2 11 3 10 4 8 5 9 6 7 8 81 9 92 10 82 11 91 12 83 13
REMARK SMILES IDX 6 15 5 16 1 17 2 18 3 19 94 20 4 21 93 22 84 23 85 24 86 25
REMARK SMILES IDX 90 26 87 27 89 28 88 29 14 30 15 31 16 32 17 34 18 35 19 36
REMARK SMILES IDX 80 37 20 38 79 39 21 40 22 41 23 42 73 43 24 44 78 45 72 46
REMARK SMILES IDX 74 47 25 48 77 49 71 50 70 51 26 53 58 54 38 55 57 56 39 57
REMARK SMILES IDX 42 58 56 59 75 60 40 61 41 62 55 64 76 65 43 66 27 67 28 68
REMARK SMILES IDX 36 69 29 70 35 71 37 72 34 73 30 74 31 75 32 76 33 77 59 78
REMARK SMILES IDX 60 79 68 80 61 81 67 82 69 83 66 84 62 85 63 86 64 87 65 88
REMARK SMILES IDX 44 89 45 90 53 91 46 92 52 93 54 94 51 95 47 96 48 97 49 98
REMARK SMILES IDX 50 99
REMARK H PARENT 10 7 83 14 15 33 74 52 42 63
REMARK Flexibility Score: inf
ROOT
ATOM      1  C   UNL A   1      33.518  31.747  27.728  1.00  0.00     0.023 C 
ENDROOT
BRANCH   1   2
ATOM      2  C   UNL A   1      34.608  30.700  27.758  1.00  0.00     0.023 C 
BRANCH   2   3
ATOM      3  C   UNL A   1      34.300  29.287  27.220  1.00  0.00     0.116 C 
BRANCH   3   4
ATOM      4  N   UNL A   1      32.936  28.794  27.432  1.00  0.00    -0.353 N 
ATOM      5  C   UNL A   1      32.161  27.835  26.820  1.00  0.00     0.264 C 
ATOM      6  O   UNL A   1      31.179  27.455  27.475  1.00  0.00    -0.270 OA
ATOM      7  H   UNL A   1      32.474  29.246  28.175  1.00  0.00     0.163 HD
BRANCH   5   8
ATOM      8  C   UNL A   1      32.438  27.239  25.389  1.00  0.00     0.197 C 
ATOM      9  C   UNL A   1      33.709  26.439  25.423  1.00  0.00     0.120 C 
ATOM     10  C   UNL A   1      31.312  26.259  24.968  1.00  0.00     0.120 C 
ATOM     11  C   UNL A   1      34.053  25.672  24.189  1.00  0.00     0.267 C 
ATOM     12  C   UNL A   1      31.709  25.398  23.733  1.00  0.00     0.267 C 
ATOM     13  N   UNL A   1      32.994  24.716  23.937  1.00  0.00    -0.334 N 
ATOM     14  H   UNL A   1      32.843  24.155  24.775  1.00  0.00     0.348 HD
BRANCH   8  15
ATOM     15  O   UNL A   1      32.383  28.293  24.399  1.00  0.00    -0.475 OA
BRANCH  15  16
ATOM     16  C   UNL A   1      31.272  28.882  23.880  1.00  0.00     0.139 A 
ATOM     17  C   UNL A   1      28.422  31.031  21.515  1.00  0.00     0.066 C 
ATOM     18  C   UNL A   1      29.382  30.251  22.360  1.00  0.00     0.038 A 
ATOM     19  C   UNL A   1      29.542  30.567  23.697  1.00  0.00     0.027 A 
ATOM     20  N   UNL A   1      30.082  29.254  21.773  1.00  0.00    -0.258 NA
ATOM     21  C   UNL A   1      30.488  29.874  24.452  1.00  0.00     0.050 A 
ATOM     22  C   UNL A   1      31.000  28.604  22.543  1.00  0.00     0.157 A 
ENDBRANCH  15  16
ENDBRANCH   8  15
BRANCH  13  23
ATOM     23  C   UNL A   1      33.372  23.677  22.970  1.00  0.00     0.266 C 
BRANCH  23  24
ATOM     24  C   UNL A   1      33.552  22.182  23.387  1.00  0.00     0.048 C 
ATOM     25  C   UNL A   1      32.238  21.431  23.755  1.00  0.00     0.036 C 
ATOM     26  C   UNL A   1      34.696  22.012  24.403  1.00  0.00     0.014 C 
ATOM     27  C   UNL A   1      32.227  20.744  25.093  1.00  0.00    -0.031 C 
ATOM     28  C   UNL A   1      34.695  20.655  25.097  1.00  0.00     0.027 C 
ATOM     29  C   UNL A   1      33.358  20.368  25.704  1.00  0.00    -0.031 C 
ENDBRANCH  23  24
ENDBRANCH  13  23
ENDBRANCH   5   8
ENDBRANCH   3   4
ENDBRANCH   2   3
ENDBRANCH   1   2
BRANCH   1  30
ATOM     30  C   UNL A   1      34.010  33.170  27.717  1.00  0.00     0.116 C 
BRANCH  30  31
ATOM     31  N   UNL A   1      33.199  34.099  28.492  1.00  0.00    -0.352 N 
ATOM     32  C   UNL A   1      33.405  34.491  29.796  1.00  0.00     0.251 C 
ATOM     33  H   UNL A   1      32.420  34.490  28.032  1.00  0.00     0.163 HD
ATOM     34  O   UNL A   1      32.610  35.235  30.360  1.00  0.00    -0.269 OA
BRANCH  32  35
ATOM     35  C   UNL A   1      34.570  33.929  30.508  1.00  0.00     0.039 A 
ATOM     36  C   UNL A   1      34.384  32.833  31.351  1.00  0.00     0.014 A 
ATOM     37  C   UNL A   1      35.854  34.393  30.215  1.00  0.00     0.014 A 
ATOM     38  C   UNL A   1      35.500  32.152  31.836  1.00  0.00     0.010 A 
ATOM     39  C   UNL A   1      36.954  33.640  30.590  1.00  0.00     0.010 A 
ATOM     40  C   UNL A   1      36.790  32.522  31.422  1.00  0.00    -0.014 A 
BRANCH  40  41
ATOM     41  C   UNL A   1      37.993  31.787  31.880  1.00  0.00     0.031 A 
ATOM     42  C   UNL A   1      38.633  32.168  33.187  1.00  0.00     0.074 A 
ATOM     43  C   UNL A   1      38.539  30.834  31.098  1.00  0.00     0.049 A 
ATOM     44  N   UNL A   1      39.724  31.708  33.742  1.00  0.00    -0.248 NA
ATOM     45  C   UNL A   1      37.981  33.246  33.950  1.00  0.00     0.031 C 
ATOM     46  C   UNL A   1      38.042  30.431  29.780  1.00  0.00     0.029 A 
ATOM     47  N   UNL A   1      39.634  30.035  31.296  1.00  0.00    -0.354 N 
ATOM     48  C   UNL A   1      39.899  32.455  34.902  1.00  0.00     0.074 A 
ATOM     49  C   UNL A   1      38.852  33.452  34.925  1.00  0.00     0.031 C 
ATOM     50  C   UNL A   1      38.808  29.434  29.307  1.00  0.00     0.029 A 
ATOM     51  C   UNL A   1      39.871  29.154  30.265  1.00  0.00     0.049 A 
ATOM     52  H   UNL A   1      40.200  30.086  32.099  1.00  0.00     0.167 HD
ATOM     53  C   UNL A   1      40.824  32.299  35.879  1.00  0.00     0.034 A 
ATOM     54  C   UNL A   1      40.837  28.227  30.116  1.00  0.00     0.034 A 
ATOM     55  C   UNL A   1      41.839  31.277  35.851  1.00  0.00     0.049 A 
ATOM     56  C   UNL A   1      41.848  28.058  31.223  1.00  0.00     0.074 A 
ATOM     57  C   UNL A   1      42.791  30.978  36.808  1.00  0.00     0.029 A 
ATOM     58  N   UNL A   1      42.031  30.382  34.803  1.00  0.00    -0.354 N 
ATOM     59  N   UNL A   1      41.962  28.729  32.347  1.00  0.00    -0.248 NA
ATOM     60  C   UNL A   1      42.846  26.996  31.049  1.00  0.00     0.031 C 
ATOM     61  C   UNL A   1      43.595  29.944  36.314  1.00  0.00     0.029 A 
ATOM     62  C   UNL A   1      43.101  29.548  35.082  1.00  0.00     0.049 A 
ATOM     63  H   UNL A   1      41.487  30.348  33.984  1.00  0.00     0.167 HD
ATOM     64  C   UNL A   1      43.029  28.149  33.027  1.00  0.00     0.074 A 
ATOM     65  C   UNL A   1      43.508  27.063  32.194  1.00  0.00     0.031 C 
ATOM     66  C   UNL A   1      43.566  28.478  34.230  1.00  0.00     0.034 A 
BRANCH  53  67
ATOM     67  C   UNL A   1      40.775  33.265  37.039  1.00  0.00     0.023 A 
ATOM     68  C   UNL A   1      40.188  32.913  38.269  1.00  0.00     0.031 A 
ATOM     69  C   UNL A   1      41.272  34.573  36.901  1.00  0.00     0.131 A 
ATOM     70  C   UNL A   1      40.032  33.878  39.275  1.00  0.00     0.055 A 
ATOM     71  C   UNL A   1      41.194  35.503  37.939  1.00  0.00     0.041 A 
ATOM     72  F   UNL A   1      41.822  34.976  35.745  1.00  0.00    -0.206 F 
ATOM     73  C   UNL A   1      40.554  35.164  39.128  1.00  0.00     0.022 A 
BRANCH  70  74
ATOM     74  S   UNL A   1      38.995  33.474  40.707  1.00  0.00     0.124 S 
ATOM     75  O   UNL A   1      37.654  33.566  40.134  1.00  0.00    -0.237 OA
ATOM     76  O   UNL A   1      39.449  32.133  41.057  1.00  0.00    -0.237 OA
ATOM     77  O   UNL A   1      39.324  34.518  41.675  1.00  0.00    -0.744 OA
ENDBRANCH  70  74
ENDBRANCH  53  67
BRANCH  54  78
ATOM     78  C   UNL A   1      40.896  27.381  28.889  1.00  0.00     0.023 A 
ATOM     79  C   UNL A   1      41.847  27.630  27.885  1.00  0.00     0.031 A 
ATOM     80  C   UNL A   1      39.979  26.336  28.683  1.00  0.00     0.131 A 
ATOM     81  C   UNL A   1      41.829  26.877  26.701  1.00  0.00     0.055 A 
ATOM     82  C   UNL A   1      39.997  25.557  27.523  1.00  0.00     0.041 A 
ATOM     83  F   UNL A   1      39.056  26.049  29.614  1.00  0.00    -0.206 F 
ATOM     84  C   UNL A   1      40.918  25.835  26.519  1.00  0.00     0.022 A 
BRANCH  81  85
ATOM     85  S   UNL A   1      42.966  27.335  25.363  1.00  0.00     0.124 S 
ATOM     86  O   UNL A   1      44.145  27.763  26.108  1.00  0.00    -0.237 OA
ATOM     87  O   UNL A   1      43.090  26.081  24.630  1.00  0.00    -0.237 OA
ATOM     88  O   UNL A   1      42.252  28.399  24.660  1.00  0.00    -0.744 OA
ENDBRANCH  81  85
ENDBRANCH  54  78
BRANCH  66  89
ATOM     89  C   UNL A   1      44.702  27.620  34.727  1.00  0.00     0.023 A 
ATOM     90  C   UNL A   1      44.472  26.427  35.432  1.00  0.00     0.031 A 
ATOM     91  C   UNL A   1      46.033  28.012  34.501  1.00  0.00     0.131 A 
ATOM     92  C   UNL A   1      45.556  25.698  35.941  1.00  0.00     0.055 A 
ATOM     93  C   UNL A   1      47.109  27.250  34.955  1.00  0.00     0.041 A 
ATOM     94  F   UNL A   1      46.309  29.144  33.832  1.00  0.00    -0.206 F 
ATOM     95  C   UNL A   1      46.874  26.093  35.693  1.00  0.00     0.022 A 
BRANCH  92  96
ATOM     96  S   UNL A   1      45.220  24.279  37.018  1.00  0.00     0.124 S 
ATOM     97  O   UNL A   1      44.341  24.864  38.025  1.00  0.00    -0.237 OA
ATOM     98  O   UNL A   1      44.597  23.331  36.100  1.00  0.00    -0.237 OA
ATOM     99  O   UNL A   1      46.545  23.894  37.501  1.00  0.00    -0.744 OA
ENDBRANCH  92  96
ENDBRANCH  66  89
ENDBRANCH  40  41
ENDBRANCH  32  35
ENDBRANCH  30  31
ENDBRANCH   1  30
TORSDOF 18
ENDMDL
