MODEL 1
REMARK VINA RESULT:     -12.8      0.000      0.000
REMARK SMILES C[C@H]1[C@H](C(=O)NCCCCNC(=O)c2ccc(-c3c4nc(c(-c5cc(S(=O)(=O)[O-])ccc5F)c5ccc([nH]5)c(-c5cc(S(=O)(=O)[O-])ccc5F)c5nc(c(-c6cc(S(=O)(=O)[O-])ccc6F)c6ccc3[nH]6)C=C5)C=C4)cc2)CCN1C(=O)Nc1ccc(F)c(Cl)c1
REMARK SMILES IDX 9 1 8 2 7 3 6 4 4 5 5 6 3 8 1 9 2 10 79 11 77 12 78 13 80 14
REMARK SMILES IDX 81 15 82 16 83 18 84 19 90 20 85 21 88 22 86 23 89 24 87 25
REMARK SMILES IDX 10 26 11 27 12 28 13 30 14 31 15 32 76 33 16 34 75 35 17 36
REMARK SMILES IDX 18 37 19 38 69 39 20 40 74 41 68 42 70 43 21 44 73 45 67 46
REMARK SMILES IDX 66 47 22 49 54 50 34 51 53 52 35 53 38 54 52 55 71 56 36 57
REMARK SMILES IDX 37 58 51 60 72 61 39 62 23 63 24 64 32 65 25 66 31 67 33 68
REMARK SMILES IDX 30 69 26 70 27 71 28 72 29 73 55 74 56 75 64 76 57 77 63 78
REMARK SMILES IDX 65 79 62 80 58 81 59 82 60 83 61 84 40 85 41 86 49 87 42 88
REMARK SMILES IDX 48 89 50 90 47 91 43 92 44 93 45 94 46 95
REMARK H PARENT 6 7 82 17 11 29 70 48 38 59
REMARK Flexibility Score: inf
ROOT
ATOM      1  C   UNL A   1      31.305  30.636  25.515  1.00  0.00     0.023 C 
ENDROOT
BRANCH   1   2
ATOM      2  C   UNL A   1      31.663  29.256  24.995  1.00  0.00     0.023 C 
BRANCH   2   3
ATOM      3  C   UNL A   1      31.126  28.893  23.615  1.00  0.00     0.116 C 
BRANCH   3   4
ATOM      4  N   UNL A   1      29.924  28.079  23.675  1.00  0.00    -0.356 N 
ATOM      5  C   UNL A   1      29.750  26.740  23.837  1.00  0.00     0.225 C 
ATOM      6  O   UNL A   1      28.589  26.327  23.918  1.00  0.00    -0.275 OA
ATOM      7  H   UNL A   1      29.087  28.588  23.583  1.00  0.00     0.163 HD
BRANCH   5   8
ATOM      8  C   UNL A   1      30.901  25.738  23.874  1.00  0.00     0.102 C 
ATOM      9  C   UNL A   1      32.805  25.753  25.548  1.00  0.00     0.032 C 
ATOM     10  C   UNL A   1      31.333  25.413  25.313  1.00  0.00     0.096 C 
ATOM     11  N   UNL A   1      31.068  23.982  25.496  1.00  0.00    -0.321 N 
ATOM     12  C   UNL A   1      30.622  24.410  23.180  1.00  0.00     0.037 C 
ATOM     13  C   UNL A   1      30.979  23.336  24.194  1.00  0.00     0.122 C 
BRANCH  11  14
ATOM     14  C   UNL A   1      31.122  23.173  26.601  1.00  0.00     0.322 C 
ATOM     15  O   UNL A   1      30.251  23.252  27.476  1.00  0.00    -0.248 OA
ATOM     16  N   UNL A   1      32.011  22.159  26.747  1.00  0.00    -0.308 N 
ATOM     17  H   UNL A   1      31.669  21.444  27.332  1.00  0.00     0.171 HD
BRANCH  16  18
ATOM     18  C   UNL A   1      33.296  21.884  26.268  1.00  0.00     0.044 A 
ATOM     19  C   UNL A   1      33.501  20.706  25.547  1.00  0.00     0.029 A 
ATOM     20  C   UNL A   1      34.382  22.710  26.519  1.00  0.00     0.049 A 
ATOM     21  C   UNL A   1      34.742  20.450  24.955  1.00  0.00     0.043 A 
ATOM     22  C   UNL A   1      35.616  22.482  25.909  1.00  0.00     0.078 A 
ATOM     23  C   UNL A   1      35.785  21.358  25.112  1.00  0.00     0.141 A 
ATOM     24  Cl  UNL A   1      36.896  23.615  26.106  1.00  0.00    -0.081 Cl
ATOM     25  F   UNL A   1      36.944  21.130  24.481  1.00  0.00    -0.205 F 
ENDBRANCH  16  18
ENDBRANCH  11  14
ENDBRANCH   5   8
ENDBRANCH   3   4
ENDBRANCH   2   3
ENDBRANCH   1   2
BRANCH   1  26
ATOM     26  C   UNL A   1      32.034  31.032  26.783  1.00  0.00     0.116 C 
BRANCH  26  27
ATOM     27  N   UNL A   1      32.090  32.475  26.976  1.00  0.00    -0.352 N 
ATOM     28  C   UNL A   1      33.045  33.241  27.610  1.00  0.00     0.251 C 
ATOM     29  H   UNL A   1      31.334  32.979  26.596  1.00  0.00     0.163 HD
ATOM     30  O   UNL A   1      32.836  34.427  27.821  1.00  0.00    -0.269 OA
BRANCH  28  31
ATOM     31  C   UNL A   1      34.300  32.601  28.063  1.00  0.00     0.039 A 
ATOM     32  C   UNL A   1      35.454  33.374  28.198  1.00  0.00     0.014 A 
ATOM     33  C   UNL A   1      34.315  31.250  28.408  1.00  0.00     0.014 A 
ATOM     34  C   UNL A   1      36.595  32.808  28.771  1.00  0.00     0.010 A 
ATOM     35  C   UNL A   1      35.402  30.729  29.094  1.00  0.00     0.010 A 
ATOM     36  C   UNL A   1      36.562  31.496  29.272  1.00  0.00    -0.014 A 
BRANCH  36  37
ATOM     37  C   UNL A   1      37.731  30.886  29.957  1.00  0.00     0.031 A 
ATOM     38  C   UNL A   1      38.041  31.272  31.380  1.00  0.00     0.074 A 
ATOM     39  C   UNL A   1      38.553  30.058  29.281  1.00  0.00     0.049 A 
ATOM     40  N   UNL A   1      39.070  30.953  32.121  1.00  0.00    -0.248 NA
ATOM     41  C   UNL A   1      37.088  32.180  32.039  1.00  0.00     0.031 C 
ATOM     42  C   UNL A   1      38.390  29.657  27.881  1.00  0.00     0.029 A 
ATOM     43  N   UNL A   1      39.697  29.412  29.676  1.00  0.00    -0.354 N 
ATOM     44  C   UNL A   1      38.900  31.640  33.319  1.00  0.00     0.074 A 
ATOM     45  C   UNL A   1      37.714  32.454  33.172  1.00  0.00     0.031 C 
ATOM     46  C   UNL A   1      39.374  28.807  27.549  1.00  0.00     0.029 A 
ATOM     47  C   UNL A   1      40.267  28.640  28.689  1.00  0.00     0.049 A 
ATOM     48  H   UNL A   1      40.076  29.493  30.581  1.00  0.00     0.167 HD
ATOM     49  C   UNL A   1      39.643  31.572  34.450  1.00  0.00     0.034 A 
ATOM     50  C   UNL A   1      41.388  27.891  28.702  1.00  0.00     0.034 A 
ATOM     51  C   UNL A   1      40.803  30.727  34.589  1.00  0.00     0.049 A 
ATOM     52  C   UNL A   1      42.201  27.829  29.972  1.00  0.00     0.074 A 
ATOM     53  C   UNL A   1      41.594  30.524  35.705  1.00  0.00     0.029 A 
ATOM     54  N   UNL A   1      41.339  29.943  33.573  1.00  0.00    -0.354 N 
ATOM     55  N   UNL A   1      41.996  28.442  31.116  1.00  0.00    -0.248 NA
ATOM     56  C   UNL A   1      43.389  26.967  29.955  1.00  0.00     0.031 C 
ATOM     57  C   UNL A   1      42.643  29.671  35.348  1.00  0.00     0.029 A 
ATOM     58  C   UNL A   1      42.465  29.279  34.031  1.00  0.00     0.049 A 
ATOM     59  H   UNL A   1      40.971  29.871  32.664  1.00  0.00     0.167 HD
ATOM     60  C   UNL A   1      43.013  28.013  31.963  1.00  0.00     0.074 A 
ATOM     61  C   UNL A   1      43.818  27.078  31.203  1.00  0.00     0.031 C 
ATOM     62  C   UNL A   1      43.260  28.356  33.253  1.00  0.00     0.034 A 
BRANCH  49  63
ATOM     63  C   UNL A   1      39.225  32.446  35.610  1.00  0.00     0.023 A 
ATOM     64  C   UNL A   1      39.630  33.790  35.706  1.00  0.00     0.031 A 
ATOM     65  C   UNL A   1      38.448  31.920  36.656  1.00  0.00     0.131 A 
ATOM     66  C   UNL A   1      39.331  34.533  36.859  1.00  0.00     0.055 A 
ATOM     67  C   UNL A   1      38.076  32.692  37.760  1.00  0.00     0.041 A 
ATOM     68  F   UNL A   1      38.049  30.639  36.635  1.00  0.00    -0.206 F 
ATOM     69  C   UNL A   1      38.534  34.002  37.873  1.00  0.00     0.022 A 
BRANCH  66  70
ATOM     70  S   UNL A   1      40.133  36.144  37.079  1.00  0.00     0.124 S 
ATOM     71  O   UNL A   1      39.868  36.783  35.792  1.00  0.00    -0.237 OA
ATOM     72  O   UNL A   1      39.423  36.698  38.226  1.00  0.00    -0.237 OA
ATOM     73  O   UNL A   1      41.534  35.801  37.317  1.00  0.00    -0.744 OA
ENDBRANCH  66  70
ENDBRANCH  49  63
BRANCH  50  74
ATOM     74  C   UNL A   1      41.814  27.140  27.485  1.00  0.00     0.023 A 
ATOM     75  C   UNL A   1      41.662  25.746  27.408  1.00  0.00     0.031 A 
ATOM     76  C   UNL A   1      42.418  27.798  26.400  1.00  0.00     0.131 A 
ATOM     77  C   UNL A   1      42.152  25.049  26.291  1.00  0.00     0.055 A 
ATOM     78  C   UNL A   1      42.854  27.106  25.267  1.00  0.00     0.041 A 
ATOM     79  F   UNL A   1      42.582  29.130  26.419  1.00  0.00    -0.206 F 
ATOM     80  C   UNL A   1      42.734  25.721  25.215  1.00  0.00     0.022 A 
BRANCH  77  81
ATOM     81  S   UNL A   1      42.093  23.236  26.306  1.00  0.00     0.124 S 
ATOM     82  O   UNL A   1      42.660  22.910  25.002  1.00  0.00    -0.237 OA
ATOM     83  O   UNL A   1      42.920  22.915  27.464  1.00  0.00    -0.237 OA
ATOM     84  O   UNL A   1      40.670  22.942  26.458  1.00  0.00    -0.744 OA
ENDBRANCH  77  81
ENDBRANCH  50  74
BRANCH  62  85
ATOM     85  C   UNL A   1      44.422  27.676  33.932  1.00  0.00     0.023 A 
ATOM     86  C   UNL A   1      44.251  26.517  34.709  1.00  0.00     0.031 A 
ATOM     87  C   UNL A   1      45.721  28.203  33.805  1.00  0.00     0.131 A 
ATOM     88  C   UNL A   1      45.351  25.955  35.375  1.00  0.00     0.055 A 
ATOM     89  C   UNL A   1      46.820  27.603  34.418  1.00  0.00     0.041 A 
ATOM     90  F   UNL A   1      45.940  29.309  33.076  1.00  0.00    -0.206 F 
ATOM     91  C   UNL A   1      46.637  26.480  35.219  1.00  0.00     0.022 A 
BRANCH  88  92
ATOM     92  S   UNL A   1      45.063  24.582  36.524  1.00  0.00     0.124 S 
ATOM     93  O   UNL A   1      43.711  24.861  36.997  1.00  0.00    -0.237 OA
ATOM     94  O   UNL A   1      45.208  23.416  35.660  1.00  0.00    -0.237 OA
ATOM     95  O   UNL A   1      46.116  24.747  37.525  1.00  0.00    -0.744 OA
ENDBRANCH  88  92
ENDBRANCH  62  85
ENDBRANCH  36  37
ENDBRANCH  28  31
ENDBRANCH  26  27
ENDBRANCH   1  26
TORSDOF 16
ENDMDL
MODEL 2
REMARK VINA RESULT:     -12.7      2.501      3.654
REMARK SMILES C[C@H]1[C@H](C(=O)NCCCCNC(=O)c2ccc(-c3c4nc(c(-c5cc(S(=O)(=O)[O-])ccc5F)c5ccc([nH]5)c(-c5cc(S(=O)(=O)[O-])ccc5F)c5nc(c(-c6cc(S(=O)(=O)[O-])ccc6F)c6ccc3[nH]6)C=C5)C=C4)cc2)CCN1C(=O)Nc1ccc(F)c(Cl)c1
REMARK SMILES IDX 9 1 8 2 7 3 6 4 4 5 5 6 3 8 1 9 2 10 79 11 77 12 78 13 80 14
REMARK SMILES IDX 81 15 82 16 83 18 84 19 90 20 85 21 88 22 86 23 89 24 87 25
REMARK SMILES IDX 10 26 11 27 12 28 13 30 14 31 15 32 76 33 16 34 75 35 17 36
REMARK SMILES IDX 18 37 19 38 69 39 20 40 74 41 68 42 70 43 21 44 73 45 67 46
REMARK SMILES IDX 66 47 22 49 54 50 34 51 53 52 35 53 38 54 52 55 71 56 36 57
REMARK SMILES IDX 37 58 51 60 72 61 39 62 23 63 24 64 32 65 25 66 31 67 33 68
REMARK SMILES IDX 30 69 26 70 27 71 28 72 29 73 55 74 56 75 64 76 57 77 63 78
REMARK SMILES IDX 65 79 62 80 58 81 59 82 60 83 61 84 40 85 41 86 49 87 42 88
REMARK SMILES IDX 48 89 50 90 47 91 43 92 44 93 45 94 46 95
REMARK H PARENT 6 7 82 17 11 29 70 48 38 59
REMARK Flexibility Score: inf
ROOT
ATOM      1  C   UNL A   1      31.821  28.811  26.732  1.00  0.00     0.023 C 
ENDROOT
BRANCH   1   2
ATOM      2  C   UNL A   1      32.303  27.380  26.867  1.00  0.00     0.023 C 
BRANCH   2   3
ATOM      3  C   UNL A   1      31.580  26.340  26.018  1.00  0.00     0.116 C 
BRANCH   3   4
ATOM      4  N   UNL A   1      31.214  25.153  26.772  1.00  0.00    -0.356 N 
ATOM      5  C   UNL A   1      31.771  23.913  26.828  1.00  0.00     0.225 C 
ATOM      6  O   UNL A   1      31.277  23.108  27.623  1.00  0.00    -0.275 OA
ATOM      7  H   UNL A   1      30.423  25.267  27.345  1.00  0.00     0.163 HD
BRANCH   5   8
ATOM      8  C   UNL A   1      32.925  23.466  25.935  1.00  0.00     0.102 C 
ATOM      9  C   UNL A   1      32.766  21.729  24.095  1.00  0.00     0.032 C 
ATOM     10  C   UNL A   1      32.459  23.170  24.501  1.00  0.00     0.096 C 
ATOM     11  N   UNL A   1      33.159  24.137  23.647  1.00  0.00    -0.321 N 
ATOM     12  C   UNL A   1      34.083  24.451  25.836  1.00  0.00     0.037 C 
ATOM     13  C   UNL A   1      34.329  24.644  24.349  1.00  0.00     0.122 C 
BRANCH  11  14
ATOM     14  C   UNL A   1      33.038  24.441  22.316  1.00  0.00     0.322 C 
ATOM     15  O   UNL A   1      33.627  23.765  21.464  1.00  0.00    -0.248 OA
ATOM     16  N   UNL A   1      32.179  25.373  21.834  1.00  0.00    -0.308 N 
ATOM     17  H   UNL A   1      31.900  25.181  20.909  1.00  0.00     0.171 HD
BRANCH  16  18
ATOM     18  C   UNL A   1      31.594  26.542  22.333  1.00  0.00     0.044 A 
ATOM     19  C   UNL A   1      32.382  27.690  22.440  1.00  0.00     0.029 A 
ATOM     20  C   UNL A   1      30.278  26.594  22.769  1.00  0.00     0.049 A 
ATOM     21  C   UNL A   1      31.806  28.904  22.826  1.00  0.00     0.043 A 
ATOM     22  C   UNL A   1      29.685  27.805  23.127  1.00  0.00     0.078 A 
ATOM     23  C   UNL A   1      30.451  28.962  23.135  1.00  0.00     0.141 A 
ATOM     24  Cl  UNL A   1      28.006  27.864  23.501  1.00  0.00    -0.081 Cl
ATOM     25  F   UNL A   1      29.904  30.147  23.435  1.00  0.00    -0.205 F 
ENDBRANCH  16  18
ENDBRANCH  11  14
ENDBRANCH   5   8
ENDBRANCH   3   4
ENDBRANCH   2   3
ENDBRANCH   1   2
BRANCH   1  26
ATOM     26  C   UNL A   1      32.830  29.752  26.108  1.00  0.00     0.116 C 
BRANCH  26  27
ATOM     27  N   UNL A   1      32.662  31.133  26.543  1.00  0.00    -0.352 N 
ATOM     28  C   UNL A   1      33.441  31.888  27.394  1.00  0.00     0.251 C 
ATOM     29  H   UNL A   1      31.875  31.596  26.175  1.00  0.00     0.163 HD
ATOM     30  O   UNL A   1      33.046  32.980  27.776  1.00  0.00    -0.269 OA
BRANCH  28  31
ATOM     31  C   UNL A   1      34.733  31.342  27.865  1.00  0.00     0.039 A 
ATOM     32  C   UNL A   1      35.829  32.195  28.001  1.00  0.00     0.014 A 
ATOM     33  C   UNL A   1      34.839  29.999  28.227  1.00  0.00     0.014 A 
ATOM     34  C   UNL A   1      37.002  31.716  28.589  1.00  0.00     0.010 A 
ATOM     35  C   UNL A   1      35.953  29.563  28.929  1.00  0.00     0.010 A 
ATOM     36  C   UNL A   1      37.055  30.411  29.106  1.00  0.00    -0.014 A 
BRANCH  36  37
ATOM     37  C   UNL A   1      38.258  29.892  29.808  1.00  0.00     0.031 A 
ATOM     38  C   UNL A   1      38.573  30.381  31.198  1.00  0.00     0.074 A 
ATOM     39  C   UNL A   1      39.101  29.054  29.172  1.00  0.00     0.049 A 
ATOM     40  N   UNL A   1      39.625  30.150  31.940  1.00  0.00    -0.248 NA
ATOM     41  C   UNL A   1      37.596  31.292  31.815  1.00  0.00     0.031 C 
ATOM     42  C   UNL A   1      38.934  28.558  27.804  1.00  0.00     0.029 A 
ATOM     43  N   UNL A   1      40.276  28.479  29.588  1.00  0.00    -0.354 N 
ATOM     44  C   UNL A   1      39.446  30.906  33.094  1.00  0.00     0.074 A 
ATOM     45  C   UNL A   1      38.227  31.663  32.916  1.00  0.00     0.031 C 
ATOM     46  C   UNL A   1      39.946  27.726  27.510  1.00  0.00     0.029 A 
ATOM     47  C   UNL A   1      40.862  27.668  28.643  1.00  0.00     0.049 A 
ATOM     48  H   UNL A   1      40.665  28.633  30.479  1.00  0.00     0.167 HD
ATOM     49  C   UNL A   1      40.208  30.940  34.215  1.00  0.00     0.034 A 
ATOM     50  C   UNL A   1      42.011  26.965  28.684  1.00  0.00     0.034 A 
ATOM     51  C   UNL A   1      41.403  30.150  34.386  1.00  0.00     0.049 A 
ATOM     52  C   UNL A   1      42.845  27.017  29.940  1.00  0.00     0.074 A 
ATOM     53  C   UNL A   1      42.218  30.051  35.499  1.00  0.00     0.029 A 
ATOM     54  N   UNL A   1      41.954  29.324  33.414  1.00  0.00    -0.354 N 
ATOM     55  N   UNL A   1      42.633  27.693  31.047  1.00  0.00    -0.248 NA
ATOM     56  C   UNL A   1      44.065  26.201  29.958  1.00  0.00     0.031 C 
ATOM     57  C   UNL A   1      43.295  29.217  35.180  1.00  0.00     0.029 A 
ATOM     58  C   UNL A   1      43.112  28.734  33.894  1.00  0.00     0.049 A 
ATOM     59  H   UNL A   1      41.576  29.179  32.518  1.00  0.00     0.167 HD
ATOM     60  C   UNL A   1      43.679  27.360  31.902  1.00  0.00     0.074 A 
ATOM     61  C   UNL A   1      44.508  26.409  31.189  1.00  0.00     0.031 C 
ATOM     62  C   UNL A   1      43.931  27.794  33.163  1.00  0.00     0.034 A 
BRANCH  49  63
ATOM     63  C   UNL A   1      39.774  31.870  35.323  1.00  0.00     0.023 A 
ATOM     64  C   UNL A   1      39.023  31.411  36.421  1.00  0.00     0.031 A 
ATOM     65  C   UNL A   1      40.077  33.241  35.264  1.00  0.00     0.131 A 
ATOM     66  C   UNL A   1      38.528  32.325  37.364  1.00  0.00     0.055 A 
ATOM     67  C   UNL A   1      39.657  34.133  36.255  1.00  0.00     0.041 A 
ATOM     68  F   UNL A   1      40.771  33.745  34.231  1.00  0.00    -0.206 F 
ATOM     69  C   UNL A   1      38.863  33.678  37.304  1.00  0.00     0.022 A 
BRANCH  66  70
ATOM     70  S   UNL A   1      37.312  31.741  38.576  1.00  0.00     0.124 S 
ATOM     71  O   UNL A   1      36.230  32.707  38.397  1.00  0.00    -0.237 OA
ATOM     72  O   UNL A   1      37.038  30.383  38.121  1.00  0.00    -0.237 OA
ATOM     73  O   UNL A   1      38.022  31.842  39.850  1.00  0.00    -0.744 OA
ENDBRANCH  66  70
ENDBRANCH  49  63
BRANCH  50  74
ATOM     74  C   UNL A   1      42.448  26.154  27.511  1.00  0.00     0.023 A 
ATOM     75  C   UNL A   1      42.074  24.806  27.386  1.00  0.00     0.031 A 
ATOM     76  C   UNL A   1      43.280  26.701  26.519  1.00  0.00     0.131 A 
ATOM     77  C   UNL A   1      42.570  24.037  26.320  1.00  0.00     0.055 A 
ATOM     78  C   UNL A   1      43.726  25.946  25.431  1.00  0.00     0.041 A 
ATOM     79  F   UNL A   1      43.663  27.986  26.585  1.00  0.00    -0.206 F 
ATOM     80  C   UNL A   1      43.382  24.601  25.335  1.00  0.00     0.022 A 
BRANCH  77  81
ATOM     81  S   UNL A   1      42.206  22.260  26.289  1.00  0.00     0.124 S 
ATOM     82  O   UNL A   1      42.753  21.822  27.568  1.00  0.00    -0.237 OA
ATOM     83  O   UNL A   1      40.752  22.250  26.176  1.00  0.00    -0.237 OA
ATOM     84  O   UNL A   1      42.925  21.786  25.108  1.00  0.00    -0.744 OA
ENDBRANCH  77  81
ENDBRANCH  50  74
BRANCH  62  85
ATOM     85  C   UNL A   1      45.129  27.205  33.863  1.00  0.00     0.023 A 
ATOM     86  C   UNL A   1      45.034  26.034  34.635  1.00  0.00     0.031 A 
ATOM     87  C   UNL A   1      46.385  27.832  33.762  1.00  0.00     0.131 A 
ATOM     88  C   UNL A   1      46.161  25.558  35.322  1.00  0.00     0.055 A 
ATOM     89  C   UNL A   1      47.515  27.317  34.396  1.00  0.00     0.041 A 
ATOM     90  F   UNL A   1      46.532  28.953  33.039  1.00  0.00    -0.206 F 
ATOM     91  C   UNL A   1      47.405  26.181  35.192  1.00  0.00     0.022 A 
BRANCH  88  92
ATOM     92  S   UNL A   1      45.958  24.163  36.463  1.00  0.00     0.124 S 
ATOM     93  O   UNL A   1      45.024  23.309  35.736  1.00  0.00    -0.237 OA
ATOM     94  O   UNL A   1      47.322  23.657  36.584  1.00  0.00    -0.237 OA
ATOM     95  O   UNL A   1      45.419  24.785  37.671  1.00  0.00    -0.744 OA
ENDBRANCH  88  92
ENDBRANCH  62  85
ENDBRANCH  36  37
ENDBRANCH  28  31
ENDBRANCH  26  27
ENDBRANCH   1  26
TORSDOF 16
ENDMDL
MODEL 3
REMARK VINA RESULT:     -12.7      0.572      7.718
REMARK SMILES C[C@H]1[C@H](C(=O)NCCCCNC(=O)c2ccc(-c3c4nc(c(-c5cc(S(=O)(=O)[O-])ccc5F)c5ccc([nH]5)c(-c5cc(S(=O)(=O)[O-])ccc5F)c5nc(c(-c6cc(S(=O)(=O)[O-])ccc6F)c6ccc3[nH]6)C=C5)C=C4)cc2)CCN1C(=O)Nc1ccc(F)c(Cl)c1
REMARK SMILES IDX 9 1 8 2 7 3 6 4 4 5 5 6 3 8 1 9 2 10 79 11 77 12 78 13 80 14
REMARK SMILES IDX 81 15 82 16 83 18 84 19 90 20 85 21 88 22 86 23 89 24 87 25
REMARK SMILES IDX 10 26 11 27 12 28 13 30 14 31 15 32 76 33 16 34 75 35 17 36
REMARK SMILES IDX 18 37 19 38 69 39 20 40 74 41 68 42 70 43 21 44 73 45 67 46
REMARK SMILES IDX 66 47 22 49 54 50 34 51 53 52 35 53 38 54 52 55 71 56 36 57
REMARK SMILES IDX 37 58 51 60 72 61 39 62 23 63 24 64 32 65 25 66 31 67 33 68
REMARK SMILES IDX 30 69 26 70 27 71 28 72 29 73 55 74 56 75 64 76 57 77 63 78
REMARK SMILES IDX 65 79 62 80 58 81 59 82 60 83 61 84 40 85 41 86 49 87 42 88
REMARK SMILES IDX 48 89 50 90 47 91 43 92 44 93 45 94 46 95
REMARK H PARENT 6 7 82 17 11 29 70 48 38 59
REMARK Flexibility Score: inf
ROOT
ATOM      1  C   UNL A   1      31.220  30.725  25.449  1.00  0.00     0.023 C 
ENDROOT
BRANCH   1   2
ATOM      2  C   UNL A   1      31.552  29.351  24.901  1.00  0.00     0.023 C 
BRANCH   2   3
ATOM      3  C   UNL A   1      30.974  29.011  23.532  1.00  0.00     0.116 C 
BRANCH   3   4
ATOM      4  N   UNL A   1      29.782  28.185  23.613  1.00  0.00    -0.356 N 
ATOM      5  C   UNL A   1      29.622  26.852  23.828  1.00  0.00     0.225 C 
ATOM      6  O   UNL A   1      28.465  26.428  23.915  1.00  0.00    -0.275 OA
ATOM      7  H   UNL A   1      28.940  28.679  23.492  1.00  0.00     0.163 HD
BRANCH   5   8
ATOM      8  C   UNL A   1      30.784  25.866  23.918  1.00  0.00     0.102 C 
ATOM      9  C   UNL A   1      32.560  25.855  25.727  1.00  0.00     0.032 C 
ATOM     10  C   UNL A   1      31.116  25.501  25.373  1.00  0.00     0.096 C 
ATOM     11  N   UNL A   1      30.864  24.060  25.491  1.00  0.00    -0.321 N 
ATOM     12  C   UNL A   1      30.580  24.558  23.163  1.00  0.00     0.037 C 
ATOM     13  C   UNL A   1      30.881  23.457  24.166  1.00  0.00     0.122 C 
BRANCH  11  14
ATOM     14  C   UNL A   1      30.851  23.216  26.570  1.00  0.00     0.322 C 
ATOM     15  O   UNL A   1      29.950  23.295  27.415  1.00  0.00    -0.248 OA
ATOM     16  N   UNL A   1      31.701  22.170  26.716  1.00  0.00    -0.308 N 
ATOM     17  H   UNL A   1      31.316  21.448  27.264  1.00  0.00     0.171 HD
BRANCH  16  18
ATOM     18  C   UNL A   1      32.994  21.868  26.275  1.00  0.00     0.044 A 
ATOM     19  C   UNL A   1      33.214  20.646  25.638  1.00  0.00     0.029 A 
ATOM     20  C   UNL A   1      34.074  22.713  26.487  1.00  0.00     0.049 A 
ATOM     21  C   UNL A   1      34.464  20.357  25.083  1.00  0.00     0.043 A 
ATOM     22  C   UNL A   1      35.318  22.450  25.913  1.00  0.00     0.078 A 
ATOM     23  C   UNL A   1      35.502  21.277  25.195  1.00  0.00     0.141 A 
ATOM     24  Cl  UNL A   1      36.592  23.599  26.052  1.00  0.00    -0.081 Cl
ATOM     25  F   UNL A   1      36.671  21.012  24.597  1.00  0.00    -0.205 F 
ENDBRANCH  16  18
ENDBRANCH  11  14
ENDBRANCH   5   8
ENDBRANCH   3   4
ENDBRANCH   2   3
ENDBRANCH   1   2
BRANCH   1  26
ATOM     26  C   UNL A   1      32.073  31.149  26.627  1.00  0.00     0.116 C 
BRANCH  26  27
ATOM     27  N   UNL A   1      32.009  32.581  26.886  1.00  0.00    -0.352 N 
ATOM     28  C   UNL A   1      32.858  33.381  27.620  1.00  0.00     0.251 C 
ATOM     29  H   UNL A   1      31.245  33.048  26.476  1.00  0.00     0.163 HD
ATOM     30  O   UNL A   1      32.547  34.538  27.868  1.00  0.00    -0.269 OA
BRANCH  28  31
ATOM     31  C   UNL A   1      34.123  32.811  28.134  1.00  0.00     0.039 A 
ATOM     32  C   UNL A   1      35.271  33.603  28.162  1.00  0.00     0.014 A 
ATOM     33  C   UNL A   1      34.154  31.512  28.641  1.00  0.00     0.014 A 
ATOM     34  C   UNL A   1      36.424  33.120  28.786  1.00  0.00     0.010 A 
ATOM     35  C   UNL A   1      35.252  31.087  29.374  1.00  0.00     0.010 A 
ATOM     36  C   UNL A   1      36.407  31.879  29.444  1.00  0.00    -0.014 A 
BRANCH  36  37
ATOM     37  C   UNL A   1      37.588  31.365  30.185  1.00  0.00     0.031 A 
ATOM     38  C   UNL A   1      38.486  30.346  29.532  1.00  0.00     0.074 A 
ATOM     39  C   UNL A   1      37.804  31.747  31.459  1.00  0.00     0.049 A 
ATOM     40  N   UNL A   1      39.495  29.685  30.037  1.00  0.00    -0.248 NA
ATOM     41  C   UNL A   1      38.176  29.990  28.138  1.00  0.00     0.031 C 
ATOM     42  C   UNL A   1      36.970  32.682  32.218  1.00  0.00     0.029 A 
ATOM     43  N   UNL A   1      38.786  31.389  32.348  1.00  0.00    -0.354 N 
ATOM     44  C   UNL A   1      39.919  28.819  29.035  1.00  0.00     0.074 A 
ATOM     45  C   UNL A   1      39.006  28.983  27.924  1.00  0.00     0.031 C 
ATOM     46  C   UNL A   1      37.496  32.850  33.442  1.00  0.00     0.029 A 
ATOM     47  C   UNL A   1      38.673  32.000  33.577  1.00  0.00     0.049 A 
ATOM     48  H   UNL A   1      39.505  30.753  32.129  1.00  0.00     0.167 HD
ATOM     49  C   UNL A   1      40.990  27.988  29.025  1.00  0.00     0.034 A 
ATOM     50  C   UNL A   1      39.428  31.880  34.686  1.00  0.00     0.034 A 
ATOM     51  C   UNL A   1      41.908  27.864  30.130  1.00  0.00     0.049 A 
ATOM     52  C   UNL A   1      40.616  30.950  34.655  1.00  0.00     0.074 A 
ATOM     53  C   UNL A   1      43.063  27.108  30.211  1.00  0.00     0.029 A 
ATOM     54  N   UNL A   1      41.771  28.515  31.351  1.00  0.00    -0.354 N 
ATOM     55  N   UNL A   1      41.037  30.179  33.678  1.00  0.00    -0.248 NA
ATOM     56  C   UNL A   1      41.436  30.884  35.871  1.00  0.00     0.031 C 
ATOM     57  C   UNL A   1      43.590  27.250  31.499  1.00  0.00     0.029 A 
ATOM     58  C   UNL A   1      42.807  28.155  32.198  1.00  0.00     0.049 A 
ATOM     59  H   UNL A   1      41.047  29.140  31.579  1.00  0.00     0.167 HD
ATOM     60  C   UNL A   1      42.189  29.559  34.154  1.00  0.00     0.074 A 
ATOM     61  C   UNL A   1      42.404  30.061  35.496  1.00  0.00     0.031 C 
ATOM     62  C   UNL A   1      42.999  28.661  33.538  1.00  0.00     0.034 A 
BRANCH  49  63
ATOM     63  C   UNL A   1      41.207  27.148  27.788  1.00  0.00     0.023 A 
ATOM     64  C   UNL A   1      40.938  25.767  27.777  1.00  0.00     0.031 A 
ATOM     65  C   UNL A   1      41.730  27.723  26.618  1.00  0.00     0.131 A 
ATOM     66  C   UNL A   1      41.273  24.995  26.654  1.00  0.00     0.055 A 
ATOM     67  C   UNL A   1      41.977  26.964  25.470  1.00  0.00     0.041 A 
ATOM     68  F   UNL A   1      42.029  29.030  26.572  1.00  0.00    -0.206 F 
ATOM     69  C   UNL A   1      41.765  25.589  25.491  1.00  0.00     0.022 A 
BRANCH  66  70
ATOM     70  S   UNL A   1      41.204  23.189  26.795  1.00  0.00     0.124 S 
ATOM     71  O   UNL A   1      39.813  22.918  26.435  1.00  0.00    -0.237 OA
ATOM     72  O   UNL A   1      42.209  22.757  25.832  1.00  0.00    -0.237 OA
ATOM     73  O   UNL A   1      41.534  22.941  28.197  1.00  0.00    -0.744 OA
ENDBRANCH  66  70
ENDBRANCH  49  63
BRANCH  50  74
ATOM     74  C   UNL A   1      39.094  32.651  35.920  1.00  0.00     0.023 A 
ATOM     75  C   UNL A   1      39.544  33.970  36.090  1.00  0.00     0.031 A 
ATOM     76  C   UNL A   1      38.357  32.067  36.964  1.00  0.00     0.131 A 
ATOM     77  C   UNL A   1      39.295  34.645  37.296  1.00  0.00     0.055 A 
ATOM     78  C   UNL A   1      38.064  32.762  38.140  1.00  0.00     0.041 A 
ATOM     79  F   UNL A   1      37.897  30.811  36.852  1.00  0.00    -0.206 F 
ATOM     80  C   UNL A   1      38.547  34.056  38.316  1.00  0.00     0.022 A 
BRANCH  77  81
ATOM     81  S   UNL A   1      40.040  36.281  37.544  1.00  0.00     0.124 S 
ATOM     82  O   UNL A   1      39.933  36.862  36.211  1.00  0.00    -0.237 OA
ATOM     83  O   UNL A   1      39.174  36.857  38.567  1.00  0.00    -0.237 OA
ATOM     84  O   UNL A   1      41.400  35.972  37.984  1.00  0.00    -0.744 OA
ENDBRANCH  77  81
ENDBRANCH  50  74
BRANCH  62  85
ATOM     85  C   UNL A   1      44.217  28.203  34.300  1.00  0.00     0.023 A 
ATOM     86  C   UNL A   1      44.189  27.067  35.128  1.00  0.00     0.031 A 
ATOM     87  C   UNL A   1      45.423  28.922  34.202  1.00  0.00     0.131 A 
ATOM     88  C   UNL A   1      45.328  26.715  35.868  1.00  0.00     0.055 A 
ATOM     89  C   UNL A   1      46.569  28.529  34.892  1.00  0.00     0.041 A 
ATOM     90  F   UNL A   1      45.505  30.015  33.427  1.00  0.00    -0.206 F 
ATOM     91  C   UNL A   1      46.522  27.428  35.741  1.00  0.00     0.022 A 
BRANCH  88  92
ATOM     92  S   UNL A   1      45.198  25.366  37.073  1.00  0.00     0.124 S 
ATOM     93  O   UNL A   1      43.809  25.477  37.505  1.00  0.00    -0.237 OA
ATOM     94  O   UNL A   1      45.522  24.194  36.266  1.00  0.00    -0.237 OA
ATOM     95  O   UNL A   1      46.192  25.715  38.086  1.00  0.00    -0.744 OA
ENDBRANCH  88  92
ENDBRANCH  62  85
ENDBRANCH  36  37
ENDBRANCH  28  31
ENDBRANCH  26  27
ENDBRANCH   1  26
TORSDOF 16
ENDMDL
