MODEL 1
REMARK VINA RESULT:     -12.2      0.000      0.000
REMARK SMILES Cc1ccc(C(=O)NCCCCNC(=O)c2ccc(-c3c4nc(c(-c5cc(S(=O)(=O)[O-])ccc5F)c5ccc([nH]5)c(-c5cc(S(=O)(=O)[O-])ccc5F)c5nc(c(-c6cc(S(=O)(=O)[O-])ccc6F)c6ccc3[nH]6)C=C5)C=C4)cc2)cc1O[C@@H](C)C(=O)N[C@@H]1CCS(=O)(=O)C1
REMARK SMILES IDX 10 1 9 2 8 3 6 4 7 5 5 7 1 8 2 9 3 10 80 11 4 12 79 13 81 14
REMARK SMILES IDX 82 15 83 16 84 17 85 18 86 19 87 21 88 22 93 23 89 24 90 25
REMARK SMILES IDX 91 26 92 27 11 28 12 29 13 30 14 31 15 33 16 34 17 35 78 36
REMARK SMILES IDX 18 37 77 38 19 39 20 40 21 41 71 42 22 43 76 44 70 45 72 46
REMARK SMILES IDX 23 47 75 48 69 49 68 50 24 52 56 53 36 54 55 55 37 56 40 57
REMARK SMILES IDX 54 58 73 59 38 60 39 61 53 63 74 64 41 65 25 66 26 67 34 68
REMARK SMILES IDX 27 69 33 70 35 71 32 72 28 73 29 74 30 75 31 76 57 77 58 78
REMARK SMILES IDX 66 79 59 80 65 81 67 82 64 83 60 84 61 85 62 86 63 87 42 88
REMARK SMILES IDX 43 89 51 90 44 91 50 92 52 93 49 94 45 95 46 96 47 97 48 98
REMARK H PARENT 8 6 86 20 13 32 72 51 40 62
REMARK Flexibility Score: inf
ROOT
ATOM      1  C   UNL A   1      35.647  29.755  27.506  1.00  0.00     0.023 C 
ENDROOT
BRANCH   1   2
ATOM      2  C   UNL A   1      34.543  28.999  26.753  1.00  0.00     0.116 C 
BRANCH   2   3
ATOM      3  N   UNL A   1      33.422  28.556  27.576  1.00  0.00    -0.352 N 
ATOM      4  C   UNL A   1      32.107  28.241  27.312  1.00  0.00     0.251 C 
ATOM      5  O   UNL A   1      31.422  27.865  28.269  1.00  0.00    -0.269 OA
ATOM      6  H   UNL A   1      33.656  28.462  28.528  1.00  0.00     0.163 HD
BRANCH   4   7
ATOM      7  C   UNL A   1      31.418  28.431  25.993  1.00  0.00     0.043 A 
ATOM      8  C   UNL A   1      30.000  29.360  21.983  1.00  0.00     0.048 C 
ATOM      9  C   UNL A   1      30.499  28.989  23.347  1.00  0.00    -0.009 A 
ATOM     10  C   UNL A   1      30.770  30.025  24.260  1.00  0.00     0.008 A 
ATOM     11  C   UNL A   1      30.711  27.677  23.774  1.00  0.00     0.124 A 
ATOM     12  C   UNL A   1      31.268  29.750  25.540  1.00  0.00     0.014 A 
ATOM     13  C   UNL A   1      31.016  27.413  25.130  1.00  0.00     0.060 A 
BRANCH  11  14
ATOM     14  O   UNL A   1      30.695  26.550  23.027  1.00  0.00    -0.481 OA
BRANCH  14  15
ATOM     15  C   UNL A   1      31.616  25.478  23.039  1.00  0.00     0.258 C 
ATOM     16  C   UNL A   1      30.716  24.225  23.108  1.00  0.00     0.064 C 
BRANCH  15  17
ATOM     17  C   UNL A   1      33.001  25.064  22.344  1.00  0.00     0.261 C 
ATOM     18  O   UNL A   1      33.274  25.459  21.200  1.00  0.00    -0.271 OA
ATOM     19  N   UNL A   1      33.916  24.190  22.851  1.00  0.00    -0.349 N 
ATOM     20  H   UNL A   1      34.584  23.866  22.204  1.00  0.00     0.163 HD
BRANCH  19  21
ATOM     21  C   UNL A   1      34.058  23.661  24.188  1.00  0.00     0.098 C 
ATOM     22  C   UNL A   1      35.001  24.484  25.088  1.00  0.00     0.042 C 
ATOM     23  C   UNL A   1      34.457  22.199  24.211  1.00  0.00     0.161 C 
ATOM     24  C   UNL A   1      36.132  23.610  25.603  1.00  0.00     0.139 C 
ATOM     25  S   UNL A   1      36.169  22.160  24.606  1.00  0.00     0.152 S 
ATOM     26  O   UNL A   1      36.943  22.444  23.410  1.00  0.00    -0.229 OA
ATOM     27  O   UNL A   1      36.454  21.049  25.476  1.00  0.00    -0.229 OA
ENDBRANCH  19  21
ENDBRANCH  15  17
ENDBRANCH  14  15
ENDBRANCH  11  14
ENDBRANCH   4   7
ENDBRANCH   2   3
ENDBRANCH   1   2
BRANCH   1  28
ATOM     28  C   UNL A   1      35.239  30.770  28.557  1.00  0.00     0.023 C 
BRANCH  28  29
ATOM     29  C   UNL A   1      35.310  32.210  28.103  1.00  0.00     0.116 C 
BRANCH  29  30
ATOM     30  N   UNL A   1      34.455  33.152  28.807  1.00  0.00    -0.352 N 
ATOM     31  C   UNL A   1      34.627  33.711  30.066  1.00  0.00     0.251 C 
ATOM     32  H   UNL A   1      33.643  33.432  28.325  1.00  0.00     0.163 HD
ATOM     33  O   UNL A   1      33.693  34.271  30.636  1.00  0.00    -0.269 OA
BRANCH  31  34
ATOM     34  C   UNL A   1      35.993  33.808  30.654  1.00  0.00     0.039 A 
ATOM     35  C   UNL A   1      37.035  34.151  29.776  1.00  0.00     0.014 A 
ATOM     36  C   UNL A   1      36.290  33.178  31.849  1.00  0.00     0.014 A 
ATOM     37  C   UNL A   1      38.279  33.562  29.944  1.00  0.00     0.010 A 
ATOM     38  C   UNL A   1      37.407  32.400  31.885  1.00  0.00     0.010 A 
ATOM     39  C   UNL A   1      38.379  32.569  30.902  1.00  0.00    -0.014 A 
BRANCH  39  40
ATOM     40  C   UNL A   1      39.529  31.736  31.143  1.00  0.00     0.031 A 
ATOM     41  C   UNL A   1      39.425  30.372  30.610  1.00  0.00     0.074 A 
ATOM     42  C   UNL A   1      40.665  32.370  31.505  1.00  0.00     0.049 A 
ATOM     43  N   UNL A   1      40.277  29.442  30.815  1.00  0.00    -0.248 NA
ATOM     44  C   UNL A   1      38.285  29.925  29.798  1.00  0.00     0.031 C 
ATOM     45  C   UNL A   1      42.048  31.923  31.402  1.00  0.00     0.029 A 
ATOM     46  N   UNL A   1      40.737  33.508  32.308  1.00  0.00    -0.354 N 
ATOM     47  C   UNL A   1      40.014  28.448  29.898  1.00  0.00     0.074 A 
ATOM     48  C   UNL A   1      38.690  28.713  29.414  1.00  0.00     0.031 C 
ATOM     49  C   UNL A   1      42.777  32.558  32.340  1.00  0.00     0.029 A 
ATOM     50  C   UNL A   1      41.840  33.310  33.163  1.00  0.00     0.049 A 
ATOM     51  H   UNL A   1      40.140  34.291  32.281  1.00  0.00     0.167 HD
ATOM     52  C   UNL A   1      41.045  27.637  29.547  1.00  0.00     0.034 A 
ATOM     53  C   UNL A   1      41.601  33.072  34.491  1.00  0.00     0.034 A 
ATOM     54  C   UNL A   1      42.169  27.869  30.457  1.00  0.00     0.049 A 
ATOM     55  C   UNL A   1      41.992  31.658  34.869  1.00  0.00     0.074 A 
ATOM     56  C   UNL A   1      43.335  28.603  30.341  1.00  0.00     0.029 A 
ATOM     57  N   UNL A   1      41.971  27.650  31.817  1.00  0.00    -0.354 N 
ATOM     58  N   UNL A   1      42.002  30.644  34.039  1.00  0.00    -0.248 NA
ATOM     59  C   UNL A   1      42.515  31.312  36.186  1.00  0.00     0.031 C 
ATOM     60  C   UNL A   1      43.748  28.953  31.660  1.00  0.00     0.029 A 
ATOM     61  C   UNL A   1      42.861  28.391  32.566  1.00  0.00     0.049 A 
ATOM     62  H   UNL A   1      41.289  27.048  32.192  1.00  0.00     0.167 HD
ATOM     63  C   UNL A   1      42.569  29.557  34.652  1.00  0.00     0.074 A 
ATOM     64  C   UNL A   1      42.865  30.028  35.998  1.00  0.00     0.031 C 
ATOM     65  C   UNL A   1      42.791  28.361  34.020  1.00  0.00     0.034 A 
BRANCH  52  66
ATOM     66  C   UNL A   1      41.163  26.824  28.279  1.00  0.00     0.023 A 
ATOM     67  C   UNL A   1      41.585  25.484  28.409  1.00  0.00     0.031 A 
ATOM     68  C   UNL A   1      41.013  27.278  26.952  1.00  0.00     0.131 A 
ATOM     69  C   UNL A   1      41.856  24.682  27.287  1.00  0.00     0.055 A 
ATOM     70  C   UNL A   1      41.246  26.466  25.832  1.00  0.00     0.041 A 
ATOM     71  F   UNL A   1      40.678  28.535  26.646  1.00  0.00    -0.206 F 
ATOM     72  C   UNL A   1      41.677  25.161  25.995  1.00  0.00     0.022 A 
BRANCH  69  73
ATOM     73  S   UNL A   1      42.498  23.010  27.549  1.00  0.00     0.124 S 
ATOM     74  O   UNL A   1      41.552  22.197  26.793  1.00  0.00    -0.237 OA
ATOM     75  O   UNL A   1      43.849  23.108  27.006  1.00  0.00    -0.237 OA
ATOM     76  O   UNL A   1      42.429  22.845  29.001  1.00  0.00    -0.744 OA
ENDBRANCH  69  73
ENDBRANCH  52  66
BRANCH  53  77
ATOM     77  C   UNL A   1      40.412  33.856  34.977  1.00  0.00     0.023 A 
ATOM     78  C   UNL A   1      39.377  33.083  35.560  1.00  0.00     0.031 A 
ATOM     79  C   UNL A   1      40.522  35.195  35.376  1.00  0.00     0.131 A 
ATOM     80  C   UNL A   1      38.710  33.552  36.702  1.00  0.00     0.055 A 
ATOM     81  C   UNL A   1      39.750  35.699  36.436  1.00  0.00     0.041 A 
ATOM     82  F   UNL A   1      41.476  35.987  34.865  1.00  0.00    -0.206 F 
ATOM     83  C   UNL A   1      38.899  34.855  37.155  1.00  0.00     0.022 A 
BRANCH  80  84
ATOM     84  S   UNL A   1      37.872  32.318  37.749  1.00  0.00     0.124 S 
ATOM     85  O   UNL A   1      38.724  32.292  38.933  1.00  0.00    -0.237 OA
ATOM     86  O   UNL A   1      36.546  32.910  37.932  1.00  0.00    -0.237 OA
ATOM     87  O   UNL A   1      37.877  31.099  36.944  1.00  0.00    -0.744 OA
ENDBRANCH  80  84
ENDBRANCH  53  77
BRANCH  65  88
ATOM     88  C   UNL A   1      43.055  27.051  34.733  1.00  0.00     0.023 A 
ATOM     89  C   UNL A   1      44.134  26.224  34.405  1.00  0.00     0.031 A 
ATOM     90  C   UNL A   1      42.280  26.628  35.842  1.00  0.00     0.131 A 
ATOM     91  C   UNL A   1      44.329  24.992  35.046  1.00  0.00     0.055 A 
ATOM     92  C   UNL A   1      42.552  25.462  36.562  1.00  0.00     0.041 A 
ATOM     93  F   UNL A   1      41.230  27.332  36.289  1.00  0.00    -0.206 F 
ATOM     94  C   UNL A   1      43.566  24.617  36.145  1.00  0.00     0.022 A 
BRANCH  91  95
ATOM     95  S   UNL A   1      45.528  23.854  34.316  1.00  0.00     0.124 S 
ATOM     96  O   UNL A   1      46.724  24.689  34.246  1.00  0.00    -0.237 OA
ATOM     97  O   UNL A   1      45.572  22.771  35.293  1.00  0.00    -0.237 OA
ATOM     98  O   UNL A   1      44.935  23.509  33.027  1.00  0.00    -0.744 OA
ENDBRANCH  91  95
ENDBRANCH  65  88
ENDBRANCH  39  40
ENDBRANCH  31  34
ENDBRANCH  29  30
ENDBRANCH  28  29
ENDBRANCH   1  28
TORSDOF 18
ENDMDL
MODEL 2
REMARK VINA RESULT:     -12.1      1.997      3.576
REMARK SMILES Cc1ccc(C(=O)NCCCCNC(=O)c2ccc(-c3c4nc(c(-c5cc(S(=O)(=O)[O-])ccc5F)c5ccc([nH]5)c(-c5cc(S(=O)(=O)[O-])ccc5F)c5nc(c(-c6cc(S(=O)(=O)[O-])ccc6F)c6ccc3[nH]6)C=C5)C=C4)cc2)cc1O[C@@H](C)C(=O)N[C@@H]1CCS(=O)(=O)C1
REMARK SMILES IDX 10 1 9 2 8 3 6 4 7 5 5 7 1 8 2 9 3 10 80 11 4 12 79 13 81 14
REMARK SMILES IDX 82 15 83 16 84 17 85 18 86 19 87 21 88 22 93 23 89 24 90 25
REMARK SMILES IDX 91 26 92 27 11 28 12 29 13 30 14 31 15 33 16 34 17 35 78 36
REMARK SMILES IDX 18 37 77 38 19 39 20 40 21 41 71 42 22 43 76 44 70 45 72 46
REMARK SMILES IDX 23 47 75 48 69 49 68 50 24 52 56 53 36 54 55 55 37 56 40 57
REMARK SMILES IDX 54 58 73 59 38 60 39 61 53 63 74 64 41 65 25 66 26 67 34 68
REMARK SMILES IDX 27 69 33 70 35 71 32 72 28 73 29 74 30 75 31 76 57 77 58 78
REMARK SMILES IDX 66 79 59 80 65 81 67 82 64 83 60 84 61 85 62 86 63 87 42 88
REMARK SMILES IDX 43 89 51 90 44 91 50 92 52 93 49 94 45 95 46 96 47 97 48 98
REMARK H PARENT 8 6 86 20 13 32 72 51 40 62
REMARK Flexibility Score: inf
ROOT
ATOM      1  C   UNL A   1      35.222  31.300  27.884  1.00  0.00     0.023 C 
ENDROOT
BRANCH   1   2
ATOM      2  C   UNL A   1      34.906  29.810  27.690  1.00  0.00     0.116 C 
BRANCH   2   3
ATOM      3  N   UNL A   1      33.500  29.449  27.843  1.00  0.00    -0.352 N 
ATOM      4  C   UNL A   1      32.674  28.534  27.228  1.00  0.00     0.251 C 
ATOM      5  O   UNL A   1      31.509  28.473  27.636  1.00  0.00    -0.269 OA
ATOM      6  H   UNL A   1      33.040  29.975  28.538  1.00  0.00     0.163 HD
BRANCH   4   7
ATOM      7  C   UNL A   1      33.041  27.699  26.037  1.00  0.00     0.043 A 
ATOM      8  C   UNL A   1      33.973  24.715  23.007  1.00  0.00     0.048 C 
ATOM      9  C   UNL A   1      33.604  25.752  24.025  1.00  0.00    -0.009 A 
ATOM     10  C   UNL A   1      34.348  25.806  25.218  1.00  0.00     0.008 A 
ATOM     11  C   UNL A   1      32.569  26.674  23.864  1.00  0.00     0.124 A 
ATOM     12  C   UNL A   1      34.036  26.729  26.225  1.00  0.00     0.014 A 
ATOM     13  C   UNL A   1      32.404  27.725  24.798  1.00  0.00     0.060 A 
BRANCH  11  14
ATOM     14  O   UNL A   1      31.620  26.695  22.901  1.00  0.00    -0.481 OA
BRANCH  14  15
ATOM     15  C   UNL A   1      30.254  26.347  23.009  1.00  0.00     0.258 C 
ATOM     16  C   UNL A   1      30.287  24.881  23.493  1.00  0.00     0.064 C 
BRANCH  15  17
ATOM     17  C   UNL A   1      28.872  27.004  23.492  1.00  0.00     0.261 C 
ATOM     18  O   UNL A   1      28.035  26.328  24.109  1.00  0.00    -0.271 OA
ATOM     19  N   UNL A   1      28.441  28.261  23.189  1.00  0.00    -0.349 N 
ATOM     20  H   UNL A   1      27.484  28.423  23.356  1.00  0.00     0.163 HD
BRANCH  19  21
ATOM     21  C   UNL A   1      29.166  29.393  22.658  1.00  0.00     0.098 C 
ATOM     22  C   UNL A   1      29.956  30.182  23.721  1.00  0.00     0.042 C 
ATOM     23  C   UNL A   1      28.293  30.333  21.851  1.00  0.00     0.161 C 
ATOM     24  C   UNL A   1      29.511  31.634  23.737  1.00  0.00     0.139 C 
ATOM     25  S   UNL A   1      27.975  31.721  22.881  1.00  0.00     0.152 S 
ATOM     26  O   UNL A   1      26.911  31.391  23.813  1.00  0.00    -0.229 OA
ATOM     27  O   UNL A   1      27.986  32.931  22.103  1.00  0.00    -0.229 OA
ENDBRANCH  19  21
ENDBRANCH  15  17
ENDBRANCH  14  15
ENDBRANCH  11  14
ENDBRANCH   4   7
ENDBRANCH   2   3
ENDBRANCH   1   2
BRANCH   1  28
ATOM     28  C   UNL A   1      34.081  32.296  27.813  1.00  0.00     0.023 C 
BRANCH  28  29
ATOM     29  C   UNL A   1      34.387  33.649  28.413  1.00  0.00     0.116 C 
BRANCH  29  30
ATOM     30  N   UNL A   1      33.775  33.939  29.700  1.00  0.00    -0.352 N 
ATOM     31  C   UNL A   1      34.334  33.856  30.967  1.00  0.00     0.251 C 
ATOM     32  H   UNL A   1      32.836  34.235  29.667  1.00  0.00     0.163 HD
ATOM     33  O   UNL A   1      33.620  33.866  31.968  1.00  0.00    -0.269 OA
BRANCH  31  34
ATOM     34  C   UNL A   1      35.812  33.949  31.135  1.00  0.00     0.039 A 
ATOM     35  C   UNL A   1      36.584  33.889  29.963  1.00  0.00     0.014 A 
ATOM     36  C   UNL A   1      36.401  33.663  32.353  1.00  0.00     0.014 A 
ATOM     37  C   UNL A   1      37.801  33.224  29.991  1.00  0.00     0.010 A 
ATOM     38  C   UNL A   1      37.451  32.796  32.352  1.00  0.00     0.010 A 
ATOM     39  C   UNL A   1      38.120  32.549  31.156  1.00  0.00    -0.014 A 
BRANCH  39  40
ATOM     40  C   UNL A   1      39.256  31.686  31.351  1.00  0.00     0.031 A 
ATOM     41  C   UNL A   1      39.105  30.333  30.800  1.00  0.00     0.074 A 
ATOM     42  C   UNL A   1      40.417  32.286  31.690  1.00  0.00     0.049 A 
ATOM     43  N   UNL A   1      39.940  29.380  30.967  1.00  0.00    -0.248 NA
ATOM     44  C   UNL A   1      37.932  29.925  30.014  1.00  0.00     0.031 C 
ATOM     45  C   UNL A   1      41.785  31.809  31.542  1.00  0.00     0.029 A 
ATOM     46  N   UNL A   1      40.538  33.410  32.508  1.00  0.00    -0.354 N 
ATOM     47  C   UNL A   1      39.628  28.408  30.042  1.00  0.00     0.074 A 
ATOM     48  C   UNL A   1      38.298  28.711  29.600  1.00  0.00     0.031 C 
ATOM     49  C   UNL A   1      42.555  32.412  32.468  1.00  0.00     0.029 A 
ATOM     50  C   UNL A   1      41.660  33.172  33.329  1.00  0.00     0.049 A 
ATOM     51  H   UNL A   1      39.960  34.207  32.511  1.00  0.00     0.167 HD
ATOM     52  C   UNL A   1      40.630  27.578  29.650  1.00  0.00     0.034 A 
ATOM     53  C   UNL A   1      41.453  32.919  34.659  1.00  0.00     0.034 A 
ATOM     54  C   UNL A   1      41.783  27.770  30.531  1.00  0.00     0.049 A 
ATOM     55  C   UNL A   1      41.820  31.490  35.004  1.00  0.00     0.074 A 
ATOM     56  C   UNL A   1      42.963  28.478  30.394  1.00  0.00     0.029 A 
ATOM     57  N   UNL A   1      41.619  27.533  31.893  1.00  0.00    -0.354 N 
ATOM     58  N   UNL A   1      41.782  30.490  34.159  1.00  0.00    -0.248 NA
ATOM     59  C   UNL A   1      42.371  31.111  36.300  1.00  0.00     0.031 C 
ATOM     60  C   UNL A   1      43.421  28.797  31.706  1.00  0.00     0.029 A 
ATOM     61  C   UNL A   1      42.546  28.241  32.628  1.00  0.00     0.049 A 
ATOM     62  H   UNL A   1      40.933  26.941  32.277  1.00  0.00     0.167 HD
ATOM     63  C   UNL A   1      42.341  29.380  34.739  1.00  0.00     0.074 A 
ATOM     64  C   UNL A   1      42.685  29.822  36.083  1.00  0.00     0.031 C 
ATOM     65  C   UNL A   1      42.517  28.190  34.083  1.00  0.00     0.034 A 
BRANCH  52  66
ATOM     66  C   UNL A   1      40.693  26.783  28.367  1.00  0.00     0.023 A 
ATOM     67  C   UNL A   1      40.969  25.404  28.476  1.00  0.00     0.031 A 
ATOM     68  C   UNL A   1      40.623  27.277  27.047  1.00  0.00     0.131 A 
ATOM     69  C   UNL A   1      41.182  24.601  27.342  1.00  0.00     0.055 A 
ATOM     70  C   UNL A   1      40.797  26.468  25.915  1.00  0.00     0.041 A 
ATOM     71  F   UNL A   1      40.428  28.568  26.763  1.00  0.00    -0.206 F 
ATOM     72  C   UNL A   1      41.086  25.122  26.058  1.00  0.00     0.022 A 
BRANCH  69  73
ATOM     73  S   UNL A   1      41.640  22.866  27.580  1.00  0.00     0.124 S 
ATOM     74  O   UNL A   1      42.578  22.644  26.486  1.00  0.00    -0.237 OA
ATOM     75  O   UNL A   1      42.204  22.876  28.926  1.00  0.00    -0.237 OA
ATOM     76  O   UNL A   1      40.365  22.160  27.453  1.00  0.00    -0.744 OA
ENDBRANCH  69  73
ENDBRANCH  52  66
BRANCH  53  77
ATOM     77  C   UNL A   1      40.296  33.722  35.191  1.00  0.00     0.023 A 
ATOM     78  C   UNL A   1      39.255  32.964  35.781  1.00  0.00     0.031 A 
ATOM     79  C   UNL A   1      40.451  35.048  35.617  1.00  0.00     0.131 A 
ATOM     80  C   UNL A   1      38.626  33.423  36.949  1.00  0.00     0.055 A 
ATOM     81  C   UNL A   1      39.718  35.548  36.706  1.00  0.00     0.041 A 
ATOM     82  F   UNL A   1      41.414  35.826  35.101  1.00  0.00    -0.206 F 
ATOM     83  C   UNL A   1      38.861  34.711  37.426  1.00  0.00     0.022 A 
BRANCH  80  84
ATOM     84  S   UNL A   1      37.781  32.189  37.987  1.00  0.00     0.124 S 
ATOM     85  O   UNL A   1      38.520  32.285  39.241  1.00  0.00    -0.237 OA
ATOM     86  O   UNL A   1      36.407  32.692  38.018  1.00  0.00    -0.237 OA
ATOM     87  O   UNL A   1      37.941  30.933  37.258  1.00  0.00    -0.744 OA
ENDBRANCH  80  84
ENDBRANCH  53  77
BRANCH  65  88
ATOM     88  C   UNL A   1      42.769  26.863  34.767  1.00  0.00     0.023 A 
ATOM     89  C   UNL A   1      43.752  25.969  34.329  1.00  0.00     0.031 A 
ATOM     90  C   UNL A   1      42.090  26.486  35.954  1.00  0.00     0.131 A 
ATOM     91  C   UNL A   1      43.933  24.725  34.950  1.00  0.00     0.055 A 
ATOM     92  C   UNL A   1      42.360  25.302  36.644  1.00  0.00     0.041 A 
ATOM     93  F   UNL A   1      41.141  27.255  36.507  1.00  0.00    -0.206 F 
ATOM     94  C   UNL A   1      43.268  24.395  36.125  1.00  0.00     0.022 A 
BRANCH  91  95
ATOM     95  S   UNL A   1      44.973  23.514  34.101  1.00  0.00     0.124 S 
ATOM     96  O   UNL A   1      44.855  23.947  32.711  1.00  0.00    -0.237 OA
ATOM     97  O   UNL A   1      46.277  23.727  34.719  1.00  0.00    -0.237 OA
ATOM     98  O   UNL A   1      44.336  22.237  34.410  1.00  0.00    -0.744 OA
ENDBRANCH  91  95
ENDBRANCH  65  88
ENDBRANCH  39  40
ENDBRANCH  31  34
ENDBRANCH  29  30
ENDBRANCH  28  29
ENDBRANCH   1  28
TORSDOF 18
ENDMDL
MODEL 3
REMARK VINA RESULT:     -11.9      1.999      2.631
REMARK SMILES Cc1ccc(C(=O)NCCCCNC(=O)c2ccc(-c3c4nc(c(-c5cc(S(=O)(=O)[O-])ccc5F)c5ccc([nH]5)c(-c5cc(S(=O)(=O)[O-])ccc5F)c5nc(c(-c6cc(S(=O)(=O)[O-])ccc6F)c6ccc3[nH]6)C=C5)C=C4)cc2)cc1O[C@@H](C)C(=O)N[C@@H]1CCS(=O)(=O)C1
REMARK SMILES IDX 10 1 9 2 8 3 6 4 7 5 5 7 1 8 2 9 3 10 80 11 4 12 79 13 81 14
REMARK SMILES IDX 82 15 83 16 84 17 85 18 86 19 87 21 88 22 93 23 89 24 90 25
REMARK SMILES IDX 91 26 92 27 11 28 12 29 13 30 14 31 15 33 16 34 17 35 78 36
REMARK SMILES IDX 18 37 77 38 19 39 20 40 21 41 71 42 22 43 76 44 70 45 72 46
REMARK SMILES IDX 23 47 75 48 69 49 68 50 24 52 56 53 36 54 55 55 37 56 40 57
REMARK SMILES IDX 54 58 73 59 38 60 39 61 53 63 74 64 41 65 25 66 26 67 34 68
REMARK SMILES IDX 27 69 33 70 35 71 32 72 28 73 29 74 30 75 31 76 57 77 58 78
REMARK SMILES IDX 66 79 59 80 65 81 67 82 64 83 60 84 61 85 62 86 63 87 42 88
REMARK SMILES IDX 43 89 51 90 44 91 50 92 52 93 49 94 45 95 46 96 47 97 48 98
REMARK H PARENT 8 6 86 20 13 32 72 51 40 62
REMARK Flexibility Score: inf
ROOT
ATOM      1  C   UNL A   1      33.412  30.626  27.110  1.00  0.00     0.023 C 
ENDROOT
BRANCH   1   2
ATOM      2  C   UNL A   1      33.035  29.690  25.953  1.00  0.00     0.116 C 
BRANCH   2   3
ATOM      3  N   UNL A   1      31.838  30.073  25.210  1.00  0.00    -0.352 N 
ATOM      4  C   UNL A   1      31.052  29.442  24.271  1.00  0.00     0.251 C 
ATOM      5  O   UNL A   1      30.069  30.067  23.859  1.00  0.00    -0.269 OA
ATOM      6  H   UNL A   1      31.524  30.981  25.427  1.00  0.00     0.163 HD
BRANCH   4   7
ATOM      7  C   UNL A   1      31.358  28.121  23.630  1.00  0.00     0.043 A 
ATOM      8  C   UNL A   1      32.909  24.380  22.032  1.00  0.00     0.048 C 
ATOM      9  C   UNL A   1      32.349  25.640  22.621  1.00  0.00    -0.009 A 
ATOM     10  C   UNL A   1      32.910  26.867  22.223  1.00  0.00     0.008 A 
ATOM     11  C   UNL A   1      31.299  25.674  23.541  1.00  0.00     0.124 A 
ATOM     12  C   UNL A   1      32.456  28.078  22.758  1.00  0.00     0.014 A 
ATOM     13  C   UNL A   1      30.722  26.913  23.910  1.00  0.00     0.060 A 
BRANCH  11  14
ATOM     14  O   UNL A   1      30.736  24.635  24.196  1.00  0.00    -0.481 OA
BRANCH  14  15
ATOM     15  C   UNL A   1      30.793  24.334  25.576  1.00  0.00     0.258 C 
ATOM     16  C   UNL A   1      29.733  25.268  26.198  1.00  0.00     0.064 C 
BRANCH  15  17
ATOM     17  C   UNL A   1      30.957  23.054  26.530  1.00  0.00     0.261 C 
ATOM     18  O   UNL A   1      30.246  22.925  27.538  1.00  0.00    -0.271 OA
ATOM     19  N   UNL A   1      31.917  22.094  26.414  1.00  0.00    -0.349 N 
ATOM     20  H   UNL A   1      32.026  21.518  27.206  1.00  0.00     0.163 HD
BRANCH  19  21
ATOM     21  C   UNL A   1      32.802  21.788  25.313  1.00  0.00     0.098 C 
ATOM     22  C   UNL A   1      32.071  21.369  24.022  1.00  0.00     0.042 C 
ATOM     23  C   UNL A   1      33.863  20.765  25.669  1.00  0.00     0.161 C 
ATOM     24  C   UNL A   1      32.529  19.989  23.582  1.00  0.00     0.139 C 
ATOM     25  S   UNL A   1      33.345  19.246  24.953  1.00  0.00     0.152 S 
ATOM     26  O   UNL A   1      32.342  18.633  25.808  1.00  0.00    -0.229 OA
ATOM     27  O   UNL A   1      34.479  18.526  24.439  1.00  0.00    -0.229 OA
ENDBRANCH  19  21
ENDBRANCH  15  17
ENDBRANCH  14  15
ENDBRANCH  11  14
ENDBRANCH   4   7
ENDBRANCH   2   3
ENDBRANCH   1   2
BRANCH   1  28
ATOM     28  C   UNL A   1      34.852  30.638  27.590  1.00  0.00     0.023 C 
BRANCH  28  29
ATOM     29  C   UNL A   1      35.064  31.312  28.925  1.00  0.00     0.116 C 
BRANCH  29  30
ATOM     30  N   UNL A   1      34.307  32.530  29.163  1.00  0.00    -0.352 N 
ATOM     31  C   UNL A   1      34.623  33.605  29.982  1.00  0.00     0.251 C 
ATOM     32  H   UNL A   1      33.454  32.602  28.676  1.00  0.00     0.163 HD
ATOM     33  O   UNL A   1      33.766  34.429  30.292  1.00  0.00    -0.269 OA
BRANCH  31  34
ATOM     34  C   UNL A   1      36.045  33.877  30.335  1.00  0.00     0.039 A 
ATOM     35  C   UNL A   1      36.910  34.185  29.272  1.00  0.00     0.014 A 
ATOM     36  C   UNL A   1      36.572  33.425  31.531  1.00  0.00     0.014 A 
ATOM     37  C   UNL A   1      38.216  33.717  29.307  1.00  0.00     0.010 A 
ATOM     38  C   UNL A   1      37.750  32.743  31.479  1.00  0.00     0.010 A 
ATOM     39  C   UNL A   1      38.547  32.861  30.343  1.00  0.00    -0.014 A 
BRANCH  39  40
ATOM     40  C   UNL A   1      39.792  32.153  30.492  1.00  0.00     0.031 A 
ATOM     41  C   UNL A   1      39.775  30.766  30.010  1.00  0.00     0.074 A 
ATOM     42  C   UNL A   1      40.889  32.907  30.723  1.00  0.00     0.049 A 
ATOM     43  N   UNL A   1      40.732  29.932  30.156  1.00  0.00    -0.248 NA
ATOM     44  C   UNL A   1      38.613  30.181  29.327  1.00  0.00     0.031 C 
ATOM     45  C   UNL A   1      42.293  32.593  30.497  1.00  0.00     0.029 A 
ATOM     46  N   UNL A   1      40.922  34.076  31.483  1.00  0.00    -0.354 N 
ATOM     47  C   UNL A   1      40.483  28.884  29.297  1.00  0.00     0.074 A 
ATOM     48  C   UNL A   1      39.100  29.001  28.938  1.00  0.00     0.031 C 
ATOM     49  C   UNL A   1      43.040  33.330  31.341  1.00  0.00     0.029 A 
ATOM     50  C   UNL A   1      42.115  34.018  32.231  1.00  0.00     0.049 A 
ATOM     51  H   UNL A   1      40.250  34.796  31.494  1.00  0.00     0.167 HD
ATOM     52  C   UNL A   1      41.553  28.164  28.868  1.00  0.00     0.034 A 
ATOM     53  C   UNL A   1      42.029  33.808  33.582  1.00  0.00     0.034 A 
ATOM     54  C   UNL A   1      42.729  28.538  29.657  1.00  0.00     0.049 A 
ATOM     55  C   UNL A   1      42.594  32.453  33.958  1.00  0.00     0.074 A 
ATOM     56  C   UNL A   1      43.799  29.377  29.407  1.00  0.00     0.029 A 
ATOM     57  N   UNL A   1      42.684  28.351  31.035  1.00  0.00    -0.354 N 
ATOM     58  N   UNL A   1      42.626  31.415  33.160  1.00  0.00    -0.248 NA
ATOM     59  C   UNL A   1      43.272  32.208  35.227  1.00  0.00     0.031 C 
ATOM     60  C   UNL A   1      44.299  29.814  30.669  1.00  0.00     0.029 A 
ATOM     61  C   UNL A   1      43.563  29.202  31.672  1.00  0.00     0.049 A 
ATOM     62  H   UNL A   1      42.105  27.700  31.492  1.00  0.00     0.167 HD
ATOM     63  C   UNL A   1      43.355  30.411  33.745  1.00  0.00     0.074 A 
ATOM     64  C   UNL A   1      43.729  30.958  35.041  1.00  0.00     0.031 C 
ATOM     65  C   UNL A   1      43.635  29.220  33.127  1.00  0.00     0.034 A 
BRANCH  52  66
ATOM     66  C   UNL A   1      41.631  27.320  27.619  1.00  0.00     0.023 A 
ATOM     67  C   UNL A   1      41.363  25.941  27.753  1.00  0.00     0.031 A 
ATOM     68  C   UNL A   1      42.056  27.724  26.335  1.00  0.00     0.131 A 
ATOM     69  C   UNL A   1      41.538  25.046  26.684  1.00  0.00     0.055 A 
ATOM     70  C   UNL A   1      42.194  26.837  25.258  1.00  0.00     0.041 A 
ATOM     71  F   UNL A   1      42.408  28.981  26.048  1.00  0.00    -0.206 F 
ATOM     72  C   UNL A   1      41.942  25.488  25.429  1.00  0.00     0.022 A 
BRANCH  69  73
ATOM     73  S   UNL A   1      41.277  23.279  26.978  1.00  0.00     0.124 S 
ATOM     74  O   UNL A   1      41.995  22.673  25.863  1.00  0.00    -0.237 OA
ATOM     75  O   UNL A   1      41.861  23.096  28.303  1.00  0.00    -0.237 OA
ATOM     76  O   UNL A   1      39.821  23.140  26.923  1.00  0.00    -0.744 OA
ENDBRANCH  69  73
ENDBRANCH  52  66
BRANCH  53  77
ATOM     77  C   UNL A   1      40.819  34.489  34.161  1.00  0.00     0.023 A 
ATOM     78  C   UNL A   1      39.799  33.621  34.623  1.00  0.00     0.031 A 
ATOM     79  C   UNL A   1      40.895  35.763  34.742  1.00  0.00     0.131 A 
ATOM     80  C   UNL A   1      39.115  33.912  35.813  1.00  0.00     0.055 A 
ATOM     81  C   UNL A   1      40.106  36.098  35.854  1.00  0.00     0.041 A 
ATOM     82  F   UNL A   1      41.833  36.639  34.353  1.00  0.00    -0.206 F 
ATOM     83  C   UNL A   1      39.271  35.145  36.443  1.00  0.00     0.022 A 
BRANCH  80  84
ATOM     84  S   UNL A   1      38.301  32.528  36.672  1.00  0.00     0.124 S 
ATOM     85  O   UNL A   1      37.887  33.147  37.927  1.00  0.00    -0.237 OA
ATOM     86  O   UNL A   1      37.220  32.177  35.749  1.00  0.00    -0.237 OA
ATOM     87  O   UNL A   1      39.343  31.511  36.787  1.00  0.00    -0.744 OA
ENDBRANCH  80  84
ENDBRANCH  53  77
BRANCH  65  88
ATOM     88  C   UNL A   1      44.095  27.969  33.846  1.00  0.00     0.023 A 
ATOM     89  C   UNL A   1      43.200  27.006  34.322  1.00  0.00     0.031 A 
ATOM     90  C   UNL A   1      45.469  27.650  33.996  1.00  0.00     0.131 A 
ATOM     91  C   UNL A   1      43.648  25.881  35.027  1.00  0.00     0.055 A 
ATOM     92  C   UNL A   1      45.915  26.466  34.588  1.00  0.00     0.041 A 
ATOM     93  F   UNL A   1      46.443  28.464  33.565  1.00  0.00    -0.206 F 
ATOM     94  C   UNL A   1      45.001  25.583  35.138  1.00  0.00     0.022 A 
BRANCH  91  95
ATOM     95  S   UNL A   1      42.407  24.893  35.895  1.00  0.00     0.124 S 
ATOM     96  O   UNL A   1      42.707  23.548  35.410  1.00  0.00    -0.237 OA
ATOM     97  O   UNL A   1      42.726  25.144  37.296  1.00  0.00    -0.237 OA
ATOM     98  O   UNL A   1      41.139  25.451  35.433  1.00  0.00    -0.744 OA
ENDBRANCH  91  95
ENDBRANCH  65  88
ENDBRANCH  39  40
ENDBRANCH  31  34
ENDBRANCH  29  30
ENDBRANCH  28  29
ENDBRANCH   1  28
TORSDOF 18
ENDMDL
