MODEL 1
REMARK VINA RESULT:     -12.0      0.000      0.000
REMARK SMILES C[N@@H+]1CCC[C@@H](C(=O)N[C@H](C(=O)NCCCCNC(=O)c2ccc(-c3c4nc(c(-c5cc(S(=O)(=O)[O-])ccc5F)c5ccc([nH]5)c(-c5cc(S(=O)(=O)[O-])ccc5F)c5nc(c(-c6cc(S(=O)(=O)[O-])ccc6F)c6ccc3[nH]6)C=C5)C=C4)cc2)c2ccccc2)C1
REMARK SMILES IDX 16 1 15 2 14 3 13 4 11 5 12 6 10 8 9 9 7 10 8 11 6 13 1 14
REMARK SMILES IDX 2 15 3 16 90 17 4 19 5 20 84 21 85 22 89 23 86 24 88 25
REMARK SMILES IDX 87 26 17 27 18 28 19 29 20 31 21 32 22 33 83 34 23 35 82 36
REMARK SMILES IDX 24 37 25 38 26 39 76 40 27 41 81 42 75 43 77 44 28 45 80 46
REMARK SMILES IDX 74 47 73 48 29 50 61 51 41 52 60 53 42 54 45 55 59 56 78 57
REMARK SMILES IDX 43 58 44 59 58 61 79 62 46 63 30 64 31 65 39 66 32 67 38 68
REMARK SMILES IDX 40 69 37 70 33 71 34 72 35 73 36 74 62 75 63 76 71 77 64 78
REMARK SMILES IDX 70 79 72 80 69 81 65 82 66 83 67 84 68 85 47 86 48 87 56 88
REMARK SMILES IDX 49 89 55 90 57 91 54 92 50 93 51 94 52 95 53 96
REMARK H PARENT 13 7 9 12 2 18 18 30 77 49 45 60
REMARK Flexibility Score: inf
ROOT
ATOM      1  C   UNL A   1      31.449  28.481  25.359  1.00  0.00     0.023 C 
ENDROOT
BRANCH   1   2
ATOM      2  C   UNL A   1      31.517  27.028  25.816  1.00  0.00     0.023 C 
BRANCH   2   3
ATOM      3  C   UNL A   1      30.420  26.122  25.251  1.00  0.00     0.116 C 
BRANCH   3   4
ATOM      4  N   UNL A   1      29.949  25.142  26.224  1.00  0.00    -0.354 N 
ATOM      5  C   UNL A   1      30.494  23.924  26.564  1.00  0.00     0.247 C 
ATOM      6  O   UNL A   1      29.876  23.212  27.361  1.00  0.00    -0.272 OA
ATOM      7  H   UNL A   1      29.125  25.386  26.704  1.00  0.00     0.163 HD
BRANCH   5   8
ATOM      8  C   UNL A   1      31.853  23.497  25.948  1.00  0.00     0.202 C 
BRANCH   8   9
ATOM      9  N   UNL A   1      32.834  23.167  26.974  1.00  0.00    -0.340 N 
ATOM     10  C   UNL A   1      34.175  22.980  26.937  1.00  0.00     0.229 C 
ATOM     11  O   UNL A   1      34.705  22.680  28.018  1.00  0.00    -0.275 OA
ATOM     12  H   UNL A   1      32.445  23.058  27.871  1.00  0.00     0.164 HD
BRANCH  10  13
ATOM     13  C   UNL A   1      35.091  23.143  25.707  1.00  0.00     0.133 C 
ATOM     14  C   UNL A   1      38.635  24.264  26.524  1.00  0.00     0.332 C 
ATOM     15  N   UNL A   1      37.505  23.367  26.320  1.00  0.00    -0.337 N 
ATOM     16  C   UNL A   1      37.867  22.198  25.512  1.00  0.00     0.262 C 
ATOM     17  C   UNL A   1      36.318  24.054  25.810  1.00  0.00     0.275 C 
ATOM     18  H   UNL A   1      37.248  23.017  27.242  1.00  0.00     0.347 HD
ATOM     19  C   UNL A   1      36.715  21.193  25.411  1.00  0.00     0.062 C 
ATOM     20  C   UNL A   1      35.404  21.835  24.978  1.00  0.00     0.025 C 
ENDBRANCH  10  13
ENDBRANCH   8   9
BRANCH   8  21
ATOM     21  C   UNL A   1      31.775  22.429  24.860  1.00  0.00    -0.016 A 
ATOM     22  C   UNL A   1      31.793  22.727  23.494  1.00  0.00     0.006 A 
ATOM     23  C   UNL A   1      31.884  21.078  25.227  1.00  0.00     0.006 A 
ATOM     24  C   UNL A   1      32.123  21.745  22.553  1.00  0.00     0.000 A 
ATOM     25  C   UNL A   1      32.189  20.090  24.292  1.00  0.00     0.000 A 
ATOM     26  C   UNL A   1      32.356  20.435  22.957  1.00  0.00     0.000 A 
ENDBRANCH   8  21
ENDBRANCH   5   8
ENDBRANCH   3   4
ENDBRANCH   2   3
ENDBRANCH   1   2
BRANCH   1  27
ATOM     27  C   UNL A   1      32.657  29.310  25.759  1.00  0.00     0.116 C 
BRANCH  27  28
ATOM     28  N   UNL A   1      32.299  30.687  26.071  1.00  0.00    -0.352 N 
ATOM     29  C   UNL A   1      32.885  31.565  26.956  1.00  0.00     0.251 C 
ATOM     30  H   UNL A   1      31.525  31.041  25.578  1.00  0.00     0.163 HD
ATOM     31  O   UNL A   1      32.315  32.609  27.241  1.00  0.00    -0.269 OA
BRANCH  29  32
ATOM     32  C   UNL A   1      34.184  31.219  27.574  1.00  0.00     0.039 A 
ATOM     33  C   UNL A   1      35.122  32.229  27.798  1.00  0.00     0.014 A 
ATOM     34  C   UNL A   1      34.463  29.904  27.954  1.00  0.00     0.014 A 
ATOM     35  C   UNL A   1      36.307  31.928  28.475  1.00  0.00     0.010 A 
ATOM     36  C   UNL A   1      35.590  29.631  28.721  1.00  0.00     0.010 A 
ATOM     37  C   UNL A   1      36.530  30.638  28.983  1.00  0.00    -0.014 A 
BRANCH  37  38
ATOM     38  C   UNL A   1      37.745  30.311  29.775  1.00  0.00     0.031 A 
ATOM     39  C   UNL A   1      38.807  29.423  29.182  1.00  0.00     0.074 A 
ATOM     40  C   UNL A   1      37.859  30.756  31.043  1.00  0.00     0.049 A 
ATOM     41  N   UNL A   1      39.891  28.946  29.737  1.00  0.00    -0.248 NA
ATOM     42  C   UNL A   1      38.603  28.986  27.793  1.00  0.00     0.031 C 
ATOM     43  C   UNL A   1      36.875  31.589  31.741  1.00  0.00     0.029 A 
ATOM     44  N   UNL A   1      38.850  30.569  31.976  1.00  0.00    -0.354 N 
ATOM     45  C   UNL A   1      40.490  28.145  28.770  1.00  0.00     0.074 A 
ATOM     46  C   UNL A   1      39.610  28.142  27.623  1.00  0.00     0.031 C 
ATOM     47  C   UNL A   1      37.327  31.866  32.974  1.00  0.00     0.029 A 
ATOM     48  C   UNL A   1      38.602  31.187  33.180  1.00  0.00     0.049 A 
ATOM     49  H   UNL A   1      39.660  30.039  31.799  1.00  0.00     0.167 HD
ATOM     50  C   UNL A   1      41.680  27.496  28.823  1.00  0.00     0.034 A 
ATOM     51  C   UNL A   1      39.315  31.195  34.325  1.00  0.00     0.034 A 
ATOM     52  C   UNL A   1      42.552  27.523  29.971  1.00  0.00     0.049 A 
ATOM     53  C   UNL A   1      40.619  30.434  34.370  1.00  0.00     0.074 A 
ATOM     54  C   UNL A   1      43.801  26.944  30.116  1.00  0.00     0.029 A 
ATOM     55  N   UNL A   1      42.268  28.159  31.173  1.00  0.00    -0.354 N 
ATOM     56  N   UNL A   1      41.195  29.723  33.428  1.00  0.00    -0.248 NA
ATOM     57  C   UNL A   1      41.373  30.488  35.629  1.00  0.00     0.031 C 
ATOM     58  C   UNL A   1      44.236  27.163  31.427  1.00  0.00     0.029 A 
ATOM     59  C   UNL A   1      43.302  27.958  32.074  1.00  0.00     0.049 A 
ATOM     60  H   UNL A   1      41.451  28.677  31.358  1.00  0.00     0.167 HD
ATOM     61  C   UNL A   1      42.397  29.278  33.972  1.00  0.00     0.074 A 
ATOM     62  C   UNL A   1      42.470  29.815  35.314  1.00  0.00     0.031 C 
ATOM     63  C   UNL A   1      43.357  28.498  33.411  1.00  0.00     0.034 A 
BRANCH  50  64
ATOM     64  C   UNL A   1      42.090  26.691  27.614  1.00  0.00     0.023 A 
ATOM     65  C   UNL A   1      42.037  25.286  27.609  1.00  0.00     0.031 A 
ATOM     66  C   UNL A   1      42.554  27.334  26.453  1.00  0.00     0.131 A 
ATOM     67  C   UNL A   1      42.508  24.570  26.498  1.00  0.00     0.055 A 
ATOM     68  C   UNL A   1      42.940  26.618  25.318  1.00  0.00     0.041 A 
ATOM     69  F   UNL A   1      42.651  28.672  26.405  1.00  0.00    -0.206 F 
ATOM     70  C   UNL A   1      42.931  25.227  25.340  1.00  0.00     0.022 A 
BRANCH  67  71
ATOM     71  S   UNL A   1      42.691  22.771  26.642  1.00  0.00     0.124 S 
ATOM     72  O   UNL A   1      41.356  22.309  26.268  1.00  0.00    -0.237 OA
ATOM     73  O   UNL A   1      43.757  22.484  25.689  1.00  0.00    -0.237 OA
ATOM     74  O   UNL A   1      43.039  22.574  28.047  1.00  0.00    -0.744 OA
ENDBRANCH  67  71
ENDBRANCH  50  64
BRANCH  51  75
ATOM     75  C   UNL A   1      38.821  31.927  35.528  1.00  0.00     0.023 A 
ATOM     76  C   UNL A   1      38.290  31.236  36.629  1.00  0.00     0.031 A 
ATOM     77  C   UNL A   1      38.813  33.333  35.571  1.00  0.00     0.131 A 
ATOM     78  C   UNL A   1      37.715  31.948  37.694  1.00  0.00     0.055 A 
ATOM     79  C   UNL A   1      38.301  34.037  36.663  1.00  0.00     0.041 A 
ATOM     80  F   UNL A   1      39.309  34.047  34.548  1.00  0.00    -0.206 F 
ATOM     81  C   UNL A   1      37.732  33.343  37.725  1.00  0.00     0.022 A 
BRANCH  78  82
ATOM     82  S   UNL A   1      36.841  31.021  38.985  1.00  0.00     0.124 S 
ATOM     83  O   UNL A   1      36.717  29.704  38.371  1.00  0.00    -0.237 OA
ATOM     84  O   UNL A   1      37.768  31.120  40.108  1.00  0.00    -0.237 OA
ATOM     85  O   UNL A   1      35.590  31.758  39.144  1.00  0.00    -0.744 OA
ENDBRANCH  78  82
ENDBRANCH  51  75
BRANCH  63  86
ATOM     86  C   UNL A   1      44.594  28.230  34.236  1.00  0.00     0.023 A 
ATOM     87  C   UNL A   1      44.699  27.108  35.076  1.00  0.00     0.031 A 
ATOM     88  C   UNL A   1      45.683  29.119  34.182  1.00  0.00     0.131 A 
ATOM     89  C   UNL A   1      45.840  26.937  35.874  1.00  0.00     0.055 A 
ATOM     90  C   UNL A   1      46.844  28.905  34.924  1.00  0.00     0.041 A 
ATOM     91  F   UNL A   1      45.638  30.209  33.399  1.00  0.00    -0.206 F 
ATOM     92  C   UNL A   1      46.922  27.817  35.788  1.00  0.00     0.022 A 
BRANCH  89  93
ATOM     93  S   UNL A   1      45.850  25.602  37.102  1.00  0.00     0.124 S 
ATOM     94  O   UNL A   1      45.932  24.414  36.259  1.00  0.00    -0.237 OA
ATOM     95  O   UNL A   1      47.041  25.909  37.888  1.00  0.00    -0.237 OA
ATOM     96  O   UNL A   1      44.582  25.776  37.807  1.00  0.00    -0.744 OA
ENDBRANCH  89  93
ENDBRANCH  63  86
ENDBRANCH  37  38
ENDBRANCH  29  32
ENDBRANCH  27  28
ENDBRANCH   1  27
TORSDOF 17
ENDMDL
MODEL 2
REMARK VINA RESULT:     -12.0      2.597      4.040
REMARK SMILES C[N@@H+]1CCC[C@@H](C(=O)N[C@H](C(=O)NCCCCNC(=O)c2ccc(-c3c4nc(c(-c5cc(S(=O)(=O)[O-])ccc5F)c5ccc([nH]5)c(-c5cc(S(=O)(=O)[O-])ccc5F)c5nc(c(-c6cc(S(=O)(=O)[O-])ccc6F)c6ccc3[nH]6)C=C5)C=C4)cc2)c2ccccc2)C1
REMARK SMILES IDX 16 1 15 2 14 3 13 4 11 5 12 6 10 8 9 9 7 10 8 11 6 13 1 14
REMARK SMILES IDX 2 15 3 16 90 17 4 19 5 20 84 21 85 22 89 23 86 24 88 25
REMARK SMILES IDX 87 26 17 27 18 28 19 29 20 31 21 32 22 33 83 34 23 35 82 36
REMARK SMILES IDX 24 37 25 38 26 39 76 40 27 41 81 42 75 43 77 44 28 45 80 46
REMARK SMILES IDX 74 47 73 48 29 50 61 51 41 52 60 53 42 54 45 55 59 56 78 57
REMARK SMILES IDX 43 58 44 59 58 61 79 62 46 63 30 64 31 65 39 66 32 67 38 68
REMARK SMILES IDX 40 69 37 70 33 71 34 72 35 73 36 74 62 75 63 76 71 77 64 78
REMARK SMILES IDX 70 79 72 80 69 81 65 82 66 83 67 84 68 85 47 86 48 87 56 88
REMARK SMILES IDX 49 89 55 90 57 91 54 92 50 93 51 94 52 95 53 96
REMARK H PARENT 13 7 9 12 2 18 18 30 77 49 45 60
REMARK Flexibility Score: inf
ROOT
ATOM      1  C   UNL A   1      31.787  31.784  26.894  1.00  0.00     0.023 C 
ENDROOT
BRANCH   1   2
ATOM      2  C   UNL A   1      32.005  30.282  26.748  1.00  0.00     0.023 C 
BRANCH   2   3
ATOM      3  C   UNL A   1      31.496  29.682  25.434  1.00  0.00     0.116 C 
BRANCH   3   4
ATOM      4  N   UNL A   1      32.532  29.627  24.408  1.00  0.00    -0.354 N 
ATOM      5  C   UNL A   1      32.638  28.785  23.324  1.00  0.00     0.247 C 
ATOM      6  O   UNL A   1      33.653  28.859  22.626  1.00  0.00    -0.272 OA
ATOM      7  H   UNL A   1      33.258  30.285  24.505  1.00  0.00     0.163 HD
BRANCH   5   8
ATOM      8  C   UNL A   1      31.490  27.788  23.017  1.00  0.00     0.202 C 
BRANCH   8   9
ATOM      9  N   UNL A   1      31.345  26.786  24.066  1.00  0.00    -0.340 N 
ATOM     10  C   UNL A   1      32.161  25.805  24.519  1.00  0.00     0.229 C 
ATOM     11  O   UNL A   1      31.700  25.103  25.432  1.00  0.00    -0.275 OA
ATOM     12  H   UNL A   1      30.483  26.831  24.538  1.00  0.00     0.164 HD
BRANCH  10  13
ATOM     13  C   UNL A   1      33.598  25.512  24.041  1.00  0.00     0.133 C 
ATOM     14  C   UNL A   1      35.461  22.944  26.143  1.00  0.00     0.332 C 
ATOM     15  N   UNL A   1      34.580  23.477  25.112  1.00  0.00    -0.337 N 
ATOM     16  C   UNL A   1      34.807  22.843  23.810  1.00  0.00     0.262 C 
ATOM     17  C   UNL A   1      34.610  24.938  25.038  1.00  0.00     0.275 C 
ATOM     18  H   UNL A   1      33.630  23.233  25.394  1.00  0.00     0.347 HD
ATOM     19  C   UNL A   1      33.791  23.310  22.761  1.00  0.00     0.062 C 
ATOM     20  C   UNL A   1      33.680  24.826  22.676  1.00  0.00     0.025 C 
ENDBRANCH  10  13
ENDBRANCH   8   9
BRANCH   8  21
ATOM     21  C   UNL A   1      30.153  28.421  22.638  1.00  0.00    -0.016 A 
ATOM     22  C   UNL A   1      28.924  27.959  23.119  1.00  0.00     0.006 A 
ATOM     23  C   UNL A   1      30.154  29.636  21.933  1.00  0.00     0.006 A 
ATOM     24  C   UNL A   1      27.790  28.778  23.086  1.00  0.00     0.000 A 
ATOM     25  C   UNL A   1      29.021  30.447  21.875  1.00  0.00     0.000 A 
ATOM     26  C   UNL A   1      27.849  30.036  22.496  1.00  0.00     0.000 A 
ENDBRANCH   8  21
ENDBRANCH   5   8
ENDBRANCH   3   4
ENDBRANCH   2   3
ENDBRANCH   1   2
BRANCH   1  27
ATOM     27  C   UNL A   1      33.000  32.534  27.416  1.00  0.00     0.116 C 
BRANCH  27  28
ATOM     28  N   UNL A   1      32.695  33.925  27.726  1.00  0.00    -0.352 N 
ATOM     29  C   UNL A   1      33.191  34.728  28.729  1.00  0.00     0.251 C 
ATOM     30  H   UNL A   1      32.037  34.352  27.132  1.00  0.00     0.163 HD
ATOM     31  O   UNL A   1      32.659  35.804  28.963  1.00  0.00    -0.269 OA
BRANCH  29  32
ATOM     32  C   UNL A   1      34.346  34.266  29.529  1.00  0.00     0.039 A 
ATOM     33  C   UNL A   1      34.118  33.577  30.721  1.00  0.00     0.014 A 
ATOM     34  C   UNL A   1      35.652  34.491  29.087  1.00  0.00     0.014 A 
ATOM     35  C   UNL A   1      35.201  33.046  31.427  1.00  0.00     0.010 A 
ATOM     36  C   UNL A   1      36.717  33.872  29.732  1.00  0.00     0.010 A 
ATOM     37  C   UNL A   1      36.506  33.149  30.915  1.00  0.00    -0.014 A 
BRANCH  37  38
ATOM     38  C   UNL A   1      37.666  32.526  31.605  1.00  0.00     0.031 A 
ATOM     39  C   UNL A   1      38.406  31.392  30.946  1.00  0.00     0.074 A 
ATOM     40  C   UNL A   1      38.009  32.935  32.843  1.00  0.00     0.049 A 
ATOM     41  N   UNL A   1      39.380  30.656  31.415  1.00  0.00    -0.248 NA
ATOM     42  C   UNL A   1      37.967  31.013  29.594  1.00  0.00     0.031 C 
ATOM     43  C   UNL A   1      37.340  33.997  33.600  1.00  0.00     0.029 A 
ATOM     44  N   UNL A   1      39.001  32.505  33.688  1.00  0.00    -0.354 N 
ATOM     45  C   UNL A   1      39.661  29.723  30.423  1.00  0.00     0.074 A 
ATOM     46  C   UNL A   1      38.706  29.939  29.360  1.00  0.00     0.031 C 
ATOM     47  C   UNL A   1      37.961  34.156  34.780  1.00  0.00     0.029 A 
ATOM     48  C   UNL A   1      39.035  33.174  34.891  1.00  0.00     0.049 A 
ATOM     49  H   UNL A   1      39.630  31.784  33.456  1.00  0.00     0.167 HD
ATOM     50  C   UNL A   1      40.645  28.790  30.389  1.00  0.00     0.034 A 
ATOM     51  C   UNL A   1      39.830  33.005  35.967  1.00  0.00     0.034 A 
ATOM     52  C   UNL A   1      41.600  28.600  31.453  1.00  0.00     0.049 A 
ATOM     53  C   UNL A   1      40.895  31.936  35.918  1.00  0.00     0.074 A 
ATOM     54  C   UNL A   1      42.667  27.720  31.503  1.00  0.00     0.029 A 
ATOM     55  N   UNL A   1      41.602  29.295  32.656  1.00  0.00    -0.354 N 
ATOM     56  N   UNL A   1      41.180  31.095  34.950  1.00  0.00    -0.248 NA
ATOM     57  C   UNL A   1      41.753  31.801  37.102  1.00  0.00     0.031 C 
ATOM     58  C   UNL A   1      43.266  27.828  32.763  1.00  0.00     0.029 A 
ATOM     59  C   UNL A   1      42.630  28.840  33.467  1.00  0.00     0.049 A 
ATOM     60  H   UNL A   1      40.965  30.006  32.898  1.00  0.00     0.167 HD
ATOM     61  C   UNL A   1      42.275  30.360  35.397  1.00  0.00     0.074 A 
ATOM     62  C   UNL A   1      42.608  30.868  36.711  1.00  0.00     0.031 C 
ATOM     63  C   UNL A   1      42.947  29.356  34.777  1.00  0.00     0.034 A 
BRANCH  50  64
ATOM     64  C   UNL A   1      40.721  27.899  29.173  1.00  0.00     0.023 A 
ATOM     65  C   UNL A   1      41.624  28.155  28.125  1.00  0.00     0.031 A 
ATOM     66  C   UNL A   1      39.872  26.786  29.050  1.00  0.00     0.131 A 
ATOM     67  C   UNL A   1      41.605  27.355  26.972  1.00  0.00     0.055 A 
ATOM     68  C   UNL A   1      39.919  25.942  27.938  1.00  0.00     0.041 A 
ATOM     69  F   UNL A   1      38.973  26.503  30.005  1.00  0.00    -0.206 F 
ATOM     70  C   UNL A   1      40.779  26.232  26.884  1.00  0.00     0.022 A 
BRANCH  67  71
ATOM     71  S   UNL A   1      42.574  27.887  25.534  1.00  0.00     0.124 S 
ATOM     72  O   UNL A   1      42.565  26.680  24.711  1.00  0.00    -0.237 OA
ATOM     73  O   UNL A   1      41.797  29.013  25.028  1.00  0.00    -0.237 OA
ATOM     74  O   UNL A   1      43.874  28.233  26.106  1.00  0.00    -0.744 OA
ENDBRANCH  67  71
ENDBRANCH  50  64
BRANCH  51  75
ATOM     75  C   UNL A   1      39.654  33.848  37.187  1.00  0.00     0.023 A 
ATOM     76  C   UNL A   1      38.993  33.349  38.321  1.00  0.00     0.031 A 
ATOM     77  C   UNL A   1      40.089  35.185  37.216  1.00  0.00     0.131 A 
ATOM     78  C   UNL A   1      38.727  34.198  39.407  1.00  0.00     0.055 A 
ATOM     79  C   UNL A   1      39.881  36.006  38.326  1.00  0.00     0.041 A 
ATOM     80  F   UNL A   1      40.728  35.715  36.161  1.00  0.00    -0.206 F 
ATOM     81  C   UNL A   1      39.181  35.518  39.424  1.00  0.00     0.022 A 
BRANCH  78  82
ATOM     82  S   UNL A   1      37.677  33.582  40.752  1.00  0.00     0.124 S 
ATOM     83  O   UNL A   1      36.580  32.969  40.013  1.00  0.00    -0.237 OA
ATOM     84  O   UNL A   1      38.578  32.664  41.442  1.00  0.00    -0.237 OA
ATOM     85  O   UNL A   1      37.333  34.791  41.495  1.00  0.00    -0.744 OA
ENDBRANCH  78  82
ENDBRANCH  51  75
BRANCH  63  86
ATOM     86  C   UNL A   1      44.146  28.784  35.495  1.00  0.00     0.023 A 
ATOM     87  C   UNL A   1      44.027  27.732  36.420  1.00  0.00     0.031 A 
ATOM     88  C   UNL A   1      45.429  29.309  35.252  1.00  0.00     0.131 A 
ATOM     89  C   UNL A   1      45.160  27.280  37.112  1.00  0.00     0.055 A 
ATOM     90  C   UNL A   1      46.562  28.807  35.892  1.00  0.00     0.041 A 
ATOM     91  F   UNL A   1      45.602  30.316  34.382  1.00  0.00    -0.206 F 
ATOM     92  C   UNL A   1      46.430  27.796  36.839  1.00  0.00     0.022 A 
BRANCH  89  93
ATOM     93  S   UNL A   1      44.939  26.075  38.450  1.00  0.00     0.124 S 
ATOM     94  O   UNL A   1      46.309  25.878  38.911  1.00  0.00    -0.237 OA
ATOM     95  O   UNL A   1      44.054  26.787  39.368  1.00  0.00    -0.237 OA
ATOM     96  O   UNL A   1      44.338  24.925  37.779  1.00  0.00    -0.744 OA
ENDBRANCH  89  93
ENDBRANCH  63  86
ENDBRANCH  37  38
ENDBRANCH  29  32
ENDBRANCH  27  28
ENDBRANCH   1  27
TORSDOF 17
ENDMDL
MODEL 3
REMARK VINA RESULT:     -11.8      4.643      7.192
REMARK SMILES C[N@@H+]1CCC[C@@H](C(=O)N[C@H](C(=O)NCCCCNC(=O)c2ccc(-c3c4nc(c(-c5cc(S(=O)(=O)[O-])ccc5F)c5ccc([nH]5)c(-c5cc(S(=O)(=O)[O-])ccc5F)c5nc(c(-c6cc(S(=O)(=O)[O-])ccc6F)c6ccc3[nH]6)C=C5)C=C4)cc2)c2ccccc2)C1
REMARK SMILES IDX 16 1 15 2 14 3 13 4 11 5 12 6 10 8 9 9 7 10 8 11 6 13 1 14
REMARK SMILES IDX 2 15 3 16 90 17 4 19 5 20 84 21 85 22 89 23 86 24 88 25
REMARK SMILES IDX 87 26 17 27 18 28 19 29 20 31 21 32 22 33 83 34 23 35 82 36
REMARK SMILES IDX 24 37 25 38 26 39 76 40 27 41 81 42 75 43 77 44 28 45 80 46
REMARK SMILES IDX 74 47 73 48 29 50 61 51 41 52 60 53 42 54 45 55 59 56 78 57
REMARK SMILES IDX 43 58 44 59 58 61 79 62 46 63 30 64 31 65 39 66 32 67 38 68
REMARK SMILES IDX 40 69 37 70 33 71 34 72 35 73 36 74 62 75 63 76 71 77 64 78
REMARK SMILES IDX 70 79 72 80 69 81 65 82 66 83 67 84 68 85 47 86 48 87 56 88
REMARK SMILES IDX 49 89 55 90 57 91 54 92 50 93 51 94 52 95 53 96
REMARK H PARENT 13 7 9 12 2 18 18 30 77 49 45 60
REMARK Flexibility Score: inf
ROOT
ATOM      1  C   UNL A   1      35.963  22.416  24.216  1.00  0.00     0.023 C 
ENDROOT
BRANCH   1   2
ATOM      2  C   UNL A   1      34.499  21.993  24.196  1.00  0.00     0.023 C 
BRANCH   2   3
ATOM      3  C   UNL A   1      33.500  23.136  24.000  1.00  0.00     0.116 C 
BRANCH   3   4
ATOM      4  N   UNL A   1      33.489  23.639  22.631  1.00  0.00    -0.354 N 
ATOM      5  C   UNL A   1      33.070  24.862  22.157  1.00  0.00     0.247 C 
ATOM      6  O   UNL A   1      33.071  25.045  20.936  1.00  0.00    -0.272 OA
ATOM      7  H   UNL A   1      33.828  23.015  21.949  1.00  0.00     0.163 HD
BRANCH   5   8
ATOM      8  C   UNL A   1      32.625  25.958  23.161  1.00  0.00     0.202 C 
BRANCH   8   9
ATOM      9  N   UNL A   1      33.494  27.126  23.113  1.00  0.00    -0.340 N 
ATOM     10  C   UNL A   1      33.814  28.073  24.026  1.00  0.00     0.229 C 
ATOM     11  O   UNL A   1      34.587  28.960  23.631  1.00  0.00    -0.275 OA
ATOM     12  H   UNL A   1      33.937  27.252  22.243  1.00  0.00     0.164 HD
BRANCH  10  13
ATOM     13  C   UNL A   1      33.346  28.127  25.494  1.00  0.00     0.133 C 
ATOM     14  C   UNL A   1      35.317  30.536  27.684  1.00  0.00     0.332 C 
ATOM     15  N   UNL A   1      34.305  30.068  26.746  1.00  0.00    -0.337 N 
ATOM     16  C   UNL A   1      32.970  30.577  27.074  1.00  0.00     0.262 C 
ATOM     17  C   UNL A   1      34.324  28.616  26.568  1.00  0.00     0.275 C 
ATOM     18  H   UNL A   1      34.553  30.461  25.838  1.00  0.00     0.347 HD
ATOM     19  C   UNL A   1      31.934  30.192  26.013  1.00  0.00     0.062 C 
ATOM     20  C   UNL A   1      31.942  28.705  25.687  1.00  0.00     0.025 C 
ENDBRANCH  10  13
ENDBRANCH   8   9
BRANCH   8  21
ATOM     21  C   UNL A   1      31.146  26.337  23.108  1.00  0.00    -0.016 A 
ATOM     22  C   UNL A   1      30.162  25.685  23.858  1.00  0.00     0.006 A 
ATOM     23  C   UNL A   1      30.771  27.509  22.432  1.00  0.00     0.006 A 
ATOM     24  C   UNL A   1      28.925  26.294  24.095  1.00  0.00     0.000 A 
ATOM     25  C   UNL A   1      29.531  28.110  22.645  1.00  0.00     0.000 A 
ATOM     26  C   UNL A   1      28.624  27.523  23.518  1.00  0.00     0.000 A 
ENDBRANCH   8  21
ENDBRANCH   5   8
ENDBRANCH   3   4
ENDBRANCH   2   3
ENDBRANCH   1   2
BRANCH   1  27
ATOM     27  C   UNL A   1      36.584  22.426  25.602  1.00  0.00     0.116 C 
BRANCH  27  28
ATOM     28  N   UNL A   1      37.617  21.409  25.749  1.00  0.00    -0.352 N 
ATOM     29  C   UNL A   1      38.937  21.548  26.116  1.00  0.00     0.251 C 
ATOM     30  H   UNL A   1      37.329  20.488  25.557  1.00  0.00     0.163 HD
ATOM     31  O   UNL A   1      39.707  20.608  25.977  1.00  0.00    -0.269 OA
BRANCH  29  32
ATOM     32  C   UNL A   1      39.413  22.844  26.647  1.00  0.00     0.039 A 
ATOM     33  C   UNL A   1      40.393  22.854  27.642  1.00  0.00     0.014 A 
ATOM     34  C   UNL A   1      38.910  24.046  26.145  1.00  0.00     0.014 A 
ATOM     35  C   UNL A   1      40.922  24.073  28.074  1.00  0.00     0.010 A 
ATOM     36  C   UNL A   1      39.513  25.248  26.497  1.00  0.00     0.010 A 
ATOM     37  C   UNL A   1      40.520  25.278  27.472  1.00  0.00    -0.014 A 
BRANCH  37  38
ATOM     38  C   UNL A   1      41.124  26.581  27.857  1.00  0.00     0.031 A 
ATOM     39  C   UNL A   1      42.562  26.869  27.513  1.00  0.00     0.074 A 
ATOM     40  C   UNL A   1      40.403  27.470  28.569  1.00  0.00     0.049 A 
ATOM     41  N   UNL A   1      43.299  27.899  27.835  1.00  0.00    -0.248 NA
ATOM     42  C   UNL A   1      43.272  25.845  26.731  1.00  0.00     0.031 C 
ATOM     43  C   UNL A   1      39.013  27.285  28.998  1.00  0.00     0.029 A 
ATOM     44  N   UNL A   1      40.736  28.707  29.064  1.00  0.00    -0.354 N 
ATOM     45  C   UNL A   1      44.560  27.642  27.308  1.00  0.00     0.074 A 
ATOM     46  C   UNL A   1      44.506  26.327  26.711  1.00  0.00     0.031 C 
ATOM     47  C   UNL A   1      38.607  28.380  29.660  1.00  0.00     0.029 A 
ATOM     48  C   UNL A   1      39.717  29.322  29.756  1.00  0.00     0.049 A 
ATOM     49  H   UNL A   1      41.623  29.115  28.937  1.00  0.00     0.167 HD
ATOM     50  C   UNL A   1      45.655  28.442  27.297  1.00  0.00     0.034 A 
ATOM     51  C   UNL A   1      39.685  30.503  30.405  1.00  0.00     0.034 A 
ATOM     52  C   UNL A   1      45.687  29.759  27.885  1.00  0.00     0.049 A 
ATOM     53  C   UNL A   1      40.929  31.359  30.409  1.00  0.00     0.074 A 
ATOM     54  C   UNL A   1      46.724  30.674  27.888  1.00  0.00     0.029 A 
ATOM     55  N   UNL A   1      44.636  30.347  28.577  1.00  0.00    -0.354 N 
ATOM     56  N   UNL A   1      42.099  31.122  29.860  1.00  0.00    -0.248 NA
ATOM     57  C   UNL A   1      40.844  32.648  31.108  1.00  0.00     0.031 C 
ATOM     58  C   UNL A   1      46.330  31.781  28.647  1.00  0.00     0.029 A 
ATOM     59  C   UNL A   1      45.013  31.598  29.041  1.00  0.00     0.049 A 
ATOM     60  H   UNL A   1      43.753  29.936  28.719  1.00  0.00     0.167 HD
ATOM     61  C   UNL A   1      42.874  32.250  30.119  1.00  0.00     0.074 A 
ATOM     62  C   UNL A   1      42.034  33.172  30.854  1.00  0.00     0.031 C 
ATOM     63  C   UNL A   1      44.163  32.504  29.776  1.00  0.00     0.034 A 
BRANCH  50  64
ATOM     64  C   UNL A   1      46.907  27.904  26.646  1.00  0.00     0.023 A 
ATOM     65  C   UNL A   1      47.151  28.062  25.271  1.00  0.00     0.031 A 
ATOM     66  C   UNL A   1      47.865  27.210  27.407  1.00  0.00     0.131 A 
ATOM     67  C   UNL A   1      48.283  27.474  24.686  1.00  0.00     0.055 A 
ATOM     68  C   UNL A   1      49.033  26.702  26.835  1.00  0.00     0.041 A 
ATOM     69  F   UNL A   1      47.677  27.006  28.720  1.00  0.00    -0.206 F 
ATOM     70  C   UNL A   1      49.241  26.820  25.464  1.00  0.00     0.022 A 
BRANCH  67  71
ATOM     71  S   UNL A   1      48.411  27.453  22.877  1.00  0.00     0.124 S 
ATOM     72  O   UNL A   1      49.665  28.171  22.663  1.00  0.00    -0.237 OA
ATOM     73  O   UNL A   1      48.432  26.026  22.577  1.00  0.00    -0.237 OA
ATOM     74  O   UNL A   1      47.212  28.166  22.441  1.00  0.00    -0.744 OA
ENDBRANCH  67  71
ENDBRANCH  50  64
BRANCH  51  75
ATOM     75  C   UNL A   1      38.452  30.951  31.117  1.00  0.00     0.023 A 
ATOM     76  C   UNL A   1      37.506  31.769  30.480  1.00  0.00     0.031 A 
ATOM     77  C   UNL A   1      38.232  30.622  32.467  1.00  0.00     0.131 A 
ATOM     78  C   UNL A   1      36.420  32.282  31.207  1.00  0.00     0.055 A 
ATOM     79  C   UNL A   1      37.115  31.080  33.167  1.00  0.00     0.041 A 
ATOM     80  F   UNL A   1      39.103  29.842  33.127  1.00  0.00    -0.206 F 
ATOM     81  C   UNL A   1      36.209  31.930  32.541  1.00  0.00     0.022 A 
BRANCH  78  82
ATOM     82  S   UNL A   1      35.348  33.511  30.412  1.00  0.00     0.124 S 
ATOM     83  O   UNL A   1      36.139  33.881  29.244  1.00  0.00    -0.237 OA
ATOM     84  O   UNL A   1      34.141  32.734  30.149  1.00  0.00    -0.237 OA
ATOM     85  O   UNL A   1      35.210  34.550  31.429  1.00  0.00    -0.744 OA
ENDBRANCH  78  82
ENDBRANCH  51  75
BRANCH  63  86
ATOM     86  C   UNL A   1      44.720  33.858  30.148  1.00  0.00     0.023 A 
ATOM     87  C   UNL A   1      45.362  34.086  31.378  1.00  0.00     0.031 A 
ATOM     88  C   UNL A   1      44.600  34.938  29.255  1.00  0.00     0.131 A 
ATOM     89  C   UNL A   1      45.802  35.377  31.706  1.00  0.00     0.055 A 
ATOM     90  C   UNL A   1      45.103  36.203  29.558  1.00  0.00     0.041 A 
ATOM     91  F   UNL A   1      43.994  34.779  28.067  1.00  0.00    -0.206 F 
ATOM     92  C   UNL A   1      45.696  36.432  30.796  1.00  0.00     0.022 A 
BRANCH  89  93
ATOM     93  S   UNL A   1      46.427  35.682  33.381  1.00  0.00     0.124 S 
ATOM     94  O   UNL A   1      47.041  34.401  33.714  1.00  0.00    -0.237 OA
ATOM     95  O   UNL A   1      47.348  36.795  33.174  1.00  0.00    -0.237 OA
ATOM     96  O   UNL A   1      45.222  36.009  34.142  1.00  0.00    -0.744 OA
ENDBRANCH  89  93
ENDBRANCH  63  86
ENDBRANCH  37  38
ENDBRANCH  29  32
ENDBRANCH  27  28
ENDBRANCH   1  27
TORSDOF 17
ENDMDL
