MODEL 1
REMARK VINA RESULT:      -9.8      0.000      0.000
REMARK SMILES CCNC(=O)C[NH2+][C@@H](C)[C@@H](C)C(=O)NCCCCNC(=O)c1ccc(-c2c3nc(c(-c4cc(S(=O)(=O)[O-])ccc4F)c4ccc([nH]4)c(-c4cc(S(=O)(=O)[O-])ccc4F)c4nc(c(-c5cc(S(=O)(=O)[O-])ccc5F)c5ccc2[nH]5)C=C4)C=C3)cc1
REMARK SMILES IDX 15 1 14 2 12 3 13 4 10 6 11 7 8 8 9 9 7 10 6 13 4 14 3 15
REMARK SMILES IDX 5 17 2 18 1 19 16 20 17 21 18 22 19 23 20 24 21 26 22 27
REMARK SMILES IDX 23 28 84 29 24 30 83 31 25 32 26 33 27 34 77 35 28 36 82 37
REMARK SMILES IDX 76 38 78 39 29 40 81 41 75 42 74 43 30 45 62 46 42 47 61 48
REMARK SMILES IDX 43 49 46 50 60 51 79 52 44 53 45 54 59 56 80 57 47 58 31 59
REMARK SMILES IDX 32 60 40 61 33 62 39 63 41 64 38 65 34 66 35 67 36 68 37 69
REMARK SMILES IDX 63 70 64 71 72 72 65 73 71 74 73 75 70 76 66 77 67 78 68 79
REMARK SMILES IDX 69 80 48 81 49 82 57 83 50 84 56 85 58 86 55 87 51 88 52 89
REMARK SMILES IDX 53 90 54 91
REMARK H PARENT 14 5 7 11 7 12 3 16 19 25 78 44 46 55
REMARK Flexibility Score: inf
ROOT
ATOM      1  C   UNL A   1      33.925  22.153  24.269  1.00  0.00     0.116 C 
ENDROOT
BRANCH   1   2
ATOM      2  N   UNL A   1      32.620  22.537  23.764  1.00  0.00    -0.356 N 
ATOM      3  C   UNL A   1      31.788  23.560  24.095  1.00  0.00     0.228 C 
ATOM      4  O   UNL A   1      30.713  23.634  23.491  1.00  0.00    -0.275 OA
ATOM      5  H   UNL A   1      32.274  21.951  23.053  1.00  0.00     0.163 HD
BRANCH   3   6
ATOM      6  C   UNL A   1      32.137  24.604  25.156  1.00  0.00     0.133 C 
ATOM      7  C   UNL A   1      31.526  24.210  26.504  1.00  0.00     0.024 C 
BRANCH   6   8
ATOM      8  C   UNL A   1      31.850  26.052  24.686  1.00  0.00     0.191 C 
ATOM      9  C   UNL A   1      30.372  26.406  24.918  1.00  0.00     0.076 C 
BRANCH   8  10
ATOM     10  N   UNL A   1      32.221  26.225  23.270  1.00  0.00    -0.336 N 
ATOM     11  H   UNL A   1      33.210  26.004  23.160  1.00  0.00     0.346 HD
ATOM     12  H   UNL A   1      31.637  25.599  22.715  1.00  0.00     0.346 HD
BRANCH  10  13
ATOM     13  C   UNL A   1      31.986  27.601  22.795  1.00  0.00     0.362 C 
BRANCH  13  14
ATOM     14  C   UNL A   1      33.304  28.377  22.748  1.00  0.00     0.275 C 
ATOM     15  N   UNL A   1      33.572  29.307  23.712  1.00  0.00    -0.351 N 
ATOM     16  H   UNL A   1      34.383  29.847  23.571  1.00  0.00     0.163 HD
ATOM     17  O   UNL A   1      34.127  28.197  21.847  1.00  0.00    -0.269 OA
BRANCH  15  18
ATOM     18  C   UNL A   1      32.818  29.603  24.915  1.00  0.00     0.112 C 
ATOM     19  C   UNL A   1      33.494  29.001  26.133  1.00  0.00     0.027 C 
ENDBRANCH  15  18
ENDBRANCH  13  14
ENDBRANCH  10  13
ENDBRANCH   8  10
ENDBRANCH   6   8
ENDBRANCH   3   6
ENDBRANCH   1   2
BRANCH   1  20
ATOM     20  C   UNL A   1      35.054  22.947  23.613  1.00  0.00     0.023 C 
BRANCH  20  21
ATOM     21  C   UNL A   1      36.462  22.425  23.899  1.00  0.00     0.023 C 
BRANCH  21  22
ATOM     22  C   UNL A   1      36.736  22.032  25.347  1.00  0.00     0.116 C 
BRANCH  22  23
ATOM     23  N   UNL A   1      37.681  20.935  25.475  1.00  0.00    -0.352 N 
ATOM     24  C   UNL A   1      38.977  20.962  25.934  1.00  0.00     0.251 C 
ATOM     25  H   UNL A   1      37.347  20.052  25.196  1.00  0.00     0.163 HD
ATOM     26  O   UNL A   1      39.668  19.949  25.867  1.00  0.00    -0.269 OA
BRANCH  24  27
ATOM     27  C   UNL A   1      39.539  22.224  26.464  1.00  0.00     0.039 A 
ATOM     28  C   UNL A   1      40.430  22.166  27.538  1.00  0.00     0.014 A 
ATOM     29  C   UNL A   1      39.215  23.452  25.882  1.00  0.00     0.014 A 
ATOM     30  C   UNL A   1      41.057  23.335  27.978  1.00  0.00     0.010 A 
ATOM     31  C   UNL A   1      39.892  24.604  26.276  1.00  0.00     0.010 A 
ATOM     32  C   UNL A   1      40.825  24.555  27.324  1.00  0.00    -0.014 A 
BRANCH  32  33
ATOM     33  C   UNL A   1      41.544  25.794  27.720  1.00  0.00     0.031 A 
ATOM     34  C   UNL A   1      40.813  26.885  28.454  1.00  0.00     0.074 A 
ATOM     35  C   UNL A   1      42.832  25.964  27.359  1.00  0.00     0.049 A 
ATOM     36  N   UNL A   1      41.228  28.077  28.796  1.00  0.00    -0.248 NA
ATOM     37  C   UNL A   1      39.418  26.604  28.824  1.00  0.00     0.031 C 
ATOM     38  C   UNL A   1      43.636  24.996  26.610  1.00  0.00     0.029 A 
ATOM     39  N   UNL A   1      43.688  27.018  27.559  1.00  0.00    -0.354 N 
ATOM     40  C   UNL A   1      40.146  28.691  29.416  1.00  0.00     0.074 A 
ATOM     41  C   UNL A   1      39.038  27.763  29.340  1.00  0.00     0.031 C 
ATOM     42  C   UNL A   1      44.869  25.495  26.427  1.00  0.00     0.029 A 
ATOM     43  C   UNL A   1      44.934  26.834  27.005  1.00  0.00     0.049 A 
ATOM     44  H   UNL A   1      43.434  27.832  28.054  1.00  0.00     0.167 HD
ATOM     45  C   UNL A   1      40.090  29.906  30.018  1.00  0.00     0.034 A 
ATOM     46  C   UNL A   1      46.001  27.655  26.954  1.00  0.00     0.034 A 
ATOM     47  C   UNL A   1      41.203  30.819  30.090  1.00  0.00     0.049 A 
ATOM     48  C   UNL A   1      45.907  29.012  27.607  1.00  0.00     0.074 A 
ATOM     49  C   UNL A   1      41.265  32.062  30.696  1.00  0.00     0.029 A 
ATOM     50  N   UNL A   1      42.456  30.589  29.534  1.00  0.00    -0.354 N 
ATOM     51  N   UNL A   1      44.886  29.563  28.223  1.00  0.00    -0.248 NA
ATOM     52  C   UNL A   1      47.112  29.850  27.572  1.00  0.00     0.031 C 
ATOM     53  C   UNL A   1      42.533  32.604  30.462  1.00  0.00     0.029 A 
ATOM     54  C   UNL A   1      43.288  31.673  29.769  1.00  0.00     0.049 A 
ATOM     55  H   UNL A   1      42.715  29.774  29.046  1.00  0.00     0.167 HD
ATOM     56  C   UNL A   1      45.339  30.800  28.674  1.00  0.00     0.074 A 
ATOM     57  C   UNL A   1      46.727  30.904  28.275  1.00  0.00     0.031 C 
ATOM     58  C   UNL A   1      44.670  31.762  29.360  1.00  0.00     0.034 A 
BRANCH  45  59
ATOM     59  C   UNL A   1      38.769  30.311  30.629  1.00  0.00     0.023 A 
ATOM     60  C   UNL A   1      37.850  31.108  29.924  1.00  0.00     0.031 A 
ATOM     61  C   UNL A   1      38.436  29.927  31.939  1.00  0.00     0.131 A 
ATOM     62  C   UNL A   1      36.684  31.561  30.557  1.00  0.00     0.055 A 
ATOM     63  C   UNL A   1      37.233  30.312  32.536  1.00  0.00     0.041 A 
ATOM     64  F   UNL A   1      39.282  29.183  32.670  1.00  0.00    -0.206 F 
ATOM     65  C   UNL A   1      36.355  31.147  31.850  1.00  0.00     0.022 A 
BRANCH  62  66
ATOM     66  S   UNL A   1      35.675  32.813  29.718  1.00  0.00     0.124 S 
ATOM     67  O   UNL A   1      36.241  34.050  30.250  1.00  0.00    -0.237 OA
ATOM     68  O   UNL A   1      35.941  32.543  28.310  1.00  0.00    -0.237 OA
ATOM     69  O   UNL A   1      34.316  32.515  30.165  1.00  0.00    -0.744 OA
ENDBRANCH  62  66
ENDBRANCH  45  59
BRANCH  46  70
ATOM     70  C   UNL A   1      47.248  27.238  26.251  1.00  0.00     0.023 A 
ATOM     71  C   UNL A   1      48.221  26.462  26.900  1.00  0.00     0.031 A 
ATOM     72  C   UNL A   1      47.512  27.659  24.935  1.00  0.00     0.131 A 
ATOM     73  C   UNL A   1      49.436  26.180  26.256  1.00  0.00     0.055 A 
ATOM     74  C   UNL A   1      48.698  27.329  24.278  1.00  0.00     0.041 A 
ATOM     75  F   UNL A   1      46.613  28.398  24.265  1.00  0.00    -0.206 F 
ATOM     76  C   UNL A   1      49.676  26.597  24.945  1.00  0.00     0.022 A 
BRANCH  73  77
ATOM     77  S   UNL A   1      50.740  25.342  27.196  1.00  0.00     0.124 S 
ATOM     78  O   UNL A   1      51.198  26.405  28.084  1.00  0.00    -0.237 OA
ATOM     79  O   UNL A   1      50.005  24.252  27.828  1.00  0.00    -0.237 OA
ATOM     80  O   UNL A   1      51.694  24.934  26.167  1.00  0.00    -0.744 OA
ENDBRANCH  73  77
ENDBRANCH  46  70
BRANCH  58  81
ATOM     81  C   UNL A   1      45.456  32.984  29.762  1.00  0.00     0.023 A 
ATOM     82  C   UNL A   1      45.531  34.121  28.938  1.00  0.00     0.031 A 
ATOM     83  C   UNL A   1      46.152  33.004  30.984  1.00  0.00     0.131 A 
ATOM     84  C   UNL A   1      46.330  35.209  29.320  1.00  0.00     0.055 A 
ATOM     85  C   UNL A   1      46.901  34.112  31.384  1.00  0.00     0.041 A 
ATOM     86  F   UNL A   1      46.116  31.945  31.808  1.00  0.00    -0.206 F 
ATOM     87  C   UNL A   1      47.004  35.217  30.544  1.00  0.00     0.022 A 
BRANCH  84  88
ATOM     88  S   UNL A   1      46.549  36.582  28.155  1.00  0.00     0.124 S 
ATOM     89  O   UNL A   1      47.979  36.513  27.869  1.00  0.00    -0.237 OA
ATOM     90  O   UNL A   1      45.662  36.206  27.059  1.00  0.00    -0.237 OA
ATOM     91  O   UNL A   1      46.125  37.753  28.920  1.00  0.00    -0.744 OA
ENDBRANCH  84  88
ENDBRANCH  58  81
ENDBRANCH  32  33
ENDBRANCH  24  27
ENDBRANCH  22  23
ENDBRANCH  21  22
ENDBRANCH  20  21
ENDBRANCH   1  20
TORSDOF 19
ENDMDL
MODEL 2
REMARK VINA RESULT:      -9.6      5.126      7.975
REMARK SMILES CCNC(=O)C[NH2+][C@@H](C)[C@@H](C)C(=O)NCCCCNC(=O)c1ccc(-c2c3nc(c(-c4cc(S(=O)(=O)[O-])ccc4F)c4ccc([nH]4)c(-c4cc(S(=O)(=O)[O-])ccc4F)c4nc(c(-c5cc(S(=O)(=O)[O-])ccc5F)c5ccc2[nH]5)C=C4)C=C3)cc1
REMARK SMILES IDX 15 1 14 2 12 3 13 4 10 6 11 7 8 8 9 9 7 10 6 13 4 14 3 15
REMARK SMILES IDX 5 17 2 18 1 19 16 20 17 21 18 22 19 23 20 24 21 26 22 27
REMARK SMILES IDX 23 28 84 29 24 30 83 31 25 32 26 33 27 34 77 35 28 36 82 37
REMARK SMILES IDX 76 38 78 39 29 40 81 41 75 42 74 43 30 45 62 46 42 47 61 48
REMARK SMILES IDX 43 49 46 50 60 51 79 52 44 53 45 54 59 56 80 57 47 58 31 59
REMARK SMILES IDX 32 60 40 61 33 62 39 63 41 64 38 65 34 66 35 67 36 68 37 69
REMARK SMILES IDX 63 70 64 71 72 72 65 73 71 74 73 75 70 76 66 77 67 78 68 79
REMARK SMILES IDX 69 80 48 81 49 82 57 83 50 84 56 85 58 86 55 87 51 88 52 89
REMARK SMILES IDX 53 90 54 91
REMARK H PARENT 14 5 7 11 7 12 3 16 19 25 78 44 46 55
REMARK Flexibility Score: inf
ROOT
ATOM      1  C   UNL A   1      33.370  25.857  24.987  1.00  0.00     0.116 C 
ENDROOT
BRANCH   1   2
ATOM      2  N   UNL A   1      32.807  24.829  25.843  1.00  0.00    -0.356 N 
ATOM      3  C   UNL A   1      33.248  23.586  26.172  1.00  0.00     0.228 C 
ATOM      4  O   UNL A   1      32.539  22.917  26.930  1.00  0.00    -0.275 OA
ATOM      5  H   UNL A   1      31.951  25.077  26.261  1.00  0.00     0.163 HD
BRANCH   3   6
ATOM      6  C   UNL A   1      34.567  23.009  25.656  1.00  0.00     0.133 C 
ATOM      7  C   UNL A   1      35.596  24.127  25.473  1.00  0.00     0.024 C 
BRANCH   6   8
ATOM      8  C   UNL A   1      34.371  22.070  24.439  1.00  0.00     0.191 C 
ATOM      9  C   UNL A   1      34.241  22.891  23.147  1.00  0.00     0.076 C 
BRANCH   8  10
ATOM     10  N   UNL A   1      33.198  21.198  24.635  1.00  0.00    -0.336 N 
ATOM     11  H   UNL A   1      32.759  21.433  25.525  1.00  0.00     0.346 HD
ATOM     12  H   UNL A   1      32.560  21.352  23.853  1.00  0.00     0.346 HD
BRANCH  10  13
ATOM     13  C   UNL A   1      33.560  19.769  24.647  1.00  0.00     0.362 C 
BRANCH  13  14
ATOM     14  C   UNL A   1      32.596  18.971  23.768  1.00  0.00     0.275 C 
ATOM     15  N   UNL A   1      32.231  17.708  24.144  1.00  0.00    -0.351 N 
ATOM     16  H   UNL A   1      31.695  17.206  23.488  1.00  0.00     0.163 HD
ATOM     17  O   UNL A   1      32.151  19.431  22.714  1.00  0.00    -0.269 OA
BRANCH  15  18
ATOM     18  C   UNL A   1      32.531  17.013  25.381  1.00  0.00     0.112 C 
ATOM     19  C   UNL A   1      33.436  15.823  25.120  1.00  0.00     0.027 C 
ENDBRANCH  15  18
ENDBRANCH  13  14
ENDBRANCH  10  13
ENDBRANCH   8  10
ENDBRANCH   6   8
ENDBRANCH   3   6
ENDBRANCH   1   2
BRANCH   1  20
ATOM     20  C   UNL A   1      33.966  27.013  25.790  1.00  0.00     0.023 C 
BRANCH  20  21
ATOM     21  C   UNL A   1      33.254  28.355  25.618  1.00  0.00     0.023 C 
BRANCH  21  22
ATOM     22  C   UNL A   1      32.860  29.061  26.910  1.00  0.00     0.116 C 
BRANCH  22  23
ATOM     23  N   UNL A   1      33.127  30.490  26.889  1.00  0.00    -0.352 N 
ATOM     24  C   UNL A   1      34.232  31.168  27.349  1.00  0.00     0.251 C 
ATOM     25  H   UNL A   1      32.422  31.048  26.489  1.00  0.00     0.163 HD
ATOM     26  O   UNL A   1      34.236  32.396  27.348  1.00  0.00    -0.269 OA
BRANCH  24  27
ATOM     27  C   UNL A   1      35.386  30.411  27.881  1.00  0.00     0.039 A 
ATOM     28  C   UNL A   1      36.562  30.359  27.130  1.00  0.00     0.014 A 
ATOM     29  C   UNL A   1      35.318  29.786  29.129  1.00  0.00     0.014 A 
ATOM     30  C   UNL A   1      37.697  29.746  27.666  1.00  0.00     0.010 A 
ATOM     31  C   UNL A   1      36.468  29.236  29.690  1.00  0.00     0.010 A 
ATOM     32  C   UNL A   1      37.671  29.216  28.966  1.00  0.00    -0.014 A 
BRANCH  32  33
ATOM     33  C   UNL A   1      38.889  28.635  29.589  1.00  0.00     0.031 A 
ATOM     34  C   UNL A   1      39.415  29.201  30.880  1.00  0.00     0.074 A 
ATOM     35  C   UNL A   1      39.558  27.649  28.958  1.00  0.00     0.049 A 
ATOM     36  N   UNL A   1      40.512  28.907  31.529  1.00  0.00    -0.248 NA
ATOM     37  C   UNL A   1      38.610  30.260  31.506  1.00  0.00     0.031 C 
ATOM     38  C   UNL A   1      39.170  27.045  27.681  1.00  0.00     0.029 A 
ATOM     39  N   UNL A   1      40.713  26.989  29.296  1.00  0.00    -0.354 N 
ATOM     40  C   UNL A   1      40.533  29.748  32.636  1.00  0.00     0.074 A 
ATOM     41  C   UNL A   1      39.374  30.608  32.531  1.00  0.00     0.031 C 
ATOM     42  C   UNL A   1      40.063  26.097  27.353  1.00  0.00     0.029 A 
ATOM     43  C   UNL A   1      41.109  26.052  28.370  1.00  0.00     0.049 A 
ATOM     44  H   UNL A   1      41.213  27.169  30.127  1.00  0.00     0.167 HD
ATOM     45  C   UNL A   1      41.423  29.780  33.661  1.00  0.00     0.034 A 
ATOM     46  C   UNL A   1      42.198  25.260  28.334  1.00  0.00     0.034 A 
ATOM     47  C   UNL A   1      42.571  28.914  33.754  1.00  0.00     0.049 A 
ATOM     48  C   UNL A   1      43.188  25.332  29.471  1.00  0.00     0.074 A 
ATOM     49  C   UNL A   1      43.522  28.844  34.758  1.00  0.00     0.029 A 
ATOM     50  N   UNL A   1      42.929  27.963  32.805  1.00  0.00    -0.354 N 
ATOM     51  N   UNL A   1      43.173  26.107  30.531  1.00  0.00    -0.248 NA
ATOM     52  C   UNL A   1      44.331  24.412  29.415  1.00  0.00     0.031 C 
ATOM     53  C   UNL A   1      44.480  27.891  34.392  1.00  0.00     0.029 A 
ATOM     54  C   UNL A   1      44.093  27.317  33.192  1.00  0.00     0.049 A 
ATOM     55  H   UNL A   1      42.428  27.776  31.979  1.00  0.00     0.167 HD
ATOM     56  C   UNL A   1      44.289  25.745  31.281  1.00  0.00     0.074 A 
ATOM     57  C   UNL A   1      44.941  24.672  30.560  1.00  0.00     0.031 C 
ATOM     58  C   UNL A   1      44.733  26.250  32.460  1.00  0.00     0.034 A 
BRANCH  45  59
ATOM     59  C   UNL A   1      41.184  30.801  34.747  1.00  0.00     0.023 A 
ATOM     60  C   UNL A   1      40.044  30.744  35.569  1.00  0.00     0.031 A 
ATOM     61  C   UNL A   1      42.084  31.862  34.946  1.00  0.00     0.131 A 
ATOM     62  C   UNL A   1      39.793  31.767  36.493  1.00  0.00     0.055 A 
ATOM     63  C   UNL A   1      41.871  32.834  35.926  1.00  0.00     0.041 A 
ATOM     64  F   UNL A   1      43.180  31.982  34.180  1.00  0.00    -0.206 F 
ATOM     65  C   UNL A   1      40.712  32.799  36.697  1.00  0.00     0.022 A 
BRANCH  62  66
ATOM     66  S   UNL A   1      38.180  31.807  37.322  1.00  0.00     0.124 S 
ATOM     67  O   UNL A   1      37.779  30.404  37.250  1.00  0.00    -0.237 OA
ATOM     68  O   UNL A   1      38.518  32.307  38.649  1.00  0.00    -0.237 OA
ATOM     69  O   UNL A   1      37.391  32.717  36.493  1.00  0.00    -0.744 OA
ENDBRANCH  62  66
ENDBRANCH  45  59
BRANCH  46  70
ATOM     70  C   UNL A   1      42.432  24.340  27.184  1.00  0.00     0.023 A 
ATOM     71  C   UNL A   1      41.968  23.015  27.211  1.00  0.00     0.031 A 
ATOM     72  C   UNL A   1      43.173  24.755  26.064  1.00  0.00     0.131 A 
ATOM     73  C   UNL A   1      42.299  22.136  26.168  1.00  0.00     0.055 A 
ATOM     74  C   UNL A   1      43.453  23.892  25.003  1.00  0.00     0.041 A 
ATOM     75  F   UNL A   1      43.635  26.013  25.984  1.00  0.00    -0.206 F 
ATOM     76  C   UNL A   1      43.028  22.569  25.059  1.00  0.00     0.022 A 
BRANCH  73  77
ATOM     77  S   UNL A   1      41.847  20.387  26.333  1.00  0.00     0.124 S 
ATOM     78  O   UNL A   1      42.274  20.096  27.697  1.00  0.00    -0.237 OA
ATOM     79  O   UNL A   1      40.407  20.425  26.107  1.00  0.00    -0.237 OA
ATOM     80  O   UNL A   1      42.624  19.735  25.282  1.00  0.00    -0.744 OA
ENDBRANCH  73  77
ENDBRANCH  46  70
BRANCH  58  81
ATOM     81  C   UNL A   1      45.955  25.605  33.061  1.00  0.00     0.023 A 
ATOM     82  C   UNL A   1      45.861  24.500  33.926  1.00  0.00     0.031 A 
ATOM     83  C   UNL A   1      47.235  26.114  32.774  1.00  0.00     0.131 A 
ATOM     84  C   UNL A   1      47.019  23.975  34.517  1.00  0.00     0.055 A 
ATOM     85  C   UNL A   1      48.389  25.553  33.323  1.00  0.00     0.041 A 
ATOM     86  F   UNL A   1      47.382  27.168  31.956  1.00  0.00    -0.206 F 
ATOM     87  C   UNL A   1      48.284  24.485  34.210  1.00  0.00     0.022 A 
BRANCH  84  88
ATOM     88  S   UNL A   1      46.847  22.669  35.764  1.00  0.00     0.124 S 
ATOM     89  O   UNL A   1      45.497  22.903  36.265  1.00  0.00    -0.237 OA
ATOM     90  O   UNL A   1      47.031  21.457  34.973  1.00  0.00    -0.237 OA
ATOM     91  O   UNL A   1      47.920  22.956  36.714  1.00  0.00    -0.744 OA
ENDBRANCH  84  88
ENDBRANCH  58  81
ENDBRANCH  32  33
ENDBRANCH  24  27
ENDBRANCH  22  23
ENDBRANCH  21  22
ENDBRANCH  20  21
ENDBRANCH   1  20
TORSDOF 19
ENDMDL
MODEL 3
REMARK VINA RESULT:      -9.6      4.047      7.589
REMARK SMILES CCNC(=O)C[NH2+][C@@H](C)[C@@H](C)C(=O)NCCCCNC(=O)c1ccc(-c2c3nc(c(-c4cc(S(=O)(=O)[O-])ccc4F)c4ccc([nH]4)c(-c4cc(S(=O)(=O)[O-])ccc4F)c4nc(c(-c5cc(S(=O)(=O)[O-])ccc5F)c5ccc2[nH]5)C=C4)C=C3)cc1
REMARK SMILES IDX 15 1 14 2 12 3 13 4 10 6 11 7 8 8 9 9 7 10 6 13 4 14 3 15
REMARK SMILES IDX 5 17 2 18 1 19 16 20 17 21 18 22 19 23 20 24 21 26 22 27
REMARK SMILES IDX 23 28 84 29 24 30 83 31 25 32 26 33 27 34 77 35 28 36 82 37
REMARK SMILES IDX 76 38 78 39 29 40 81 41 75 42 74 43 30 45 62 46 42 47 61 48
REMARK SMILES IDX 43 49 46 50 60 51 79 52 44 53 45 54 59 56 80 57 47 58 31 59
REMARK SMILES IDX 32 60 40 61 33 62 39 63 41 64 38 65 34 66 35 67 36 68 37 69
REMARK SMILES IDX 63 70 64 71 72 72 65 73 71 74 73 75 70 76 66 77 67 78 68 79
REMARK SMILES IDX 69 80 48 81 49 82 57 83 50 84 56 85 58 86 55 87 51 88 52 89
REMARK SMILES IDX 53 90 54 91
REMARK H PARENT 14 5 7 11 7 12 3 16 19 25 78 44 46 55
REMARK Flexibility Score: inf
ROOT
ATOM      1  C   UNL A   1      33.257  25.542  25.492  1.00  0.00     0.116 C 
ENDROOT
BRANCH   1   2
ATOM      2  N   UNL A   1      33.212  24.475  26.474  1.00  0.00    -0.356 N 
ATOM      3  C   UNL A   1      33.873  23.290  26.552  1.00  0.00     0.228 C 
ATOM      4  O   UNL A   1      33.620  22.563  27.517  1.00  0.00    -0.275 OA
ATOM      5  H   UNL A   1      32.590  24.639  27.219  1.00  0.00     0.163 HD
BRANCH   3   6
ATOM      6  C   UNL A   1      34.905  22.845  25.515  1.00  0.00     0.133 C 
ATOM      7  C   UNL A   1      35.813  24.019  25.136  1.00  0.00     0.024 C 
BRANCH   6   8
ATOM      8  C   UNL A   1      34.266  22.080  24.329  1.00  0.00     0.191 C 
ATOM      9  C   UNL A   1      34.007  23.037  23.154  1.00  0.00     0.076 C 
BRANCH   8  10
ATOM     10  N   UNL A   1      33.024  21.406  24.749  1.00  0.00    -0.336 N 
ATOM     11  H   UNL A   1      32.704  21.823  25.623  1.00  0.00     0.346 HD
ATOM     12  H   UNL A   1      32.335  21.528  24.006  1.00  0.00     0.346 HD
BRANCH  10  13
ATOM     13  C   UNL A   1      33.216  19.959  24.956  1.00  0.00     0.362 C 
BRANCH  13  14
ATOM     14  C   UNL A   1      32.482  19.168  23.871  1.00  0.00     0.275 C 
ATOM     15  N   UNL A   1      32.235  17.837  24.061  1.00  0.00    -0.351 N 
ATOM     16  H   UNL A   1      31.856  17.359  23.288  1.00  0.00     0.163 HD
ATOM     17  O   UNL A   1      32.123  19.697  22.817  1.00  0.00    -0.269 OA
BRANCH  15  18
ATOM     18  C   UNL A   1      32.458  17.038  25.250  1.00  0.00     0.112 C 
ATOM     19  C   UNL A   1      33.819  16.369  25.199  1.00  0.00     0.027 C 
ENDBRANCH  15  18
ENDBRANCH  13  14
ENDBRANCH  10  13
ENDBRANCH   8  10
ENDBRANCH   6   8
ENDBRANCH   3   6
ENDBRANCH   1   2
BRANCH   1  20
ATOM     20  C   UNL A   1      34.007  26.770  26.007  1.00  0.00     0.023 C 
BRANCH  20  21
ATOM     21  C   UNL A   1      33.208  28.073  25.986  1.00  0.00     0.023 C 
BRANCH  21  22
ATOM     22  C   UNL A   1      32.995  28.736  27.342  1.00  0.00     0.116 C 
BRANCH  22  23
ATOM     23  N   UNL A   1      33.188  30.177  27.313  1.00  0.00    -0.352 N 
ATOM     24  C   UNL A   1      34.283  30.907  27.712  1.00  0.00     0.251 C 
ATOM     25  H   UNL A   1      32.433  30.700  26.960  1.00  0.00     0.163 HD
ATOM     26  O   UNL A   1      34.226  32.134  27.718  1.00  0.00    -0.269 OA
BRANCH  24  27
ATOM     27  C   UNL A   1      35.503  30.208  28.169  1.00  0.00     0.039 A 
ATOM     28  C   UNL A   1      36.588  30.104  27.296  1.00  0.00     0.014 A 
ATOM     29  C   UNL A   1      35.588  29.687  29.463  1.00  0.00     0.014 A 
ATOM     30  C   UNL A   1      37.787  29.547  27.748  1.00  0.00     0.010 A 
ATOM     31  C   UNL A   1      36.803  29.196  29.933  1.00  0.00     0.010 A 
ATOM     32  C   UNL A   1      37.918  29.126  29.081  1.00  0.00    -0.014 A 
BRANCH  32  33
ATOM     33  C   UNL A   1      39.208  28.610  29.606  1.00  0.00     0.031 A 
ATOM     34  C   UNL A   1      39.848  29.265  30.801  1.00  0.00     0.074 A 
ATOM     35  C   UNL A   1      39.835  27.601  28.969  1.00  0.00     0.049 A 
ATOM     36  N   UNL A   1      41.014  29.034  31.347  1.00  0.00    -0.248 NA
ATOM     37  C   UNL A   1      39.084  30.343  31.444  1.00  0.00     0.031 C 
ATOM     38  C   UNL A   1      39.335  26.913  27.776  1.00  0.00     0.029 A 
ATOM     39  N   UNL A   1      41.036  26.988  29.223  1.00  0.00    -0.354 N 
ATOM     40  C   UNL A   1      41.126  29.941  32.395  1.00  0.00     0.074 A 
ATOM     41  C   UNL A   1      39.939  30.769  32.361  1.00  0.00     0.031 C 
ATOM     42  C   UNL A   1      40.214  25.965  27.413  1.00  0.00     0.029 A 
ATOM     43  C   UNL A   1      41.360  26.004  28.316  1.00  0.00     0.049 A 
ATOM     44  H   UNL A   1      41.613  27.228  29.985  1.00  0.00     0.167 HD
ATOM     45  C   UNL A   1      42.115  30.054  33.318  1.00  0.00     0.034 A 
ATOM     46  C   UNL A   1      42.460  25.233  28.214  1.00  0.00     0.034 A 
ATOM     47  C   UNL A   1      43.290  29.219  33.342  1.00  0.00     0.049 A 
ATOM     48  C   UNL A   1      43.559  25.395  29.236  1.00  0.00     0.074 A 
ATOM     49  C   UNL A   1      44.340  29.230  34.244  1.00  0.00     0.029 A 
ATOM     50  N   UNL A   1      43.574  28.220  32.419  1.00  0.00    -0.354 N 
ATOM     51  N   UNL A   1      43.633  26.234  30.244  1.00  0.00    -0.248 NA
ATOM     52  C   UNL A   1      44.715  24.498  29.114  1.00  0.00     0.031 C 
ATOM     53  C   UNL A   1      45.280  28.277  33.837  1.00  0.00     0.029 A 
ATOM     54  C   UNL A   1      44.788  27.623  32.720  1.00  0.00     0.049 A 
ATOM     55  H   UNL A   1      42.996  27.972  31.661  1.00  0.00     0.167 HD
ATOM     56  C   UNL A   1      44.829  25.941  30.893  1.00  0.00     0.074 A 
ATOM     57  C   UNL A   1      45.433  24.839  30.173  1.00  0.00     0.031 C 
ATOM     58  C   UNL A   1      45.378  26.526  31.988  1.00  0.00     0.034 A 
BRANCH  45  59
ATOM     59  C   UNL A   1      41.962  31.134  34.362  1.00  0.00     0.023 A 
ATOM     60  C   UNL A   1      42.328  32.466  34.097  1.00  0.00     0.031 A 
ATOM     61  C   UNL A   1      41.477  30.830  35.645  1.00  0.00     0.131 A 
ATOM     62  C   UNL A   1      42.280  33.424  35.120  1.00  0.00     0.055 A 
ATOM     63  C   UNL A   1      41.351  31.806  36.636  1.00  0.00     0.041 A 
ATOM     64  F   UNL A   1      41.129  29.572  35.964  1.00  0.00    -0.206 F 
ATOM     65  C   UNL A   1      41.769  33.109  36.382  1.00  0.00     0.022 A 
BRANCH  62  66
ATOM     66  S   UNL A   1      43.029  35.048  34.819  1.00  0.00     0.124 S 
ATOM     67  O   UNL A   1      42.128  35.604  33.812  1.00  0.00    -0.237 OA
ATOM     68  O   UNL A   1      42.976  35.670  36.137  1.00  0.00    -0.237 OA
ATOM     69  O   UNL A   1      44.369  34.723  34.335  1.00  0.00    -0.744 OA
ENDBRANCH  62  66
ENDBRANCH  45  59
BRANCH  46  70
ATOM     70  C   UNL A   1      42.599  24.250  27.102  1.00  0.00     0.023 A 
ATOM     71  C   UNL A   1      41.996  22.984  27.175  1.00  0.00     0.031 A 
ATOM     72  C   UNL A   1      43.386  24.540  25.973  1.00  0.00     0.131 A 
ATOM     73  C   UNL A   1      42.235  22.035  26.170  1.00  0.00     0.055 A 
ATOM     74  C   UNL A   1      43.576  23.612  24.948  1.00  0.00     0.041 A 
ATOM     75  F   UNL A   1      43.981  25.737  25.849  1.00  0.00    -0.206 F 
ATOM     76  C   UNL A   1      43.012  22.344  25.051  1.00  0.00     0.022 A 
BRANCH  73  77
ATOM     77  S   UNL A   1      41.598  20.353  26.397  1.00  0.00     0.124 S 
ATOM     78  O   UNL A   1      42.248  19.637  25.306  1.00  0.00    -0.237 OA
ATOM     79  O   UNL A   1      42.064  20.033  27.741  1.00  0.00    -0.237 OA
ATOM     80  O   UNL A   1      40.152  20.516  26.263  1.00  0.00    -0.744 OA
ENDBRANCH  73  77
ENDBRANCH  46  70
BRANCH  58  81
ATOM     81  C   UNL A   1      46.673  25.944  32.496  1.00  0.00     0.023 A 
ATOM     82  C   UNL A   1      47.916  26.325  31.962  1.00  0.00     0.031 A 
ATOM     83  C   UNL A   1      46.658  24.982  33.522  1.00  0.00     0.131 A 
ATOM     84  C   UNL A   1      49.090  25.706  32.417  1.00  0.00     0.055 A 
ATOM     85  C   UNL A   1      47.834  24.410  34.009  1.00  0.00     0.041 A 
ATOM     86  F   UNL A   1      45.498  24.582  34.066  1.00  0.00    -0.206 F 
ATOM     87  C   UNL A   1      49.059  24.762  33.447  1.00  0.00     0.022 A 
BRANCH  84  88
ATOM     88  S   UNL A   1      50.656  26.088  31.585  1.00  0.00     0.124 S 
ATOM     89  O   UNL A   1      51.630  25.842  32.644  1.00  0.00    -0.237 OA
ATOM     90  O   UNL A   1      50.662  25.135  30.480  1.00  0.00    -0.237 OA
ATOM     91  O   UNL A   1      50.505  27.488  31.194  1.00  0.00    -0.744 OA
ENDBRANCH  84  88
ENDBRANCH  58  81
ENDBRANCH  32  33
ENDBRANCH  24  27
ENDBRANCH  22  23
ENDBRANCH  21  22
ENDBRANCH  20  21
ENDBRANCH   1  20
TORSDOF 19
ENDMDL
