MODEL 1
REMARK VINA RESULT:     -11.0      0.000      0.000
REMARK SMILES C[C@@H](CC(=O)NCCCCNC(=O)c1ccc(-c2c3nc(c(-c4cc(S(=O)(=O)[O-])ccc4F)c4ccc([nH]4)c(-c4cc(S(=O)(=O)[O-])ccc4F)c4nc(c(-c5cc(S(=O)(=O)[O-])ccc5F)c5ccc2[nH]5)C=C4)C=C3)cc1)NC(=O)CN(C)c1ncccn1
REMARK SMILES IDX 7 1 6 2 4 3 5 4 3 6 2 7 1 8 77 9 78 10 79 12 80 13 81 14
REMARK SMILES IDX 82 15 83 16 84 17 88 18 85 19 87 20 86 21 8 22 9 23 10 24
REMARK SMILES IDX 11 25 12 26 13 28 14 29 15 30 76 31 16 32 75 33 17 34 18 35
REMARK SMILES IDX 19 36 69 37 20 38 74 39 68 40 70 41 21 42 73 43 67 44 66 45
REMARK SMILES IDX 22 47 54 48 34 49 53 50 35 51 38 52 52 53 71 54 36 55 37 56
REMARK SMILES IDX 51 58 72 59 39 60 23 61 24 62 32 63 25 64 31 65 33 66 30 67
REMARK SMILES IDX 26 68 27 69 28 70 29 71 55 72 56 73 64 74 57 75 63 76 65 77
REMARK SMILES IDX 62 78 58 79 59 80 60 81 61 82 40 83 41 84 49 85 42 86 48 87
REMARK SMILES IDX 50 88 47 89 43 90 44 91 45 92 46 93
REMARK H PARENT 6 5 77 11 11 27 70 46 38 57
REMARK Flexibility Score: inf
ROOT
ATOM      1  C   UNL A   1      33.333  20.481  24.666  1.00  0.00     0.116 C 
ENDROOT
BRANCH   1   2
ATOM      2  N   UNL A   1      32.123  20.896  25.347  1.00  0.00    -0.356 N 
ATOM      3  C   UNL A   1      31.426  22.059  25.259  1.00  0.00     0.222 C 
ATOM      4  O   UNL A   1      30.519  22.257  26.070  1.00  0.00    -0.275 OA
ATOM      5  H   UNL A   1      31.749  20.233  25.972  1.00  0.00     0.163 HD
BRANCH   3   6
ATOM      6  C   UNL A   1      31.731  23.087  24.186  1.00  0.00     0.124 C 
BRANCH   6   7
ATOM      7  C   UNL A   1      31.630  24.560  24.623  1.00  0.00     0.088 C 
ATOM      8  C   UNL A   1      32.294  24.806  25.972  1.00  0.00     0.031 C 
BRANCH   7   9
ATOM      9  N   UNL A   1      30.254  25.046  24.614  1.00  0.00    -0.352 N 
ATOM     10  C   UNL A   1      29.726  26.192  24.088  1.00  0.00     0.239 C 
ATOM     11  H   UNL A   1      29.604  24.455  25.057  1.00  0.00     0.163 HD
ATOM     12  O   UNL A   1      28.512  26.379  24.222  1.00  0.00    -0.273 OA
BRANCH  10  13
ATOM     13  C   UNL A   1      30.579  27.125  23.221  1.00  0.00     0.219 C 
BRANCH  13  14
ATOM     14  N   UNL A   1      30.995  28.379  23.842  1.00  0.00    -0.335 N 
ATOM     15  C   UNL A   1      30.189  29.569  23.677  1.00  0.00     0.147 C 
BRANCH  14  16
ATOM     16  C   UNL A   1      31.872  28.339  24.907  1.00  0.00     0.225 A 
ATOM     17  N   UNL A   1      31.416  28.647  26.136  1.00  0.00    -0.221 NA
ATOM     18  N   UNL A   1      33.158  28.044  24.678  1.00  0.00    -0.221 NA
ATOM     19  C   UNL A   1      32.301  28.646  27.153  1.00  0.00     0.117 A 
ATOM     20  C   UNL A   1      34.016  28.084  25.714  1.00  0.00     0.117 A 
ATOM     21  C   UNL A   1      33.635  28.378  26.997  1.00  0.00     0.040 A 
ENDBRANCH  14  16
ENDBRANCH  13  14
ENDBRANCH  10  13
ENDBRANCH   7   9
ENDBRANCH   6   7
ENDBRANCH   3   6
ENDBRANCH   1   2
BRANCH   1  22
ATOM     22  C   UNL A   1      34.570  20.928  25.446  1.00  0.00     0.023 C 
BRANCH  22  23
ATOM     23  C   UNL A   1      35.476  21.906  24.710  1.00  0.00     0.023 C 
BRANCH  23  24
ATOM     24  C   UNL A   1      36.798  22.180  25.400  1.00  0.00     0.116 C 
BRANCH  24  25
ATOM     25  N   UNL A   1      37.714  21.047  25.381  1.00  0.00    -0.352 N 
ATOM     26  C   UNL A   1      38.996  21.003  25.885  1.00  0.00     0.251 C 
ATOM     27  H   UNL A   1      37.379  20.221  24.961  1.00  0.00     0.163 HD
ATOM     28  O   UNL A   1      39.703  20.014  25.732  1.00  0.00    -0.269 OA
BRANCH  26  29
ATOM     29  C   UNL A   1      39.501  22.210  26.567  1.00  0.00     0.039 A 
ATOM     30  C   UNL A   1      40.511  22.082  27.521  1.00  0.00     0.014 A 
ATOM     31  C   UNL A   1      39.085  23.467  26.123  1.00  0.00     0.014 A 
ATOM     32  C   UNL A   1      41.174  23.227  27.970  1.00  0.00     0.010 A 
ATOM     33  C   UNL A   1      39.807  24.589  26.502  1.00  0.00     0.010 A 
ATOM     34  C   UNL A   1      40.861  24.482  27.425  1.00  0.00    -0.014 A 
BRANCH  34  35
ATOM     35  C   UNL A   1      41.581  25.722  27.813  1.00  0.00     0.031 A 
ATOM     36  C   UNL A   1      40.835  26.773  28.586  1.00  0.00     0.074 A 
ATOM     37  C   UNL A   1      42.834  25.957  27.374  1.00  0.00     0.049 A 
ATOM     38  N   UNL A   1      41.148  28.021  28.811  1.00  0.00    -0.248 NA
ATOM     39  C   UNL A   1      39.525  26.372  29.125  1.00  0.00     0.031 C 
ATOM     40  C   UNL A   1      43.650  25.029  26.590  1.00  0.00     0.029 A 
ATOM     41  N   UNL A   1      43.630  27.068  27.504  1.00  0.00    -0.354 N 
ATOM     42  C   UNL A   1      40.052  28.569  29.469  1.00  0.00     0.074 A 
ATOM     43  C   UNL A   1      39.049  27.528  29.556  1.00  0.00     0.031 C 
ATOM     44  C   UNL A   1      44.835  25.604  26.321  1.00  0.00     0.029 A 
ATOM     45  C   UNL A   1      44.842  26.959  26.863  1.00  0.00     0.049 A 
ATOM     46  H   UNL A   1      43.358  27.868  28.009  1.00  0.00     0.167 HD
ATOM     47  C   UNL A   1      39.902  29.821  29.969  1.00  0.00     0.034 A 
ATOM     48  C   UNL A   1      45.835  27.860  26.710  1.00  0.00     0.034 A 
ATOM     49  C   UNL A   1      40.936  30.823  29.919  1.00  0.00     0.049 A 
ATOM     50  C   UNL A   1      45.663  29.237  27.301  1.00  0.00     0.074 A 
ATOM     51  C   UNL A   1      40.925  32.103  30.443  1.00  0.00     0.029 A 
ATOM     52  N   UNL A   1      42.175  30.650  29.316  1.00  0.00    -0.354 N 
ATOM     53  N   UNL A   1      44.626  29.741  27.930  1.00  0.00    -0.248 NA
ATOM     54  C   UNL A   1      46.794  30.165  27.165  1.00  0.00     0.031 C 
ATOM     55  C   UNL A   1      42.141  32.717  30.123  1.00  0.00     0.029 A 
ATOM     56  C   UNL A   1      42.933  31.801  29.449  1.00  0.00     0.049 A 
ATOM     57  H   UNL A   1      42.471  29.829  28.860  1.00  0.00     0.167 HD
ATOM     58  C   UNL A   1      44.995  31.031  28.296  1.00  0.00     0.074 A 
ATOM     59  C   UNL A   1      46.348  31.230  27.816  1.00  0.00     0.031 C 
ATOM     60  C   UNL A   1      44.285  31.966  28.975  1.00  0.00     0.034 A 
BRANCH  47  61
ATOM     61  C   UNL A   1      38.569  30.164  30.584  1.00  0.00     0.023 A 
ATOM     62  C   UNL A   1      37.552  30.786  29.838  1.00  0.00     0.031 A 
ATOM     63  C   UNL A   1      38.333  29.925  31.948  1.00  0.00     0.131 A 
ATOM     64  C   UNL A   1      36.390  31.237  30.481  1.00  0.00     0.055 A 
ATOM     65  C   UNL A   1      37.133  30.293  32.562  1.00  0.00     0.041 A 
ATOM     66  F   UNL A   1      39.274  29.352  32.716  1.00  0.00    -0.206 F 
ATOM     67  C   UNL A   1      36.161  30.971  31.833  1.00  0.00     0.022 A 
BRANCH  64  68
ATOM     68  S   UNL A   1      35.264  32.320  29.561  1.00  0.00     0.124 S 
ATOM     69  O   UNL A   1      34.342  32.743  30.613  1.00  0.00    -0.237 OA
ATOM     70  O   UNL A   1      36.162  33.348  29.047  1.00  0.00    -0.237 OA
ATOM     71  O   UNL A   1      34.684  31.435  28.553  1.00  0.00    -0.744 OA
ENDBRANCH  64  68
ENDBRANCH  47  61
BRANCH  48  72
ATOM     72  C   UNL A   1      47.071  27.505  25.957  1.00  0.00     0.023 A 
ATOM     73  C   UNL A   1      47.190  27.799  24.590  1.00  0.00     0.031 A 
ATOM     74  C   UNL A   1      48.137  26.837  26.583  1.00  0.00     0.131 A 
ATOM     75  C   UNL A   1      48.329  27.389  23.881  1.00  0.00     0.055 A 
ATOM     76  C   UNL A   1      49.288  26.468  25.884  1.00  0.00     0.041 A 
ATOM     77  F   UNL A   1      48.078  26.539  27.891  1.00  0.00    -0.206 F 
ATOM     78  C   UNL A   1      49.384  26.734  24.521  1.00  0.00     0.022 A 
BRANCH  75  79
ATOM     79  S   UNL A   1      48.380  27.659  22.088  1.00  0.00     0.124 S 
ATOM     80  O   UNL A   1      48.571  26.302  21.588  1.00  0.00    -0.237 OA
ATOM     81  O   UNL A   1      47.075  28.259  21.836  1.00  0.00    -0.237 OA
ATOM     82  O   UNL A   1      49.521  28.556  21.912  1.00  0.00    -0.744 OA
ENDBRANCH  75  79
ENDBRANCH  48  72
BRANCH  60  83
ATOM     83  C   UNL A   1      44.985  33.256  29.306  1.00  0.00     0.023 A 
ATOM     84  C   UNL A   1      44.907  34.378  28.465  1.00  0.00     0.031 A 
ATOM     85  C   UNL A   1      45.715  33.364  30.502  1.00  0.00     0.131 A 
ATOM     86  C   UNL A   1      45.575  35.559  28.822  1.00  0.00     0.055 A 
ATOM     87  C   UNL A   1      46.343  34.554  30.871  1.00  0.00     0.041 A 
ATOM     88  F   UNL A   1      45.815  32.318  31.337  1.00  0.00    -0.206 F 
ATOM     89  C   UNL A   1      46.279  35.658  30.026  1.00  0.00     0.022 A 
BRANCH  86  90
ATOM     90  S   UNL A   1      45.539  36.964  27.677  1.00  0.00     0.124 S 
ATOM     91  O   UNL A   1      44.177  36.896  27.156  1.00  0.00    -0.237 OA
ATOM     92  O   UNL A   1      45.831  38.093  28.553  1.00  0.00    -0.237 OA
ATOM     93  O   UNL A   1      46.589  36.647  26.710  1.00  0.00    -0.744 OA
ENDBRANCH  86  90
ENDBRANCH  60  83
ENDBRANCH  34  35
ENDBRANCH  26  29
ENDBRANCH  24  25
ENDBRANCH  23  24
ENDBRANCH  22  23
ENDBRANCH   1  22
TORSDOF 19
ENDMDL
MODEL 2
REMARK VINA RESULT:     -11.0      5.817     10.772
REMARK SMILES C[C@@H](CC(=O)NCCCCNC(=O)c1ccc(-c2c3nc(c(-c4cc(S(=O)(=O)[O-])ccc4F)c4ccc([nH]4)c(-c4cc(S(=O)(=O)[O-])ccc4F)c4nc(c(-c5cc(S(=O)(=O)[O-])ccc5F)c5ccc2[nH]5)C=C4)C=C3)cc1)NC(=O)CN(C)c1ncccn1
REMARK SMILES IDX 7 1 6 2 4 3 5 4 3 6 2 7 1 8 77 9 78 10 79 12 80 13 81 14
REMARK SMILES IDX 82 15 83 16 84 17 88 18 85 19 87 20 86 21 8 22 9 23 10 24
REMARK SMILES IDX 11 25 12 26 13 28 14 29 15 30 76 31 16 32 75 33 17 34 18 35
REMARK SMILES IDX 19 36 69 37 20 38 74 39 68 40 70 41 21 42 73 43 67 44 66 45
REMARK SMILES IDX 22 47 54 48 34 49 53 50 35 51 38 52 52 53 71 54 36 55 37 56
REMARK SMILES IDX 51 58 72 59 39 60 23 61 24 62 32 63 25 64 31 65 33 66 30 67
REMARK SMILES IDX 26 68 27 69 28 70 29 71 55 72 56 73 64 74 57 75 63 76 65 77
REMARK SMILES IDX 62 78 58 79 59 80 60 81 61 82 40 83 41 84 49 85 42 86 48 87
REMARK SMILES IDX 50 88 47 89 43 90 44 91 45 92 46 93
REMARK H PARENT 6 5 77 11 11 27 70 46 38 57
REMARK Flexibility Score: inf
ROOT
ATOM      1  C   UNL A   1      33.616  28.578  27.267  1.00  0.00     0.116 C 
ENDROOT
BRANCH   1   2
ATOM      2  N   UNL A   1      33.902  28.102  25.929  1.00  0.00    -0.356 N 
ATOM      3  C   UNL A   1      33.530  26.950  25.313  1.00  0.00     0.222 C 
ATOM      4  O   UNL A   1      34.043  26.680  24.224  1.00  0.00    -0.275 OA
ATOM      5  H   UNL A   1      34.453  28.708  25.380  1.00  0.00     0.163 HD
BRANCH   3   6
ATOM      6  C   UNL A   1      32.502  26.019  25.926  1.00  0.00     0.124 C 
BRANCH   6   7
ATOM      7  C   UNL A   1      31.178  25.880  25.153  1.00  0.00     0.088 C 
ATOM      8  C   UNL A   1      30.403  24.633  25.559  1.00  0.00     0.031 C 
BRANCH   7   9
ATOM      9  N   UNL A   1      31.375  25.934  23.708  1.00  0.00    -0.352 N 
ATOM     10  C   UNL A   1      31.056  26.914  22.810  1.00  0.00     0.239 C 
ATOM     11  H   UNL A   1      31.804  25.138  23.319  1.00  0.00     0.163 HD
ATOM     12  O   UNL A   1      31.322  26.711  21.620  1.00  0.00    -0.273 OA
BRANCH  10  13
ATOM     13  C   UNL A   1      30.543  28.278  23.285  1.00  0.00     0.219 C 
BRANCH  13  14
ATOM     14  N   UNL A   1      29.149  28.584  22.975  1.00  0.00    -0.335 N 
ATOM     15  C   UNL A   1      28.092  27.745  23.495  1.00  0.00     0.147 C 
BRANCH  14  16
ATOM     16  C   UNL A   1      28.818  29.865  22.580  1.00  0.00     0.225 A 
ATOM     17  N   UNL A   1      28.532  30.782  23.524  1.00  0.00    -0.221 NA
ATOM     18  N   UNL A   1      28.742  30.142  21.272  1.00  0.00    -0.221 NA
ATOM     19  C   UNL A   1      28.166  32.012  23.113  1.00  0.00     0.117 A 
ATOM     20  C   UNL A   1      28.344  31.373  20.903  1.00  0.00     0.117 A 
ATOM     21  C   UNL A   1      28.043  32.368  21.796  1.00  0.00     0.040 A 
ENDBRANCH  14  16
ENDBRANCH  13  14
ENDBRANCH  10  13
ENDBRANCH   7   9
ENDBRANCH   6   7
ENDBRANCH   3   6
ENDBRANCH   1   2
BRANCH   1  22
ATOM     22  C   UNL A   1      32.433  29.546  27.252  1.00  0.00     0.023 C 
BRANCH  22  23
ATOM     23  C   UNL A   1      32.730  30.915  26.653  1.00  0.00     0.023 C 
BRANCH  23  24
ATOM     24  C   UNL A   1      33.451  31.867  27.588  1.00  0.00     0.116 C 
BRANCH  24  25
ATOM     25  N   UNL A   1      32.848  33.193  27.651  1.00  0.00    -0.352 N 
ATOM     26  C   UNL A   1      33.207  34.233  28.479  1.00  0.00     0.251 C 
ATOM     27  H   UNL A   1      32.101  33.363  27.032  1.00  0.00     0.163 HD
ATOM     28  O   UNL A   1      32.566  35.277  28.500  1.00  0.00    -0.269 OA
BRANCH  26  29
ATOM     29  C   UNL A   1      34.358  34.020  29.379  1.00  0.00     0.039 A 
ATOM     30  C   UNL A   1      34.163  33.358  30.591  1.00  0.00     0.014 A 
ATOM     31  C   UNL A   1      35.642  34.329  28.926  1.00  0.00     0.014 A 
ATOM     32  C   UNL A   1      35.274  32.920  31.316  1.00  0.00     0.010 A 
ATOM     33  C   UNL A   1      36.738  33.813  29.601  1.00  0.00     0.010 A 
ATOM     34  C   UNL A   1      36.567  33.099  30.800  1.00  0.00    -0.014 A 
BRANCH  34  35
ATOM     35  C   UNL A   1      37.780  32.592  31.492  1.00  0.00     0.031 A 
ATOM     36  C   UNL A   1      38.552  31.470  30.856  1.00  0.00     0.074 A 
ATOM     37  C   UNL A   1      38.109  33.038  32.721  1.00  0.00     0.049 A 
ATOM     38  N   UNL A   1      39.469  30.694  31.369  1.00  0.00    -0.248 NA
ATOM     39  C   UNL A   1      38.192  31.143  29.467  1.00  0.00     0.031 C 
ATOM     40  C   UNL A   1      37.419  34.100  33.455  1.00  0.00     0.029 A 
ATOM     41  N   UNL A   1      39.098  32.629  33.581  1.00  0.00    -0.354 N 
ATOM     42  C   UNL A   1      39.756  29.753  30.387  1.00  0.00     0.074 A 
ATOM     43  C   UNL A   1      38.875  30.028  29.270  1.00  0.00     0.031 C 
ATOM     44  C   UNL A   1      38.013  34.267  34.649  1.00  0.00     0.029 A 
ATOM     45  C   UNL A   1      39.088  33.290  34.789  1.00  0.00     0.049 A 
ATOM     46  H   UNL A   1      39.751  31.930  33.356  1.00  0.00     0.167 HD
ATOM     47  C   UNL A   1      40.680  28.761  30.408  1.00  0.00     0.034 A 
ATOM     48  C   UNL A   1      39.845  33.109  35.890  1.00  0.00     0.034 A 
ATOM     49  C   UNL A   1      41.583  28.541  31.508  1.00  0.00     0.049 A 
ATOM     50  C   UNL A   1      40.890  32.021  35.882  1.00  0.00     0.074 A 
ATOM     51  C   UNL A   1      42.600  27.611  31.620  1.00  0.00     0.029 A 
ATOM     52  N   UNL A   1      41.583  29.275  32.688  1.00  0.00    -0.354 N 
ATOM     53  N   UNL A   1      41.159  31.143  34.943  1.00  0.00    -0.248 NA
ATOM     54  C   UNL A   1      41.734  31.900  37.079  1.00  0.00     0.031 C 
ATOM     55  C   UNL A   1      43.188  27.755  32.882  1.00  0.00     0.029 A 
ATOM     56  C   UNL A   1      42.577  28.813  33.534  1.00  0.00     0.049 A 
ATOM     57  H   UNL A   1      40.966  30.015  32.892  1.00  0.00     0.167 HD
ATOM     58  C   UNL A   1      42.228  30.391  35.422  1.00  0.00     0.074 A 
ATOM     59  C   UNL A   1      42.553  30.915  36.733  1.00  0.00     0.031 C 
ATOM     60  C   UNL A   1      42.889  29.366  34.830  1.00  0.00     0.034 A 
BRANCH  47  61
ATOM     61  C   UNL A   1      40.731  27.840  29.215  1.00  0.00     0.023 A 
ATOM     62  C   UNL A   1      41.672  28.019  28.185  1.00  0.00     0.031 A 
ATOM     63  C   UNL A   1      39.788  26.808  29.071  1.00  0.00     0.131 A 
ATOM     64  C   UNL A   1      41.587  27.248  27.018  1.00  0.00     0.055 A 
ATOM     65  C   UNL A   1      39.768  25.981  27.946  1.00  0.00     0.041 A 
ATOM     66  F   UNL A   1      38.852  26.601  30.012  1.00  0.00    -0.206 F 
ATOM     67  C   UNL A   1      40.657  26.212  26.901  1.00  0.00     0.022 A 
BRANCH  64  68
ATOM     68  S   UNL A   1      42.596  27.731  25.592  1.00  0.00     0.124 S 
ATOM     69  O   UNL A   1      41.847  28.876  25.078  1.00  0.00    -0.237 OA
ATOM     70  O   UNL A   1      43.885  28.034  26.204  1.00  0.00    -0.237 OA
ATOM     71  O   UNL A   1      42.572  26.546  24.737  1.00  0.00    -0.744 OA
ENDBRANCH  64  68
ENDBRANCH  47  61
BRANCH  48  72
ATOM     72  C   UNL A   1      39.642  33.957  37.098  1.00  0.00     0.023 A 
ATOM     73  C   UNL A   1      38.980  33.454  38.228  1.00  0.00     0.031 A 
ATOM     74  C   UNL A   1      40.076  35.294  37.128  1.00  0.00     0.131 A 
ATOM     75  C   UNL A   1      38.729  34.292  39.325  1.00  0.00     0.055 A 
ATOM     76  C   UNL A   1      39.864  36.113  38.240  1.00  0.00     0.041 A 
ATOM     77  F   UNL A   1      40.723  35.822  36.078  1.00  0.00    -0.206 F 
ATOM     78  C   UNL A   1      39.176  35.616  39.343  1.00  0.00     0.022 A 
BRANCH  75  79
ATOM     79  S   UNL A   1      37.744  33.646  40.704  1.00  0.00     0.124 S 
ATOM     80  O   UNL A   1      38.694  32.748  41.353  1.00  0.00    -0.237 OA
ATOM     81  O   UNL A   1      37.411  34.864  41.434  1.00  0.00    -0.237 OA
ATOM     82  O   UNL A   1      36.619  32.991  40.041  1.00  0.00    -0.744 OA
ENDBRANCH  75  79
ENDBRANCH  48  72
BRANCH  60  83
ATOM     83  C   UNL A   1      44.074  28.797  35.561  1.00  0.00     0.023 A 
ATOM     84  C   UNL A   1      43.934  27.787  36.527  1.00  0.00     0.031 A 
ATOM     85  C   UNL A   1      45.366  29.258  35.255  1.00  0.00     0.131 A 
ATOM     86  C   UNL A   1      45.073  27.288  37.176  1.00  0.00     0.055 A 
ATOM     87  C   UNL A   1      46.498  28.728  35.875  1.00  0.00     0.041 A 
ATOM     88  F   UNL A   1      45.548  30.220  34.337  1.00  0.00    -0.206 F 
ATOM     89  C   UNL A   1      46.354  27.741  36.846  1.00  0.00     0.022 A 
BRANCH  86  90
ATOM     90  S   UNL A   1      44.861  26.052  38.486  1.00  0.00     0.124 S 
ATOM     91  O   UNL A   1      44.092  25.016  37.804  1.00  0.00    -0.237 OA
ATOM     92  O   UNL A   1      46.238  25.708  38.821  1.00  0.00    -0.237 OA
ATOM     93  O   UNL A   1      44.136  26.777  39.529  1.00  0.00    -0.744 OA
ENDBRANCH  86  90
ENDBRANCH  60  83
ENDBRANCH  34  35
ENDBRANCH  26  29
ENDBRANCH  24  25
ENDBRANCH  23  24
ENDBRANCH  22  23
ENDBRANCH   1  22
TORSDOF 19
ENDMDL
MODEL 3
REMARK VINA RESULT:     -10.6      1.668      2.376
REMARK SMILES C[C@@H](CC(=O)NCCCCNC(=O)c1ccc(-c2c3nc(c(-c4cc(S(=O)(=O)[O-])ccc4F)c4ccc([nH]4)c(-c4cc(S(=O)(=O)[O-])ccc4F)c4nc(c(-c5cc(S(=O)(=O)[O-])ccc5F)c5ccc2[nH]5)C=C4)C=C3)cc1)NC(=O)CN(C)c1ncccn1
REMARK SMILES IDX 7 1 6 2 4 3 5 4 3 6 2 7 1 8 77 9 78 10 79 12 80 13 81 14
REMARK SMILES IDX 82 15 83 16 84 17 88 18 85 19 87 20 86 21 8 22 9 23 10 24
REMARK SMILES IDX 11 25 12 26 13 28 14 29 15 30 76 31 16 32 75 33 17 34 18 35
REMARK SMILES IDX 19 36 69 37 20 38 74 39 68 40 70 41 21 42 73 43 67 44 66 45
REMARK SMILES IDX 22 47 54 48 34 49 53 50 35 51 38 52 52 53 71 54 36 55 37 56
REMARK SMILES IDX 51 58 72 59 39 60 23 61 24 62 32 63 25 64 31 65 33 66 30 67
REMARK SMILES IDX 26 68 27 69 28 70 29 71 55 72 56 73 64 74 57 75 63 76 65 77
REMARK SMILES IDX 62 78 58 79 59 80 60 81 61 82 40 83 41 84 49 85 42 86 48 87
REMARK SMILES IDX 50 88 47 89 43 90 44 91 45 92 46 93
REMARK H PARENT 6 5 77 11 11 27 70 46 38 57
REMARK Flexibility Score: inf
ROOT
ATOM      1  C   UNL A   1      33.254  21.803  23.793  1.00  0.00     0.116 C 
ENDROOT
BRANCH   1   2
ATOM      2  N   UNL A   1      32.229  22.173  24.748  1.00  0.00    -0.356 N 
ATOM      3  C   UNL A   1      31.251  23.111  24.661  1.00  0.00     0.222 C 
ATOM      4  O   UNL A   1      30.601  23.370  25.676  1.00  0.00    -0.275 OA
ATOM      5  H   UNL A   1      32.246  21.666  25.593  1.00  0.00     0.163 HD
BRANCH   3   6
ATOM      6  C   UNL A   1      30.942  23.816  23.354  1.00  0.00     0.124 C 
BRANCH   6   7
ATOM      7  C   UNL A   1      31.724  25.116  23.093  1.00  0.00     0.088 C 
ATOM      8  C   UNL A   1      32.745  24.958  21.974  1.00  0.00     0.031 C 
BRANCH   7   9
ATOM      9  N   UNL A   1      32.345  25.639  24.306  1.00  0.00    -0.352 N 
ATOM     10  C   UNL A   1      32.044  26.751  25.042  1.00  0.00     0.239 C 
ATOM     11  H   UNL A   1      33.101  25.107  24.646  1.00  0.00     0.163 HD
ATOM     12  O   UNL A   1      32.738  26.984  26.039  1.00  0.00    -0.273 OA
BRANCH  10  13
ATOM     13  C   UNL A   1      30.792  27.580  24.738  1.00  0.00     0.219 C 
BRANCH  13  14
ATOM     14  N   UNL A   1      30.984  28.743  23.874  1.00  0.00    -0.335 N 
ATOM     15  C   UNL A   1      32.146  28.822  23.018  1.00  0.00     0.147 C 
BRANCH  14  16
ATOM     16  C   UNL A   1      29.891  29.523  23.551  1.00  0.00     0.225 A 
ATOM     17  N   UNL A   1      29.856  30.799  23.978  1.00  0.00    -0.221 NA
ATOM     18  N   UNL A   1      28.880  28.971  22.869  1.00  0.00    -0.221 NA
ATOM     19  C   UNL A   1      28.759  31.527  23.691  1.00  0.00     0.117 A 
ATOM     20  C   UNL A   1      27.789  29.722  22.629  1.00  0.00     0.117 A 
ATOM     21  C   UNL A   1      27.674  31.030  23.018  1.00  0.00     0.040 A 
ENDBRANCH  14  16
ENDBRANCH  13  14
ENDBRANCH  10  13
ENDBRANCH   7   9
ENDBRANCH   6   7
ENDBRANCH   3   6
ENDBRANCH   1   2
BRANCH   1  22
ATOM     22  C   UNL A   1      34.528  21.361  24.514  1.00  0.00     0.023 C 
BRANCH  22  23
ATOM     23  C   UNL A   1      35.661  22.378  24.500  1.00  0.00     0.023 C 
BRANCH  23  24
ATOM     24  C   UNL A   1      36.632  22.255  25.658  1.00  0.00     0.116 C 
BRANCH  24  25
ATOM     25  N   UNL A   1      37.598  21.175  25.499  1.00  0.00    -0.352 N 
ATOM     26  C   UNL A   1      38.920  21.176  25.885  1.00  0.00     0.251 C 
ATOM     27  H   UNL A   1      37.267  20.353  25.067  1.00  0.00     0.163 HD
ATOM     28  O   UNL A   1      39.659  20.235  25.618  1.00  0.00    -0.269 OA
BRANCH  26  29
ATOM     29  C   UNL A   1      39.425  22.375  26.581  1.00  0.00     0.039 A 
ATOM     30  C   UNL A   1      40.406  22.231  27.563  1.00  0.00     0.014 A 
ATOM     31  C   UNL A   1      39.040  23.638  26.128  1.00  0.00     0.014 A 
ATOM     32  C   UNL A   1      41.074  23.365  28.031  1.00  0.00     0.010 A 
ATOM     33  C   UNL A   1      39.768  24.749  26.528  1.00  0.00     0.010 A 
ATOM     34  C   UNL A   1      40.795  24.625  27.480  1.00  0.00    -0.014 A 
BRANCH  34  35
ATOM     35  C   UNL A   1      41.523  25.854  27.889  1.00  0.00     0.031 A 
ATOM     36  C   UNL A   1      40.767  26.923  28.629  1.00  0.00     0.074 A 
ATOM     37  C   UNL A   1      42.795  26.064  27.497  1.00  0.00     0.049 A 
ATOM     38  N   UNL A   1      41.094  28.166  28.859  1.00  0.00    -0.248 NA
ATOM     39  C   UNL A   1      39.431  26.549  29.119  1.00  0.00     0.031 C 
ATOM     40  C   UNL A   1      43.623  25.116  26.749  1.00  0.00     0.029 A 
ATOM     41  N   UNL A   1      43.606  27.161  27.652  1.00  0.00    -0.354 N 
ATOM     42  C   UNL A   1      39.985  28.738  29.473  1.00  0.00     0.074 A 
ATOM     43  C   UNL A   1      38.960  27.715  29.527  1.00  0.00     0.031 C 
ATOM     44  C   UNL A   1      44.828  25.668  26.522  1.00  0.00     0.029 A 
ATOM     45  C   UNL A   1      44.840  27.026  27.058  1.00  0.00     0.049 A 
ATOM     46  H   UNL A   1      43.330  27.968  28.142  1.00  0.00     0.167 HD
ATOM     47  C   UNL A   1      39.839  29.994  29.961  1.00  0.00     0.034 A 
ATOM     48  C   UNL A   1      45.853  27.907  26.938  1.00  0.00     0.034 A 
ATOM     49  C   UNL A   1      40.893  30.977  29.945  1.00  0.00     0.049 A 
ATOM     50  C   UNL A   1      45.685  29.291  27.516  1.00  0.00     0.074 A 
ATOM     51  C   UNL A   1      40.886  32.260  30.463  1.00  0.00     0.029 A 
ATOM     52  N   UNL A   1      42.150  30.778  29.391  1.00  0.00    -0.354 N 
ATOM     53  N   UNL A   1      44.634  29.817  28.102  1.00  0.00    -0.248 NA
ATOM     54  C   UNL A   1      46.837  30.197  27.419  1.00  0.00     0.031 C 
ATOM     55  C   UNL A   1      42.124  32.850  30.186  1.00  0.00     0.029 A 
ATOM     56  C   UNL A   1      42.924  31.916  29.548  1.00  0.00     0.049 A 
ATOM     57  H   UNL A   1      42.448  29.949  28.950  1.00  0.00     0.167 HD
ATOM     58  C   UNL A   1      45.014  31.102  28.477  1.00  0.00     0.074 A 
ATOM     59  C   UNL A   1      46.387  31.274  28.048  1.00  0.00     0.031 C 
ATOM     60  C   UNL A   1      44.296  32.054  29.124  1.00  0.00     0.034 A 
BRANCH  47  61
ATOM     61  C   UNL A   1      38.491  30.365  30.523  1.00  0.00     0.023 A 
ATOM     62  C   UNL A   1      37.498  30.961  29.725  1.00  0.00     0.031 A 
ATOM     63  C   UNL A   1      38.213  30.179  31.888  1.00  0.00     0.131 A 
ATOM     64  C   UNL A   1      36.320  31.440  30.316  1.00  0.00     0.055 A 
ATOM     65  C   UNL A   1      36.998  30.574  32.452  1.00  0.00     0.041 A 
ATOM     66  F   UNL A   1      39.129  29.633  32.704  1.00  0.00    -0.206 F 
ATOM     67  C   UNL A   1      36.051  31.227  31.670  1.00  0.00     0.022 A 
BRANCH  64  68
ATOM     68  S   UNL A   1      35.226  32.491  29.324  1.00  0.00     0.124 S 
ATOM     69  O   UNL A   1      36.189  33.236  28.516  1.00  0.00    -0.237 OA
ATOM     70  O   UNL A   1      34.412  31.515  28.608  1.00  0.00    -0.237 OA
ATOM     71  O   UNL A   1      34.515  33.286  30.323  1.00  0.00    -0.744 OA
ENDBRANCH  64  68
ENDBRANCH  47  61
BRANCH  48  72
ATOM     72  C   UNL A   1      47.110  27.526  26.235  1.00  0.00     0.023 A 
ATOM     73  C   UNL A   1      47.283  27.803  24.869  1.00  0.00     0.031 A 
ATOM     74  C   UNL A   1      48.143  26.850  26.906  1.00  0.00     0.131 A 
ATOM     75  C   UNL A   1      48.440  27.367  24.207  1.00  0.00     0.055 A 
ATOM     76  C   UNL A   1      49.313  26.456  26.253  1.00  0.00     0.041 A 
ATOM     77  F   UNL A   1      48.033  26.569  28.214  1.00  0.00    -0.206 F 
ATOM     78  C   UNL A   1      49.462  26.705  24.892  1.00  0.00     0.022 A 
BRANCH  75  79
ATOM     79  S   UNL A   1      48.560  27.617  22.414  1.00  0.00     0.124 S 
ATOM     80  O   UNL A   1      49.778  28.413  22.305  1.00  0.00    -0.237 OA
ATOM     81  O   UNL A   1      48.644  26.246  21.924  1.00  0.00    -0.237 OA
ATOM     82  O   UNL A   1      47.323  28.321  22.085  1.00  0.00    -0.744 OA
ENDBRANCH  75  79
ENDBRANCH  48  72
BRANCH  60  83
ATOM     83  C   UNL A   1      45.007  33.332  29.475  1.00  0.00     0.023 A 
ATOM     84  C   UNL A   1      45.708  33.483  30.683  1.00  0.00     0.031 A 
ATOM     85  C   UNL A   1      45.004  34.402  28.564  1.00  0.00     0.131 A 
ATOM     86  C   UNL A   1      46.357  34.695  30.959  1.00  0.00     0.055 A 
ATOM     87  C   UNL A   1      45.687  35.589  28.827  1.00  0.00     0.041 A 
ATOM     88  F   UNL A   1      44.350  34.301  27.396  1.00  0.00    -0.206 F 
ATOM     89  C   UNL A   1      46.364  35.742  30.033  1.00  0.00     0.022 A 
BRANCH  86  90
ATOM     90  S   UNL A   1      47.176  34.901  32.564  1.00  0.00     0.124 S 
ATOM     91  O   UNL A   1      48.586  34.811  32.199  1.00  0.00    -0.237 OA
ATOM     92  O   UNL A   1      46.710  36.218  32.989  1.00  0.00    -0.237 OA
ATOM     93  O   UNL A   1      46.667  33.783  33.357  1.00  0.00    -0.744 OA
ENDBRANCH  86  90
ENDBRANCH  60  83
ENDBRANCH  34  35
ENDBRANCH  26  29
ENDBRANCH  24  25
ENDBRANCH  23  24
ENDBRANCH  22  23
ENDBRANCH   1  22
TORSDOF 19
ENDMDL
