MODEL 1
REMARK VINA RESULT:     -12.4      0.000      0.000
REMARK SMILES CCOC(=O)c1ccc(NC(=O)[C@H]2CC=CC[C@@]2(C)C(=O)NCCCCNC(=O)c2ccc(-c3c4nc(c(-c5cc(S(=O)(=O)[O-])ccc5F)c5ccc([nH]5)c(-c5cc(S(=O)(=O)[O-])ccc5F)c5nc(c(-c6cc(S(=O)(=O)[O-])ccc6F)c6ccc3[nH]6)C=C5)C=C4)cc2)cc1
REMARK SMILES IDX 23 1 22 2 20 3 21 4 18 6 13 7 14 8 15 9 17 10 19 11 16 12
REMARK SMILES IDX 11 13 10 14 12 16 9 17 6 18 7 19 94 20 8 21 93 22 4 23 5 24
REMARK SMILES IDX 3 25 2 26 1 27 24 28 25 29 26 30 27 31 28 32 29 34 30 35
REMARK SMILES IDX 31 36 92 37 32 38 91 39 33 40 34 41 35 42 85 43 36 44 90 45
REMARK SMILES IDX 84 46 86 47 37 48 89 49 83 50 82 51 38 53 70 54 50 55 69 56
REMARK SMILES IDX 51 57 54 58 68 59 87 60 52 61 53 62 67 64 88 65 55 66 39 67
REMARK SMILES IDX 40 68 48 69 41 70 47 71 49 72 46 73 42 74 43 75 44 76 45 77
REMARK SMILES IDX 71 78 72 79 80 80 73 81 79 82 81 83 78 84 74 85 75 86 76 87
REMARK SMILES IDX 77 88 56 89 57 90 65 91 58 92 64 93 66 94 63 95 59 96 60 97
REMARK SMILES IDX 61 98 62 99
REMARK H PARENT 22 5 10 15 27 33 86 52 54 63
REMARK Flexibility Score: inf
ROOT
ATOM      1  C   UNL A   1      35.106  23.896  25.169  1.00  0.00     0.116 C 
ENDROOT
BRANCH   1   2
ATOM      2  N   UNL A   1      34.556  25.097  25.774  1.00  0.00    -0.356 N 
ATOM      3  C   UNL A   1      33.305  25.632  25.834  1.00  0.00     0.227 C 
ATOM      4  O   UNL A   1      33.248  26.735  26.377  1.00  0.00    -0.274 OA
ATOM      5  H   UNL A   1      35.233  25.640  26.240  1.00  0.00     0.163 HD
BRANCH   3   6
ATOM      6  C   UNL A   1      32.063  24.936  25.225  1.00  0.00     0.062 C 
ATOM      7  C   UNL A   1      32.125  24.814  23.634  1.00  0.00     0.098 C 
ATOM      8  C   UNL A   1      32.480  23.415  23.078  1.00  0.00     0.041 C 
ATOM      9  C   UNL A   1      31.912  22.269  23.837  1.00  0.00    -0.030 C 
ATOM     10  C   UNL A   1      31.916  23.564  25.959  1.00  0.00     0.044 C 
ATOM     11  C   UNL A   1      30.814  25.808  25.538  1.00  0.00     0.023 C 
ATOM     12  C   UNL A   1      31.659  22.342  25.143  1.00  0.00    -0.030 C 
BRANCH   7  13
ATOM     13  C   UNL A   1      33.014  25.823  22.877  1.00  0.00     0.228 C 
ATOM     14  N   UNL A   1      32.806  27.165  22.812  1.00  0.00    -0.326 N 
ATOM     15  H   UNL A   1      33.627  27.644  22.552  1.00  0.00     0.169 HD
ATOM     16  O   UNL A   1      34.001  25.432  22.237  1.00  0.00    -0.274 OA
BRANCH  14  17
ATOM     17  C   UNL A   1      31.739  28.051  23.013  1.00  0.00     0.041 A 
ATOM     18  C   UNL A   1      29.460  29.669  23.300  1.00  0.00     0.060 A 
ATOM     19  C   UNL A   1      30.590  29.903  24.078  1.00  0.00     0.018 A 
ATOM     20  C   UNL A   1      29.438  28.619  22.388  1.00  0.00     0.018 A 
ATOM     21  C   UNL A   1      31.702  29.070  23.958  1.00  0.00     0.027 A 
ATOM     22  C   UNL A   1      30.584  27.826  22.238  1.00  0.00     0.027 A 
BRANCH  18  23
ATOM     23  C   UNL A   1      28.310  30.562  23.499  1.00  0.00     0.338 C 
ATOM     24  O   UNL A   1      27.162  30.170  23.590  1.00  0.00    -0.246 OA
BRANCH  23  25
ATOM     25  O   UNL A   1      28.743  31.838  23.356  1.00  0.00    -0.462 OA
BRANCH  25  26
ATOM     26  C   UNL A   1      28.036  32.598  22.365  1.00  0.00     0.230 C 
ATOM     27  C   UNL A   1      28.325  32.050  20.975  1.00  0.00     0.049 C 
ENDBRANCH  25  26
ENDBRANCH  23  25
ENDBRANCH  18  23
ENDBRANCH  14  17
ENDBRANCH   7  13
ENDBRANCH   3   6
ENDBRANCH   1   2
BRANCH   1  28
ATOM     28  C   UNL A   1      35.367  22.791  26.187  1.00  0.00     0.023 C 
BRANCH  28  29
ATOM     29  C   UNL A   1      35.871  21.473  25.607  1.00  0.00     0.023 C 
BRANCH  29  30
ATOM     30  C   UNL A   1      37.211  21.550  24.886  1.00  0.00     0.116 C 
BRANCH  30  31
ATOM     31  N   UNL A   1      38.151  20.530  25.328  1.00  0.00    -0.352 N 
ATOM     32  C   UNL A   1      39.355  20.676  25.975  1.00  0.00     0.251 C 
ATOM     33  H   UNL A   1      37.885  19.602  25.137  1.00  0.00     0.163 HD
ATOM     34  O   UNL A   1      40.082  19.700  26.132  1.00  0.00    -0.269 OA
BRANCH  32  35
ATOM     35  C   UNL A   1      39.781  22.013  26.442  1.00  0.00     0.039 A 
ATOM     36  C   UNL A   1      40.916  22.116  27.247  1.00  0.00     0.014 A 
ATOM     37  C   UNL A   1      39.081  23.161  26.062  1.00  0.00     0.014 A 
ATOM     38  C   UNL A   1      41.394  23.378  27.607  1.00  0.00     0.010 A 
ATOM     39  C   UNL A   1      39.607  24.418  26.350  1.00  0.00     0.010 A 
ATOM     40  C   UNL A   1      40.769  24.541  27.125  1.00  0.00    -0.014 A 
BRANCH  40  41
ATOM     41  C   UNL A   1      41.322  25.890  27.420  1.00  0.00     0.031 A 
ATOM     42  C   UNL A   1      42.684  26.275  26.902  1.00  0.00     0.074 A 
ATOM     43  C   UNL A   1      40.628  26.740  28.205  1.00  0.00     0.049 A 
ATOM     44  N   UNL A   1      43.361  27.377  27.103  1.00  0.00    -0.248 NA
ATOM     45  C   UNL A   1      43.387  25.284  26.072  1.00  0.00     0.031 C 
ATOM     46  C   UNL A   1      39.320  26.459  28.805  1.00  0.00     0.029 A 
ATOM     47  N   UNL A   1      40.922  28.008  28.644  1.00  0.00    -0.354 N 
ATOM     48  C   UNL A   1      44.576  27.201  26.447  1.00  0.00     0.074 A 
ATOM     49  C   UNL A   1      44.560  25.870  25.881  1.00  0.00     0.031 C 
ATOM     50  C   UNL A   1      38.919  27.527  29.512  1.00  0.00     0.029 A 
ATOM     51  C   UNL A   1      39.957  28.552  29.463  1.00  0.00     0.049 A 
ATOM     52  H   UNL A   1      41.747  28.484  28.397  1.00  0.00     0.167 HD
ATOM     53  C   UNL A   1      45.602  28.076  26.319  1.00  0.00     0.034 A 
ATOM     54  C   UNL A   1      39.921  29.733  30.115  1.00  0.00     0.034 A 
ATOM     55  C   UNL A   1      45.589  29.411  26.865  1.00  0.00     0.049 A 
ATOM     56  C   UNL A   1      41.082  30.686  29.953  1.00  0.00     0.074 A 
ATOM     57  C   UNL A   1      46.536  30.407  26.712  1.00  0.00     0.029 A 
ATOM     58  N   UNL A   1      44.589  29.932  27.674  1.00  0.00    -0.354 N 
ATOM     59  N   UNL A   1      42.185  30.533  29.255  1.00  0.00    -0.248 NA
ATOM     60  C   UNL A   1      40.988  31.974  30.652  1.00  0.00     0.031 C 
ATOM     61  C   UNL A   1      46.153  31.499  27.496  1.00  0.00     0.029 A 
ATOM     62  C   UNL A   1      44.919  31.221  28.063  1.00  0.00     0.049 A 
ATOM     63  H   UNL A   1      43.767  29.458  27.932  1.00  0.00     0.167 HD
ATOM     64  C   UNL A   1      42.894  31.723  29.402  1.00  0.00     0.074 A 
ATOM     65  C   UNL A   1      42.085  32.587  30.237  1.00  0.00     0.031 C 
ATOM     66  C   UNL A   1      44.102  32.073  28.893  1.00  0.00     0.034 A 
BRANCH  53  67
ATOM     67  C   UNL A   1      46.840  27.616  25.588  1.00  0.00     0.023 A 
ATOM     68  C   UNL A   1      47.068  27.924  24.236  1.00  0.00     0.031 A 
ATOM     69  C   UNL A   1      47.826  26.881  26.272  1.00  0.00     0.131 A 
ATOM     70  C   UNL A   1      48.230  27.460  23.600  1.00  0.00     0.055 A 
ATOM     71  C   UNL A   1      49.012  26.485  25.653  1.00  0.00     0.041 A 
ATOM     72  F   UNL A   1      47.652  26.538  27.558  1.00  0.00    -0.206 F 
ATOM     73  C   UNL A   1      49.216  26.768  24.306  1.00  0.00     0.022 A 
BRANCH  70  74
ATOM     74  S   UNL A   1      48.389  27.687  21.807  1.00  0.00     0.124 S 
ATOM     75  O   UNL A   1      48.668  26.323  21.361  1.00  0.00    -0.237 OA
ATOM     76  O   UNL A   1      47.085  28.225  21.439  1.00  0.00    -0.237 OA
ATOM     77  O   UNL A   1      49.508  28.618  21.678  1.00  0.00    -0.744 OA
ENDBRANCH  70  74
ENDBRANCH  53  67
BRANCH  54  78
ATOM     78  C   UNL A   1      38.772  30.085  31.004  1.00  0.00     0.023 A 
ATOM     79  C   UNL A   1      37.665  30.797  30.511  1.00  0.00     0.031 A 
ATOM     80  C   UNL A   1      38.805  29.797  32.379  1.00  0.00     0.131 A 
ATOM     81  C   UNL A   1      36.679  31.260  31.396  1.00  0.00     0.055 A 
ATOM     82  C   UNL A   1      37.785  30.199  33.245  1.00  0.00     0.041 A 
ATOM     83  F   UNL A   1      39.837  29.120  32.909  1.00  0.00    -0.206 F 
ATOM     84  C   UNL A   1      36.724  30.954  32.757  1.00  0.00     0.022 A 
BRANCH  81  85
ATOM     85  S   UNL A   1      35.412  32.394  30.763  1.00  0.00     0.124 S 
ATOM     86  O   UNL A   1      35.102  31.799  29.469  1.00  0.00    -0.237 OA
ATOM     87  O   UNL A   1      34.375  32.288  31.783  1.00  0.00    -0.237 OA
ATOM     88  O   UNL A   1      36.104  33.681  30.710  1.00  0.00    -0.744 OA
ENDBRANCH  81  85
ENDBRANCH  54  78
BRANCH  66  89
ATOM     89  C   UNL A   1      44.591  33.474  29.174  1.00  0.00     0.023 A 
ATOM     90  C   UNL A   1      44.322  34.544  28.303  1.00  0.00     0.031 A 
ATOM     91  C   UNL A   1      45.345  33.736  30.332  1.00  0.00     0.131 A 
ATOM     92  C   UNL A   1      44.854  35.814  28.575  1.00  0.00     0.055 A 
ATOM     93  C   UNL A   1      45.812  35.016  30.631  1.00  0.00     0.041 A 
ATOM     94  F   UNL A   1      45.635  32.751  31.197  1.00  0.00    -0.206 F 
ATOM     95  C   UNL A   1      45.579  36.062  29.743  1.00  0.00     0.022 A 
BRANCH  92  96
ATOM     96  S   UNL A   1      44.667  37.121  27.330  1.00  0.00     0.124 S 
ATOM     97  O   UNL A   1      45.832  36.897  26.479  1.00  0.00    -0.237 OA
ATOM     98  O   UNL A   1      43.373  36.803  26.735  1.00  0.00    -0.237 OA
ATOM     99  O   UNL A   1      44.702  38.351  28.117  1.00  0.00    -0.744 OA
ENDBRANCH  92  96
ENDBRANCH  66  89
ENDBRANCH  40  41
ENDBRANCH  32  35
ENDBRANCH  30  31
ENDBRANCH  29  30
ENDBRANCH  28  29
ENDBRANCH   1  28
TORSDOF 19
ENDMDL
MODEL 2
REMARK VINA RESULT:     -12.2      2.044      7.825
REMARK SMILES CCOC(=O)c1ccc(NC(=O)[C@H]2CC=CC[C@@]2(C)C(=O)NCCCCNC(=O)c2ccc(-c3c4nc(c(-c5cc(S(=O)(=O)[O-])ccc5F)c5ccc([nH]5)c(-c5cc(S(=O)(=O)[O-])ccc5F)c5nc(c(-c6cc(S(=O)(=O)[O-])ccc6F)c6ccc3[nH]6)C=C5)C=C4)cc2)cc1
REMARK SMILES IDX 23 1 22 2 20 3 21 4 18 6 13 7 14 8 15 9 17 10 19 11 16 12
REMARK SMILES IDX 11 13 10 14 12 16 9 17 6 18 7 19 94 20 8 21 93 22 4 23 5 24
REMARK SMILES IDX 3 25 2 26 1 27 24 28 25 29 26 30 27 31 28 32 29 34 30 35
REMARK SMILES IDX 31 36 92 37 32 38 91 39 33 40 34 41 35 42 85 43 36 44 90 45
REMARK SMILES IDX 84 46 86 47 37 48 89 49 83 50 82 51 38 53 70 54 50 55 69 56
REMARK SMILES IDX 51 57 54 58 68 59 87 60 52 61 53 62 67 64 88 65 55 66 39 67
REMARK SMILES IDX 40 68 48 69 41 70 47 71 49 72 46 73 42 74 43 75 44 76 45 77
REMARK SMILES IDX 71 78 72 79 80 80 73 81 79 82 81 83 78 84 74 85 75 86 76 87
REMARK SMILES IDX 77 88 56 89 57 90 65 91 58 92 64 93 66 94 63 95 59 96 60 97
REMARK SMILES IDX 61 98 62 99
REMARK H PARENT 22 5 10 15 27 33 86 52 54 63
REMARK Flexibility Score: inf
ROOT
ATOM      1  C   UNL A   1      35.914  21.828  24.103  1.00  0.00     0.116 C 
ENDROOT
BRANCH   1   2
ATOM      2  N   UNL A   1      35.517  23.056  23.437  1.00  0.00    -0.356 N 
ATOM      3  C   UNL A   1      34.647  24.057  23.750  1.00  0.00     0.227 C 
ATOM      4  O   UNL A   1      34.515  24.910  22.873  1.00  0.00    -0.274 OA
ATOM      5  H   UNL A   1      35.974  23.195  22.577  1.00  0.00     0.163 HD
BRANCH   3   6
ATOM      6  C   UNL A   1      33.849  24.093  25.077  1.00  0.00     0.062 C 
ATOM      7  C   UNL A   1      32.525  23.202  25.041  1.00  0.00     0.098 C 
ATOM      8  C   UNL A   1      32.604  21.847  25.783  1.00  0.00     0.041 C 
ATOM      9  C   UNL A   1      33.395  21.860  27.043  1.00  0.00    -0.030 C 
ATOM     10  C   UNL A   1      34.850  23.695  26.209  1.00  0.00     0.044 C 
ATOM     11  C   UNL A   1      33.376  25.555  25.320  1.00  0.00     0.023 C 
ATOM     12  C   UNL A   1      34.412  22.698  27.230  1.00  0.00    -0.030 C 
BRANCH   7  13
ATOM     13  C   UNL A   1      31.901  22.909  23.662  1.00  0.00     0.228 C 
ATOM     14  N   UNL A   1      31.399  23.841  22.807  1.00  0.00    -0.326 N 
ATOM     15  H   UNL A   1      31.337  23.490  21.889  1.00  0.00     0.169 HD
ATOM     16  O   UNL A   1      31.801  21.743  23.253  1.00  0.00    -0.274 OA
BRANCH  14  17
ATOM     17  C   UNL A   1      30.944  25.165  22.882  1.00  0.00     0.041 A 
ATOM     18  C   UNL A   1      29.926  27.759  23.240  1.00  0.00     0.060 A 
ATOM     19  C   UNL A   1      30.943  27.524  22.319  1.00  0.00     0.018 A 
ATOM     20  C   UNL A   1      29.418  26.717  24.008  1.00  0.00     0.018 A 
ATOM     21  C   UNL A   1      31.471  26.240  22.176  1.00  0.00     0.027 A 
ATOM     22  C   UNL A   1      29.918  25.422  23.813  1.00  0.00     0.027 A 
BRANCH  18  23
ATOM     23  C   UNL A   1      29.439  29.139  23.364  1.00  0.00     0.338 C 
ATOM     24  O   UNL A   1      30.101  30.046  23.832  1.00  0.00    -0.246 OA
BRANCH  23  25
ATOM     25  O   UNL A   1      28.116  29.144  23.068  1.00  0.00    -0.462 OA
BRANCH  25  26
ATOM     26  C   UNL A   1      27.627  30.392  22.557  1.00  0.00     0.230 C 
ATOM     27  C   UNL A   1      28.089  30.595  21.123  1.00  0.00     0.049 C 
ENDBRANCH  25  26
ENDBRANCH  23  25
ENDBRANCH  18  23
ENDBRANCH  14  17
ENDBRANCH   7  13
ENDBRANCH   3   6
ENDBRANCH   1   2
BRANCH   1  28
ATOM     28  C   UNL A   1      37.412  21.765  24.379  1.00  0.00     0.023 C 
BRANCH  28  29
ATOM     29  C   UNL A   1      37.895  20.502  25.084  1.00  0.00     0.023 C 
BRANCH  29  30
ATOM     30  C   UNL A   1      39.051  20.702  26.058  1.00  0.00     0.116 C 
BRANCH  30  31
ATOM     31  N   UNL A   1      40.013  19.610  26.027  1.00  0.00    -0.352 N 
ATOM     32  C   UNL A   1      41.384  19.653  26.112  1.00  0.00     0.251 C 
ATOM     33  H   UNL A   1      39.625  18.711  25.932  1.00  0.00     0.163 HD
ATOM     34  O   UNL A   1      42.038  18.633  25.914  1.00  0.00    -0.269 OA
BRANCH  32  35
ATOM     35  C   UNL A   1      42.062  20.934  26.404  1.00  0.00     0.039 A 
ATOM     36  C   UNL A   1      42.374  21.788  25.346  1.00  0.00     0.014 A 
ATOM     37  C   UNL A   1      42.360  21.305  27.719  1.00  0.00     0.014 A 
ATOM     38  C   UNL A   1      42.915  23.048  25.612  1.00  0.00     0.010 A 
ATOM     39  C   UNL A   1      42.818  22.592  27.987  1.00  0.00     0.010 A 
ATOM     40  C   UNL A   1      43.101  23.479  26.937  1.00  0.00    -0.014 A 
BRANCH  40  41
ATOM     41  C   UNL A   1      43.585  24.853  27.239  1.00  0.00     0.031 A 
ATOM     42  C   UNL A   1      42.634  25.881  27.793  1.00  0.00     0.074 A 
ATOM     43  C   UNL A   1      44.860  25.189  26.955  1.00  0.00     0.049 A 
ATOM     44  N   UNL A   1      42.849  27.144  28.062  1.00  0.00    -0.248 NA
ATOM     45  C   UNL A   1      41.254  25.442  28.054  1.00  0.00     0.031 C 
ATOM     46  C   UNL A   1      45.861  24.291  26.370  1.00  0.00     0.029 A 
ATOM     47  N   UNL A   1      45.537  26.374  27.108  1.00  0.00    -0.354 N 
ATOM     48  C   UNL A   1      41.630  27.653  28.499  1.00  0.00     0.074 A 
ATOM     49  C   UNL A   1      40.669  26.574  28.416  1.00  0.00     0.031 C 
ATOM     50  C   UNL A   1      47.023  24.950  26.236  1.00  0.00     0.029 A 
ATOM     51  C   UNL A   1      46.843  26.331  26.673  1.00  0.00     0.049 A 
ATOM     52  H   UNL A   1      45.125  27.182  27.492  1.00  0.00     0.167 HD
ATOM     53  C   UNL A   1      41.345  28.901  28.941  1.00  0.00     0.034 A 
ATOM     54  C   UNL A   1      47.783  27.297  26.616  1.00  0.00     0.034 A 
ATOM     55  C   UNL A   1      42.323  29.956  29.047  1.00  0.00     0.049 A 
ATOM     56  C   UNL A   1      47.433  28.680  27.116  1.00  0.00     0.074 A 
ATOM     57  C   UNL A   1      42.159  31.226  29.569  1.00  0.00     0.029 A 
ATOM     58  N   UNL A   1      43.638  29.870  28.613  1.00  0.00    -0.354 N 
ATOM     59  N   UNL A   1      46.296  29.117  27.607  1.00  0.00    -0.248 NA
ATOM     60  C   UNL A   1      48.495  29.694  27.068  1.00  0.00     0.031 C 
ATOM     61  C   UNL A   1      43.347  31.936  29.375  1.00  0.00     0.029 A 
ATOM     62  C   UNL A   1      44.284  31.080  28.818  1.00  0.00     0.049 A 
ATOM     63  H   UNL A   1      44.053  29.070  28.220  1.00  0.00     0.167 HD
ATOM     64  C   UNL A   1      46.522  30.444  27.961  1.00  0.00     0.074 A 
ATOM     65  C   UNL A   1      47.906  30.728  27.646  1.00  0.00     0.031 C 
ATOM     66  C   UNL A   1      45.666  31.349  28.501  1.00  0.00     0.034 A 
BRANCH  53  67
ATOM     67  C   UNL A   1      39.917  29.212  29.318  1.00  0.00     0.023 A 
ATOM     68  C   UNL A   1      39.506  29.334  30.656  1.00  0.00     0.031 A 
ATOM     69  C   UNL A   1      38.956  29.421  28.313  1.00  0.00     0.131 A 
ATOM     70  C   UNL A   1      38.162  29.610  30.953  1.00  0.00     0.055 A 
ATOM     71  C   UNL A   1      37.638  29.767  28.612  1.00  0.00     0.041 A 
ATOM     72  F   UNL A   1      39.285  29.294  27.017  1.00  0.00    -0.206 F 
ATOM     73  C   UNL A   1      37.232  29.856  29.940  1.00  0.00     0.022 A 
BRANCH  70  74
ATOM     74  S   UNL A   1      37.622  29.545  32.683  1.00  0.00     0.124 S 
ATOM     75  O   UNL A   1      38.724  30.224  33.362  1.00  0.00    -0.237 OA
ATOM     76  O   UNL A   1      36.354  30.265  32.647  1.00  0.00    -0.237 OA
ATOM     77  O   UNL A   1      37.519  28.113  32.956  1.00  0.00    -0.744 OA
ENDBRANCH  70  74
ENDBRANCH  53  67
BRANCH  54  78
ATOM     78  C   UNL A   1      49.137  27.020  26.046  1.00  0.00     0.023 A 
ATOM     79  C   UNL A   1      49.483  27.454  24.755  1.00  0.00     0.031 A 
ATOM     80  C   UNL A   1      50.072  26.238  26.747  1.00  0.00     0.131 A 
ATOM     81  C   UNL A   1      50.694  27.041  24.178  1.00  0.00     0.055 A 
ATOM     82  C   UNL A   1      51.307  25.890  26.195  1.00  0.00     0.041 A 
ATOM     83  F   UNL A   1      49.798  25.795  27.984  1.00  0.00    -0.206 F 
ATOM     84  C   UNL A   1      51.615  26.274  24.894  1.00  0.00     0.022 A 
BRANCH  81  85
ATOM     85  S   UNL A   1      50.984  27.400  22.423  1.00  0.00     0.124 S 
ATOM     86  O   UNL A   1      50.896  28.855  22.401  1.00  0.00    -0.237 OA
ATOM     87  O   UNL A   1      52.311  26.834  22.214  1.00  0.00    -0.237 OA
ATOM     88  O   UNL A   1      49.893  26.698  21.748  1.00  0.00    -0.744 OA
ENDBRANCH  81  85
ENDBRANCH  54  78
BRANCH  66  89
ATOM     89  C   UNL A   1      46.223  32.710  28.843  1.00  0.00     0.023 A 
ATOM     90  C   UNL A   1      46.194  33.776  27.928  1.00  0.00     0.031 A 
ATOM     91  C   UNL A   1      46.798  32.937  30.107  1.00  0.00     0.131 A 
ATOM     92  C   UNL A   1      46.783  35.004  28.269  1.00  0.00     0.055 A 
ATOM     93  C   UNL A   1      47.320  34.180  30.464  1.00  0.00     0.041 A 
ATOM     94  F   UNL A   1      46.856  31.954  31.019  1.00  0.00    -0.206 F 
ATOM     95  C   UNL A   1      47.327  35.219  29.538  1.00  0.00     0.022 A 
BRANCH  92  96
ATOM     96  S   UNL A   1      46.917  36.289  26.996  1.00  0.00     0.124 S 
ATOM     97  O   UNL A   1      45.758  37.127  27.289  1.00  0.00    -0.237 OA
ATOM     98  O   UNL A   1      48.220  36.880  27.284  1.00  0.00    -0.237 OA
ATOM     99  O   UNL A   1      46.840  35.540  25.744  1.00  0.00    -0.744 OA
ENDBRANCH  92  96
ENDBRANCH  66  89
ENDBRANCH  40  41
ENDBRANCH  32  35
ENDBRANCH  30  31
ENDBRANCH  29  30
ENDBRANCH  28  29
ENDBRANCH   1  28
TORSDOF 19
ENDMDL
MODEL 3
REMARK VINA RESULT:     -12.1      1.654      2.000
REMARK SMILES CCOC(=O)c1ccc(NC(=O)[C@H]2CC=CC[C@@]2(C)C(=O)NCCCCNC(=O)c2ccc(-c3c4nc(c(-c5cc(S(=O)(=O)[O-])ccc5F)c5ccc([nH]5)c(-c5cc(S(=O)(=O)[O-])ccc5F)c5nc(c(-c6cc(S(=O)(=O)[O-])ccc6F)c6ccc3[nH]6)C=C5)C=C4)cc2)cc1
REMARK SMILES IDX 23 1 22 2 20 3 21 4 18 6 13 7 14 8 15 9 17 10 19 11 16 12
REMARK SMILES IDX 11 13 10 14 12 16 9 17 6 18 7 19 94 20 8 21 93 22 4 23 5 24
REMARK SMILES IDX 3 25 2 26 1 27 24 28 25 29 26 30 27 31 28 32 29 34 30 35
REMARK SMILES IDX 31 36 92 37 32 38 91 39 33 40 34 41 35 42 85 43 36 44 90 45
REMARK SMILES IDX 84 46 86 47 37 48 89 49 83 50 82 51 38 53 70 54 50 55 69 56
REMARK SMILES IDX 51 57 54 58 68 59 87 60 52 61 53 62 67 64 88 65 55 66 39 67
REMARK SMILES IDX 40 68 48 69 41 70 47 71 49 72 46 73 42 74 43 75 44 76 45 77
REMARK SMILES IDX 71 78 72 79 80 80 73 81 79 82 81 83 78 84 74 85 75 86 76 87
REMARK SMILES IDX 77 88 56 89 57 90 65 91 58 92 64 93 66 94 63 95 59 96 60 97
REMARK SMILES IDX 61 98 62 99
REMARK H PARENT 22 5 10 15 27 33 86 52 54 63
REMARK Flexibility Score: inf
ROOT
ATOM      1  C   UNL A   1      34.721  22.987  26.286  1.00  0.00     0.116 C 
ENDROOT
BRANCH   1   2
ATOM      2  N   UNL A   1      33.466  23.416  26.879  1.00  0.00    -0.356 N 
ATOM      3  C   UNL A   1      32.261  23.786  26.364  1.00  0.00     0.227 C 
ATOM      4  O   UNL A   1      31.447  24.177  27.202  1.00  0.00    -0.274 OA
ATOM      5  H   UNL A   1      33.493  23.445  27.863  1.00  0.00     0.163 HD
BRANCH   3   6
ATOM      6  C   UNL A   1      31.953  23.769  24.847  1.00  0.00     0.062 C 
ATOM      7  C   UNL A   1      32.743  24.890  24.030  1.00  0.00     0.098 C 
ATOM      8  C   UNL A   1      33.961  24.398  23.215  1.00  0.00     0.041 C 
ATOM      9  C   UNL A   1      33.799  23.064  22.577  1.00  0.00    -0.030 C 
ATOM     10  C   UNL A   1      32.231  22.312  24.353  1.00  0.00     0.044 C 
ATOM     11  C   UNL A   1      30.442  24.083  24.653  1.00  0.00     0.023 C 
ATOM     12  C   UNL A   1      33.015  22.122  23.097  1.00  0.00    -0.030 C 
BRANCH   7  13
ATOM     13  C   UNL A   1      33.213  26.138  24.806  1.00  0.00     0.228 C 
ATOM     14  N   UNL A   1      32.531  27.311  24.904  1.00  0.00    -0.326 N 
ATOM     15  H   UNL A   1      32.844  27.846  25.669  1.00  0.00     0.169 HD
ATOM     16  O   UNL A   1      34.306  26.139  25.391  1.00  0.00    -0.274 OA
BRANCH  14  17
ATOM     17  C   UNL A   1      31.504  27.964  24.209  1.00  0.00     0.041 A 
ATOM     18  C   UNL A   1      29.516  29.477  22.923  1.00  0.00     0.060 A 
ATOM     19  C   UNL A   1      29.846  28.209  22.455  1.00  0.00     0.018 A 
ATOM     20  C   UNL A   1      30.181  30.018  24.019  1.00  0.00     0.018 A 
ATOM     21  C   UNL A   1      30.863  27.480  23.074  1.00  0.00     0.027 A 
ATOM     22  C   UNL A   1      31.160  29.252  24.666  1.00  0.00     0.027 A 
BRANCH  18  23
ATOM     23  C   UNL A   1      28.461  30.204  22.206  1.00  0.00     0.338 C 
ATOM     24  O   UNL A   1      28.181  30.005  21.039  1.00  0.00    -0.246 OA
BRANCH  23  25
ATOM     25  O   UNL A   1      28.039  31.219  22.998  1.00  0.00    -0.462 OA
BRANCH  25  26
ATOM     26  C   UNL A   1      28.063  32.511  22.373  1.00  0.00     0.230 C 
ATOM     27  C   UNL A   1      29.048  33.425  23.085  1.00  0.00     0.049 C 
ENDBRANCH  25  26
ENDBRANCH  23  25
ENDBRANCH  18  23
ENDBRANCH  14  17
ENDBRANCH   7  13
ENDBRANCH   3   6
ENDBRANCH   1   2
BRANCH   1  28
ATOM     28  C   UNL A   1      34.905  21.474  26.330  1.00  0.00     0.023 C 
BRANCH  28  29
ATOM     29  C   UNL A   1      35.736  20.883  25.195  1.00  0.00     0.023 C 
BRANCH  29  30
ATOM     30  C   UNL A   1      37.170  21.391  25.106  1.00  0.00     0.116 C 
BRANCH  30  31
ATOM     31  N   UNL A   1      38.153  20.375  25.453  1.00  0.00    -0.352 N 
ATOM     32  C   UNL A   1      39.392  20.522  26.031  1.00  0.00     0.251 C 
ATOM     33  H   UNL A   1      37.892  19.449  25.246  1.00  0.00     0.163 HD
ATOM     34  O   UNL A   1      40.145  19.556  26.109  1.00  0.00    -0.269 OA
BRANCH  32  35
ATOM     35  C   UNL A   1      39.822  21.851  26.517  1.00  0.00     0.039 A 
ATOM     36  C   UNL A   1      40.857  21.924  27.450  1.00  0.00     0.014 A 
ATOM     37  C   UNL A   1      39.228  23.019  26.032  1.00  0.00     0.014 A 
ATOM     38  C   UNL A   1      41.349  23.173  27.839  1.00  0.00     0.010 A 
ATOM     39  C   UNL A   1      39.775  24.258  26.354  1.00  0.00     0.010 A 
ATOM     40  C   UNL A   1      40.842  24.350  27.261  1.00  0.00    -0.014 A 
BRANCH  40  41
ATOM     41  C   UNL A   1      41.420  25.680  27.592  1.00  0.00     0.031 A 
ATOM     42  C   UNL A   1      42.823  26.019  27.162  1.00  0.00     0.074 A 
ATOM     43  C   UNL A   1      40.706  26.553  28.332  1.00  0.00     0.049 A 
ATOM     44  N   UNL A   1      43.523  27.097  27.406  1.00  0.00    -0.248 NA
ATOM     45  C   UNL A   1      43.544  25.004  26.376  1.00  0.00     0.031 C 
ATOM     46  C   UNL A   1      39.354  26.315  28.848  1.00  0.00     0.029 A 
ATOM     47  N   UNL A   1      41.013  27.811  28.790  1.00  0.00    -0.354 N 
ATOM     48  C   UNL A   1      44.770  26.880  26.828  1.00  0.00     0.074 A 
ATOM     49  C   UNL A   1      44.745  25.550  26.260  1.00  0.00     0.031 C 
ATOM     50  C   UNL A   1      38.944  27.398  29.529  1.00  0.00     0.029 A 
ATOM     51  C   UNL A   1      40.017  28.387  29.547  1.00  0.00     0.049 A 
ATOM     52  H   UNL A   1      41.868  28.259  28.596  1.00  0.00     0.167 HD
ATOM     53  C   UNL A   1      45.831  27.721  26.766  1.00  0.00     0.034 A 
ATOM     54  C   UNL A   1      39.979  29.569  30.197  1.00  0.00     0.034 A 
ATOM     55  C   UNL A   1      45.827  29.056  27.311  1.00  0.00     0.049 A 
ATOM     56  C   UNL A   1      41.179  30.483  30.109  1.00  0.00     0.074 A 
ATOM     57  C   UNL A   1      46.815  30.021  27.220  1.00  0.00     0.029 A 
ATOM     58  N   UNL A   1      44.796  29.611  28.056  1.00  0.00    -0.354 N 
ATOM     59  N   UNL A   1      42.318  30.293  29.483  1.00  0.00    -0.248 NA
ATOM     60  C   UNL A   1      41.084  31.775  30.803  1.00  0.00     0.031 C 
ATOM     61  C   UNL A   1      46.419  31.125  27.980  1.00  0.00     0.029 A 
ATOM     62  C   UNL A   1      45.143  30.889  28.467  1.00  0.00     0.049 A 
ATOM     63  H   UNL A   1      43.944  29.165  28.262  1.00  0.00     0.167 HD
ATOM     64  C   UNL A   1      43.055  31.459  29.676  1.00  0.00     0.074 A 
ATOM     65  C   UNL A   1      42.225  32.350  30.458  1.00  0.00     0.031 C 
ATOM     66  C   UNL A   1      44.304  31.769  29.244  1.00  0.00     0.034 A 
BRANCH  53  67
ATOM     67  C   UNL A   1      47.097  27.220  26.114  1.00  0.00     0.023 A 
ATOM     68  C   UNL A   1      48.079  26.515  26.830  1.00  0.00     0.031 A 
ATOM     69  C   UNL A   1      47.307  27.428  24.739  1.00  0.00     0.131 A 
ATOM     70  C   UNL A   1      49.244  26.083  26.179  1.00  0.00     0.055 A 
ATOM     71  C   UNL A   1      48.433  26.934  24.082  1.00  0.00     0.041 A 
ATOM     72  F   UNL A   1      46.414  28.116  24.009  1.00  0.00    -0.206 F 
ATOM     73  C   UNL A   1      49.415  26.263  24.804  1.00  0.00     0.022 A 
BRANCH  70  74
ATOM     74  S   UNL A   1      50.584  25.371  27.173  1.00  0.00     0.124 S 
ATOM     75  O   UNL A   1      49.890  24.293  27.873  1.00  0.00    -0.237 OA
ATOM     76  O   UNL A   1      51.547  24.959  26.158  1.00  0.00    -0.237 OA
ATOM     77  O   UNL A   1      51.009  26.483  28.021  1.00  0.00    -0.744 OA
ENDBRANCH  70  74
ENDBRANCH  53  67
BRANCH  54  78
ATOM     78  C   UNL A   1      38.788  29.960  31.012  1.00  0.00     0.023 A 
ATOM     79  C   UNL A   1      37.745  30.717  30.454  1.00  0.00     0.031 A 
ATOM     80  C   UNL A   1      38.720  29.662  32.384  1.00  0.00     0.131 A 
ATOM     81  C   UNL A   1      36.721  31.213  31.277  1.00  0.00     0.055 A 
ATOM     82  C   UNL A   1      37.661  30.098  33.184  1.00  0.00     0.041 A 
ATOM     83  F   UNL A   1      39.688  28.942  32.974  1.00  0.00    -0.206 F 
ATOM     84  C   UNL A   1      36.664  30.897  32.635  1.00  0.00     0.022 A 
BRANCH  81  85
ATOM     85  S   UNL A   1      35.542  32.399  30.572  1.00  0.00     0.124 S 
ATOM     86  O   UNL A   1      34.484  32.397  31.575  1.00  0.00    -0.237 OA
ATOM     87  O   UNL A   1      36.347  33.613  30.491  1.00  0.00    -0.237 OA
ATOM     88  O   UNL A   1      35.186  31.801  29.287  1.00  0.00    -0.744 OA
ENDBRANCH  81  85
ENDBRANCH  54  78
BRANCH  66  89
ATOM     89  C   UNL A   1      44.820  33.153  29.557  1.00  0.00     0.023 A 
ATOM     90  C   UNL A   1      44.406  34.282  28.832  1.00  0.00     0.031 A 
ATOM     91  C   UNL A   1      45.750  33.338  30.597  1.00  0.00     0.131 A 
ATOM     92  C   UNL A   1      44.964  35.538  29.118  1.00  0.00     0.055 A 
ATOM     93  C   UNL A   1      46.248  34.599  30.921  1.00  0.00     0.041 A 
ATOM     94  F   UNL A   1      46.184  32.293  31.320  1.00  0.00    -0.206 F 
ATOM     95  C   UNL A   1      45.867  35.707  30.171  1.00  0.00     0.022 A 
BRANCH  92  96
ATOM     96  S   UNL A   1      44.568  36.935  28.031  1.00  0.00     0.124 S 
ATOM     97  O   UNL A   1      45.810  37.701  28.057  1.00  0.00    -0.237 OA
ATOM     98  O   UNL A   1      44.255  36.271  26.770  1.00  0.00    -0.237 OA
ATOM     99  O   UNL A   1      43.432  37.573  28.693  1.00  0.00    -0.744 OA
ENDBRANCH  92  96
ENDBRANCH  66  89
ENDBRANCH  40  41
ENDBRANCH  32  35
ENDBRANCH  30  31
ENDBRANCH  29  30
ENDBRANCH  28  29
ENDBRANCH   1  28
TORSDOF 19
ENDMDL
