MODEL 1
REMARK VINA RESULT:     -12.3      0.000      0.000
REMARK SMILES O=C(NCCCCNC(=O)c1cccc(OS(=O)(=O)c2cccc([N+](=O)[O-])c2)c1)c1ccc(-c2c3nc(c(-c4cc(S(=O)(=O)[O-])ccc4F)c4ccc([nH]4)c(-c4cc(S(=O)(=O)[O-])ccc4F)c4nc(c(-c5cc(S(=O)(=O)[O-])ccc5F)c5ccc2[nH]5)C=C4)C=C3)cc1
REMARK SMILES IDX 6 1 5 2 4 3 3 4 1 5 2 6 30 8 31 9 92 10 32 11 91 12 33 13
REMARK SMILES IDX 34 14 35 15 85 16 36 17 90 18 84 19 86 20 37 21 89 22 83 23
REMARK SMILES IDX 82 24 38 26 70 27 50 28 69 29 51 30 54 31 68 32 87 33 52 34
REMARK SMILES IDX 53 35 67 37 88 38 55 39 39 40 40 41 48 42 41 43 47 44 49 45
REMARK SMILES IDX 46 46 42 47 43 48 44 49 45 50 71 51 72 52 80 53 73 54 79 55
REMARK SMILES IDX 81 56 78 57 74 58 75 59 76 60 77 61 56 62 57 63 65 64 58 65
REMARK SMILES IDX 64 66 66 67 63 68 59 69 60 70 61 71 62 72 7 73 8 74 9 75
REMARK SMILES IDX 10 77 11 78 12 79 29 80 13 81 15 82 14 83 16 84 17 85 18 86
REMARK SMILES IDX 19 87 20 88 21 89 28 90 22 91 24 92 23 93 25 94 26 95 27 96
REMARK H PARENT 3 7 86 25 54 36 8 76
REMARK Flexibility Score: inf
ROOT
ATOM      1  C   UNL A   1      31.500  30.657  26.190  1.00  0.00     0.023 C 
ENDROOT
BRANCH   1   2
ATOM      2  C   UNL A   1      31.455  32.135  26.568  1.00  0.00     0.023 C 
BRANCH   2   3
ATOM      3  C   UNL A   1      32.656  32.640  27.356  1.00  0.00     0.116 C 
BRANCH   3   4
ATOM      4  N   UNL A   1      32.567  34.058  27.679  1.00  0.00    -0.352 N 
ATOM      5  O   UNL A   1      32.948  35.940  28.862  1.00  0.00    -0.269 OA
ATOM      6  C   UNL A   1      33.265  34.779  28.621  1.00  0.00     0.251 C 
ATOM      7  H   UNL A   1      31.916  34.572  27.149  1.00  0.00     0.163 HD
BRANCH   6   8
ATOM      8  C   UNL A   1      34.381  34.143  29.356  1.00  0.00     0.039 A 
ATOM      9  C   UNL A   1      35.706  34.469  29.060  1.00  0.00     0.014 A 
ATOM     10  C   UNL A   1      34.098  33.207  30.356  1.00  0.00     0.014 A 
ATOM     11  C   UNL A   1      36.744  33.758  29.653  1.00  0.00     0.010 A 
ATOM     12  C   UNL A   1      35.146  32.554  31.015  1.00  0.00     0.010 A 
ATOM     13  C   UNL A   1      36.477  32.802  30.647  1.00  0.00    -0.014 A 
BRANCH  13  14
ATOM     14  C   UNL A   1      37.613  32.126  31.328  1.00  0.00     0.031 A 
ATOM     15  C   UNL A   1      38.379  31.022  30.654  1.00  0.00     0.074 A 
ATOM     16  C   UNL A   1      37.967  32.546  32.559  1.00  0.00     0.049 A 
ATOM     17  N   UNL A   1      39.399  30.334  31.102  1.00  0.00    -0.248 NA
ATOM     18  C   UNL A   1      37.943  30.632  29.305  1.00  0.00     0.031 C 
ATOM     19  C   UNL A   1      37.289  33.606  33.311  1.00  0.00     0.029 A 
ATOM     20  N   UNL A   1      38.982  32.151  33.390  1.00  0.00    -0.354 N 
ATOM     21  C   UNL A   1      39.717  29.419  30.103  1.00  0.00     0.074 A 
ATOM     22  C   UNL A   1      38.762  29.625  29.033  1.00  0.00     0.031 C 
ATOM     23  C   UNL A   1      37.933  33.806  34.469  1.00  0.00     0.029 A 
ATOM     24  C   UNL A   1      39.023  32.845  34.577  1.00  0.00     0.049 A 
ATOM     25  H   UNL A   1      39.623  31.440  33.159  1.00  0.00     0.167 HD
ATOM     26  C   UNL A   1      40.713  28.499  30.083  1.00  0.00     0.034 A 
ATOM     27  C   UNL A   1      39.832  32.708  35.647  1.00  0.00     0.034 A 
ATOM     28  C   UNL A   1      41.663  28.316  31.157  1.00  0.00     0.049 A 
ATOM     29  C   UNL A   1      40.910  31.660  35.607  1.00  0.00     0.074 A 
ATOM     30  C   UNL A   1      42.734  27.441  31.221  1.00  0.00     0.029 A 
ATOM     31  N   UNL A   1      41.651  29.012  32.360  1.00  0.00    -0.354 N 
ATOM     32  N   UNL A   1      41.207  30.820  34.643  1.00  0.00    -0.248 NA
ATOM     33  C   UNL A   1      41.764  31.546  36.794  1.00  0.00     0.031 C 
ATOM     34  C   UNL A   1      43.329  27.564  32.481  1.00  0.00     0.029 A 
ATOM     35  C   UNL A   1      42.675  28.564  33.181  1.00  0.00     0.049 A 
ATOM     36  H   UNL A   1      41.009  29.721  32.595  1.00  0.00     0.167 HD
ATOM     37  C   UNL A   1      42.295  30.087  35.105  1.00  0.00     0.074 A 
ATOM     38  C   UNL A   1      42.615  30.603  36.421  1.00  0.00     0.031 C 
ATOM     39  C   UNL A   1      42.968  29.076  34.499  1.00  0.00     0.034 A 
BRANCH  26  40
ATOM     40  C   UNL A   1      40.805  27.588  28.883  1.00  0.00     0.023 A 
ATOM     41  C   UNL A   1      41.767  27.775  27.877  1.00  0.00     0.031 A 
ATOM     42  C   UNL A   1      39.917  26.504  28.753  1.00  0.00     0.131 A 
ATOM     43  C   UNL A   1      41.789  26.921  26.761  1.00  0.00     0.055 A 
ATOM     44  C   UNL A   1      39.986  25.619  27.675  1.00  0.00     0.041 A 
ATOM     45  F   UNL A   1      38.965  26.286  29.675  1.00  0.00    -0.206 F 
ATOM     46  C   UNL A   1      40.919  25.831  26.665  1.00  0.00     0.022 A 
BRANCH  43  47
ATOM     47  S   UNL A   1      42.901  27.315  25.384  1.00  0.00     0.124 S 
ATOM     48  O   UNL A   1      42.964  26.036  24.679  1.00  0.00    -0.237 OA
ATOM     49  O   UNL A   1      42.190  28.387  24.698  1.00  0.00    -0.237 OA
ATOM     50  O   UNL A   1      44.142  27.714  26.047  1.00  0.00    -0.744 OA
ENDBRANCH  43  47
ENDBRANCH  26  40
BRANCH  27  51
ATOM     51  C   UNL A   1      39.626  33.555  36.856  1.00  0.00     0.023 A 
ATOM     52  C   UNL A   1      39.006  33.041  38.005  1.00  0.00     0.031 A 
ATOM     53  C   UNL A   1      40.016  34.906  36.863  1.00  0.00     0.131 A 
ATOM     54  C   UNL A   1      38.754  33.885  39.098  1.00  0.00     0.055 A 
ATOM     55  C   UNL A   1      39.815  35.726  37.974  1.00  0.00     0.041 A 
ATOM     56  F   UNL A   1      40.615  35.447  35.791  1.00  0.00    -0.206 F 
ATOM     57  C   UNL A   1      39.167  35.219  39.096  1.00  0.00     0.022 A 
BRANCH  54  58
ATOM     58  S   UNL A   1      37.793  33.236  40.491  1.00  0.00     0.124 S 
ATOM     59  O   UNL A   1      38.590  32.082  40.892  1.00  0.00    -0.237 OA
ATOM     60  O   UNL A   1      37.793  34.366  41.413  1.00  0.00    -0.237 OA
ATOM     61  O   UNL A   1      36.497  32.921  39.893  1.00  0.00    -0.744 OA
ENDBRANCH  54  58
ENDBRANCH  27  51
BRANCH  39  62
ATOM     62  C   UNL A   1      44.138  28.498  35.253  1.00  0.00     0.023 A 
ATOM     63  C   UNL A   1      43.969  27.475  36.203  1.00  0.00     0.031 A 
ATOM     64  C   UNL A   1      45.434  29.000  35.042  1.00  0.00     0.131 A 
ATOM     65  C   UNL A   1      45.068  27.030  36.951  1.00  0.00     0.055 A 
ATOM     66  C   UNL A   1      46.534  28.512  35.749  1.00  0.00     0.041 A 
ATOM     67  F   UNL A   1      45.651  29.979  34.148  1.00  0.00    -0.206 F 
ATOM     68  C   UNL A   1      46.352  27.531  36.719  1.00  0.00     0.022 A 
BRANCH  65  69
ATOM     69  S   UNL A   1      44.783  25.848  38.297  1.00  0.00     0.124 S 
ATOM     70  O   UNL A   1      44.098  26.674  39.286  1.00  0.00    -0.237 OA
ATOM     71  O   UNL A   1      43.971  24.825  37.649  1.00  0.00    -0.237 OA
ATOM     72  O   UNL A   1      46.131  25.422  38.672  1.00  0.00    -0.744 OA
ENDBRANCH  65  69
ENDBRANCH  39  62
ENDBRANCH  13  14
ENDBRANCH   6   8
ENDBRANCH   3   4
ENDBRANCH   2   3
ENDBRANCH   1   2
BRANCH   1  73
ATOM     73  C   UNL A   1      32.790  29.931  26.561  1.00  0.00     0.116 C 
BRANCH  73  74
ATOM     74  N   UNL A   1      33.519  29.444  25.397  1.00  0.00    -0.352 N 
ATOM     75  C   UNL A   1      33.331  28.280  24.689  1.00  0.00     0.251 C 
ATOM     76  H   UNL A   1      34.244  30.026  25.074  1.00  0.00     0.163 HD
ATOM     77  O   UNL A   1      34.108  27.936  23.807  1.00  0.00    -0.269 OA
BRANCH  75  78
ATOM     78  C   UNL A   1      32.173  27.426  25.013  1.00  0.00     0.043 A 
ATOM     79  C   UNL A   1      31.026  27.489  24.224  1.00  0.00     0.014 A 
ATOM     80  C   UNL A   1      32.250  26.542  26.092  1.00  0.00     0.062 A 
ATOM     81  C   UNL A   1      29.973  26.611  24.482  1.00  0.00     0.005 A 
ATOM     82  C   UNL A   1      31.226  25.624  26.314  1.00  0.00     0.143 A 
ATOM     83  C   UNL A   1      30.080  25.671  25.515  1.00  0.00     0.048 A 
BRANCH  82  84
ATOM     84  O   UNL A   1      31.273  24.644  27.278  1.00  0.00    -0.379 OA
BRANCH  84  85
ATOM     85  S   UNL A   1      31.810  23.143  26.904  1.00  0.00     0.339 S 
ATOM     86  O   UNL A   1      32.501  22.593  28.056  1.00  0.00    -0.181 OA
ATOM     87  O   UNL A   1      30.739  22.421  26.247  1.00  0.00    -0.181 OA
BRANCH  85  88
ATOM     88  C   UNL A   1      33.054  23.362  25.657  1.00  0.00     0.112 A 
ATOM     89  C   UNL A   1      34.368  23.702  25.989  1.00  0.00     0.024 A 
ATOM     90  C   UNL A   1      32.654  23.225  24.321  1.00  0.00     0.109 A 
ATOM     91  C   UNL A   1      35.297  23.913  24.967  1.00  0.00     0.009 A 
ATOM     92  C   UNL A   1      33.593  23.442  23.308  1.00  0.00     0.270 A 
ATOM     93  C   UNL A   1      34.914  23.788  23.627  1.00  0.00     0.086 A 
BRANCH  92  94
ATOM     94  N   UNL A   1      33.189  23.319  21.901  1.00  0.00     0.062 N 
ATOM     95  O   UNL A   1      32.621  22.273  21.558  1.00  0.00    -0.258 OA
ATOM     96  O   UNL A   1      33.439  24.268  21.146  1.00  0.00    -0.258 OA
ENDBRANCH  92  94
ENDBRANCH  85  88
ENDBRANCH  84  85
ENDBRANCH  82  84
ENDBRANCH  75  78
ENDBRANCH  73  74
ENDBRANCH   1  73
TORSDOF 18
ENDMDL
MODEL 2
REMARK VINA RESULT:     -12.1      1.589      2.038
REMARK SMILES O=C(NCCCCNC(=O)c1cccc(OS(=O)(=O)c2cccc([N+](=O)[O-])c2)c1)c1ccc(-c2c3nc(c(-c4cc(S(=O)(=O)[O-])ccc4F)c4ccc([nH]4)c(-c4cc(S(=O)(=O)[O-])ccc4F)c4nc(c(-c5cc(S(=O)(=O)[O-])ccc5F)c5ccc2[nH]5)C=C4)C=C3)cc1
REMARK SMILES IDX 6 1 5 2 4 3 3 4 1 5 2 6 30 8 31 9 92 10 32 11 91 12 33 13
REMARK SMILES IDX 34 14 35 15 85 16 36 17 90 18 84 19 86 20 37 21 89 22 83 23
REMARK SMILES IDX 82 24 38 26 70 27 50 28 69 29 51 30 54 31 68 32 87 33 52 34
REMARK SMILES IDX 53 35 67 37 88 38 55 39 39 40 40 41 48 42 41 43 47 44 49 45
REMARK SMILES IDX 46 46 42 47 43 48 44 49 45 50 71 51 72 52 80 53 73 54 79 55
REMARK SMILES IDX 81 56 78 57 74 58 75 59 76 60 77 61 56 62 57 63 65 64 58 65
REMARK SMILES IDX 64 66 66 67 63 68 59 69 60 70 61 71 62 72 7 73 8 74 9 75
REMARK SMILES IDX 10 77 11 78 12 79 29 80 13 81 15 82 14 83 16 84 17 85 18 86
REMARK SMILES IDX 19 87 20 88 21 89 28 90 22 91 24 92 23 93 25 94 26 95 27 96
REMARK H PARENT 3 7 86 25 54 36 8 76
REMARK Flexibility Score: inf
ROOT
ATOM      1  C   UNL A   1      31.400  30.867  26.069  1.00  0.00     0.023 C 
ENDROOT
BRANCH   1   2
ATOM      2  C   UNL A   1      31.414  32.331  26.500  1.00  0.00     0.023 C 
BRANCH   2   3
ATOM      3  C   UNL A   1      32.662  32.774  27.251  1.00  0.00     0.116 C 
BRANCH   3   4
ATOM      4  N   UNL A   1      32.575  34.144  27.739  1.00  0.00    -0.352 N 
ATOM      5  O   UNL A   1      32.970  35.878  29.126  1.00  0.00    -0.269 OA
ATOM      6  C   UNL A   1      33.287  34.754  28.746  1.00  0.00     0.251 C 
ATOM      7  H   UNL A   1      31.913  34.713  27.283  1.00  0.00     0.163 HD
BRANCH   6   8
ATOM      8  C   UNL A   1      34.418  34.043  29.383  1.00  0.00     0.039 A 
ATOM      9  C   UNL A   1      34.187  33.037  30.322  1.00  0.00     0.014 A 
ATOM     10  C   UNL A   1      35.727  34.388  29.035  1.00  0.00     0.014 A 
ATOM     11  C   UNL A   1      35.255  32.482  31.019  1.00  0.00     0.010 A 
ATOM     12  C   UNL A   1      36.804  33.765  29.676  1.00  0.00     0.010 A 
ATOM     13  C   UNL A   1      36.577  32.828  30.695  1.00  0.00    -0.014 A 
BRANCH  13  14
ATOM     14  C   UNL A   1      37.698  32.149  31.395  1.00  0.00     0.031 A 
ATOM     15  C   UNL A   1      38.479  31.049  30.729  1.00  0.00     0.074 A 
ATOM     16  C   UNL A   1      38.026  32.561  32.635  1.00  0.00     0.049 A 
ATOM     17  N   UNL A   1      39.489  30.359  31.195  1.00  0.00    -0.248 NA
ATOM     18  C   UNL A   1      38.071  30.668  29.369  1.00  0.00     0.031 C 
ATOM     19  C   UNL A   1      37.332  33.615  33.380  1.00  0.00     0.029 A 
ATOM     20  N   UNL A   1      39.024  32.161  33.486  1.00  0.00    -0.354 N 
ATOM     21  C   UNL A   1      39.828  29.450  30.197  1.00  0.00     0.074 A 
ATOM     22  C   UNL A   1      38.897  29.663  29.108  1.00  0.00     0.031 C 
ATOM     23  C   UNL A   1      37.952  33.808  34.553  1.00  0.00     0.029 A 
ATOM     24  C   UNL A   1      39.040  32.847  34.678  1.00  0.00     0.049 A 
ATOM     25  H   UNL A   1      39.670  31.451  33.263  1.00  0.00     0.167 HD
ATOM     26  C   UNL A   1      40.826  28.531  30.192  1.00  0.00     0.034 A 
ATOM     27  C   UNL A   1      39.826  32.703  35.763  1.00  0.00     0.034 A 
ATOM     28  C   UNL A   1      41.752  28.341  31.284  1.00  0.00     0.049 A 
ATOM     29  C   UNL A   1      40.905  31.656  35.738  1.00  0.00     0.074 A 
ATOM     30  C   UNL A   1      42.823  27.466  31.365  1.00  0.00     0.029 A 
ATOM     31  N   UNL A   1      41.715  29.029  32.491  1.00  0.00    -0.354 N 
ATOM     32  N   UNL A   1      41.222  30.821  34.776  1.00  0.00    -0.248 NA
ATOM     33  C   UNL A   1      41.734  31.534  36.943  1.00  0.00     0.031 C 
ATOM     34  C   UNL A   1      43.391  27.580  32.638  1.00  0.00     0.029 A 
ATOM     35  C   UNL A   1      42.722  28.576  33.331  1.00  0.00     0.049 A 
ATOM     36  H   UNL A   1      41.068  29.737  32.717  1.00  0.00     0.167 HD
ATOM     37  C   UNL A   1      42.301  30.086  35.256  1.00  0.00     0.074 A 
ATOM     38  C   UNL A   1      42.593  30.594  36.582  1.00  0.00     0.031 C 
ATOM     39  C   UNL A   1      42.987  29.080  34.657  1.00  0.00     0.034 A 
BRANCH  26  40
ATOM     40  C   UNL A   1      40.942  27.627  28.988  1.00  0.00     0.023 A 
ATOM     41  C   UNL A   1      41.920  27.826  27.998  1.00  0.00     0.031 A 
ATOM     42  C   UNL A   1      40.064  26.538  28.837  1.00  0.00     0.131 A 
ATOM     43  C   UNL A   1      41.965  26.980  26.878  1.00  0.00     0.055 A 
ATOM     44  C   UNL A   1      40.156  25.660  27.755  1.00  0.00     0.041 A 
ATOM     45  F   UNL A   1      39.099  26.309  29.742  1.00  0.00    -0.206 F 
ATOM     46  C   UNL A   1      41.105  25.885  26.761  1.00  0.00     0.022 A 
BRANCH  43  47
ATOM     47  S   UNL A   1      43.097  27.389  25.521  1.00  0.00     0.124 S 
ATOM     48  O   UNL A   1      44.154  28.112  26.226  1.00  0.00    -0.237 OA
ATOM     49  O   UNL A   1      43.459  26.074  25.004  1.00  0.00    -0.237 OA
ATOM     50  O   UNL A   1      42.281  28.208  24.627  1.00  0.00    -0.744 OA
ENDBRANCH  43  47
ENDBRANCH  26  40
BRANCH  27  51
ATOM     51  C   UNL A   1      39.594  33.542  36.973  1.00  0.00     0.023 A 
ATOM     52  C   UNL A   1      40.364  34.688  37.220  1.00  0.00     0.031 A 
ATOM     53  C   UNL A   1      38.619  33.183  37.921  1.00  0.00     0.131 A 
ATOM     54  C   UNL A   1      40.176  35.411  38.409  1.00  0.00     0.055 A 
ATOM     55  C   UNL A   1      38.397  33.937  39.073  1.00  0.00     0.041 A 
ATOM     56  F   UNL A   1      37.854  32.096  37.732  1.00  0.00    -0.206 F 
ATOM     57  C   UNL A   1      39.188  35.052  39.329  1.00  0.00     0.022 A 
BRANCH  54  58
ATOM     58  S   UNL A   1      41.307  36.779  38.779  1.00  0.00     0.124 S 
ATOM     59  O   UNL A   1      40.380  37.831  39.183  1.00  0.00    -0.237 OA
ATOM     60  O   UNL A   1      42.133  36.211  39.839  1.00  0.00    -0.237 OA
ATOM     61  O   UNL A   1      41.992  37.007  37.509  1.00  0.00    -0.744 OA
ENDBRANCH  54  58
ENDBRANCH  27  51
BRANCH  39  62
ATOM     62  C   UNL A   1      44.141  28.497  35.432  1.00  0.00     0.023 A 
ATOM     63  C   UNL A   1      43.959  27.438  36.338  1.00  0.00     0.031 A 
ATOM     64  C   UNL A   1      45.434  29.031  35.285  1.00  0.00     0.131 A 
ATOM     65  C   UNL A   1      45.040  26.986  37.109  1.00  0.00     0.055 A 
ATOM     66  C   UNL A   1      46.518  28.538  36.013  1.00  0.00     0.041 A 
ATOM     67  F   UNL A   1      45.662  30.045  34.434  1.00  0.00    -0.206 F 
ATOM     68  C   UNL A   1      46.321  27.520  36.941  1.00  0.00     0.022 A 
BRANCH  65  69
ATOM     69  S   UNL A   1      44.732  25.752  38.403  1.00  0.00     0.124 S 
ATOM     70  O   UNL A   1      46.073  25.237  38.657  1.00  0.00    -0.237 OA
ATOM     71  O   UNL A   1      44.145  26.556  39.469  1.00  0.00    -0.237 OA
ATOM     72  O   UNL A   1      43.815  24.808  37.764  1.00  0.00    -0.744 OA
ENDBRANCH  65  69
ENDBRANCH  39  62
ENDBRANCH  13  14
ENDBRANCH   6   8
ENDBRANCH   3   4
ENDBRANCH   2   3
ENDBRANCH   1   2
BRANCH   1  73
ATOM     73  C   UNL A   1      32.672  30.085  26.385  1.00  0.00     0.116 C 
BRANCH  73  74
ATOM     74  N   UNL A   1      33.367  29.627  25.188  1.00  0.00    -0.352 N 
ATOM     75  C   UNL A   1      33.208  28.448  24.499  1.00  0.00     0.251 C 
ATOM     76  H   UNL A   1      34.040  30.246  24.824  1.00  0.00     0.163 HD
ATOM     77  O   UNL A   1      33.957  28.139  23.580  1.00  0.00    -0.269 OA
BRANCH  75  78
ATOM     78  C   UNL A   1      32.119  27.534  24.889  1.00  0.00     0.043 A 
ATOM     79  C   UNL A   1      30.939  27.510  24.147  1.00  0.00     0.014 A 
ATOM     80  C   UNL A   1      32.292  26.681  25.981  1.00  0.00     0.062 A 
ATOM     81  C   UNL A   1      29.952  26.576  24.466  1.00  0.00     0.005 A 
ATOM     82  C   UNL A   1      31.335  25.708  26.265  1.00  0.00     0.143 A 
ATOM     83  C   UNL A   1      30.157  25.669  25.513  1.00  0.00     0.048 A 
BRANCH  82  84
ATOM     84  O   UNL A   1      31.481  24.755  27.245  1.00  0.00    -0.379 OA
BRANCH  84  85
ATOM     85  S   UNL A   1      31.830  23.206  26.846  1.00  0.00     0.339 S 
ATOM     86  O   UNL A   1      32.449  22.558  27.988  1.00  0.00    -0.181 OA
ATOM     87  O   UNL A   1      30.679  22.631  26.179  1.00  0.00    -0.181 OA
BRANCH  85  88
ATOM     88  C   UNL A   1      33.092  23.292  25.600  1.00  0.00     0.112 A 
ATOM     89  C   UNL A   1      32.773  23.390  24.244  1.00  0.00     0.024 A 
ATOM     90  C   UNL A   1      34.424  23.213  26.030  1.00  0.00     0.109 A 
ATOM     91  C   UNL A   1      33.802  23.403  23.300  1.00  0.00     0.009 A 
ATOM     92  C   UNL A   1      35.444  23.224  25.074  1.00  0.00     0.270 A 
ATOM     93  C   UNL A   1      35.138  23.318  23.709  1.00  0.00     0.086 A 
BRANCH  92  94
ATOM     94  N   UNL A   1      36.846  23.125  25.504  1.00  0.00     0.062 N 
ATOM     95  O   UNL A   1      37.461  22.090  25.214  1.00  0.00    -0.258 OA
ATOM     96  O   UNL A   1      37.325  24.081  26.127  1.00  0.00    -0.258 OA
ENDBRANCH  92  94
ENDBRANCH  85  88
ENDBRANCH  84  85
ENDBRANCH  82  84
ENDBRANCH  75  78
ENDBRANCH  73  74
ENDBRANCH   1  73
TORSDOF 18
ENDMDL
MODEL 3
REMARK VINA RESULT:     -12.0      1.607      7.659
REMARK SMILES O=C(NCCCCNC(=O)c1cccc(OS(=O)(=O)c2cccc([N+](=O)[O-])c2)c1)c1ccc(-c2c3nc(c(-c4cc(S(=O)(=O)[O-])ccc4F)c4ccc([nH]4)c(-c4cc(S(=O)(=O)[O-])ccc4F)c4nc(c(-c5cc(S(=O)(=O)[O-])ccc5F)c5ccc2[nH]5)C=C4)C=C3)cc1
REMARK SMILES IDX 6 1 5 2 4 3 3 4 1 5 2 6 30 8 31 9 92 10 32 11 91 12 33 13
REMARK SMILES IDX 34 14 35 15 85 16 36 17 90 18 84 19 86 20 37 21 89 22 83 23
REMARK SMILES IDX 82 24 38 26 70 27 50 28 69 29 51 30 54 31 68 32 87 33 52 34
REMARK SMILES IDX 53 35 67 37 88 38 55 39 39 40 40 41 48 42 41 43 47 44 49 45
REMARK SMILES IDX 46 46 42 47 43 48 44 49 45 50 71 51 72 52 80 53 73 54 79 55
REMARK SMILES IDX 81 56 78 57 74 58 75 59 76 60 77 61 56 62 57 63 65 64 58 65
REMARK SMILES IDX 64 66 66 67 63 68 59 69 60 70 61 71 62 72 7 73 8 74 9 75
REMARK SMILES IDX 10 77 11 78 12 79 29 80 13 81 15 82 14 83 16 84 17 85 18 86
REMARK SMILES IDX 19 87 20 88 21 89 28 90 22 91 24 92 23 93 25 94 26 95 27 96
REMARK H PARENT 3 7 86 25 54 36 8 76
REMARK Flexibility Score: inf
ROOT
ATOM      1  C   UNL A   1      31.355  30.730  25.887  1.00  0.00     0.023 C 
ENDROOT
BRANCH   1   2
ATOM      2  C   UNL A   1      31.364  32.150  26.446  1.00  0.00     0.023 C 
BRANCH   2   3
ATOM      3  C   UNL A   1      32.661  32.573  27.122  1.00  0.00     0.116 C 
BRANCH   3   4
ATOM      4  N   UNL A   1      32.604  33.923  27.665  1.00  0.00    -0.352 N 
ATOM      5  O   UNL A   1      33.092  35.608  29.083  1.00  0.00    -0.269 OA
ATOM      6  C   UNL A   1      33.384  34.501  28.640  1.00  0.00     0.251 C 
ATOM      7  H   UNL A   1      31.910  34.505  27.278  1.00  0.00     0.163 HD
BRANCH   6   8
ATOM      8  C   UNL A   1      34.560  33.773  29.169  1.00  0.00     0.039 A 
ATOM      9  C   UNL A   1      34.395  32.667  30.004  1.00  0.00     0.014 A 
ATOM     10  C   UNL A   1      35.844  34.204  28.824  1.00  0.00     0.014 A 
ATOM     11  C   UNL A   1      35.504  32.086  30.610  1.00  0.00     0.010 A 
ATOM     12  C   UNL A   1      36.963  33.562  29.367  1.00  0.00     0.010 A 
ATOM     13  C   UNL A   1      36.801  32.517  30.289  1.00  0.00    -0.014 A 
BRANCH  13  14
ATOM     14  C   UNL A   1      37.968  31.814  30.883  1.00  0.00     0.031 A 
ATOM     15  C   UNL A   1      38.443  32.130  32.274  1.00  0.00     0.074 A 
ATOM     16  C   UNL A   1      38.579  30.856  30.158  1.00  0.00     0.049 A 
ATOM     17  N   UNL A   1      39.438  31.606  32.944  1.00  0.00    -0.248 NA
ATOM     18  C   UNL A   1      37.714  33.176  33.007  1.00  0.00     0.031 C 
ATOM     19  C   UNL A   1      38.207  30.469  28.794  1.00  0.00     0.029 A 
ATOM     20  N   UNL A   1      39.627  30.024  30.460  1.00  0.00    -0.354 N 
ATOM     21  C   UNL A   1      39.468  32.265  34.169  1.00  0.00     0.074 A 
ATOM     22  C   UNL A   1      38.404  33.248  34.138  1.00  0.00     0.031 C 
ATOM     23  C   UNL A   1      38.982  29.451  28.396  1.00  0.00     0.029 A 
ATOM     24  C   UNL A   1      39.952  29.157  29.443  1.00  0.00     0.049 A 
ATOM     25  H   UNL A   1      40.100  30.045  31.324  1.00  0.00     0.167 HD
ATOM     26  C   UNL A   1      40.304  32.065  35.219  1.00  0.00     0.034 A 
ATOM     27  C   UNL A   1      40.937  28.242  29.351  1.00  0.00     0.034 A 
ATOM     28  C   UNL A   1      41.353  31.071  35.235  1.00  0.00     0.049 A 
ATOM     29  C   UNL A   1      41.866  28.061  30.521  1.00  0.00     0.074 A 
ATOM     30  C   UNL A   1      42.229  30.759  36.261  1.00  0.00     0.029 A 
ATOM     31  N   UNL A   1      41.677  30.235  34.173  1.00  0.00    -0.354 N 
ATOM     32  N   UNL A   1      41.864  28.681  31.678  1.00  0.00    -0.248 NA
ATOM     33  C   UNL A   1      42.924  27.056  30.374  1.00  0.00     0.031 C 
ATOM     34  C   UNL A   1      43.118  29.782  35.800  1.00  0.00     0.029 A 
ATOM     35  C   UNL A   1      42.756  29.432  34.509  1.00  0.00     0.049 A 
ATOM     36  H   UNL A   1      41.207  30.216  33.307  1.00  0.00     0.167 HD
ATOM     37  C   UNL A   1      42.913  28.127  32.403  1.00  0.00     0.074 A 
ATOM     38  C   UNL A   1      43.507  27.107  31.562  1.00  0.00     0.031 C 
ATOM     39  C   UNL A   1      43.349  28.434  33.651  1.00  0.00     0.034 A 
BRANCH  26  40
ATOM     40  C   UNL A   1      40.150  32.964  36.421  1.00  0.00     0.023 A 
ATOM     41  C   UNL A   1      39.383  32.591  37.538  1.00  0.00     0.031 A 
ATOM     42  C   UNL A   1      40.795  34.214  36.454  1.00  0.00     0.131 A 
ATOM     43  C   UNL A   1      39.240  33.477  38.619  1.00  0.00     0.055 A 
ATOM     44  C   UNL A   1      40.704  35.063  37.558  1.00  0.00     0.041 A 
ATOM     45  F   UNL A   1      41.527  34.632  35.409  1.00  0.00    -0.206 F 
ATOM     46  C   UNL A   1      39.914  34.701  38.646  1.00  0.00     0.022 A 
BRANCH  43  47
ATOM     47  S   UNL A   1      38.078  33.055  39.946  1.00  0.00     0.124 S 
ATOM     48  O   UNL A   1      36.828  32.895  39.205  1.00  0.00    -0.237 OA
ATOM     49  O   UNL A   1      38.655  31.833  40.494  1.00  0.00    -0.237 OA
ATOM     50  O   UNL A   1      38.127  34.219  40.829  1.00  0.00    -0.744 OA
ENDBRANCH  43  47
ENDBRANCH  26  40
BRANCH  27  51
ATOM     51  C   UNL A   1      41.120  27.461  28.095  1.00  0.00     0.023 A 
ATOM     52  C   UNL A   1      40.807  26.094  28.038  1.00  0.00     0.031 A 
ATOM     53  C   UNL A   1      41.649  28.067  26.941  1.00  0.00     0.131 A 
ATOM     54  C   UNL A   1      41.067  25.368  26.865  1.00  0.00     0.055 A 
ATOM     55  C   UNL A   1      41.851  27.353  25.760  1.00  0.00     0.041 A 
ATOM     56  F   UNL A   1      41.963  29.372  26.942  1.00  0.00    -0.206 F 
ATOM     57  C   UNL A   1      41.572  25.991  25.722  1.00  0.00     0.022 A 
BRANCH  54  58
ATOM     58  S   UNL A   1      40.818  23.572  26.885  1.00  0.00     0.124 S 
ATOM     59  O   UNL A   1      41.054  23.254  28.289  1.00  0.00    -0.237 OA
ATOM     60  O   UNL A   1      39.440  23.451  26.423  1.00  0.00    -0.237 OA
ATOM     61  O   UNL A   1      41.832  23.079  25.955  1.00  0.00    -0.744 OA
ENDBRANCH  54  58
ENDBRANCH  27  51
BRANCH  39  62
ATOM     62  C   UNL A   1      44.504  27.622  34.180  1.00  0.00     0.023 A 
ATOM     63  C   UNL A   1      44.300  26.411  34.865  1.00  0.00     0.031 A 
ATOM     64  C   UNL A   1      45.823  28.084  34.027  1.00  0.00     0.131 A 
ATOM     65  C   UNL A   1      45.393  25.734  35.424  1.00  0.00     0.055 A 
ATOM     66  C   UNL A   1      46.912  27.376  34.536  1.00  0.00     0.041 A 
ATOM     67  F   UNL A   1      46.072  29.237  33.384  1.00  0.00    -0.206 F 
ATOM     68  C   UNL A   1      46.699  26.200  35.251  1.00  0.00     0.022 A 
BRANCH  65  69
ATOM     69  S   UNL A   1      45.077  24.279  36.461  1.00  0.00     0.124 S 
ATOM     70  O   UNL A   1      44.294  23.433  35.567  1.00  0.00    -0.237 OA
ATOM     71  O   UNL A   1      46.426  23.811  36.762  1.00  0.00    -0.237 OA
ATOM     72  O   UNL A   1      44.342  24.824  37.602  1.00  0.00    -0.744 OA
ENDBRANCH  65  69
ENDBRANCH  39  62
ENDBRANCH  13  14
ENDBRANCH   6   8
ENDBRANCH   3   4
ENDBRANCH   2   3
ENDBRANCH   1   2
BRANCH   1  73
ATOM     73  C   UNL A   1      32.718  30.047  25.826  1.00  0.00     0.116 C 
BRANCH  73  74
ATOM     74  N   UNL A   1      33.082  29.630  24.477  1.00  0.00    -0.352 N 
ATOM     75  C   UNL A   1      32.698  28.501  23.793  1.00  0.00     0.251 C 
ATOM     76  H   UNL A   1      33.683  30.239  23.991  1.00  0.00     0.163 HD
ATOM     77  O   UNL A   1      33.189  28.213  22.708  1.00  0.00    -0.269 OA
BRANCH  75  78
ATOM     78  C   UNL A   1      31.683  27.614  24.391  1.00  0.00     0.043 A 
ATOM     79  C   UNL A   1      30.423  27.512  23.804  1.00  0.00     0.014 A 
ATOM     80  C   UNL A   1      32.005  26.863  25.524  1.00  0.00     0.062 A 
ATOM     81  C   UNL A   1      29.502  26.601  24.321  1.00  0.00     0.005 A 
ATOM     82  C   UNL A   1      31.110  25.910  26.006  1.00  0.00     0.143 A 
ATOM     83  C   UNL A   1      29.851  25.792  25.410  1.00  0.00     0.048 A 
BRANCH  82  84
ATOM     84  O   UNL A   1      31.393  25.049  27.040  1.00  0.00    -0.379 OA
BRANCH  84  85
ATOM     85  S   UNL A   1      31.549  23.444  26.760  1.00  0.00     0.339 S 
ATOM     86  O   UNL A   1      32.478  22.889  27.727  1.00  0.00    -0.181 OA
ATOM     87  O   UNL A   1      30.228  22.879  26.567  1.00  0.00    -0.181 OA
BRANCH  85  88
ATOM     88  C   UNL A   1      32.351  23.296  25.183  1.00  0.00     0.112 A 
ATOM     89  C   UNL A   1      31.636  22.966  24.029  1.00  0.00     0.024 A 
ATOM     90  C   UNL A   1      33.739  23.480  25.150  1.00  0.00     0.109 A 
ATOM     91  C   UNL A   1      32.322  22.811  22.822  1.00  0.00     0.009 A 
ATOM     92  C   UNL A   1      34.414  23.320  23.935  1.00  0.00     0.270 A 
ATOM     93  C   UNL A   1      33.709  22.984  22.771  1.00  0.00     0.086 A 
BRANCH  92  94
ATOM     94  N   UNL A   1      35.872  23.492  23.884  1.00  0.00     0.062 N 
ATOM     95  O   UNL A   1      36.452  23.154  22.843  1.00  0.00    -0.258 OA
ATOM     96  O   UNL A   1      36.431  23.965  24.882  1.00  0.00    -0.258 OA
ENDBRANCH  92  94
ENDBRANCH  85  88
ENDBRANCH  84  85
ENDBRANCH  82  84
ENDBRANCH  75  78
ENDBRANCH  73  74
ENDBRANCH   1  73
TORSDOF 18
ENDMDL
