MODEL 1
REMARK VINA RESULT:     -12.3      0.000      0.000
REMARK SMILES C[C@H]1[C@H](C(=O)NCCCCNC(=O)c2ccc(-c3c4nc(c(-c5cc(S(=O)(=O)[O-])ccc5F)c5ccc([nH]5)c(-c5cc(S(=O)(=O)[O-])ccc5F)c5nc(c(-c6cc(S(=O)(=O)[O-])ccc6F)c6ccc3[nH]6)C=C5)C=C4)cc2)CCN1c1ncnc2sccc12
REMARK SMILES IDX 9 1 8 2 7 3 6 4 4 5 5 6 3 8 1 9 2 10 79 11 77 12 78 13 80 14
REMARK SMILES IDX 81 15 88 16 82 17 84 18 87 19 83 20 85 21 86 22 10 23 11 24
REMARK SMILES IDX 12 25 13 27 14 28 15 29 76 30 16 31 75 32 17 33 18 34 19 35
REMARK SMILES IDX 69 36 20 37 74 38 68 39 70 40 21 41 73 42 67 43 66 44 22 46
REMARK SMILES IDX 54 47 34 48 53 49 35 50 38 51 52 52 71 53 36 54 37 55 51 57
REMARK SMILES IDX 72 58 39 59 23 60 24 61 32 62 25 63 31 64 33 65 30 66 26 67
REMARK SMILES IDX 27 68 28 69 29 70 55 71 56 72 64 73 57 74 63 75 65 76 62 77
REMARK SMILES IDX 58 78 59 79 60 80 61 81 40 82 41 83 49 84 42 85 48 86 50 87
REMARK SMILES IDX 47 88 43 89 44 90 45 91 46 92
REMARK H PARENT 6 7 11 26 70 45 38 56
REMARK Flexibility Score: inf
ROOT
ATOM      1  C   UNL A   1      36.472  20.397  24.965  1.00  0.00     0.023 C 
ENDROOT
BRANCH   1   2
ATOM      2  C   UNL A   1      35.218  21.131  25.441  1.00  0.00     0.023 C 
BRANCH   2   3
ATOM      3  C   UNL A   1      33.910  20.395  25.161  1.00  0.00     0.116 C 
BRANCH   3   4
ATOM      4  N   UNL A   1      33.149  21.023  24.095  1.00  0.00    -0.356 N 
ATOM      5  C   UNL A   1      32.406  22.162  24.084  1.00  0.00     0.225 C 
ATOM      6  O   UNL A   1      31.821  22.450  23.036  1.00  0.00    -0.275 OA
ATOM      7  H   UNL A   1      33.175  20.543  23.237  1.00  0.00     0.163 HD
BRANCH   5   8
ATOM      8  C   UNL A   1      32.307  23.094  25.283  1.00  0.00     0.102 C 
ATOM      9  C   UNL A   1      33.939  24.961  25.734  1.00  0.00     0.032 C 
ATOM     10  C   UNL A   1      32.690  24.543  24.957  1.00  0.00     0.093 C 
ATOM     11  N   UNL A   1      31.525  25.342  25.357  1.00  0.00    -0.352 N 
ATOM     12  C   UNL A   1      30.918  23.114  25.909  1.00  0.00     0.037 C 
ATOM     13  C   UNL A   1      30.544  24.577  26.098  1.00  0.00     0.119 C 
BRANCH  11  14
ATOM     14  C   UNL A   1      31.356  26.630  24.894  1.00  0.00     0.141 A 
ATOM     15  N   UNL A   1      30.861  26.769  23.635  1.00  0.00    -0.219 NA
ATOM     16  C   UNL A   1      31.624  27.830  25.613  1.00  0.00     0.054 A 
ATOM     17  C   UNL A   1      30.646  27.986  23.119  1.00  0.00     0.225 A 
ATOM     18  C   UNL A   1      31.337  29.020  24.952  1.00  0.00     0.128 A 
ATOM     19  C   UNL A   1      32.152  28.130  26.922  1.00  0.00     0.026 A 
ATOM     20  N   UNL A   1      30.856  29.158  23.708  1.00  0.00    -0.225 NA
ATOM     21  S   UNL A   1      31.653  30.413  25.887  1.00  0.00    -0.124 S 
ATOM     22  C   UNL A   1      32.195  29.479  27.203  1.00  0.00     0.068 A 
ENDBRANCH  11  14
ENDBRANCH   5   8
ENDBRANCH   3   4
ENDBRANCH   2   3
ENDBRANCH   1   2
BRANCH   1  23
ATOM     23  C   UNL A   1      37.792  21.075  25.312  1.00  0.00     0.116 C 
BRANCH  23  24
ATOM     24  N   UNL A   1      38.811  20.143  25.770  1.00  0.00    -0.352 N 
ATOM     25  C   UNL A   1      40.001  20.411  26.402  1.00  0.00     0.251 C 
ATOM     26  H   UNL A   1      38.622  19.191  25.604  1.00  0.00     0.163 HD
ATOM     27  O   UNL A   1      40.806  19.506  26.606  1.00  0.00    -0.269 OA
BRANCH  25  28
ATOM     28  C   UNL A   1      40.318  21.801  26.794  1.00  0.00     0.039 A 
ATOM     29  C   UNL A   1      41.226  22.020  27.832  1.00  0.00     0.014 A 
ATOM     30  C   UNL A   1      39.752  22.880  26.112  1.00  0.00     0.014 A 
ATOM     31  C   UNL A   1      41.623  23.324  28.136  1.00  0.00     0.010 A 
ATOM     32  C   UNL A   1      40.204  24.172  26.367  1.00  0.00     0.010 A 
ATOM     33  C   UNL A   1      41.147  24.407  27.380  1.00  0.00    -0.014 A 
BRANCH  33  34
ATOM     34  C   UNL A   1      41.625  25.792  27.630  1.00  0.00     0.031 A 
ATOM     35  C   UNL A   1      42.981  26.220  27.138  1.00  0.00     0.074 A 
ATOM     36  C   UNL A   1      40.868  26.638  28.356  1.00  0.00     0.049 A 
ATOM     37  N   UNL A   1      43.609  27.352  27.322  1.00  0.00    -0.248 NA
ATOM     38  C   UNL A   1      43.741  25.229  26.362  1.00  0.00     0.031 C 
ATOM     39  C   UNL A   1      39.555  26.324  28.925  1.00  0.00     0.029 A 
ATOM     40  N   UNL A   1      41.096  27.933  28.750  1.00  0.00    -0.354 N 
ATOM     41  C   UNL A   1      44.844  27.206  26.698  1.00  0.00     0.074 A 
ATOM     42  C   UNL A   1      44.897  25.853  26.188  1.00  0.00     0.031 C 
ATOM     43  C   UNL A   1      39.086  27.402  29.571  1.00  0.00     0.029 A 
ATOM     44  C   UNL A   1      40.079  28.469  29.506  1.00  0.00     0.049 A 
ATOM     45  H   UNL A   1      41.911  28.433  28.513  1.00  0.00     0.167 HD
ATOM     46  C   UNL A   1      45.831  28.123  26.545  1.00  0.00     0.034 A 
ATOM     47  C   UNL A   1      39.965  29.679  30.091  1.00  0.00     0.034 A 
ATOM     48  C   UNL A   1      45.756  29.473  27.049  1.00  0.00     0.049 A 
ATOM     49  C   UNL A   1      41.085  30.676  29.925  1.00  0.00     0.074 A 
ATOM     50  C   UNL A   1      46.671  30.502  26.903  1.00  0.00     0.029 A 
ATOM     51  N   UNL A   1      44.709  29.983  27.808  1.00  0.00    -0.354 N 
ATOM     52  N   UNL A   1      42.223  30.540  29.285  1.00  0.00    -0.248 NA
ATOM     53  C   UNL A   1      40.897  31.991  30.549  1.00  0.00     0.031 C 
ATOM     54  C   UNL A   1      46.211  31.607  27.627  1.00  0.00     0.029 A 
ATOM     55  C   UNL A   1      44.971  31.298  28.161  1.00  0.00     0.049 A 
ATOM     56  H   UNL A   1      43.899  29.482  28.058  1.00  0.00     0.167 HD
ATOM     57  C   UNL A   1      42.874  31.765  29.406  1.00  0.00     0.074 A 
ATOM     58  C   UNL A   1      41.993  32.629  30.165  1.00  0.00     0.031 C 
ATOM     59  C   UNL A   1      44.087  32.144  28.930  1.00  0.00     0.034 A 
BRANCH  46  60
ATOM     60  C   UNL A   1      47.082  27.683  25.821  1.00  0.00     0.023 A 
ATOM     61  C   UNL A   1      47.292  27.977  24.461  1.00  0.00     0.031 A 
ATOM     62  C   UNL A   1      48.066  26.932  26.488  1.00  0.00     0.131 A 
ATOM     63  C   UNL A   1      48.411  27.456  23.795  1.00  0.00     0.055 A 
ATOM     64  C   UNL A   1      49.221  26.489  25.840  1.00  0.00     0.041 A 
ATOM     65  F   UNL A   1      47.914  26.601  27.780  1.00  0.00    -0.206 F 
ATOM     66  C   UNL A   1      49.391  26.736  24.482  1.00  0.00     0.022 A 
BRANCH  63  67
ATOM     67  S   UNL A   1      48.490  27.606  21.990  1.00  0.00     0.124 S 
ATOM     68  O   UNL A   1      49.612  28.527  21.819  1.00  0.00    -0.237 OA
ATOM     69  O   UNL A   1      48.721  26.230  21.567  1.00  0.00    -0.237 OA
ATOM     70  O   UNL A   1      47.184  28.157  21.635  1.00  0.00    -0.744 OA
ENDBRANCH  63  67
ENDBRANCH  46  60
BRANCH  47  71
ATOM     71  C   UNL A   1      38.756  30.020  30.895  1.00  0.00     0.023 A 
ATOM     72  C   UNL A   1      37.717  30.790  30.349  1.00  0.00     0.031 A 
ATOM     73  C   UNL A   1      38.642  29.617  32.238  1.00  0.00     0.131 A 
ATOM     74  C   UNL A   1      36.633  31.173  31.153  1.00  0.00     0.055 A 
ATOM     75  C   UNL A   1      37.535  29.956  33.018  1.00  0.00     0.041 A 
ATOM     76  F   UNL A   1      39.604  28.875  32.808  1.00  0.00    -0.206 F 
ATOM     77  C   UNL A   1      36.528  30.752  32.480  1.00  0.00     0.022 A 
BRANCH  74  78
ATOM     78  S   UNL A   1      35.399  32.309  30.461  1.00  0.00     0.124 S 
ATOM     79  O   UNL A   1      36.191  33.515  30.246  1.00  0.00    -0.237 OA
ATOM     80  O   UNL A   1      34.973  31.598  29.260  1.00  0.00    -0.237 OA
ATOM     81  O   UNL A   1      34.393  32.403  31.518  1.00  0.00    -0.744 OA
ENDBRANCH  74  78
ENDBRANCH  47  71
BRANCH  59  82
ATOM     82  C   UNL A   1      44.506  33.572  29.181  1.00  0.00     0.023 A 
ATOM     83  C   UNL A   1      44.121  34.619  28.326  1.00  0.00     0.031 A 
ATOM     84  C   UNL A   1      45.313  33.886  30.290  1.00  0.00     0.131 A 
ATOM     85  C   UNL A   1      44.591  35.920  28.559  1.00  0.00     0.055 A 
ATOM     86  C   UNL A   1      45.725  35.193  30.553  1.00  0.00     0.041 A 
ATOM     87  F   UNL A   1      45.711  32.926  31.139  1.00  0.00    -0.206 F 
ATOM     88  C   UNL A   1      45.375  36.217  29.677  1.00  0.00     0.022 A 
BRANCH  85  89
ATOM     89  S   UNL A   1      44.237  37.209  27.332  1.00  0.00     0.124 S 
ATOM     90  O   UNL A   1      45.511  37.312  26.626  1.00  0.00    -0.237 OA
ATOM     91  O   UNL A   1      43.136  36.624  26.575  1.00  0.00    -0.237 OA
ATOM     92  O   UNL A   1      43.883  38.370  28.145  1.00  0.00    -0.744 OA
ENDBRANCH  85  89
ENDBRANCH  59  82
ENDBRANCH  33  34
ENDBRANCH  25  28
ENDBRANCH  23  24
ENDBRANCH   1  23
TORSDOF 15
ENDMDL
MODEL 2
REMARK VINA RESULT:     -12.1      5.196      8.564
REMARK SMILES C[C@H]1[C@H](C(=O)NCCCCNC(=O)c2ccc(-c3c4nc(c(-c5cc(S(=O)(=O)[O-])ccc5F)c5ccc([nH]5)c(-c5cc(S(=O)(=O)[O-])ccc5F)c5nc(c(-c6cc(S(=O)(=O)[O-])ccc6F)c6ccc3[nH]6)C=C5)C=C4)cc2)CCN1c1ncnc2sccc12
REMARK SMILES IDX 9 1 8 2 7 3 6 4 4 5 5 6 3 8 1 9 2 10 79 11 77 12 78 13 80 14
REMARK SMILES IDX 81 15 88 16 82 17 84 18 87 19 83 20 85 21 86 22 10 23 11 24
REMARK SMILES IDX 12 25 13 27 14 28 15 29 76 30 16 31 75 32 17 33 18 34 19 35
REMARK SMILES IDX 69 36 20 37 74 38 68 39 70 40 21 41 73 42 67 43 66 44 22 46
REMARK SMILES IDX 54 47 34 48 53 49 35 50 38 51 52 52 71 53 36 54 37 55 51 57
REMARK SMILES IDX 72 58 39 59 23 60 24 61 32 62 25 63 31 64 33 65 30 66 26 67
REMARK SMILES IDX 27 68 28 69 29 70 55 71 56 72 64 73 57 74 63 75 65 76 62 77
REMARK SMILES IDX 58 78 59 79 60 80 61 81 40 82 41 83 49 84 42 85 48 86 50 87
REMARK SMILES IDX 47 88 43 89 44 90 45 91 46 92
REMARK H PARENT 6 7 11 26 70 45 38 56
REMARK Flexibility Score: inf
ROOT
ATOM      1  C   UNL A   1      31.147  30.820  25.621  1.00  0.00     0.023 C 
ENDROOT
BRANCH   1   2
ATOM      2  C   UNL A   1      31.448  29.507  24.897  1.00  0.00     0.023 C 
BRANCH   2   3
ATOM      3  C   UNL A   1      30.560  29.235  23.687  1.00  0.00     0.116 C 
BRANCH   3   4
ATOM      4  N   UNL A   1      29.895  27.947  23.778  1.00  0.00    -0.356 N 
ATOM      5  C   UNL A   1      30.360  26.688  23.559  1.00  0.00     0.225 C 
ATOM      6  O   UNL A   1      29.558  25.757  23.672  1.00  0.00    -0.275 OA
ATOM      7  H   UNL A   1      28.948  27.993  24.042  1.00  0.00     0.163 HD
BRANCH   5   8
ATOM      8  C   UNL A   1      31.815  26.393  23.227  1.00  0.00     0.102 C 
ATOM      9  C   UNL A   1      33.635  26.228  24.963  1.00  0.00     0.032 C 
ATOM     10  C   UNL A   1      32.500  25.486  24.258  1.00  0.00     0.093 C 
ATOM     11  N   UNL A   1      33.012  24.349  23.481  1.00  0.00    -0.352 N 
ATOM     12  C   UNL A   1      31.995  25.751  21.856  1.00  0.00     0.037 C 
ATOM     13  C   UNL A   1      32.915  24.554  22.051  1.00  0.00     0.119 C 
BRANCH  11  14
ATOM     14  C   UNL A   1      33.370  23.170  24.100  1.00  0.00     0.141 A 
ATOM     15  N   UNL A   1      32.359  22.405  24.592  1.00  0.00    -0.219 NA
ATOM     16  C   UNL A   1      34.691  22.661  24.255  1.00  0.00     0.054 A 
ATOM     17  C   UNL A   1      32.619  21.234  25.189  1.00  0.00     0.225 A 
ATOM     18  C   UNL A   1      34.804  21.425  24.883  1.00  0.00     0.128 A 
ATOM     19  C   UNL A   1      36.008  23.140  23.908  1.00  0.00     0.026 A 
ATOM     20  N   UNL A   1      33.809  20.674  25.374  1.00  0.00    -0.225 NA
ATOM     21  S   UNL A   1      36.413  20.866  25.002  1.00  0.00    -0.124 S 
ATOM     22  C   UNL A   1      37.017  22.258  24.231  1.00  0.00     0.068 A 
ENDBRANCH  11  14
ENDBRANCH   5   8
ENDBRANCH   3   4
ENDBRANCH   2   3
ENDBRANCH   1   2
BRANCH   1  23
ATOM     23  C   UNL A   1      32.217  31.278  26.606  1.00  0.00     0.116 C 
BRANCH  23  24
ATOM     24  N   UNL A   1      32.128  32.695  26.929  1.00  0.00    -0.352 N 
ATOM     25  C   UNL A   1      32.967  33.454  27.708  1.00  0.00     0.251 C 
ATOM     26  H   UNL A   1      31.363  33.173  26.535  1.00  0.00     0.163 HD
ATOM     27  O   UNL A   1      32.671  34.614  27.980  1.00  0.00    -0.269 OA
BRANCH  25  28
ATOM     28  C   UNL A   1      34.203  32.849  28.247  1.00  0.00     0.039 A 
ATOM     29  C   UNL A   1      35.358  33.628  28.330  1.00  0.00     0.014 A 
ATOM     30  C   UNL A   1      34.208  31.529  28.707  1.00  0.00     0.014 A 
ATOM     31  C   UNL A   1      36.499  33.108  28.943  1.00  0.00     0.010 A 
ATOM     32  C   UNL A   1      35.322  31.038  29.383  1.00  0.00     0.010 A 
ATOM     33  C   UNL A   1      36.478  31.823  29.511  1.00  0.00    -0.014 A 
BRANCH  33  34
ATOM     34  C   UNL A   1      37.653  31.285  30.244  1.00  0.00     0.031 A 
ATOM     35  C   UNL A   1      38.552  30.273  29.586  1.00  0.00     0.074 A 
ATOM     36  C   UNL A   1      37.869  31.655  31.522  1.00  0.00     0.049 A 
ATOM     37  N   UNL A   1      39.575  29.627  30.083  1.00  0.00    -0.248 NA
ATOM     38  C   UNL A   1      38.236  29.920  28.194  1.00  0.00     0.031 C 
ATOM     39  C   UNL A   1      37.042  32.595  32.282  1.00  0.00     0.029 A 
ATOM     40  N   UNL A   1      38.845  31.281  32.413  1.00  0.00    -0.354 N 
ATOM     41  C   UNL A   1      40.018  28.782  29.071  1.00  0.00     0.074 A 
ATOM     42  C   UNL A   1      39.109  28.952  27.957  1.00  0.00     0.031 C 
ATOM     43  C   UNL A   1      37.558  32.741  33.512  1.00  0.00     0.029 A 
ATOM     44  C   UNL A   1      38.723  31.873  33.648  1.00  0.00     0.049 A 
ATOM     45  H   UNL A   1      39.564  30.648  32.188  1.00  0.00     0.167 HD
ATOM     46  C   UNL A   1      41.094  27.957  29.064  1.00  0.00     0.034 A 
ATOM     47  C   UNL A   1      39.460  31.726  34.768  1.00  0.00     0.034 A 
ATOM     48  C   UNL A   1      41.997  27.809  30.180  1.00  0.00     0.049 A 
ATOM     49  C   UNL A   1      40.641  30.788  34.743  1.00  0.00     0.074 A 
ATOM     50  C   UNL A   1      43.150  27.047  30.262  1.00  0.00     0.029 A 
ATOM     51  N   UNL A   1      41.845  28.428  31.415  1.00  0.00    -0.354 N 
ATOM     52  N   UNL A   1      41.078  30.035  33.760  1.00  0.00    -0.248 NA
ATOM     53  C   UNL A   1      41.433  30.689  35.975  1.00  0.00     0.031 C 
ATOM     54  C   UNL A   1      43.655  27.151  31.562  1.00  0.00     0.029 A 
ATOM     55  C   UNL A   1      42.864  28.040  32.272  1.00  0.00     0.049 A 
ATOM     56  H   UNL A   1      41.118  29.051  31.647  1.00  0.00     0.167 HD
ATOM     57  C   UNL A   1      42.214  29.397  34.247  1.00  0.00     0.074 A 
ATOM     58  C   UNL A   1      42.403  29.866  35.605  1.00  0.00     0.031 C 
ATOM     59  C   UNL A   1      43.032  28.507  33.628  1.00  0.00     0.034 A 
BRANCH  46  60
ATOM     60  C   UNL A   1      41.334  27.140  27.816  1.00  0.00     0.023 A 
ATOM     61  C   UNL A   1      41.032  25.766  27.763  1.00  0.00     0.031 A 
ATOM     62  C   UNL A   1      41.899  27.731  26.672  1.00  0.00     0.131 A 
ATOM     63  C   UNL A   1      41.372  25.017  26.627  1.00  0.00     0.055 A 
ATOM     64  C   UNL A   1      42.155  26.996  25.513  1.00  0.00     0.041 A 
ATOM     65  F   UNL A   1      42.228  29.032  26.668  1.00  0.00    -0.206 F 
ATOM     66  C   UNL A   1      41.907  25.628  25.491  1.00  0.00     0.022 A 
BRANCH  63  67
ATOM     67  S   UNL A   1      41.243  23.210  26.713  1.00  0.00     0.124 S 
ATOM     68  O   UNL A   1      42.132  22.799  25.628  1.00  0.00    -0.237 OA
ATOM     69  O   UNL A   1      41.708  22.923  28.064  1.00  0.00    -0.237 OA
ATOM     70  O   UNL A   1      39.823  22.957  26.474  1.00  0.00    -0.744 OA
ENDBRANCH  63  67
ENDBRANCH  46  60
BRANCH  47  71
ATOM     71  C   UNL A   1      39.107  32.471  36.011  1.00  0.00     0.023 A 
ATOM     72  C   UNL A   1      38.334  31.872  37.017  1.00  0.00     0.031 A 
ATOM     73  C   UNL A   1      39.502  33.809  36.191  1.00  0.00     0.131 A 
ATOM     74  C   UNL A   1      37.938  32.622  38.136  1.00  0.00     0.055 A 
ATOM     75  C   UNL A   1      39.151  34.534  37.330  1.00  0.00     0.041 A 
ATOM     76  F   UNL A   1      40.247  34.428  35.262  1.00  0.00    -0.206 F 
ATOM     77  C   UNL A   1      38.352  33.945  38.306  1.00  0.00     0.022 A 
BRANCH  74  78
ATOM     78  S   UNL A   1      36.798  31.868  39.328  1.00  0.00     0.124 S 
ATOM     79  O   UNL A   1      35.574  32.623  39.089  1.00  0.00    -0.237 OA
ATOM     80  O   UNL A   1      36.787  30.474  38.896  1.00  0.00    -0.237 OA
ATOM     81  O   UNL A   1      37.442  32.114  40.617  1.00  0.00    -0.744 OA
ENDBRANCH  74  78
ENDBRANCH  47  71
BRANCH  59  82
ATOM     82  C   UNL A   1      44.231  28.022  34.407  1.00  0.00     0.023 A 
ATOM     83  C   UNL A   1      44.207  26.818  35.132  1.00  0.00     0.031 A 
ATOM     84  C   UNL A   1      45.412  28.786  34.432  1.00  0.00     0.131 A 
ATOM     85  C   UNL A   1      45.320  26.441  35.897  1.00  0.00     0.055 A 
ATOM     86  C   UNL A   1      46.539  28.374  35.145  1.00  0.00     0.041 A 
ATOM     87  F   UNL A   1      45.491  29.945  33.760  1.00  0.00    -0.206 F 
ATOM     88  C   UNL A   1      46.492  27.202  35.894  1.00  0.00     0.022 A 
BRANCH  85  89
ATOM     89  S   UNL A   1      45.187  24.985  36.972  1.00  0.00     0.124 S 
ATOM     90  O   UNL A   1      44.648  25.563  38.199  1.00  0.00    -0.237 OA
ATOM     91  O   UNL A   1      44.279  24.125  36.221  1.00  0.00    -0.237 OA
ATOM     92  O   UNL A   1      46.563  24.501  37.067  1.00  0.00    -0.744 OA
ENDBRANCH  85  89
ENDBRANCH  59  82
ENDBRANCH  33  34
ENDBRANCH  25  28
ENDBRANCH  23  24
ENDBRANCH   1  23
TORSDOF 15
ENDMDL
MODEL 3
REMARK VINA RESULT:     -12.1      4.914     10.466
REMARK SMILES C[C@H]1[C@H](C(=O)NCCCCNC(=O)c2ccc(-c3c4nc(c(-c5cc(S(=O)(=O)[O-])ccc5F)c5ccc([nH]5)c(-c5cc(S(=O)(=O)[O-])ccc5F)c5nc(c(-c6cc(S(=O)(=O)[O-])ccc6F)c6ccc3[nH]6)C=C5)C=C4)cc2)CCN1c1ncnc2sccc12
REMARK SMILES IDX 9 1 8 2 7 3 6 4 4 5 5 6 3 8 1 9 2 10 79 11 77 12 78 13 80 14
REMARK SMILES IDX 81 15 88 16 82 17 84 18 87 19 83 20 85 21 86 22 10 23 11 24
REMARK SMILES IDX 12 25 13 27 14 28 15 29 76 30 16 31 75 32 17 33 18 34 19 35
REMARK SMILES IDX 69 36 20 37 74 38 68 39 70 40 21 41 73 42 67 43 66 44 22 46
REMARK SMILES IDX 54 47 34 48 53 49 35 50 38 51 52 52 71 53 36 54 37 55 51 57
REMARK SMILES IDX 72 58 39 59 23 60 24 61 32 62 25 63 31 64 33 65 30 66 26 67
REMARK SMILES IDX 27 68 28 69 29 70 55 71 56 72 64 73 57 74 63 75 65 76 62 77
REMARK SMILES IDX 58 78 59 79 60 80 61 81 40 82 41 83 49 84 42 85 48 86 50 87
REMARK SMILES IDX 47 88 43 89 44 90 45 91 46 92
REMARK H PARENT 6 7 11 26 70 45 38 56
REMARK Flexibility Score: inf
ROOT
ATOM      1  C   UNL A   1      32.002  29.601  25.388  1.00  0.00     0.023 C 
ENDROOT
BRANCH   1   2
ATOM      2  C   UNL A   1      30.759  30.041  24.614  1.00  0.00     0.023 C 
BRANCH   2   3
ATOM      3  C   UNL A   1      30.495  29.244  23.339  1.00  0.00     0.116 C 
BRANCH   3   4
ATOM      4  N   UNL A   1      29.856  27.970  23.616  1.00  0.00    -0.356 N 
ATOM      5  C   UNL A   1      30.345  26.701  23.574  1.00  0.00     0.225 C 
ATOM      6  O   UNL A   1      29.562  25.780  23.822  1.00  0.00    -0.275 OA
ATOM      7  H   UNL A   1      28.910  28.034  23.877  1.00  0.00     0.163 HD
BRANCH   5   8
ATOM      8  C   UNL A   1      31.804  26.389  23.277  1.00  0.00     0.102 C 
ATOM      9  C   UNL A   1      33.573  26.164  25.059  1.00  0.00     0.032 C 
ATOM     10  C   UNL A   1      32.446  25.453  24.308  1.00  0.00     0.093 C 
ATOM     11  N   UNL A   1      32.963  24.323  23.525  1.00  0.00    -0.352 N 
ATOM     12  C   UNL A   1      32.013  25.770  21.899  1.00  0.00     0.037 C 
ATOM     13  C   UNL A   1      32.908  24.555  22.097  1.00  0.00     0.119 C 
BRANCH  11  14
ATOM     14  C   UNL A   1      33.285  23.128  24.132  1.00  0.00     0.141 A 
ATOM     15  N   UNL A   1      32.252  22.391  24.622  1.00  0.00    -0.219 NA
ATOM     16  C   UNL A   1      34.590  22.575  24.276  1.00  0.00     0.054 A 
ATOM     17  C   UNL A   1      32.477  21.207  25.206  1.00  0.00     0.225 A 
ATOM     18  C   UNL A   1      34.666  21.330  24.892  1.00  0.00     0.128 A 
ATOM     19  C   UNL A   1      35.920  23.015  23.926  1.00  0.00     0.026 A 
ATOM     20  N   UNL A   1      33.650  20.607  25.381  1.00  0.00    -0.225 NA
ATOM     21  S   UNL A   1      36.257  20.719  24.998  1.00  0.00    -0.124 S 
ATOM     22  C   UNL A   1      36.902  22.098  24.236  1.00  0.00     0.068 A 
ENDBRANCH  11  14
ENDBRANCH   5   8
ENDBRANCH   3   4
ENDBRANCH   2   3
ENDBRANCH   1   2
BRANCH   1  23
ATOM     23  C   UNL A   1      32.103  30.138  26.811  1.00  0.00     0.116 C 
BRANCH  23  24
ATOM     24  N   UNL A   1      32.099  31.592  26.875  1.00  0.00    -0.352 N 
ATOM     25  C   UNL A   1      33.039  32.432  27.422  1.00  0.00     0.251 C 
ATOM     26  H   UNL A   1      31.317  32.033  26.471  1.00  0.00     0.163 HD
ATOM     27  O   UNL A   1      32.814  33.636  27.502  1.00  0.00    -0.269 OA
BRANCH  25  28
ATOM     28  C   UNL A   1      34.299  31.867  27.950  1.00  0.00     0.039 A 
ATOM     29  C   UNL A   1      35.372  32.724  28.198  1.00  0.00     0.014 A 
ATOM     30  C   UNL A   1      34.403  30.504  28.236  1.00  0.00     0.014 A 
ATOM     31  C   UNL A   1      36.527  32.225  28.803  1.00  0.00     0.010 A 
ATOM     32  C   UNL A   1      35.525  30.023  28.906  1.00  0.00     0.010 A 
ATOM     33  C   UNL A   1      36.598  30.879  29.200  1.00  0.00    -0.014 A 
BRANCH  33  34
ATOM     34  C   UNL A   1      37.782  30.349  29.925  1.00  0.00     0.031 A 
ATOM     35  C   UNL A   1      38.057  30.788  31.337  1.00  0.00     0.074 A 
ATOM     36  C   UNL A   1      38.641  29.529  29.289  1.00  0.00     0.049 A 
ATOM     37  N   UNL A   1      39.074  30.505  32.109  1.00  0.00    -0.248 NA
ATOM     38  C   UNL A   1      37.071  31.692  31.949  1.00  0.00     0.031 C 
ATOM     39  C   UNL A   1      38.505  29.067  27.906  1.00  0.00     0.029 A 
ATOM     40  N   UNL A   1      39.807  28.943  29.718  1.00  0.00    -0.354 N 
ATOM     41  C   UNL A   1      38.859  31.205  33.292  1.00  0.00     0.074 A 
ATOM     42  C   UNL A   1      37.648  31.975  33.108  1.00  0.00     0.031 C 
ATOM     43  C   UNL A   1      39.530  28.254  27.610  1.00  0.00     0.029 A 
ATOM     44  C   UNL A   1      40.423  28.170  28.762  1.00  0.00     0.049 A 
ATOM     45  H   UNL A   1      40.168  29.065  30.626  1.00  0.00     0.167 HD
ATOM     46  C   UNL A   1      39.591  31.188  34.434  1.00  0.00     0.034 A 
ATOM     47  C   UNL A   1      41.581  27.480  28.803  1.00  0.00     0.034 A 
ATOM     48  C   UNL A   1      40.790  30.403  34.605  1.00  0.00     0.049 A 
ATOM     49  C   UNL A   1      42.389  27.492  30.076  1.00  0.00     0.074 A 
ATOM     50  C   UNL A   1      41.578  30.266  35.735  1.00  0.00     0.029 A 
ATOM     51  N   UNL A   1      41.383  29.628  33.615  1.00  0.00    -0.354 N 
ATOM     52  N   UNL A   1      42.143  28.117  31.205  1.00  0.00    -0.248 NA
ATOM     53  C   UNL A   1      43.623  26.698  30.084  1.00  0.00     0.031 C 
ATOM     54  C   UNL A   1      42.679  29.467  35.410  1.00  0.00     0.029 A 
ATOM     55  C   UNL A   1      42.540  29.038  34.100  1.00  0.00     0.049 A 
ATOM     56  H   UNL A   1      41.032  29.516  32.702  1.00  0.00     0.167 HD
ATOM     57  C   UNL A   1      43.179  27.765  32.066  1.00  0.00     0.074 A 
ATOM     58  C   UNL A   1      44.040  26.862  31.330  1.00  0.00     0.031 C 
ATOM     59  C   UNL A   1      43.397  28.148  33.350  1.00  0.00     0.034 A 
BRANCH  46  60
ATOM     60  C   UNL A   1      39.122  32.063  35.572  1.00  0.00     0.023 A 
ATOM     61  C   UNL A   1      39.538  33.401  35.696  1.00  0.00     0.031 A 
ATOM     62  C   UNL A   1      38.270  31.547  36.565  1.00  0.00     0.131 A 
ATOM     63  C   UNL A   1      39.171  34.148  36.826  1.00  0.00     0.055 A 
ATOM     64  C   UNL A   1      37.839  32.323  37.643  1.00  0.00     0.041 A 
ATOM     65  F   UNL A   1      37.855  30.271  36.514  1.00  0.00    -0.206 F 
ATOM     66  C   UNL A   1      38.302  33.627  37.787  1.00  0.00     0.022 A 
BRANCH  63  67
ATOM     67  S   UNL A   1      39.966  35.755  37.094  1.00  0.00     0.124 S 
ATOM     68  O   UNL A   1      39.280  36.226  38.296  1.00  0.00    -0.237 OA
ATOM     69  O   UNL A   1      41.368  35.392  37.259  1.00  0.00    -0.237 OA
ATOM     70  O   UNL A   1      39.653  36.500  35.877  1.00  0.00    -0.744 OA
ENDBRANCH  63  67
ENDBRANCH  46  60
BRANCH  47  71
ATOM     71  C   UNL A   1      42.057  26.727  27.607  1.00  0.00     0.023 A 
ATOM     72  C   UNL A   1      41.801  25.355  27.467  1.00  0.00     0.031 A 
ATOM     73  C   UNL A   1      42.814  27.362  26.605  1.00  0.00     0.131 A 
ATOM     74  C   UNL A   1      42.337  24.650  26.378  1.00  0.00     0.055 A 
ATOM     75  C   UNL A   1      43.299  26.668  25.496  1.00  0.00     0.041 A 
ATOM     76  F   UNL A   1      43.082  28.675  26.686  1.00  0.00    -0.206 F 
ATOM     77  C   UNL A   1      43.073  25.299  25.385  1.00  0.00     0.022 A 
BRANCH  74  78
ATOM     78  S   UNL A   1      42.130  22.848  26.323  1.00  0.00     0.124 S 
ATOM     79  O   UNL A   1      42.653  22.529  25.000  1.00  0.00    -0.237 OA
ATOM     80  O   UNL A   1      42.942  22.416  27.456  1.00  0.00    -0.237 OA
ATOM     81  O   UNL A   1      40.689  22.667  26.486  1.00  0.00    -0.744 OA
ENDBRANCH  74  78
ENDBRANCH  47  71
BRANCH  59  82
ATOM     82  C   UNL A   1      44.593  27.551  34.050  1.00  0.00     0.023 A 
ATOM     83  C   UNL A   1      44.521  26.316  34.718  1.00  0.00     0.031 A 
ATOM     84  C   UNL A   1      45.822  28.235  34.055  1.00  0.00     0.131 A 
ATOM     85  C   UNL A   1      45.639  25.832  35.414  1.00  0.00     0.055 A 
ATOM     86  C   UNL A   1      46.949  27.719  34.695  1.00  0.00     0.041 A 
ATOM     87  F   UNL A   1      45.948  29.418  33.433  1.00  0.00    -0.206 F 
ATOM     88  C   UNL A   1      46.858  26.516  35.391  1.00  0.00     0.022 A 
BRANCH  85  89
ATOM     89  S   UNL A   1      45.457  24.337  36.425  1.00  0.00     0.124 S 
ATOM     90  O   UNL A   1      45.872  24.811  37.742  1.00  0.00    -0.237 OA
ATOM     91  O   UNL A   1      44.039  24.031  36.276  1.00  0.00    -0.237 OA
ATOM     92  O   UNL A   1      46.367  23.383  35.794  1.00  0.00    -0.744 OA
ENDBRANCH  85  89
ENDBRANCH  59  82
ENDBRANCH  33  34
ENDBRANCH  25  28
ENDBRANCH  23  24
ENDBRANCH   1  23
TORSDOF 15
ENDMDL
