MODEL 1
REMARK VINA RESULT:     -13.5      0.000      0.000
REMARK SMILES O=C(NCCCCNC(=O)c1nn(Cc2ccc(F)cc2)c2c1CN(C(=O)[C@H]1CC1(F)F)CC2)c1ccc(-c2c3nc(c(-c4cc(S(=O)(=O)[O-])ccc4F)c4ccc([nH]4)c(-c4cc(S(=O)(=O)[O-])ccc4F)c4nc(c(-c5cc(S(=O)(=O)[O-])ccc5F)c5ccc2[nH]5)C=C4)C=C3)cc1
REMARK SMILES IDX 5 1 4 2 3 3 1 4 2 5 35 7 36 8 97 9 37 10 96 11 38 12 39 13
REMARK SMILES IDX 40 14 90 15 41 16 95 17 89 18 91 19 42 20 94 21 88 22 87 23
REMARK SMILES IDX 43 25 75 26 55 27 74 28 56 29 59 30 73 31 92 32 57 33 58 34
REMARK SMILES IDX 72 36 93 37 60 38 44 39 45 40 53 41 46 42 52 43 54 44 51 45
REMARK SMILES IDX 47 46 48 47 49 48 50 49 76 50 77 51 85 52 78 53 84 54 86 55
REMARK SMILES IDX 83 56 79 57 80 58 81 59 82 60 61 61 62 62 70 63 63 64 69 65
REMARK SMILES IDX 71 66 68 67 64 68 65 69 66 70 67 71 6 72 7 73 8 74 9 75
REMARK SMILES IDX 10 77 11 78 12 79 23 80 13 81 22 82 24 83 34 84 25 85 33 86
REMARK SMILES IDX 14 87 15 88 16 89 21 90 17 91 20 92 18 93 19 94 26 95 27 96
REMARK SMILES IDX 28 97 29 98 30 99 31 100 32 101
REMARK H PARENT 3 6 91 24 59 35 8 76
REMARK Flexibility Score: inf
ROOT
ATOM      1  C   UNL A   1      35.253  29.346  27.355  1.00  0.00     0.023 C 
ENDROOT
BRANCH   1   2
ATOM      2  C   UNL A   1      35.578  30.445  28.367  1.00  0.00     0.116 C 
BRANCH   2   3
ATOM      3  N   UNL A   1      35.663  30.011  29.748  1.00  0.00    -0.352 N 
ATOM      4  O   UNL A   1      36.374  29.626  31.790  1.00  0.00    -0.269 OA
ATOM      5  C   UNL A   1      36.671  29.617  30.589  1.00  0.00     0.251 C 
ATOM      6  H   UNL A   1      34.783  29.993  30.187  1.00  0.00     0.163 HD
BRANCH   5   7
ATOM      7  C   UNL A   1      38.029  29.134  30.196  1.00  0.00     0.039 A 
ATOM      8  C   UNL A   1      38.528  27.842  30.346  1.00  0.00     0.014 A 
ATOM      9  C   UNL A   1      38.892  30.117  29.660  1.00  0.00     0.014 A 
ATOM     10  C   UNL A   1      39.866  27.560  30.019  1.00  0.00     0.010 A 
ATOM     11  C   UNL A   1      40.226  29.843  29.347  1.00  0.00     0.010 A 
ATOM     12  C   UNL A   1      40.729  28.565  29.548  1.00  0.00    -0.014 A 
BRANCH  12  13
ATOM     13  C   UNL A   1      42.071  28.194  29.075  1.00  0.00     0.031 A 
ATOM     14  C   UNL A   1      42.098  26.933  28.284  1.00  0.00     0.074 A 
ATOM     15  C   UNL A   1      43.208  28.922  29.179  1.00  0.00     0.049 A 
ATOM     16  N   UNL A   1      42.590  25.792  28.640  1.00  0.00    -0.248 NA
ATOM     17  C   UNL A   1      41.382  26.898  27.002  1.00  0.00     0.031 C 
ATOM     18  C   UNL A   1      43.374  30.283  29.688  1.00  0.00     0.029 A 
ATOM     19  N   UNL A   1      44.480  28.593  28.782  1.00  0.00    -0.354 N 
ATOM     20  C   UNL A   1      42.450  24.949  27.542  1.00  0.00     0.074 A 
ATOM     21  C   UNL A   1      41.556  25.625  26.639  1.00  0.00     0.031 C 
ATOM     22  C   UNL A   1      44.623  30.727  29.403  1.00  0.00     0.029 A 
ATOM     23  C   UNL A   1      45.399  29.643  28.815  1.00  0.00     0.049 A 
ATOM     24  H   UNL A   1      44.726  27.684  28.495  1.00  0.00     0.167 HD
ATOM     25  C   UNL A   1      43.255  23.861  27.380  1.00  0.00     0.034 A 
ATOM     26  C   UNL A   1      46.702  29.626  28.409  1.00  0.00     0.034 A 
ATOM     27  C   UNL A   1      43.891  23.493  28.626  1.00  0.00     0.049 A 
ATOM     28  C   UNL A   1      47.151  28.219  28.527  1.00  0.00     0.074 A 
ATOM     29  C   UNL A   1      43.438  23.145  29.885  1.00  0.00     0.029 A 
ATOM     30  N   UNL A   1      45.217  23.818  28.799  1.00  0.00    -0.354 N 
ATOM     31  N   UNL A   1      47.231  27.582  29.663  1.00  0.00    -0.248 NA
ATOM     32  C   UNL A   1      47.099  27.382  27.340  1.00  0.00     0.031 C 
ATOM     33  C   UNL A   1      44.340  23.780  30.788  1.00  0.00     0.029 A 
ATOM     34  C   UNL A   1      45.325  24.413  30.030  1.00  0.00     0.049 A 
ATOM     35  H   UNL A   1      45.948  23.654  28.160  1.00  0.00     0.167 HD
ATOM     36  C   UNL A   1      46.803  26.298  29.375  1.00  0.00     0.074 A 
ATOM     37  C   UNL A   1      46.828  26.208  27.916  1.00  0.00     0.031 C 
ATOM     38  C   UNL A   1      46.217  25.516  30.326  1.00  0.00     0.034 A 
BRANCH  25  39
ATOM     39  C   UNL A   1      43.758  23.352  26.045  1.00  0.00     0.023 A 
ATOM     40  C   UNL A   1      43.579  21.983  25.763  1.00  0.00     0.031 A 
ATOM     41  C   UNL A   1      44.646  24.041  25.188  1.00  0.00     0.131 A 
ATOM     42  C   UNL A   1      44.334  21.343  24.764  1.00  0.00     0.055 A 
ATOM     43  C   UNL A   1      45.348  23.413  24.155  1.00  0.00     0.041 A 
ATOM     44  F   UNL A   1      44.957  25.332  25.351  1.00  0.00    -0.206 F 
ATOM     45  C   UNL A   1      45.222  22.049  23.959  1.00  0.00     0.022 A 
BRANCH  42  46
ATOM     46  S   UNL A   1      44.256  19.536  24.648  1.00  0.00     0.124 S 
ATOM     47  O   UNL A   1      42.886  19.275  25.075  1.00  0.00    -0.237 OA
ATOM     48  O   UNL A   1      44.544  19.314  23.234  1.00  0.00    -0.237 OA
ATOM     49  O   UNL A   1      45.297  19.091  25.572  1.00  0.00    -0.744 OA
ENDBRANCH  42  46
ENDBRANCH  25  39
BRANCH  26  50
ATOM     50  C   UNL A   1      47.485  30.661  27.661  1.00  0.00     0.023 A 
ATOM     51  C   UNL A   1      46.874  31.773  27.025  1.00  0.00     0.031 A 
ATOM     52  C   UNL A   1      48.888  30.721  27.802  1.00  0.00     0.131 A 
ATOM     53  C   UNL A   1      47.653  32.875  26.587  1.00  0.00     0.055 A 
ATOM     54  C   UNL A   1      49.650  31.813  27.372  1.00  0.00     0.041 A 
ATOM     55  F   UNL A   1      49.563  29.759  28.449  1.00  0.00    -0.206 F 
ATOM     56  C   UNL A   1      49.035  32.901  26.775  1.00  0.00     0.022 A 
BRANCH  53  57
ATOM     57  S   UNL A   1      46.870  34.365  25.874  1.00  0.00     0.124 S 
ATOM     58  O   UNL A   1      47.907  34.853  24.972  1.00  0.00    -0.237 OA
ATOM     59  O   UNL A   1      45.667  33.829  25.248  1.00  0.00    -0.237 OA
ATOM     60  O   UNL A   1      46.624  35.210  27.044  1.00  0.00    -0.744 OA
ENDBRANCH  53  57
ENDBRANCH  26  50
BRANCH  38  61
ATOM     61  C   UNL A   1      46.316  25.930  31.777  1.00  0.00     0.023 A 
ATOM     62  C   UNL A   1      45.247  26.443  32.548  1.00  0.00     0.031 A 
ATOM     63  C   UNL A   1      47.516  25.618  32.440  1.00  0.00     0.131 A 
ATOM     64  C   UNL A   1      45.408  26.616  33.939  1.00  0.00     0.055 A 
ATOM     65  C   UNL A   1      47.663  25.772  33.817  1.00  0.00     0.041 A 
ATOM     66  F   UNL A   1      48.551  25.099  31.761  1.00  0.00    -0.206 F 
ATOM     67  C   UNL A   1      46.608  26.269  34.572  1.00  0.00     0.022 A 
BRANCH  64  68
ATOM     68  S   UNL A   1      44.034  27.237  34.966  1.00  0.00     0.124 S 
ATOM     69  O   UNL A   1      44.241  26.560  36.241  1.00  0.00    -0.237 OA
ATOM     70  O   UNL A   1      44.248  28.681  34.962  1.00  0.00    -0.237 OA
ATOM     71  O   UNL A   1      42.838  26.807  34.238  1.00  0.00    -0.744 OA
ENDBRANCH  64  68
ENDBRANCH  38  61
ENDBRANCH  12  13
ENDBRANCH   5   7
ENDBRANCH   2   3
ENDBRANCH   1   2
BRANCH   1  72
ATOM     72  C   UNL A   1      33.765  29.046  27.118  1.00  0.00     0.023 C 
BRANCH  72  73
ATOM     73  C   UNL A   1      33.062  29.819  25.994  1.00  0.00     0.116 C 
BRANCH  73  74
ATOM     74  N   UNL A   1      33.658  29.594  24.683  1.00  0.00    -0.351 N 
ATOM     75  C   UNL A   1      33.206  28.847  23.610  1.00  0.00     0.272 C 
ATOM     76  H   UNL A   1      34.521  30.047  24.538  1.00  0.00     0.163 HD
ATOM     77  O   UNL A   1      33.968  28.684  22.655  1.00  0.00    -0.267 OA
BRANCH  75  78
ATOM     78  C   UNL A   1      31.869  28.226  23.629  1.00  0.00     0.155 A 
ATOM     79  N   UNL A   1      30.766  28.826  23.127  1.00  0.00    -0.167 NA
ATOM     80  C   UNL A   1      31.543  26.921  24.109  1.00  0.00     0.026 A 
ATOM     81  N   UNL A   1      29.745  27.994  23.430  1.00  0.00    -0.264 N 
ATOM     82  C   UNL A   1      30.162  26.880  24.086  1.00  0.00     0.046 A 
ATOM     83  C   UNL A   1      32.396  25.822  24.676  1.00  0.00     0.159 C 
ATOM     84  C   UNL A   1      29.338  25.812  24.706  1.00  0.00     0.078 C 
ATOM     85  N   UNL A   1      31.507  24.708  25.102  1.00  0.00    -0.337 N 
ATOM     86  C   UNL A   1      30.237  25.105  25.742  1.00  0.00     0.126 C 
BRANCH  81  87
ATOM     87  C   UNL A   1      28.396  28.295  22.969  1.00  0.00     0.180 C 
BRANCH  87  88
ATOM     88  C   UNL A   1      28.244  29.733  22.544  1.00  0.00    -0.026 A 
ATOM     89  C   UNL A   1      28.169  30.744  23.517  1.00  0.00     0.008 A 
ATOM     90  C   UNL A   1      28.176  30.085  21.187  1.00  0.00     0.008 A 
ATOM     91  C   UNL A   1      28.040  32.081  23.142  1.00  0.00     0.039 A 
ATOM     92  C   UNL A   1      28.049  31.424  20.815  1.00  0.00     0.039 A 
ATOM     93  C   UNL A   1      27.986  32.409  21.795  1.00  0.00     0.123 A 
ATOM     94  F   UNL A   1      27.880  33.693  21.431  1.00  0.00    -0.207 F 
ENDBRANCH  87  88
ENDBRANCH  81  87
BRANCH  85  95
ATOM     95  C   UNL A   1      31.840  23.395  24.804  1.00  0.00     0.232 C 
ATOM     96  O   UNL A   1      32.238  22.579  25.634  1.00  0.00    -0.274 OA
BRANCH  95  97
ATOM     97  C   UNL A   1      31.660  22.969  23.397  1.00  0.00     0.154 C 
ATOM     98  C   UNL A   1      32.843  23.027  22.439  1.00  0.00     0.097 C 
ATOM     99  C   UNL A   1      32.263  21.730  22.857  1.00  0.00     0.260 C 
ATOM    100  F   UNL A   1      33.044  20.868  23.586  1.00  0.00    -0.206 F 
ATOM    101  F   UNL A   1      31.608  20.979  21.904  1.00  0.00    -0.206 F 
ENDBRANCH  95  97
ENDBRANCH  85  95
ENDBRANCH  75  78
ENDBRANCH  73  74
ENDBRANCH  72  73
ENDBRANCH   1  72
TORSDOF 18
ENDMDL
MODEL 2
REMARK VINA RESULT:     -13.3      2.467      6.773
REMARK SMILES O=C(NCCCCNC(=O)c1nn(Cc2ccc(F)cc2)c2c1CN(C(=O)[C@H]1CC1(F)F)CC2)c1ccc(-c2c3nc(c(-c4cc(S(=O)(=O)[O-])ccc4F)c4ccc([nH]4)c(-c4cc(S(=O)(=O)[O-])ccc4F)c4nc(c(-c5cc(S(=O)(=O)[O-])ccc5F)c5ccc2[nH]5)C=C4)C=C3)cc1
REMARK SMILES IDX 5 1 4 2 3 3 1 4 2 5 35 7 36 8 97 9 37 10 96 11 38 12 39 13
REMARK SMILES IDX 40 14 90 15 41 16 95 17 89 18 91 19 42 20 94 21 88 22 87 23
REMARK SMILES IDX 43 25 75 26 55 27 74 28 56 29 59 30 73 31 92 32 57 33 58 34
REMARK SMILES IDX 72 36 93 37 60 38 44 39 45 40 53 41 46 42 52 43 54 44 51 45
REMARK SMILES IDX 47 46 48 47 49 48 50 49 76 50 77 51 85 52 78 53 84 54 86 55
REMARK SMILES IDX 83 56 79 57 80 58 81 59 82 60 61 61 62 62 70 63 63 64 69 65
REMARK SMILES IDX 71 66 68 67 64 68 65 69 66 70 67 71 6 72 7 73 8 74 9 75
REMARK SMILES IDX 10 77 11 78 12 79 23 80 13 81 22 82 24 83 34 84 25 85 33 86
REMARK SMILES IDX 14 87 15 88 16 89 21 90 17 91 20 92 18 93 19 94 26 95 27 96
REMARK SMILES IDX 28 97 29 98 30 99 31 100 32 101
REMARK H PARENT 3 6 91 24 59 35 8 76
REMARK Flexibility Score: inf
ROOT
ATOM      1  C   UNL A   1      33.993  31.411  27.735  1.00  0.00     0.023 C 
ENDROOT
BRANCH   1   2
ATOM      2  C   UNL A   1      35.087  32.479  27.747  1.00  0.00     0.116 C 
BRANCH   2   3
ATOM      3  N   UNL A   1      35.338  33.094  29.035  1.00  0.00    -0.352 N 
ATOM      4  O   UNL A   1      36.324  34.015  30.768  1.00  0.00    -0.269 OA
ATOM      5  C   UNL A   1      36.381  33.113  29.924  1.00  0.00     0.251 C 
ATOM      6  H   UNL A   1      34.572  33.626  29.349  1.00  0.00     0.163 HD
BRANCH   5   7
ATOM      7  C   UNL A   1      37.510  32.136  30.001  1.00  0.00     0.039 A 
ATOM      8  C   UNL A   1      38.860  32.438  30.177  1.00  0.00     0.014 A 
ATOM      9  C   UNL A   1      37.153  30.780  29.833  1.00  0.00     0.014 A 
ATOM     10  C   UNL A   1      39.822  31.414  30.130  1.00  0.00     0.010 A 
ATOM     11  C   UNL A   1      38.109  29.762  29.773  1.00  0.00     0.010 A 
ATOM     12  C   UNL A   1      39.455  30.078  29.897  1.00  0.00    -0.014 A 
BRANCH  12  13
ATOM     13  C   UNL A   1      40.474  29.023  30.009  1.00  0.00     0.031 A 
ATOM     14  C   UNL A   1      40.851  28.705  31.414  1.00  0.00     0.074 A 
ATOM     15  C   UNL A   1      40.985  28.265  29.010  1.00  0.00     0.049 A 
ATOM     16  N   UNL A   1      41.964  28.977  32.010  1.00  0.00    -0.248 NA
ATOM     17  C   UNL A   1      39.827  28.132  32.299  1.00  0.00     0.031 C 
ATOM     18  C   UNL A   1      40.590  28.229  27.603  1.00  0.00     0.029 A 
ATOM     19  N   UNL A   1      41.959  27.301  29.074  1.00  0.00    -0.354 N 
ATOM     20  C   UNL A   1      41.874  28.414  33.279  1.00  0.00     0.074 A 
ATOM     21  C   UNL A   1      40.489  28.064  33.456  1.00  0.00     0.031 C 
ATOM     22  C   UNL A   1      41.181  27.174  26.990  1.00  0.00     0.029 A 
ATOM     23  C   UNL A   1      42.106  26.535  27.916  1.00  0.00     0.049 A 
ATOM     24  H   UNL A   1      42.513  27.159  29.875  1.00  0.00     0.167 HD
ATOM     25  C   UNL A   1      42.991  28.089  33.989  1.00  0.00     0.034 A 
ATOM     26  C   UNL A   1      42.936  25.469  27.720  1.00  0.00     0.034 A 
ATOM     27  C   UNL A   1      44.154  28.779  33.475  1.00  0.00     0.049 A 
ATOM     28  C   UNL A   1      44.065  25.646  28.663  1.00  0.00     0.074 A 
ATOM     29  C   UNL A   1      44.493  30.105  33.281  1.00  0.00     0.029 A 
ATOM     30  N   UNL A   1      45.047  28.064  32.709  1.00  0.00    -0.354 N 
ATOM     31  N   UNL A   1      44.908  26.639  28.596  1.00  0.00    -0.248 NA
ATOM     32  C   UNL A   1      44.002  24.962  29.943  1.00  0.00     0.031 C 
ATOM     33  C   UNL A   1      45.190  30.127  32.037  1.00  0.00     0.029 A 
ATOM     34  C   UNL A   1      45.297  28.810  31.586  1.00  0.00     0.049 A 
ATOM     35  H   UNL A   1      45.433  27.185  32.928  1.00  0.00     0.167 HD
ATOM     36  C   UNL A   1      45.154  26.980  29.915  1.00  0.00     0.074 A 
ATOM     37  C   UNL A   1      44.646  25.855  30.698  1.00  0.00     0.031 C 
ATOM     38  C   UNL A   1      45.500  28.252  30.266  1.00  0.00     0.034 A 
BRANCH  25  39
ATOM     39  C   UNL A   1      43.114  26.886  34.901  1.00  0.00     0.023 A 
ATOM     40  C   UNL A   1      43.815  25.766  34.410  1.00  0.00     0.031 A 
ATOM     41  C   UNL A   1      42.348  26.662  36.069  1.00  0.00     0.131 A 
ATOM     42  C   UNL A   1      43.654  24.496  34.991  1.00  0.00     0.055 A 
ATOM     43  C   UNL A   1      42.242  25.410  36.680  1.00  0.00     0.041 A 
ATOM     44  F   UNL A   1      41.591  27.610  36.633  1.00  0.00    -0.206 F 
ATOM     45  C   UNL A   1      42.867  24.309  36.123  1.00  0.00     0.022 A 
BRANCH  42  46
ATOM     46  S   UNL A   1      44.360  23.061  34.138  1.00  0.00     0.124 S 
ATOM     47  O   UNL A   1      43.342  22.792  33.129  1.00  0.00    -0.237 OA
ATOM     48  O   UNL A   1      45.627  23.597  33.649  1.00  0.00    -0.237 OA
ATOM     49  O   UNL A   1      44.475  22.060  35.196  1.00  0.00    -0.744 OA
ENDBRANCH  42  46
ENDBRANCH  25  39
BRANCH  26  50
ATOM     50  C   UNL A   1      42.683  24.179  27.002  1.00  0.00     0.023 A 
ATOM     51  C   UNL A   1      43.671  23.535  26.212  1.00  0.00     0.031 A 
ATOM     52  C   UNL A   1      41.543  23.409  27.316  1.00  0.00     0.131 A 
ATOM     53  C   UNL A   1      43.502  22.189  25.795  1.00  0.00     0.055 A 
ATOM     54  C   UNL A   1      41.384  22.081  26.905  1.00  0.00     0.041 A 
ATOM     55  F   UNL A   1      40.578  23.890  28.114  1.00  0.00    -0.206 F 
ATOM     56  C   UNL A   1      42.369  21.460  26.155  1.00  0.00     0.022 A 
BRANCH  53  57
ATOM     57  S   UNL A   1      44.816  21.309  24.878  1.00  0.00     0.124 S 
ATOM     58  O   UNL A   1      44.467  19.913  25.109  1.00  0.00    -0.237 OA
ATOM     59  O   UNL A   1      44.646  21.804  23.516  1.00  0.00    -0.237 OA
ATOM     60  O   UNL A   1      46.045  21.753  25.539  1.00  0.00    -0.744 OA
ENDBRANCH  53  57
ENDBRANCH  26  50
BRANCH  38  61
ATOM     61  C   UNL A   1      45.926  29.219  29.184  1.00  0.00     0.023 A 
ATOM     62  C   UNL A   1      45.042  29.957  28.363  1.00  0.00     0.031 A 
ATOM     63  C   UNL A   1      47.297  29.525  29.116  1.00  0.00     0.131 A 
ATOM     64  C   UNL A   1      45.550  30.968  27.520  1.00  0.00     0.055 A 
ATOM     65  C   UNL A   1      47.791  30.538  28.298  1.00  0.00     0.041 A 
ATOM     66  F   UNL A   1      48.176  28.876  29.898  1.00  0.00    -0.206 F 
ATOM     67  C   UNL A   1      46.918  31.265  27.497  1.00  0.00     0.022 A 
BRANCH  64  68
ATOM     68  S   UNL A   1      44.430  31.963  26.479  1.00  0.00     0.124 S 
ATOM     69  O   UNL A   1      45.284  32.376  25.372  1.00  0.00    -0.237 OA
ATOM     70  O   UNL A   1      43.362  31.022  26.152  1.00  0.00    -0.237 OA
ATOM     71  O   UNL A   1      44.016  33.054  27.365  1.00  0.00    -0.744 OA
ENDBRANCH  64  68
ENDBRANCH  38  61
ENDBRANCH  12  13
ENDBRANCH   5   7
ENDBRANCH   2   3
ENDBRANCH   1   2
BRANCH   1  72
ATOM     72  C   UNL A   1      34.422  29.989  27.336  1.00  0.00     0.023 C 
BRANCH  72  73
ATOM     73  C   UNL A   1      33.519  29.230  26.355  1.00  0.00     0.116 C 
BRANCH  73  74
ATOM     74  N   UNL A   1      33.964  29.331  24.971  1.00  0.00    -0.351 N 
ATOM     75  C   UNL A   1      33.384  28.857  23.808  1.00  0.00     0.272 C 
ATOM     76  H   UNL A   1      34.812  29.815  24.843  1.00  0.00     0.163 HD
ATOM     77  O   UNL A   1      34.033  28.935  22.763  1.00  0.00    -0.267 OA
BRANCH  75  78
ATOM     78  C   UNL A   1      32.047  28.234  23.826  1.00  0.00     0.155 A 
ATOM     79  N   UNL A   1      30.963  28.792  23.243  1.00  0.00    -0.167 NA
ATOM     80  C   UNL A   1      31.707  26.967  24.390  1.00  0.00     0.026 A 
ATOM     81  N   UNL A   1      29.932  27.981  23.571  1.00  0.00    -0.264 N 
ATOM     82  C   UNL A   1      30.327  26.920  24.322  1.00  0.00     0.046 A 
ATOM     83  C   UNL A   1      32.540  25.917  25.067  1.00  0.00     0.159 C 
ATOM     84  C   UNL A   1      29.482  25.898  24.990  1.00  0.00     0.078 C 
ATOM     85  N   UNL A   1      31.638  24.834  25.543  1.00  0.00    -0.337 N 
ATOM     86  C   UNL A   1      30.345  25.273  26.107  1.00  0.00     0.126 C 
BRANCH  81  87
ATOM     87  C   UNL A   1      28.600  28.242  23.042  1.00  0.00     0.180 C 
BRANCH  87  88
ATOM     88  C   UNL A   1      28.412  29.686  22.653  1.00  0.00    -0.026 A 
ATOM     89  C   UNL A   1      28.497  30.060  21.301  1.00  0.00     0.008 A 
ATOM     90  C   UNL A   1      28.155  30.671  23.619  1.00  0.00     0.008 A 
ATOM     91  C   UNL A   1      28.315  31.389  20.920  1.00  0.00     0.039 A 
ATOM     92  C   UNL A   1      27.971  32.000  23.235  1.00  0.00     0.039 A 
ATOM     93  C   UNL A   1      28.049  32.346  21.890  1.00  0.00     0.123 A 
ATOM     94  F   UNL A   1      27.857  33.620  21.527  1.00  0.00    -0.207 F 
ENDBRANCH  87  88
ENDBRANCH  81  87
BRANCH  85  95
ATOM     95  C   UNL A   1      31.982  23.504  25.355  1.00  0.00     0.232 C 
ATOM     96  O   UNL A   1      31.444  22.762  24.534  1.00  0.00    -0.274 OA
BRANCH  95  97
ATOM     97  C   UNL A   1      33.095  22.985  26.182  1.00  0.00     0.154 C 
ATOM     98  C   UNL A   1      33.821  21.717  25.751  1.00  0.00     0.097 C 
ATOM     99  C   UNL A   1      34.506  23.029  25.736  1.00  0.00     0.260 C 
ATOM    100  F   UNL A   1      34.921  23.538  24.530  1.00  0.00    -0.206 F 
ATOM    101  F   UNL A   1      35.529  23.234  26.638  1.00  0.00    -0.206 F 
ENDBRANCH  95  97
ENDBRANCH  85  95
ENDBRANCH  75  78
ENDBRANCH  73  74
ENDBRANCH  72  73
ENDBRANCH   1  72
TORSDOF 18
ENDMDL
MODEL 3
REMARK VINA RESULT:     -12.8      2.540      8.294
REMARK SMILES O=C(NCCCCNC(=O)c1nn(Cc2ccc(F)cc2)c2c1CN(C(=O)[C@H]1CC1(F)F)CC2)c1ccc(-c2c3nc(c(-c4cc(S(=O)(=O)[O-])ccc4F)c4ccc([nH]4)c(-c4cc(S(=O)(=O)[O-])ccc4F)c4nc(c(-c5cc(S(=O)(=O)[O-])ccc5F)c5ccc2[nH]5)C=C4)C=C3)cc1
REMARK SMILES IDX 5 1 4 2 3 3 1 4 2 5 35 7 36 8 97 9 37 10 96 11 38 12 39 13
REMARK SMILES IDX 40 14 90 15 41 16 95 17 89 18 91 19 42 20 94 21 88 22 87 23
REMARK SMILES IDX 43 25 75 26 55 27 74 28 56 29 59 30 73 31 92 32 57 33 58 34
REMARK SMILES IDX 72 36 93 37 60 38 44 39 45 40 53 41 46 42 52 43 54 44 51 45
REMARK SMILES IDX 47 46 48 47 49 48 50 49 76 50 77 51 85 52 78 53 84 54 86 55
REMARK SMILES IDX 83 56 79 57 80 58 81 59 82 60 61 61 62 62 70 63 63 64 69 65
REMARK SMILES IDX 71 66 68 67 64 68 65 69 66 70 67 71 6 72 7 73 8 74 9 75
REMARK SMILES IDX 10 77 11 78 12 79 23 80 13 81 22 82 24 83 34 84 25 85 33 86
REMARK SMILES IDX 14 87 15 88 16 89 21 90 17 91 20 92 18 93 19 94 26 95 27 96
REMARK SMILES IDX 28 97 29 98 30 99 31 100 32 101
REMARK H PARENT 3 6 91 24 59 35 8 76
REMARK Flexibility Score: inf
ROOT
ATOM      1  C   UNL A   1      36.317  30.713  27.680  1.00  0.00     0.023 C 
ENDROOT
BRANCH   1   2
ATOM      2  C   UNL A   1      35.630  32.049  27.968  1.00  0.00     0.116 C 
BRANCH   2   3
ATOM      3  N   UNL A   1      35.890  32.609  29.280  1.00  0.00    -0.352 N 
ATOM      4  O   UNL A   1      36.894  33.381  31.074  1.00  0.00    -0.269 OA
ATOM      5  C   UNL A   1      36.887  32.493  30.213  1.00  0.00     0.251 C 
ATOM      6  H   UNL A   1      35.175  33.219  29.572  1.00  0.00     0.163 HD
BRANCH   5   7
ATOM      7  C   UNL A   1      37.894  31.393  30.317  1.00  0.00     0.039 A 
ATOM      8  C   UNL A   1      37.695  30.134  30.880  1.00  0.00     0.014 A 
ATOM      9  C   UNL A   1      39.183  31.701  29.825  1.00  0.00     0.014 A 
ATOM     10  C   UNL A   1      38.770  29.236  30.996  1.00  0.00     0.010 A 
ATOM     11  C   UNL A   1      40.256  30.815  29.951  1.00  0.00     0.010 A 
ATOM     12  C   UNL A   1      40.061  29.583  30.561  1.00  0.00    -0.014 A 
BRANCH  12  13
ATOM     13  C   UNL A   1      41.117  28.560  30.561  1.00  0.00     0.031 A 
ATOM     14  C   UNL A   1      41.679  28.283  31.911  1.00  0.00     0.074 A 
ATOM     15  C   UNL A   1      41.519  27.794  29.519  1.00  0.00     0.049 A 
ATOM     16  N   UNL A   1      42.851  28.599  32.355  1.00  0.00    -0.248 NA
ATOM     17  C   UNL A   1      40.795  27.702  32.930  1.00  0.00     0.031 C 
ATOM     18  C   UNL A   1      40.949  27.716  28.175  1.00  0.00     0.029 A 
ATOM     19  N   UNL A   1      42.522  26.859  29.475  1.00  0.00    -0.354 N 
ATOM     20  C   UNL A   1      42.940  28.062  33.636  1.00  0.00     0.074 A 
ATOM     21  C   UNL A   1      41.601  27.677  33.995  1.00  0.00     0.031 C 
ATOM     22  C   UNL A   1      41.489  26.665  27.510  1.00  0.00     0.029 A 
ATOM     23  C   UNL A   1      42.544  26.072  28.322  1.00  0.00     0.049 A 
ATOM     24  H   UNL A   1      43.177  26.751  30.201  1.00  0.00     0.167 HD
ATOM     25  C   UNL A   1      44.149  27.785  34.202  1.00  0.00     0.034 A 
ATOM     26  C   UNL A   1      43.373  25.025  28.041  1.00  0.00     0.034 A 
ATOM     27  C   UNL A   1      45.215  28.494  33.531  1.00  0.00     0.049 A 
ATOM     28  C   UNL A   1      44.607  25.255  28.828  1.00  0.00     0.074 A 
ATOM     29  C   UNL A   1      45.486  29.825  33.270  1.00  0.00     0.029 A 
ATOM     30  N   UNL A   1      46.024  27.788  32.670  1.00  0.00    -0.354 N 
ATOM     31  N   UNL A   1      45.405  26.269  28.635  1.00  0.00    -0.248 NA
ATOM     32  C   UNL A   1      44.729  24.597  30.118  1.00  0.00     0.031 C 
ATOM     33  C   UNL A   1      46.018  29.839  31.947  1.00  0.00     0.029 A 
ATOM     34  C   UNL A   1      46.106  28.516  31.511  1.00  0.00     0.049 A 
ATOM     35  H   UNL A   1      46.461  26.925  32.853  1.00  0.00     0.167 HD
ATOM     36  C   UNL A   1      45.806  26.646  29.905  1.00  0.00     0.074 A 
ATOM     37  C   UNL A   1      45.437  25.525  30.768  1.00  0.00     0.031 C 
ATOM     38  C   UNL A   1      46.156  27.934  30.185  1.00  0.00     0.034 A 
BRANCH  25  39
ATOM     39  C   UNL A   1      44.423  26.606  35.113  1.00  0.00     0.023 A 
ATOM     40  C   UNL A   1      45.077  26.867  36.335  1.00  0.00     0.031 A 
ATOM     41  C   UNL A   1      44.359  25.245  34.734  1.00  0.00     0.131 A 
ATOM     42  C   UNL A   1      45.716  25.840  37.050  1.00  0.00     0.055 A 
ATOM     43  C   UNL A   1      44.943  24.219  35.482  1.00  0.00     0.041 A 
ATOM     44  F   UNL A   1      43.813  24.838  33.583  1.00  0.00    -0.206 F 
ATOM     45  C   UNL A   1      45.657  24.515  36.630  1.00  0.00     0.022 A 
BRANCH  42  46
ATOM     46  S   UNL A   1      46.769  26.291  38.454  1.00  0.00     0.124 S 
ATOM     47  O   UNL A   1      48.091  25.922  37.957  1.00  0.00    -0.237 OA
ATOM     48  O   UNL A   1      46.505  27.721  38.580  1.00  0.00    -0.237 OA
ATOM     49  O   UNL A   1      46.256  25.466  39.544  1.00  0.00    -0.744 OA
ENDBRANCH  42  46
ENDBRANCH  25  39
BRANCH  26  50
ATOM     50  C   UNL A   1      43.070  23.713  27.385  1.00  0.00     0.023 A 
ATOM     51  C   UNL A   1      43.859  23.182  26.331  1.00  0.00     0.031 A 
ATOM     52  C   UNL A   1      42.156  22.821  27.984  1.00  0.00     0.131 A 
ATOM     53  C   UNL A   1      43.727  21.826  25.939  1.00  0.00     0.055 A 
ATOM     54  C   UNL A   1      42.033  21.482  27.595  1.00  0.00     0.041 A 
ATOM     55  F   UNL A   1      41.409  23.192  29.034  1.00  0.00    -0.206 F 
ATOM     56  C   UNL A   1      42.828  20.975  26.581  1.00  0.00     0.022 A 
BRANCH  53  57
ATOM     57  S   UNL A   1      44.816  21.097  24.665  1.00  0.00     0.124 S 
ATOM     58  O   UNL A   1      44.202  19.793  24.447  1.00  0.00    -0.237 OA
ATOM     59  O   UNL A   1      44.715  22.053  23.568  1.00  0.00    -0.237 OA
ATOM     60  O   UNL A   1      46.125  21.059  25.320  1.00  0.00    -0.744 OA
ENDBRANCH  53  57
ENDBRANCH  26  50
BRANCH  38  61
ATOM     61  C   UNL A   1      46.411  28.888  29.040  1.00  0.00     0.023 A 
ATOM     62  C   UNL A   1      45.417  29.655  28.388  1.00  0.00     0.031 A 
ATOM     63  C   UNL A   1      47.756  29.151  28.726  1.00  0.00     0.131 A 
ATOM     64  C   UNL A   1      45.797  30.651  27.463  1.00  0.00     0.055 A 
ATOM     65  C   UNL A   1      48.126  30.148  27.827  1.00  0.00     0.041 A 
ATOM     66  F   UNL A   1      48.740  28.473  29.340  1.00  0.00    -0.206 F 
ATOM     67  C   UNL A   1      47.147  30.904  27.194  1.00  0.00     0.022 A 
BRANCH  64  68
ATOM     68  S   UNL A   1      44.540  31.683  26.637  1.00  0.00     0.124 S 
ATOM     69  O   UNL A   1      44.240  32.703  27.635  1.00  0.00    -0.237 OA
ATOM     70  O   UNL A   1      45.231  32.143  25.435  1.00  0.00    -0.237 OA
ATOM     71  O   UNL A   1      43.444  30.748  26.376  1.00  0.00    -0.744 OA
ENDBRANCH  64  68
ENDBRANCH  38  61
ENDBRANCH  12  13
ENDBRANCH   5   7
ENDBRANCH   2   3
ENDBRANCH   1   2
BRANCH   1  72
ATOM     72  C   UNL A   1      35.528  29.443  28.037  1.00  0.00     0.023 C 
BRANCH  72  73
ATOM     73  C   UNL A   1      34.375  29.045  27.107  1.00  0.00     0.116 C 
BRANCH  73  74
ATOM     74  N   UNL A   1      33.129  28.784  27.817  1.00  0.00    -0.351 N 
ATOM     75  C   UNL A   1      31.997  28.098  27.415  1.00  0.00     0.272 C 
ATOM     76  H   UNL A   1      33.086  29.155  28.728  1.00  0.00     0.163 HD
ATOM     77  O   UNL A   1      31.003  28.143  28.143  1.00  0.00    -0.267 OA
BRANCH  75  78
ATOM     78  C   UNL A   1      31.966  27.371  26.132  1.00  0.00     0.155 A 
ATOM     79  N   UNL A   1      32.235  26.050  26.022  1.00  0.00    -0.167 NA
ATOM     80  C   UNL A   1      31.608  27.908  24.858  1.00  0.00     0.026 A 
ATOM     81  N   UNL A   1      32.209  25.797  24.695  1.00  0.00    -0.264 N 
ATOM     82  C   UNL A   1      31.913  26.901  23.962  1.00  0.00     0.046 A 
ATOM     83  C   UNL A   1      31.146  29.276  24.444  1.00  0.00     0.159 C 
ATOM     84  C   UNL A   1      31.930  27.060  22.486  1.00  0.00     0.078 C 
ATOM     85  N   UNL A   1      31.006  29.297  22.962  1.00  0.00    -0.337 N 
ATOM     86  C   UNL A   1      32.048  28.574  22.206  1.00  0.00     0.126 C 
BRANCH  81  87
ATOM     87  C   UNL A   1      32.386  24.435  24.208  1.00  0.00     0.180 C 
BRANCH  87  88
ATOM     88  C   UNL A   1      33.803  23.948  24.376  1.00  0.00    -0.026 A 
ATOM     89  C   UNL A   1      34.505  23.450  23.265  1.00  0.00     0.008 A 
ATOM     90  C   UNL A   1      34.437  23.981  25.627  1.00  0.00     0.008 A 
ATOM     91  C   UNL A   1      35.820  23.005  23.400  1.00  0.00     0.039 A 
ATOM     92  C   UNL A   1      35.755  23.537  25.758  1.00  0.00     0.039 A 
ATOM     93  C   UNL A   1      36.434  23.058  24.643  1.00  0.00     0.123 A 
ATOM     94  F   UNL A   1      37.702  22.648  24.772  1.00  0.00    -0.207 F 
ENDBRANCH  87  88
ENDBRANCH  81  87
BRANCH  85  95
ATOM     95  C   UNL A   1      29.895  29.882  22.374  1.00  0.00     0.232 C 
ATOM     96  O   UNL A   1      29.463  29.578  21.263  1.00  0.00    -0.274 OA
BRANCH  95  97
ATOM     97  C   UNL A   1      29.183  30.904  23.174  1.00  0.00     0.154 C 
ATOM     98  C   UNL A   1      28.260  31.894  22.475  1.00  0.00     0.097 C 
ATOM     99  C   UNL A   1      27.719  30.866  23.394  1.00  0.00     0.260 C 
ATOM    100  F   UNL A   1      26.885  29.904  22.882  1.00  0.00    -0.206 F 
ATOM    101  F   UNL A   1      27.170  31.290  24.585  1.00  0.00    -0.206 F 
ENDBRANCH  95  97
ENDBRANCH  85  95
ENDBRANCH  75  78
ENDBRANCH  73  74
ENDBRANCH  72  73
ENDBRANCH   1  72
TORSDOF 18
ENDMDL
