MODEL 1
REMARK VINA RESULT:     -11.4      0.000      0.000
REMARK SMILES [NH3+][C@H]1CCC[C@H]1C(=O)NCc1ccc(C(=O)NCCCCNC(=O)c2ccc(-c3c4nc(c(-c5cc(S(=O)(=O)[O-])ccc5F)c5ccc([nH]5)c(-c5cc(S(=O)(=O)[O-])ccc5F)c5nc(c(-c6cc(S(=O)(=O)[O-])ccc6F)c6ccc3[nH]6)C=C5)C=C4)cc2)o1
REMARK SMILES IDX 19 1 18 2 17 3 15 4 16 5 14 7 11 8 12 9 88 10 13 11 10 12
REMARK SMILES IDX 9 13 7 14 8 15 6 17 2 18 3 19 4 20 5 21 1 22 20 26 21 27
REMARK SMILES IDX 22 28 23 29 24 31 25 32 26 33 87 34 27 35 86 36 28 37 29 38
REMARK SMILES IDX 30 39 80 40 31 41 85 42 79 43 81 44 32 45 84 46 78 47 77 48
REMARK SMILES IDX 33 50 65 51 45 52 64 53 46 54 49 55 63 56 82 57 47 58 48 59
REMARK SMILES IDX 62 61 83 62 50 63 34 64 35 65 43 66 36 67 42 68 44 69 41 70
REMARK SMILES IDX 37 71 38 72 39 73 40 74 66 75 67 76 75 77 68 78 74 79 76 80
REMARK SMILES IDX 73 81 69 82 70 83 71 84 72 85 51 86 52 87 60 88 53 89 59 90
REMARK SMILES IDX 61 91 58 92 54 93 55 94 56 95 57 96
REMARK H PARENT 17 6 9 16 1 23 1 24 1 25 22 30 81 49 49 60
REMARK Flexibility Score: inf
ROOT
ATOM      1  C   UNL A   1      37.275  21.680  24.772  1.00  0.00     0.023 C 
ENDROOT
BRANCH   1   2
ATOM      2  C   UNL A   1      36.110  21.888  25.740  1.00  0.00     0.116 C 
BRANCH   2   3
ATOM      3  N   UNL A   1      35.054  20.925  25.511  1.00  0.00    -0.349 N 
ATOM      4  C   UNL A   1      33.948  20.975  24.692  1.00  0.00     0.286 C 
ATOM      5  O   UNL A   1      33.259  19.952  24.668  1.00  0.00    -0.266 OA
ATOM      6  H   UNL A   1      35.141  20.094  26.030  1.00  0.00     0.163 HD
BRANCH   4   7
ATOM      7  C   UNL A   1      33.631  22.151  23.897  1.00  0.00     0.191 A 
ATOM      8  C   UNL A   1      32.247  23.772  23.271  1.00  0.00     0.124 A 
ATOM      9  C   UNL A   1      33.377  23.909  22.499  1.00  0.00     0.048 A 
ATOM     10  O   UNL A   1      32.403  22.731  24.134  1.00  0.00    -0.454 OA
ATOM     11  C   UNL A   1      34.268  22.890  22.915  1.00  0.00     0.056 A 
BRANCH   8  12
ATOM     12  C   UNL A   1      30.939  24.475  23.329  1.00  0.00     0.191 C 
BRANCH  12  13
ATOM     13  N   UNL A   1      30.492  24.552  24.705  1.00  0.00    -0.348 N 
ATOM     14  C   UNL A   1      30.921  25.296  25.753  1.00  0.00     0.229 C 
ATOM     15  O   UNL A   1      30.504  24.957  26.869  1.00  0.00    -0.275 OA
ATOM     16  H   UNL A   1      29.739  23.955  24.918  1.00  0.00     0.163 HD
BRANCH  14  17
ATOM     17  C   UNL A   1      31.802  26.533  25.634  1.00  0.00     0.136 C 
ATOM     18  C   UNL A   1      31.441  27.803  26.416  1.00  0.00     0.193 C 
ATOM     19  C   UNL A   1      32.695  28.664  26.212  1.00  0.00     0.066 C 
ATOM     20  C   UNL A   1      33.875  27.691  26.143  1.00  0.00     0.007 C 
ATOM     21  C   UNL A   1      33.298  26.313  25.828  1.00  0.00     0.020 C 
BRANCH  18  22
ATOM     22  N   UNL A   1      31.179  27.657  27.837  1.00  0.00    -0.354 N 
ATOM     23  H   UNL A   1      31.461  28.507  28.325  1.00  0.00     0.344 HD
ATOM     24  H   UNL A   1      31.708  26.864  28.202  1.00  0.00     0.344 HD
ATOM     25  H   UNL A   1      30.182  27.496  27.984  1.00  0.00     0.344 HD
ENDBRANCH  18  22
ENDBRANCH  14  17
ENDBRANCH  12  13
ENDBRANCH   8  12
ENDBRANCH   4   7
ENDBRANCH   2   3
ENDBRANCH   1   2
BRANCH   1  26
ATOM     26  C   UNL A   1      38.096  20.414  25.041  1.00  0.00     0.023 C 
BRANCH  26  27
ATOM     27  C   UNL A   1      39.302  20.600  25.961  1.00  0.00     0.116 C 
BRANCH  27  28
ATOM     28  N   UNL A   1      40.211  19.467  25.959  1.00  0.00    -0.352 N 
ATOM     29  C   UNL A   1      41.581  19.465  26.108  1.00  0.00     0.251 C 
ATOM     30  H   UNL A   1      39.794  18.584  25.833  1.00  0.00     0.163 HD
ATOM     31  O   UNL A   1      42.208  18.424  25.976  1.00  0.00    -0.269 OA
BRANCH  29  32
ATOM     32  C   UNL A   1      42.279  20.741  26.380  1.00  0.00     0.039 A 
ATOM     33  C   UNL A   1      42.554  21.595  25.310  1.00  0.00     0.014 A 
ATOM     34  C   UNL A   1      42.623  21.105  27.683  1.00  0.00     0.014 A 
ATOM     35  C   UNL A   1      43.110  22.853  25.558  1.00  0.00     0.010 A 
ATOM     36  C   UNL A   1      43.118  22.382  27.934  1.00  0.00     0.010 A 
ATOM     37  C   UNL A   1      43.357  23.273  26.875  1.00  0.00    -0.014 A 
BRANCH  37  38
ATOM     38  C   UNL A   1      43.859  24.641  27.167  1.00  0.00     0.031 A 
ATOM     39  C   UNL A   1      42.917  25.695  27.682  1.00  0.00     0.074 A 
ATOM     40  C   UNL A   1      45.145  24.949  26.902  1.00  0.00     0.049 A 
ATOM     41  N   UNL A   1      43.138  26.963  27.906  1.00  0.00    -0.248 NA
ATOM     42  C   UNL A   1      41.536  25.266  27.950  1.00  0.00     0.031 C 
ATOM     43  C   UNL A   1      46.144  24.022  26.364  1.00  0.00     0.029 A 
ATOM     44  N   UNL A   1      45.832  26.129  27.038  1.00  0.00    -0.354 N 
ATOM     45  C   UNL A   1      41.924  27.490  28.332  1.00  0.00     0.074 A 
ATOM     46  C   UNL A   1      40.958  26.413  28.276  1.00  0.00     0.031 C 
ATOM     47  C   UNL A   1      47.316  24.664  26.235  1.00  0.00     0.029 A 
ATOM     48  C   UNL A   1      47.146  26.057  26.635  1.00  0.00     0.049 A 
ATOM     49  H   UNL A   1      45.422  26.953  27.391  1.00  0.00     0.167 HD
ATOM     50  C   UNL A   1      41.646  28.750  28.753  1.00  0.00     0.034 A 
ATOM     51  C   UNL A   1      48.101  27.007  26.583  1.00  0.00     0.034 A 
ATOM     52  C   UNL A   1      42.623  29.808  28.816  1.00  0.00     0.049 A 
ATOM     53  C   UNL A   1      47.761  28.404  27.040  1.00  0.00     0.074 A 
ATOM     54  C   UNL A   1      42.460  31.107  29.268  1.00  0.00     0.029 A 
ATOM     55  N   UNL A   1      43.947  29.693  28.414  1.00  0.00    -0.354 N 
ATOM     56  N   UNL A   1      46.616  28.875  27.480  1.00  0.00    -0.248 NA
ATOM     57  C   UNL A   1      48.844  29.395  27.002  1.00  0.00     0.031 C 
ATOM     58  C   UNL A   1      43.666  31.791  29.085  1.00  0.00     0.029 A 
ATOM     59  C   UNL A   1      44.604  30.903  28.585  1.00  0.00     0.049 A 
ATOM     60  H   UNL A   1      44.360  28.873  28.058  1.00  0.00     0.167 HD
ATOM     61  C   UNL A   1      46.855  30.207  27.805  1.00  0.00     0.074 A 
ATOM     62  C   UNL A   1      48.253  30.459  27.523  1.00  0.00     0.031 C 
ATOM     63  C   UNL A   1      45.999  31.138  28.295  1.00  0.00     0.034 A 
BRANCH  50  64
ATOM     64  C   UNL A   1      40.222  29.048  29.156  1.00  0.00     0.023 A 
ATOM     65  C   UNL A   1      39.823  29.047  30.504  1.00  0.00     0.031 A 
ATOM     66  C   UNL A   1      39.246  29.320  28.181  1.00  0.00     0.131 A 
ATOM     67  C   UNL A   1      38.475  29.242  30.836  1.00  0.00     0.055 A 
ATOM     68  C   UNL A   1      37.919  29.592  28.525  1.00  0.00     0.041 A 
ATOM     69  F   UNL A   1      39.562  29.315  26.877  1.00  0.00    -0.206 F 
ATOM     70  C   UNL A   1      37.525  29.539  29.858  1.00  0.00     0.022 A 
BRANCH  67  71
ATOM     71  S   UNL A   1      37.958  28.970  32.553  1.00  0.00     0.124 S 
ATOM     72  O   UNL A   1      38.162  27.529  32.696  1.00  0.00    -0.237 OA
ATOM     73  O   UNL A   1      38.877  29.821  33.299  1.00  0.00    -0.237 OA
ATOM     74  O   UNL A   1      36.562  29.398  32.563  1.00  0.00    -0.744 OA
ENDBRANCH  67  71
ENDBRANCH  50  64
BRANCH  51  75
ATOM     75  C   UNL A   1      49.466  26.687  26.074  1.00  0.00     0.023 A 
ATOM     76  C   UNL A   1      49.903  27.170  24.830  1.00  0.00     0.031 A 
ATOM     77  C   UNL A   1      50.331  25.847  26.796  1.00  0.00     0.131 A 
ATOM     78  C   UNL A   1      51.144  26.762  24.318  1.00  0.00     0.055 A 
ATOM     79  C   UNL A   1      51.589  25.489  26.307  1.00  0.00     0.041 A 
ATOM     80  F   UNL A   1      49.966  25.362  27.994  1.00  0.00    -0.206 F 
ATOM     81  C   UNL A   1      51.995  25.935  25.053  1.00  0.00     0.022 A 
BRANCH  78  82
ATOM     82  S   UNL A   1      51.587  27.249  22.628  1.00  0.00     0.124 S 
ATOM     83  O   UNL A   1      51.659  28.702  22.747  1.00  0.00    -0.237 OA
ATOM     84  O   UNL A   1      52.858  26.558  22.439  1.00  0.00    -0.237 OA
ATOM     85  O   UNL A   1      50.477  26.742  21.825  1.00  0.00    -0.744 OA
ENDBRANCH  78  82
ENDBRANCH  51  75
BRANCH  63  86
ATOM     86  C   UNL A   1      46.571  32.499  28.605  1.00  0.00     0.023 A 
ATOM     87  C   UNL A   1      46.742  33.475  27.609  1.00  0.00     0.031 A 
ATOM     88  C   UNL A   1      46.962  32.815  29.919  1.00  0.00     0.131 A 
ATOM     89  C   UNL A   1      47.340  34.703  27.931  1.00  0.00     0.055 A 
ATOM     90  C   UNL A   1      47.503  34.060  30.244  1.00  0.00     0.041 A 
ATOM     91  F   UNL A   1      46.822  31.919  30.908  1.00  0.00    -0.206 F 
ATOM     92  C   UNL A   1      47.707  35.008  29.245  1.00  0.00     0.022 A 
BRANCH  89  93
ATOM     93  S   UNL A   1      47.712  35.869  26.591  1.00  0.00     0.124 S 
ATOM     94  O   UNL A   1      49.001  36.411  27.010  1.00  0.00    -0.237 OA
ATOM     95  O   UNL A   1      47.738  35.000  25.420  1.00  0.00    -0.237 OA
ATOM     96  O   UNL A   1      46.596  36.812  26.638  1.00  0.00    -0.744 OA
ENDBRANCH  89  93
ENDBRANCH  63  86
ENDBRANCH  37  38
ENDBRANCH  29  32
ENDBRANCH  27  28
ENDBRANCH  26  27
ENDBRANCH   1  26
TORSDOF 18
ENDMDL
MODEL 2
REMARK VINA RESULT:     -11.4      5.376      8.903
REMARK SMILES [NH3+][C@H]1CCC[C@H]1C(=O)NCc1ccc(C(=O)NCCCCNC(=O)c2ccc(-c3c4nc(c(-c5cc(S(=O)(=O)[O-])ccc5F)c5ccc([nH]5)c(-c5cc(S(=O)(=O)[O-])ccc5F)c5nc(c(-c6cc(S(=O)(=O)[O-])ccc6F)c6ccc3[nH]6)C=C5)C=C4)cc2)o1
REMARK SMILES IDX 19 1 18 2 17 3 15 4 16 5 14 7 11 8 12 9 88 10 13 11 10 12
REMARK SMILES IDX 9 13 7 14 8 15 6 17 2 18 3 19 4 20 5 21 1 22 20 26 21 27
REMARK SMILES IDX 22 28 23 29 24 31 25 32 26 33 87 34 27 35 86 36 28 37 29 38
REMARK SMILES IDX 30 39 80 40 31 41 85 42 79 43 81 44 32 45 84 46 78 47 77 48
REMARK SMILES IDX 33 50 65 51 45 52 64 53 46 54 49 55 63 56 82 57 47 58 48 59
REMARK SMILES IDX 62 61 83 62 50 63 34 64 35 65 43 66 36 67 42 68 44 69 41 70
REMARK SMILES IDX 37 71 38 72 39 73 40 74 66 75 67 76 75 77 68 78 74 79 76 80
REMARK SMILES IDX 73 81 69 82 70 83 71 84 72 85 51 86 52 87 60 88 53 89 59 90
REMARK SMILES IDX 61 91 58 92 54 93 55 94 56 95 57 96
REMARK H PARENT 17 6 9 16 1 23 1 24 1 25 22 30 81 49 49 60
REMARK Flexibility Score: inf
ROOT
ATOM      1  C   UNL A   1      33.650  28.619  23.792  1.00  0.00     0.023 C 
ENDROOT
BRANCH   1   2
ATOM      2  C   UNL A   1      32.461  28.426  22.850  1.00  0.00     0.116 C 
BRANCH   2   3
ATOM      3  N   UNL A   1      32.797  27.555  21.745  1.00  0.00    -0.349 N 
ATOM      4  C   UNL A   1      33.016  26.196  21.700  1.00  0.00     0.286 C 
ATOM      5  O   UNL A   1      33.223  25.728  20.577  1.00  0.00    -0.266 OA
ATOM      6  H   UNL A   1      32.885  28.011  20.878  1.00  0.00     0.163 HD
BRANCH   4   7
ATOM      7  C   UNL A   1      32.985  25.371  22.898  1.00  0.00     0.191 A 
ATOM      8  C   UNL A   1      33.926  23.935  24.308  1.00  0.00     0.124 A 
ATOM      9  C   UNL A   1      32.642  24.134  24.758  1.00  0.00     0.048 A 
ATOM     10  O   UNL A   1      34.148  24.698  23.202  1.00  0.00    -0.454 OA
ATOM     11  C   UNL A   1      32.050  25.067  23.873  1.00  0.00     0.056 A 
BRANCH   8  12
ATOM     12  C   UNL A   1      35.056  23.075  24.743  1.00  0.00     0.191 C 
BRANCH  12  13
ATOM     13  N   UNL A   1      34.653  22.290  25.892  1.00  0.00    -0.348 N 
ATOM     14  C   UNL A   1      33.957  21.132  25.994  1.00  0.00     0.229 C 
ATOM     15  O   UNL A   1      33.551  20.839  27.127  1.00  0.00    -0.275 OA
ATOM     16  H   UNL A   1      34.936  22.666  26.756  1.00  0.00     0.163 HD
BRANCH  14  17
ATOM     17  C   UNL A   1      33.714  20.163  24.845  1.00  0.00     0.136 C 
ATOM     18  C   UNL A   1      33.662  18.654  25.119  1.00  0.00     0.193 C 
ATOM     19  C   UNL A   1      33.153  18.109  23.778  1.00  0.00     0.066 C 
ATOM     20  C   UNL A   1      32.212  19.175  23.212  1.00  0.00     0.007 C 
ATOM     21  C   UNL A   1      32.532  20.481  23.936  1.00  0.00     0.020 C 
BRANCH  18  22
ATOM     22  N   UNL A   1      32.790  18.202  26.188  1.00  0.00    -0.354 N 
ATOM     23  H   UNL A   1      33.349  17.781  26.930  1.00  0.00     0.344 HD
ATOM     24  H   UNL A   1      32.134  17.511  25.823  1.00  0.00     0.344 HD
ATOM     25  H   UNL A   1      32.272  18.997  26.563  1.00  0.00     0.344 HD
ENDBRANCH  18  22
ENDBRANCH  14  17
ENDBRANCH  12  13
ENDBRANCH   8  12
ENDBRANCH   4   7
ENDBRANCH   2   3
ENDBRANCH   1   2
BRANCH   1  26
ATOM     26  C   UNL A   1      33.328  28.365  25.268  1.00  0.00     0.023 C 
BRANCH  26  27
ATOM     27  C   UNL A   1      34.293  29.003  26.267  1.00  0.00     0.116 C 
BRANCH  27  28
ATOM     28  N   UNL A   1      33.867  30.314  26.726  1.00  0.00    -0.352 N 
ATOM     29  C   UNL A   1      34.440  31.114  27.691  1.00  0.00     0.251 C 
ATOM     30  H   UNL A   1      33.063  30.679  26.292  1.00  0.00     0.163 HD
ATOM     31  O   UNL A   1      33.889  32.151  28.030  1.00  0.00    -0.269 OA
BRANCH  29  32
ATOM     32  C   UNL A   1      35.696  30.677  28.338  1.00  0.00     0.039 A 
ATOM     33  C   UNL A   1      35.624  29.781  29.407  1.00  0.00     0.014 A 
ATOM     34  C   UNL A   1      36.936  31.118  27.868  1.00  0.00     0.014 A 
ATOM     35  C   UNL A   1      36.800  29.269  29.958  1.00  0.00     0.010 A 
ATOM     36  C   UNL A   1      38.105  30.558  28.376  1.00  0.00     0.010 A 
ATOM     37  C   UNL A   1      38.048  29.621  29.420  1.00  0.00    -0.014 A 
BRANCH  37  38
ATOM     38  C   UNL A   1      39.307  29.015  29.929  1.00  0.00     0.031 A 
ATOM     39  C   UNL A   1      39.993  29.602  31.132  1.00  0.00     0.074 A 
ATOM     40  C   UNL A   1      39.864  27.982  29.266  1.00  0.00     0.049 A 
ATOM     41  N   UNL A   1      41.140  29.280  31.670  1.00  0.00    -0.248 NA
ATOM     42  C   UNL A   1      39.308  30.721  31.797  1.00  0.00     0.031 C 
ATOM     43  C   UNL A   1      39.312  27.351  28.063  1.00  0.00     0.029 A 
ATOM     44  N   UNL A   1      41.024  27.285  29.499  1.00  0.00    -0.354 N 
ATOM     45  C   UNL A   1      41.323  30.161  32.730  1.00  0.00     0.074 A 
ATOM     46  C   UNL A   1      40.194  31.068  32.719  1.00  0.00     0.031 C 
ATOM     47  C   UNL A   1      40.123  26.352  27.679  1.00  0.00     0.029 A 
ATOM     48  C   UNL A   1      41.273  26.296  28.575  1.00  0.00     0.049 A 
ATOM     49  H   UNL A   1      41.622  27.476  30.258  1.00  0.00     0.167 HD
ATOM     50  C   UNL A   1      42.326  30.195  33.642  1.00  0.00     0.034 A 
ATOM     51  C   UNL A   1      42.316  25.450  28.456  1.00  0.00     0.034 A 
ATOM     52  C   UNL A   1      43.436  29.274  33.648  1.00  0.00     0.049 A 
ATOM     53  C   UNL A   1      43.428  25.520  29.473  1.00  0.00     0.074 A 
ATOM     54  C   UNL A   1      44.483  29.191  34.551  1.00  0.00     0.029 A 
ATOM     55  N   UNL A   1      43.647  28.277  32.705  1.00  0.00    -0.354 N 
ATOM     56  N   UNL A   1      43.563  26.333  30.496  1.00  0.00    -0.248 NA
ATOM     57  C   UNL A   1      44.522  24.552  29.326  1.00  0.00     0.031 C 
ATOM     58  C   UNL A   1      45.355  28.185  34.122  1.00  0.00     0.029 A 
ATOM     59  C   UNL A   1      44.818  27.591  32.991  1.00  0.00     0.049 A 
ATOM     60  H   UNL A   1      43.053  28.085  31.944  1.00  0.00     0.167 HD
ATOM     61  C   UNL A   1      44.740  25.949  31.132  1.00  0.00     0.074 A 
ATOM     62  C   UNL A   1      45.266  24.824  30.386  1.00  0.00     0.031 C 
ATOM     63  C   UNL A   1      45.331  26.473  32.235  1.00  0.00     0.034 A 
BRANCH  50  64
ATOM     64  C   UNL A   1      42.272  31.277  34.693  1.00  0.00     0.023 A 
ATOM     65  C   UNL A   1      42.853  32.539  34.481  1.00  0.00     0.031 A 
ATOM     66  C   UNL A   1      41.645  31.040  35.930  1.00  0.00     0.131 A 
ATOM     67  C   UNL A   1      42.859  33.490  35.513  1.00  0.00     0.055 A 
ATOM     68  C   UNL A   1      41.586  32.020  36.924  1.00  0.00     0.041 A 
ATOM     69  F   UNL A   1      41.090  29.848  36.198  1.00  0.00    -0.206 F 
ATOM     70  C   UNL A   1      42.208  33.249  36.723  1.00  0.00     0.022 A 
BRANCH  67  71
ATOM     71  S   UNL A   1      43.847  34.996  35.295  1.00  0.00     0.124 S 
ATOM     72  O   UNL A   1      44.558  34.704  34.052  1.00  0.00    -0.237 OA
ATOM     73  O   UNL A   1      42.827  36.035  35.218  1.00  0.00    -0.237 OA
ATOM     74  O   UNL A   1      44.685  35.031  36.491  1.00  0.00    -0.744 OA
ENDBRANCH  67  71
ENDBRANCH  50  64
BRANCH  51  75
ATOM     75  C   UNL A   1      42.375  24.469  27.335  1.00  0.00     0.023 A 
ATOM     76  C   UNL A   1      41.609  23.293  27.362  1.00  0.00     0.031 A 
ATOM     77  C   UNL A   1      43.243  24.664  26.246  1.00  0.00     0.131 A 
ATOM     78  C   UNL A   1      41.767  22.330  26.354  1.00  0.00     0.055 A 
ATOM     79  C   UNL A   1      43.356  23.728  25.216  1.00  0.00     0.041 A 
ATOM     80  F   UNL A   1      43.995  25.774  26.166  1.00  0.00    -0.206 F 
ATOM     81  C   UNL A   1      42.627  22.545  25.275  1.00  0.00     0.022 A 
BRANCH  78  82
ATOM     82  S   UNL A   1      40.906  20.743  26.528  1.00  0.00     0.124 S 
ATOM     83  O   UNL A   1      41.764  19.853  25.752  1.00  0.00    -0.237 OA
ATOM     84  O   UNL A   1      40.921  20.549  27.974  1.00  0.00    -0.237 OA
ATOM     85  O   UNL A   1      39.590  21.004  25.949  1.00  0.00    -0.744 OA
ENDBRANCH  78  82
ENDBRANCH  51  75
BRANCH  63  86
ATOM     86  C   UNL A   1      46.587  25.796  32.726  1.00  0.00     0.023 A 
ATOM     87  C   UNL A   1      46.548  24.764  33.678  1.00  0.00     0.031 A 
ATOM     88  C   UNL A   1      47.842  26.202  32.238  1.00  0.00     0.131 A 
ATOM     89  C   UNL A   1      47.745  24.209  34.155  1.00  0.00     0.055 A 
ATOM     90  C   UNL A   1      49.026  25.606  32.673  1.00  0.00     0.041 A 
ATOM     91  F   UNL A   1      47.936  27.184  31.327  1.00  0.00    -0.206 F 
ATOM     92  C   UNL A   1      48.983  24.612  33.646  1.00  0.00     0.022 A 
BRANCH  89  93
ATOM     93  S   UNL A   1      47.669  23.010  35.514  1.00  0.00     0.124 S 
ATOM     94  O   UNL A   1      48.595  21.977  35.059  1.00  0.00    -0.237 OA
ATOM     95  O   UNL A   1      48.112  23.803  36.655  1.00  0.00    -0.237 OA
ATOM     96  O   UNL A   1      46.262  22.614  35.544  1.00  0.00    -0.744 OA
ENDBRANCH  89  93
ENDBRANCH  63  86
ENDBRANCH  37  38
ENDBRANCH  29  32
ENDBRANCH  27  28
ENDBRANCH  26  27
ENDBRANCH   1  26
TORSDOF 18
ENDMDL
MODEL 3
REMARK VINA RESULT:     -11.3      2.458      8.164
REMARK SMILES [NH3+][C@H]1CCC[C@H]1C(=O)NCc1ccc(C(=O)NCCCCNC(=O)c2ccc(-c3c4nc(c(-c5cc(S(=O)(=O)[O-])ccc5F)c5ccc([nH]5)c(-c5cc(S(=O)(=O)[O-])ccc5F)c5nc(c(-c6cc(S(=O)(=O)[O-])ccc6F)c6ccc3[nH]6)C=C5)C=C4)cc2)o1
REMARK SMILES IDX 19 1 18 2 17 3 15 4 16 5 14 7 11 8 12 9 88 10 13 11 10 12
REMARK SMILES IDX 9 13 7 14 8 15 6 17 2 18 3 19 4 20 5 21 1 22 20 26 21 27
REMARK SMILES IDX 22 28 23 29 24 31 25 32 26 33 87 34 27 35 86 36 28 37 29 38
REMARK SMILES IDX 30 39 80 40 31 41 85 42 79 43 81 44 32 45 84 46 78 47 77 48
REMARK SMILES IDX 33 50 65 51 45 52 64 53 46 54 49 55 63 56 82 57 47 58 48 59
REMARK SMILES IDX 62 61 83 62 50 63 34 64 35 65 43 66 36 67 42 68 44 69 41 70
REMARK SMILES IDX 37 71 38 72 39 73 40 74 66 75 67 76 75 77 68 78 74 79 76 80
REMARK SMILES IDX 73 81 69 82 70 83 71 84 72 85 51 86 52 87 60 88 53 89 59 90
REMARK SMILES IDX 61 91 58 92 54 93 55 94 56 95 57 96
REMARK H PARENT 17 6 9 16 1 23 1 24 1 25 22 30 81 49 49 60
REMARK Flexibility Score: inf
ROOT
ATOM      1  C   UNL A   1      34.276  21.740  25.179  1.00  0.00     0.023 C 
ENDROOT
BRANCH   1   2
ATOM      2  C   UNL A   1      34.046  23.143  25.742  1.00  0.00     0.116 C 
BRANCH   2   3
ATOM      3  N   UNL A   1      32.939  23.164  26.675  1.00  0.00    -0.349 N 
ATOM      4  C   UNL A   1      31.620  23.518  26.502  1.00  0.00     0.286 C 
ATOM      5  O   UNL A   1      30.896  23.364  27.489  1.00  0.00    -0.266 OA
ATOM      6  H   UNL A   1      33.169  22.876  27.586  1.00  0.00     0.163 HD
BRANCH   4   7
ATOM      7  C   UNL A   1      31.117  24.022  25.234  1.00  0.00     0.191 A 
ATOM      8  C   UNL A   1      29.976  25.503  24.033  1.00  0.00     0.124 A 
ATOM      9  C   UNL A   1      30.409  24.540  23.151  1.00  0.00     0.048 A 
ATOM     10  O   UNL A   1      30.422  25.211  25.286  1.00  0.00    -0.454 OA
ATOM     11  C   UNL A   1      31.155  23.609  23.913  1.00  0.00     0.056 A 
BRANCH   8  12
ATOM     12  C   UNL A   1      29.135  26.720  23.908  1.00  0.00     0.191 C 
BRANCH  12  13
ATOM     13  N   UNL A   1      29.767  27.654  22.998  1.00  0.00    -0.348 N 
ATOM     14  C   UNL A   1      30.693  28.622  23.197  1.00  0.00     0.229 C 
ATOM     15  O   UNL A   1      30.851  29.425  22.268  1.00  0.00    -0.275 OA
ATOM     16  H   UNL A   1      29.468  27.571  22.063  1.00  0.00     0.163 HD
BRANCH  14  17
ATOM     17  C   UNL A   1      31.578  28.733  24.432  1.00  0.00     0.136 C 
ATOM     18  C   UNL A   1      33.095  28.549  24.302  1.00  0.00     0.193 C 
ATOM     19  C   UNL A   1      33.586  28.991  25.687  1.00  0.00     0.066 C 
ATOM     20  C   UNL A   1      32.629  30.094  26.147  1.00  0.00     0.007 C 
ATOM     21  C   UNL A   1      31.362  29.966  25.304  1.00  0.00     0.020 C 
BRANCH  18  22
ATOM     22  N   UNL A   1      33.773  29.323  23.277  1.00  0.00    -0.354 N 
ATOM     23  H   UNL A   1      33.100  29.923  22.801  1.00  0.00     0.344 HD
ATOM     24  H   UNL A   1      34.202  28.691  22.600  1.00  0.00     0.344 HD
ATOM     25  H   UNL A   1      34.496  29.899  23.709  1.00  0.00     0.344 HD
ENDBRANCH  18  22
ENDBRANCH  14  17
ENDBRANCH  12  13
ENDBRANCH   8  12
ENDBRANCH   4   7
ENDBRANCH   2   3
ENDBRANCH   1   2
BRANCH   1  26
ATOM     26  C   UNL A   1      35.706  21.488  24.690  1.00  0.00     0.023 C 
BRANCH  26  27
ATOM     27  C   UNL A   1      36.810  21.847  25.684  1.00  0.00     0.116 C 
BRANCH  27  28
ATOM     28  N   UNL A   1      37.866  20.851  25.760  1.00  0.00    -0.352 N 
ATOM     29  C   UNL A   1      39.186  21.025  26.111  1.00  0.00     0.251 C 
ATOM     30  H   UNL A   1      37.603  19.930  25.531  1.00  0.00     0.163 HD
ATOM     31  O   UNL A   1      39.970  20.091  26.024  1.00  0.00    -0.269 OA
BRANCH  29  32
ATOM     32  C   UNL A   1      39.646  22.362  26.548  1.00  0.00     0.039 A 
ATOM     33  C   UNL A   1      40.655  22.442  27.510  1.00  0.00     0.014 A 
ATOM     34  C   UNL A   1      39.113  23.523  25.983  1.00  0.00     0.014 A 
ATOM     35  C   UNL A   1      41.183  23.689  27.854  1.00  0.00     0.010 A 
ATOM     36  C   UNL A   1      39.683  24.758  26.280  1.00  0.00     0.010 A 
ATOM     37  C   UNL A   1      40.730  24.853  27.211  1.00  0.00    -0.014 A 
BRANCH  37  38
ATOM     38  C   UNL A   1      41.343  26.177  27.493  1.00  0.00     0.031 A 
ATOM     39  C   UNL A   1      42.732  26.484  27.003  1.00  0.00     0.074 A 
ATOM     40  C   UNL A   1      40.675  27.073  28.247  1.00  0.00     0.049 A 
ATOM     41  N   UNL A   1      43.473  27.538  27.223  1.00  0.00    -0.248 NA
ATOM     42  C   UNL A   1      43.380  25.452  26.179  1.00  0.00     0.031 C 
ATOM     43  C   UNL A   1      39.338  26.873  28.813  1.00  0.00     0.029 A 
ATOM     44  N   UNL A   1      41.031  28.326  28.680  1.00  0.00    -0.354 N 
ATOM     45  C   UNL A   1      44.680  27.295  26.577  1.00  0.00     0.074 A 
ATOM     46  C   UNL A   1      44.589  25.967  26.007  1.00  0.00     0.031 C 
ATOM     47  C   UNL A   1      38.982  27.971  29.499  1.00  0.00     0.029 A 
ATOM     48  C   UNL A   1      40.077  28.935  29.464  1.00  0.00     0.049 A 
ATOM     49  H   UNL A   1      41.890  28.750  28.451  1.00  0.00     0.167 HD
ATOM     50  C   UNL A   1      45.755  28.113  26.451  1.00  0.00     0.034 A 
ATOM     51  C   UNL A   1      40.089  30.127  30.092  1.00  0.00     0.034 A 
ATOM     52  C   UNL A   1      45.824  29.439  27.013  1.00  0.00     0.049 A 
ATOM     53  C   UNL A   1      41.304  31.010  29.951  1.00  0.00     0.074 A 
ATOM     54  C   UNL A   1      46.845  30.369  26.908  1.00  0.00     0.029 A 
ATOM     55  N   UNL A   1      44.833  30.027  27.788  1.00  0.00    -0.354 N 
ATOM     56  N   UNL A   1      42.422  30.781  29.300  1.00  0.00    -0.248 NA
ATOM     57  C   UNL A   1      41.255  32.316  30.621  1.00  0.00     0.031 C 
ATOM     58  C   UNL A   1      46.498  31.492  27.666  1.00  0.00     0.029 A 
ATOM     59  C   UNL A   1      45.229  31.295  28.187  1.00  0.00     0.049 A 
ATOM     60  H   UNL A   1      43.974  29.605  28.021  1.00  0.00     0.167 HD
ATOM     61  C   UNL A   1      43.192  31.930  29.454  1.00  0.00     0.074 A 
ATOM     62  C   UNL A   1      42.406  32.854  30.246  1.00  0.00     0.031 C 
ATOM     63  C   UNL A   1      44.434  32.202  28.980  1.00  0.00     0.034 A 
BRANCH  50  64
ATOM     64  C   UNL A   1      46.946  27.581  25.692  1.00  0.00     0.023 A 
ATOM     65  C   UNL A   1      47.193  27.949  24.358  1.00  0.00     0.031 A 
ATOM     66  C   UNL A   1      47.837  26.681  26.302  1.00  0.00     0.131 A 
ATOM     67  C   UNL A   1      48.259  27.368  23.657  1.00  0.00     0.055 A 
ATOM     68  C   UNL A   1      48.944  26.166  25.622  1.00  0.00     0.041 A 
ATOM     69  F   UNL A   1      47.642  26.277  27.567  1.00  0.00    -0.206 F 
ATOM     70  C   UNL A   1      49.151  26.499  24.286  1.00  0.00     0.022 A 
BRANCH  67  71
ATOM     71  S   UNL A   1      48.384  27.663  21.871  1.00  0.00     0.124 S 
ATOM     72  O   UNL A   1      47.070  28.229  21.574  1.00  0.00    -0.237 OA
ATOM     73  O   UNL A   1      49.511  28.584  21.781  1.00  0.00    -0.237 OA
ATOM     74  O   UNL A   1      48.620  26.331  21.319  1.00  0.00    -0.744 OA
ENDBRANCH  67  71
ENDBRANCH  50  64
BRANCH  51  75
ATOM     75  C   UNL A   1      38.928  30.562  30.921  1.00  0.00     0.023 A 
ATOM     76  C   UNL A   1      37.928  31.389  30.385  1.00  0.00     0.031 A 
ATOM     77  C   UNL A   1      38.832  30.206  32.278  1.00  0.00     0.131 A 
ATOM     78  C   UNL A   1      36.908  31.880  31.214  1.00  0.00     0.055 A 
ATOM     79  C   UNL A   1      37.783  30.652  33.085  1.00  0.00     0.041 A 
ATOM     80  F   UNL A   1      39.758  29.412  32.840  1.00  0.00    -0.206 F 
ATOM     81  C   UNL A   1      36.823  31.509  32.557  1.00  0.00     0.022 A 
BRANCH  78  82
ATOM     82  S   UNL A   1      35.749  33.098  30.533  1.00  0.00     0.124 S 
ATOM     83  O   UNL A   1      36.456  33.544  29.337  1.00  0.00    -0.237 OA
ATOM     84  O   UNL A   1      34.557  32.288  30.309  1.00  0.00    -0.237 OA
ATOM     85  O   UNL A   1      35.635  34.092  31.598  1.00  0.00    -0.744 OA
ENDBRANCH  78  82
ENDBRANCH  51  75
BRANCH  63  86
ATOM     86  C   UNL A   1      44.991  33.574  29.267  1.00  0.00     0.023 A 
ATOM     87  C   UNL A   1      44.850  34.636  28.358  1.00  0.00     0.031 A 
ATOM     88  C   UNL A   1      45.684  33.816  30.467  1.00  0.00     0.131 A 
ATOM     89  C   UNL A   1      45.441  35.878  28.637  1.00  0.00     0.055 A 
ATOM     90  C   UNL A   1      46.221  35.069  30.765  1.00  0.00     0.041 A 
ATOM     91  F   UNL A   1      45.849  32.836  31.370  1.00  0.00    -0.206 F 
ATOM     92  C   UNL A   1      46.112  36.105  29.842  1.00  0.00     0.022 A 
BRANCH  89  93
ATOM     93  S   UNL A   1      45.397  37.170  27.365  1.00  0.00     0.124 S 
ATOM     94  O   UNL A   1      46.127  38.256  28.010  1.00  0.00    -0.237 OA
ATOM     95  O   UNL A   1      46.073  36.527  26.243  1.00  0.00    -0.237 OA
ATOM     96  O   UNL A   1      43.968  37.411  27.170  1.00  0.00    -0.744 OA
ENDBRANCH  89  93
ENDBRANCH  63  86
ENDBRANCH  37  38
ENDBRANCH  29  32
ENDBRANCH  27  28
ENDBRANCH  26  27
ENDBRANCH   1  26
TORSDOF 18
ENDMDL
