MODEL 1
REMARK VINA RESULT:     -12.6      0.000      0.000
REMARK SMILES CS(=O)(=O)c1ccc(C2=NN(c3ccc(C(=O)NCCCCNC(=O)c4ccc(-c5c6nc(c(-c7cc(S(=O)(=O)[O-])ccc7F)c7ccc([nH]7)c(-c7cc(S(=O)(=O)[O-])ccc7F)c7nc(c(-c8cc(S(=O)(=O)[O-])ccc8F)c8ccc5[nH]8)C=C7)C=C6)cc4)cc3)[C@H](c3ccccc3)C2)cc1
REMARK SMILES IDX 20 1 19 2 18 3 16 4 17 5 15 7 12 8 13 9 90 10 14 11 89 12
REMARK SMILES IDX 11 13 9 14 10 15 98 16 91 17 8 18 5 19 6 20 100 21 7 22
REMARK SMILES IDX 99 23 2 24 1 25 3 26 4 27 92 28 93 29 97 30 94 31 96 32
REMARK SMILES IDX 95 33 21 34 22 35 23 36 24 37 25 39 26 40 27 41 88 42 28 43
REMARK SMILES IDX 87 44 29 45 30 46 31 47 81 48 32 49 86 50 80 51 82 52 33 53
REMARK SMILES IDX 85 54 79 55 78 56 34 58 66 59 46 60 65 61 47 62 50 63 64 64
REMARK SMILES IDX 83 65 48 66 49 67 63 69 84 70 51 71 35 72 36 73 44 74 37 75
REMARK SMILES IDX 43 76 45 77 42 78 38 79 39 80 40 81 41 82 67 83 68 84 76 85
REMARK SMILES IDX 69 86 75 87 77 88 74 89 70 90 71 91 72 92 73 93 52 94 53 95
REMARK SMILES IDX 61 96 54 97 60 98 62 99 59 100 55 101 56 102 57 103 58 104
REMARK H PARENT 18 6 23 38 82 57 50 68
REMARK Flexibility Score: inf
ROOT
ATOM      1  C   UNL A   1      33.086  33.363  27.904  1.00  0.00     0.023 C 
ENDROOT
BRANCH   1   2
ATOM      2  C   UNL A   1      33.021  31.874  27.559  1.00  0.00     0.116 C 
BRANCH   2   3
ATOM      3  N   UNL A   1      34.124  31.150  28.167  1.00  0.00    -0.352 N 
ATOM      4  C   UNL A   1      34.592  29.878  27.941  1.00  0.00     0.251 C 
ATOM      5  O   UNL A   1      35.613  29.507  28.518  1.00  0.00    -0.269 OA
ATOM      6  H   UNL A   1      34.617  31.653  28.855  1.00  0.00     0.163 HD
BRANCH   4   7
ATOM      7  C   UNL A   1      33.941  28.969  26.965  1.00  0.00     0.039 A 
ATOM      8  C   UNL A   1      32.742  27.082  25.259  1.00  0.00     0.060 A 
ATOM      9  C   UNL A   1      32.284  27.242  26.570  1.00  0.00     0.029 A 
ATOM     10  C   UNL A   1      33.742  27.935  24.788  1.00  0.00     0.029 A 
ATOM     11  C   UNL A   1      32.875  28.182  27.419  1.00  0.00     0.016 A 
ATOM     12  C   UNL A   1      34.327  28.879  25.627  1.00  0.00     0.016 A 
BRANCH   8  13
ATOM     13  N   UNL A   1      32.246  26.093  24.434  1.00  0.00    -0.257 N 
ATOM     14  C   UNL A   1      32.123  24.113  23.708  1.00  0.00     0.071 C 
ATOM     15  N   UNL A   1      32.402  24.797  24.771  1.00  0.00    -0.176 NA
ATOM     16  C   UNL A   1      31.780  24.922  22.483  1.00  0.00     0.091 C 
ATOM     17  C   UNL A   1      31.679  26.327  23.107  1.00  0.00     0.144 C 
BRANCH  14  18
ATOM     18  C   UNL A   1      32.185  22.643  23.701  1.00  0.00    -0.002 A 
ATOM     19  C   UNL A   1      32.481  19.875  23.748  1.00  0.00     0.067 A 
ATOM     20  C   UNL A   1      32.612  20.607  24.933  1.00  0.00     0.021 A 
ATOM     21  C   UNL A   1      32.198  20.521  22.539  1.00  0.00     0.021 A 
ATOM     22  C   UNL A   1      32.476  21.993  24.904  1.00  0.00     0.011 A 
ATOM     23  C   UNL A   1      32.041  21.912  22.518  1.00  0.00     0.011 A 
BRANCH  19  24
ATOM     24  S   UNL A   1      32.695  18.116  23.861  1.00  0.00     0.175 S 
ATOM     25  C   UNL A   1      34.384  17.817  24.292  1.00  0.00     0.163 C 
ATOM     26  O   UNL A   1      32.505  17.594  22.516  1.00  0.00    -0.224 OA
ATOM     27  O   UNL A   1      31.874  17.667  24.963  1.00  0.00    -0.224 OA
ENDBRANCH  19  24
ENDBRANCH  14  18
BRANCH  17  28
ATOM     28  C   UNL A   1      30.294  26.963  23.221  1.00  0.00    -0.023 A 
ATOM     29  C   UNL A   1      29.963  28.227  22.713  1.00  0.00     0.006 A 
ATOM     30  C   UNL A   1      29.264  26.213  23.828  1.00  0.00     0.006 A 
ATOM     31  C   UNL A   1      28.659  28.727  22.822  1.00  0.00     0.000 A 
ATOM     32  C   UNL A   1      27.957  26.701  23.912  1.00  0.00     0.000 A 
ATOM     33  C   UNL A   1      27.656  27.963  23.415  1.00  0.00     0.000 A 
ENDBRANCH  17  28
ENDBRANCH   8  13
ENDBRANCH   4   7
ENDBRANCH   2   3
ENDBRANCH   1   2
BRANCH   1  34
ATOM     34  C   UNL A   1      34.501  33.898  28.120  1.00  0.00     0.023 C 
BRANCH  34  35
ATOM     35  C   UNL A   1      34.573  35.234  28.846  1.00  0.00     0.116 C 
BRANCH  35  36
ATOM     36  N   UNL A   1      33.430  35.476  29.717  1.00  0.00    -0.352 N 
ATOM     37  C   UNL A   1      33.288  35.116  31.037  1.00  0.00     0.251 C 
ATOM     38  H   UNL A   1      32.671  35.953  29.314  1.00  0.00     0.163 HD
ATOM     39  O   UNL A   1      32.223  35.290  31.621  1.00  0.00    -0.269 OA
BRANCH  37  40
ATOM     40  C   UNL A   1      34.431  34.474  31.718  1.00  0.00     0.039 A 
ATOM     41  C   UNL A   1      34.473  33.082  31.809  1.00  0.00     0.014 A 
ATOM     42  C   UNL A   1      35.499  35.252  32.173  1.00  0.00     0.014 A 
ATOM     43  C   UNL A   1      35.631  32.461  32.284  1.00  0.00     0.010 A 
ATOM     44  C   UNL A   1      36.673  34.630  32.577  1.00  0.00     0.010 A 
ATOM     45  C   UNL A   1      36.755  33.229  32.628  1.00  0.00    -0.014 A 
BRANCH  45  46
ATOM     46  C   UNL A   1      38.037  32.600  33.042  1.00  0.00     0.031 A 
ATOM     47  C   UNL A   1      38.621  31.493  32.209  1.00  0.00     0.074 A 
ATOM     48  C   UNL A   1      38.616  32.954  34.208  1.00  0.00     0.049 A 
ATOM     49  N   UNL A   1      39.632  30.707  32.468  1.00  0.00    -0.248 NA
ATOM     50  C   UNL A   1      37.951  31.214  30.930  1.00  0.00     0.031 C 
ATOM     51  C   UNL A   1      38.125  33.994  35.115  1.00  0.00     0.029 A 
ATOM     52  N   UNL A   1      39.730  32.463  34.840  1.00  0.00    -0.354 N 
ATOM     53  C   UNL A   1      39.709  29.825  31.395  1.00  0.00     0.074 A 
ATOM     54  C   UNL A   1      38.604  30.140  30.514  1.00  0.00     0.031 C 
ATOM     55  C   UNL A   1      38.942  34.070  36.179  1.00  0.00     0.029 A 
ATOM     56  C   UNL A   1      39.980  33.051  36.059  1.00  0.00     0.049 A 
ATOM     57  H   UNL A   1      40.299  31.756  34.457  1.00  0.00     0.167 HD
ATOM     58  C   UNL A   1      40.627  28.856  31.160  1.00  0.00     0.034 A 
ATOM     59  C   UNL A   1      40.923  32.783  36.987  1.00  0.00     0.034 A 
ATOM     60  C   UNL A   1      41.730  28.568  32.043  1.00  0.00     0.049 A 
ATOM     61  C   UNL A   1      41.913  31.676  36.719  1.00  0.00     0.074 A 
ATOM     62  C   UNL A   1      42.750  27.647  31.875  1.00  0.00     0.029 A 
ATOM     63  N   UNL A   1      41.956  29.192  33.263  1.00  0.00    -0.354 N 
ATOM     64  N   UNL A   1      41.996  30.876  35.680  1.00  0.00    -0.248 NA
ATOM     65  C   UNL A   1      42.940  31.439  37.743  1.00  0.00     0.031 C 
ATOM     66  C   UNL A   1      43.550  27.666  33.022  1.00  0.00     0.029 A 
ATOM     67  C   UNL A   1      43.080  28.654  33.872  1.00  0.00     0.049 A 
ATOM     68  H   UNL A   1      41.400  29.911  33.640  1.00  0.00     0.167 HD
ATOM     69  C   UNL A   1      43.106  30.067  35.912  1.00  0.00     0.074 A 
ATOM     70  C   UNL A   1      43.662  30.481  37.183  1.00  0.00     0.031 C 
ATOM     71  C   UNL A   1      43.623  29.078  35.140  1.00  0.00     0.034 A 
BRANCH  58  72
ATOM     72  C   UNL A   1      40.454  28.023  29.912  1.00  0.00     0.023 A 
ATOM     73  C   UNL A   1      41.287  28.187  28.792  1.00  0.00     0.031 A 
ATOM     74  C   UNL A   1      39.424  27.069  29.831  1.00  0.00     0.131 A 
ATOM     75  C   UNL A   1      41.027  27.470  27.615  1.00  0.00     0.055 A 
ATOM     76  C   UNL A   1      39.224  26.296  28.685  1.00  0.00     0.041 A 
ATOM     77  F   UNL A   1      38.581  26.882  30.859  1.00  0.00    -0.206 F 
ATOM     78  C   UNL A   1      40.019  26.506  27.562  1.00  0.00     0.022 A 
BRANCH  75  79
ATOM     79  S   UNL A   1      41.933  27.923  26.110  1.00  0.00     0.124 S 
ATOM     80  O   UNL A   1      43.306  27.996  26.605  1.00  0.00    -0.237 OA
ATOM     81  O   UNL A   1      41.634  26.812  25.214  1.00  0.00    -0.237 OA
ATOM     82  O   UNL A   1      41.346  29.207  25.730  1.00  0.00    -0.744 OA
ENDBRANCH  75  79
ENDBRANCH  58  72
BRANCH  59  83
ATOM     83  C   UNL A   1      40.969  33.550  38.266  1.00  0.00     0.023 A 
ATOM     84  C   UNL A   1      40.214  33.146  39.378  1.00  0.00     0.031 A 
ATOM     85  C   UNL A   1      41.731  34.727  38.380  1.00  0.00     0.131 A 
ATOM     86  C   UNL A   1      40.195  33.938  40.537  1.00  0.00     0.055 A 
ATOM     87  C   UNL A   1      41.754  35.481  39.555  1.00  0.00     0.041 A 
ATOM     88  F   UNL A   1      42.476  35.157  37.348  1.00  0.00    -0.206 F 
ATOM     89  C   UNL A   1      40.971  35.095  40.637  1.00  0.00     0.022 A 
BRANCH  86  90
ATOM     90  S   UNL A   1      39.064  33.482  41.880  1.00  0.00     0.124 S 
ATOM     91  O   UNL A   1      39.817  33.904  43.056  1.00  0.00    -0.237 OA
ATOM     92  O   UNL A   1      37.880  34.270  41.559  1.00  0.00    -0.237 OA
ATOM     93  O   UNL A   1      38.913  32.037  41.721  1.00  0.00    -0.744 OA
ENDBRANCH  86  90
ENDBRANCH  59  83
BRANCH  71  94
ATOM     94  C   UNL A   1      44.890  28.417  35.622  1.00  0.00     0.023 A 
ATOM     95  C   UNL A   1      44.872  27.246  36.399  1.00  0.00     0.031 A 
ATOM     96  C   UNL A   1      46.140  28.965  35.279  1.00  0.00     0.131 A 
ATOM     97  C   UNL A   1      46.078  26.684  36.843  1.00  0.00     0.055 A 
ATOM     98  C   UNL A   1      47.337  28.369  35.676  1.00  0.00     0.041 A 
ATOM     99  F   UNL A   1      46.216  30.083  34.540  1.00  0.00    -0.206 F 
ATOM    100  C   UNL A   1      47.311  27.227  36.471  1.00  0.00     0.022 A 
BRANCH  97 101
ATOM    101  S   UNL A   1      46.018  25.266  37.972  1.00  0.00     0.124 S 
ATOM    102  O   UNL A   1      46.815  25.742  39.098  1.00  0.00    -0.237 OA
ATOM    103  O   UNL A   1      44.587  25.123  38.220  1.00  0.00    -0.237 OA
ATOM    104  O   UNL A   1      46.622  24.183  37.198  1.00  0.00    -0.744 OA
ENDBRANCH  97 101
ENDBRANCH  71  94
ENDBRANCH  45  46
ENDBRANCH  37  40
ENDBRANCH  35  36
ENDBRANCH  34  35
ENDBRANCH   1  34
TORSDOF 18
ENDMDL
MODEL 2
REMARK VINA RESULT:     -12.5      1.194      7.231
REMARK SMILES CS(=O)(=O)c1ccc(C2=NN(c3ccc(C(=O)NCCCCNC(=O)c4ccc(-c5c6nc(c(-c7cc(S(=O)(=O)[O-])ccc7F)c7ccc([nH]7)c(-c7cc(S(=O)(=O)[O-])ccc7F)c7nc(c(-c8cc(S(=O)(=O)[O-])ccc8F)c8ccc5[nH]8)C=C7)C=C6)cc4)cc3)[C@H](c3ccccc3)C2)cc1
REMARK SMILES IDX 20 1 19 2 18 3 16 4 17 5 15 7 12 8 13 9 90 10 14 11 89 12
REMARK SMILES IDX 11 13 9 14 10 15 98 16 91 17 8 18 5 19 6 20 100 21 7 22
REMARK SMILES IDX 99 23 2 24 1 25 3 26 4 27 92 28 93 29 97 30 94 31 96 32
REMARK SMILES IDX 95 33 21 34 22 35 23 36 24 37 25 39 26 40 27 41 88 42 28 43
REMARK SMILES IDX 87 44 29 45 30 46 31 47 81 48 32 49 86 50 80 51 82 52 33 53
REMARK SMILES IDX 85 54 79 55 78 56 34 58 66 59 46 60 65 61 47 62 50 63 64 64
REMARK SMILES IDX 83 65 48 66 49 67 63 69 84 70 51 71 35 72 36 73 44 74 37 75
REMARK SMILES IDX 43 76 45 77 42 78 38 79 39 80 40 81 41 82 67 83 68 84 76 85
REMARK SMILES IDX 69 86 75 87 77 88 74 89 70 90 71 91 72 92 73 93 52 94 53 95
REMARK SMILES IDX 61 96 54 97 60 98 62 99 59 100 55 101 56 102 57 103 58 104
REMARK H PARENT 18 6 23 38 82 57 50 68
REMARK Flexibility Score: inf
ROOT
ATOM      1  C   UNL A   1      32.949  33.341  27.893  1.00  0.00     0.023 C 
ENDROOT
BRANCH   1   2
ATOM      2  C   UNL A   1      32.984  31.887  27.419  1.00  0.00     0.116 C 
BRANCH   2   3
ATOM      3  N   UNL A   1      34.050  31.150  28.074  1.00  0.00    -0.352 N 
ATOM      4  C   UNL A   1      34.497  29.865  27.885  1.00  0.00     0.251 C 
ATOM      5  O   UNL A   1      35.490  29.482  28.500  1.00  0.00    -0.269 OA
ATOM      6  H   UNL A   1      34.533  31.655  28.768  1.00  0.00     0.163 HD
BRANCH   4   7
ATOM      7  C   UNL A   1      33.857  28.952  26.904  1.00  0.00     0.039 A 
ATOM      8  C   UNL A   1      32.682  27.059  25.188  1.00  0.00     0.060 A 
ATOM      9  C   UNL A   1      32.232  27.196  26.504  1.00  0.00     0.029 A 
ATOM     10  C   UNL A   1      33.660  27.937  24.719  1.00  0.00     0.029 A 
ATOM     11  C   UNL A   1      32.810  28.140  27.359  1.00  0.00     0.016 A 
ATOM     12  C   UNL A   1      34.233  28.884  25.563  1.00  0.00     0.016 A 
BRANCH   8  13
ATOM     13  N   UNL A   1      32.200  26.068  24.357  1.00  0.00    -0.257 N 
ATOM     14  C   UNL A   1      32.090  24.088  23.631  1.00  0.00     0.071 C 
ATOM     15  N   UNL A   1      32.353  24.773  24.698  1.00  0.00    -0.176 NA
ATOM     16  C   UNL A   1      31.765  24.896  22.401  1.00  0.00     0.091 C 
ATOM     17  C   UNL A   1      31.652  26.301  23.021  1.00  0.00     0.144 C 
BRANCH  14  18
ATOM     18  C   UNL A   1      32.155  22.618  23.626  1.00  0.00    -0.002 A 
ATOM     19  C   UNL A   1      32.450  19.850  23.690  1.00  0.00     0.067 A 
ATOM     20  C   UNL A   1      32.492  20.581  24.883  1.00  0.00     0.021 A 
ATOM     21  C   UNL A   1      32.255  20.498  22.464  1.00  0.00     0.021 A 
ATOM     22  C   UNL A   1      32.357  21.966  24.847  1.00  0.00     0.011 A 
ATOM     23  C   UNL A   1      32.098  21.889  22.435  1.00  0.00     0.011 A 
BRANCH  19  24
ATOM     24  S   UNL A   1      32.657  18.091  23.816  1.00  0.00     0.175 S 
ATOM     25  C   UNL A   1      34.360  17.786  24.185  1.00  0.00     0.163 C 
ATOM     26  O   UNL A   1      32.413  17.555  22.486  1.00  0.00    -0.224 OA
ATOM     27  O   UNL A   1      31.877  17.660  24.954  1.00  0.00    -0.224 OA
ENDBRANCH  19  24
ENDBRANCH  14  18
BRANCH  17  28
ATOM     28  C   UNL A   1      30.265  26.934  23.115  1.00  0.00    -0.023 A 
ATOM     29  C   UNL A   1      29.160  26.326  23.729  1.00  0.00     0.006 A 
ATOM     30  C   UNL A   1      30.091  28.238  22.603  1.00  0.00     0.006 A 
ATOM     31  C   UNL A   1      27.928  26.987  23.812  1.00  0.00     0.000 A 
ATOM     32  C   UNL A   1      28.869  28.908  22.710  1.00  0.00     0.000 A 
ATOM     33  C   UNL A   1      27.784  28.279  23.308  1.00  0.00     0.000 A 
ENDBRANCH  17  28
ENDBRANCH   8  13
ENDBRANCH   4   7
ENDBRANCH   2   3
ENDBRANCH   1   2
BRANCH   1  34
ATOM     34  C   UNL A   1      34.063  33.710  28.873  1.00  0.00     0.023 C 
BRANCH  34  35
ATOM     35  C   UNL A   1      34.107  35.181  29.262  1.00  0.00     0.116 C 
BRANCH  35  36
ATOM     36  N   UNL A   1      33.044  35.564  30.181  1.00  0.00    -0.352 N 
ATOM     37  C   UNL A   1      32.979  35.337  31.536  1.00  0.00     0.251 C 
ATOM     38  H   UNL A   1      32.280  36.042  29.785  1.00  0.00     0.163 HD
ATOM     39  O   UNL A   1      31.969  35.621  32.170  1.00  0.00    -0.269 OA
BRANCH  37  40
ATOM     40  C   UNL A   1      34.136  34.700  32.197  1.00  0.00     0.039 A 
ATOM     41  C   UNL A   1      34.018  33.387  32.657  1.00  0.00     0.014 A 
ATOM     42  C   UNL A   1      35.359  35.373  32.266  1.00  0.00     0.014 A 
ATOM     43  C   UNL A   1      35.155  32.716  33.115  1.00  0.00     0.010 A 
ATOM     44  C   UNL A   1      36.499  34.680  32.653  1.00  0.00     0.010 A 
ATOM     45  C   UNL A   1      36.411  33.343  33.073  1.00  0.00    -0.014 A 
BRANCH  45  46
ATOM     46  C   UNL A   1      37.657  32.628  33.458  1.00  0.00     0.031 A 
ATOM     47  C   UNL A   1      38.261  32.872  34.812  1.00  0.00     0.074 A 
ATOM     48  C   UNL A   1      38.288  31.844  32.561  1.00  0.00     0.049 A 
ATOM     49  N   UNL A   1      39.414  32.482  35.287  1.00  0.00    -0.248 NA
ATOM     50  C   UNL A   1      37.474  33.699  35.740  1.00  0.00     0.031 C 
ATOM     51  C   UNL A   1      37.813  31.554  31.206  1.00  0.00     0.029 A 
ATOM     52  N   UNL A   1      39.477  31.163  32.646  1.00  0.00    -0.354 N 
ATOM     53  C   UNL A   1      39.503  33.032  36.562  1.00  0.00     0.074 A 
ATOM     54  C   UNL A   1      38.310  33.829  36.758  1.00  0.00     0.031 C 
ATOM     55  C   UNL A   1      38.695  30.747  30.594  1.00  0.00     0.029 A 
ATOM     56  C   UNL A   1      39.823  30.505  31.488  1.00  0.00     0.049 A 
ATOM     57  H   UNL A   1      40.031  31.147  33.460  1.00  0.00     0.167 HD
ATOM     58  C   UNL A   1      40.480  32.869  37.488  1.00  0.00     0.034 A 
ATOM     59  C   UNL A   1      40.935  29.808  31.173  1.00  0.00     0.034 A 
ATOM     60  C   UNL A   1      41.653  32.057  37.279  1.00  0.00     0.049 A 
ATOM     61  C   UNL A   1      42.024  29.670  32.208  1.00  0.00     0.074 A 
ATOM     62  C   UNL A   1      42.676  31.778  38.168  1.00  0.00     0.029 A 
ATOM     63  N   UNL A   1      41.963  31.398  36.097  1.00  0.00    -0.354 N 
ATOM     64  N   UNL A   1      42.075  30.163  33.424  1.00  0.00    -0.248 NA
ATOM     65  C   UNL A   1      43.203  28.876  31.831  1.00  0.00     0.031 C 
ATOM     66  C   UNL A   1      43.637  31.010  37.502  1.00  0.00     0.029 A 
ATOM     67  C   UNL A   1      43.176  30.739  36.224  1.00  0.00     0.049 A 
ATOM     68  H   UNL A   1      41.403  31.397  35.287  1.00  0.00     0.167 HD
ATOM     69  C   UNL A   1      43.274  29.708  33.968  1.00  0.00     0.074 A 
ATOM     70  C   UNL A   1      43.910  28.897  32.951  1.00  0.00     0.031 C 
ATOM     71  C   UNL A   1      43.798  29.933  35.200  1.00  0.00     0.034 A 
BRANCH  58  72
ATOM     72  C   UNL A   1      40.327  33.610  38.796  1.00  0.00     0.023 A 
ATOM     73  C   UNL A   1      39.597  33.070  39.869  1.00  0.00     0.031 A 
ATOM     74  C   UNL A   1      40.897  34.884  38.962  1.00  0.00     0.131 A 
ATOM     75  C   UNL A   1      39.389  33.834  41.028  1.00  0.00     0.055 A 
ATOM     76  C   UNL A   1      40.759  35.603  40.151  1.00  0.00     0.041 A 
ATOM     77  F   UNL A   1      41.587  35.461  37.966  1.00  0.00    -0.206 F 
ATOM     78  C   UNL A   1      39.987  35.085  41.187  1.00  0.00     0.022 A 
BRANCH  75  79
ATOM     79  S   UNL A   1      38.204  33.228  42.260  1.00  0.00     0.124 S 
ATOM     80  O   UNL A   1      38.191  31.795  41.974  1.00  0.00    -0.237 OA
ATOM     81  O   UNL A   1      38.826  33.623  43.518  1.00  0.00    -0.237 OA
ATOM     82  O   UNL A   1      36.969  33.934  41.925  1.00  0.00    -0.744 OA
ENDBRANCH  75  79
ENDBRANCH  58  72
BRANCH  59  83
ATOM     83  C   UNL A   1      41.094  29.205  29.818  1.00  0.00     0.023 A 
ATOM     84  C   UNL A   1      40.579  27.931  29.529  1.00  0.00     0.031 A 
ATOM     85  C   UNL A   1      41.806  29.872  28.805  1.00  0.00     0.131 A 
ATOM     86  C   UNL A   1      40.827  27.342  28.280  1.00  0.00     0.055 A 
ATOM     87  C   UNL A   1      42.001  29.305  27.543  1.00  0.00     0.041 A 
ATOM     88  F   UNL A   1      42.316  31.095  29.025  1.00  0.00    -0.206 F 
ATOM     89  C   UNL A   1      41.522  28.026  27.280  1.00  0.00     0.022 A 
BRANCH  86  90
ATOM     90  S   UNL A   1      40.306  25.625  28.012  1.00  0.00     0.124 S 
ATOM     91  O   UNL A   1      41.487  24.886  28.445  1.00  0.00    -0.237 OA
ATOM     92  O   UNL A   1      39.134  25.526  28.875  1.00  0.00    -0.237 OA
ATOM     93  O   UNL A   1      40.029  25.574  26.578  1.00  0.00    -0.744 OA
ENDBRANCH  86  90
ENDBRANCH  59  83
BRANCH  71  94
ATOM     94  C   UNL A   1      45.095  29.242  35.536  1.00  0.00     0.023 A 
ATOM     95  C   UNL A   1      45.131  27.952  36.094  1.00  0.00     0.031 A 
ATOM     96  C   UNL A   1      46.319  29.886  35.277  1.00  0.00     0.131 A 
ATOM     97  C   UNL A   1      46.363  27.364  36.412  1.00  0.00     0.055 A 
ATOM     98  C   UNL A   1      47.543  29.272  35.542  1.00  0.00     0.041 A 
ATOM     99  F   UNL A   1      46.344  31.118  34.746  1.00  0.00    -0.206 F 
ATOM    100  C   UNL A   1      47.571  28.007  36.123  1.00  0.00     0.022 A 
BRANCH  97 101
ATOM    101  S   UNL A   1      46.373  25.768  37.273  1.00  0.00     0.124 S 
ATOM    102  O   UNL A   1      47.779  25.629  37.640  1.00  0.00    -0.237 OA
ATOM    103  O   UNL A   1      45.447  26.001  38.377  1.00  0.00    -0.237 OA
ATOM    104  O   UNL A   1      45.901  24.826  36.259  1.00  0.00    -0.744 OA
ENDBRANCH  97 101
ENDBRANCH  71  94
ENDBRANCH  45  46
ENDBRANCH  37  40
ENDBRANCH  35  36
ENDBRANCH  34  35
ENDBRANCH   1  34
TORSDOF 18
ENDMDL
MODEL 3
REMARK VINA RESULT:     -12.1      2.706      4.110
REMARK SMILES CS(=O)(=O)c1ccc(C2=NN(c3ccc(C(=O)NCCCCNC(=O)c4ccc(-c5c6nc(c(-c7cc(S(=O)(=O)[O-])ccc7F)c7ccc([nH]7)c(-c7cc(S(=O)(=O)[O-])ccc7F)c7nc(c(-c8cc(S(=O)(=O)[O-])ccc8F)c8ccc5[nH]8)C=C7)C=C6)cc4)cc3)[C@H](c3ccccc3)C2)cc1
REMARK SMILES IDX 20 1 19 2 18 3 16 4 17 5 15 7 12 8 13 9 90 10 14 11 89 12
REMARK SMILES IDX 11 13 9 14 10 15 98 16 91 17 8 18 5 19 6 20 100 21 7 22
REMARK SMILES IDX 99 23 2 24 1 25 3 26 4 27 92 28 93 29 97 30 94 31 96 32
REMARK SMILES IDX 95 33 21 34 22 35 23 36 24 37 25 39 26 40 27 41 88 42 28 43
REMARK SMILES IDX 87 44 29 45 30 46 31 47 81 48 32 49 86 50 80 51 82 52 33 53
REMARK SMILES IDX 85 54 79 55 78 56 34 58 66 59 46 60 65 61 47 62 50 63 64 64
REMARK SMILES IDX 83 65 48 66 49 67 63 69 84 70 51 71 35 72 36 73 44 74 37 75
REMARK SMILES IDX 43 76 45 77 42 78 38 79 39 80 40 81 41 82 67 83 68 84 76 85
REMARK SMILES IDX 69 86 75 87 77 88 74 89 70 90 71 91 72 92 73 93 52 94 53 95
REMARK SMILES IDX 61 96 54 97 60 98 62 99 59 100 55 101 56 102 57 103 58 104
REMARK H PARENT 18 6 23 38 82 57 50 68
REMARK Flexibility Score: inf
ROOT
ATOM      1  C   UNL A   1      33.393  30.062  27.146  1.00  0.00     0.023 C 
ENDROOT
BRANCH   1   2
ATOM      2  C   UNL A   1      33.311  30.181  25.622  1.00  0.00     0.116 C 
BRANCH   2   3
ATOM      3  N   UNL A   1      31.971  29.882  25.148  1.00  0.00    -0.352 N 
ATOM      4  C   UNL A   1      31.438  28.719  24.648  1.00  0.00     0.251 C 
ATOM      5  O   UNL A   1      30.236  28.675  24.392  1.00  0.00    -0.269 OA
ATOM      6  H   UNL A   1      31.341  30.637  25.191  1.00  0.00     0.163 HD
BRANCH   4   7
ATOM      7  C   UNL A   1      32.259  27.494  24.478  1.00  0.00     0.039 A 
ATOM      8  C   UNL A   1      33.944  25.248  24.319  1.00  0.00     0.060 A 
ATOM      9  C   UNL A   1      33.346  25.599  25.532  1.00  0.00     0.029 A 
ATOM     10  C   UNL A   1      33.619  25.978  23.174  1.00  0.00     0.029 A 
ATOM     11  C   UNL A   1      32.504  26.712  25.614  1.00  0.00     0.016 A 
ATOM     12  C   UNL A   1      32.774  27.082  23.249  1.00  0.00     0.016 A 
BRANCH   8  13
ATOM     13  N   UNL A   1      34.858  24.217  24.233  1.00  0.00    -0.257 N 
ATOM     14  C   UNL A   1      36.696  23.270  24.666  1.00  0.00     0.071 C 
ATOM     15  N   UNL A   1      35.840  24.114  25.150  1.00  0.00    -0.176 NA
ATOM     16  C   UNL A   1      36.378  22.735  23.293  1.00  0.00     0.091 C 
ATOM     17  C   UNL A   1      34.950  23.282  23.113  1.00  0.00     0.144 C 
BRANCH  14  18
ATOM     18  C   UNL A   1      37.916  22.904  25.402  1.00  0.00    -0.002 A 
ATOM     19  C   UNL A   1      40.122  22.081  26.888  1.00  0.00     0.067 A 
ATOM     20  C   UNL A   1      39.478  21.173  26.040  1.00  0.00     0.021 A 
ATOM     21  C   UNL A   1      39.670  23.402  26.992  1.00  0.00     0.021 A 
ATOM     22  C   UNL A   1      38.367  21.583  25.308  1.00  0.00     0.011 A 
ATOM     23  C   UNL A   1      38.566  23.816  26.237  1.00  0.00     0.011 A 
BRANCH  19  24
ATOM     24  S   UNL A   1      41.514  21.475  27.809  1.00  0.00     0.175 S 
ATOM     25  C   UNL A   1      42.891  21.410  26.701  1.00  0.00     0.163 C 
ATOM     26  O   UNL A   1      41.199  20.100  28.167  1.00  0.00    -0.224 OA
ATOM     27  O   UNL A   1      41.809  22.466  28.818  1.00  0.00    -0.224 OA
ENDBRANCH  19  24
ENDBRANCH  14  18
BRANCH  17  28
ATOM     28  C   UNL A   1      33.791  22.287  23.150  1.00  0.00    -0.023 A 
ATOM     29  C   UNL A   1      32.737  22.268  22.225  1.00  0.00     0.006 A 
ATOM     30  C   UNL A   1      33.804  21.285  24.144  1.00  0.00     0.006 A 
ATOM     31  C   UNL A   1      31.730  21.299  22.301  1.00  0.00     0.000 A 
ATOM     32  C   UNL A   1      32.813  20.301  24.204  1.00  0.00     0.000 A 
ATOM     33  C   UNL A   1      31.770  20.313  23.285  1.00  0.00     0.000 A 
ENDBRANCH  17  28
ENDBRANCH   8  13
ENDBRANCH   4   7
ENDBRANCH   2   3
ENDBRANCH   1   2
BRANCH   1  34
ATOM     34  C   UNL A   1      33.010  31.337  27.897  1.00  0.00     0.023 C 
BRANCH  34  35
ATOM     35  C   UNL A   1      33.784  32.580  27.481  1.00  0.00     0.116 C 
BRANCH  35  36
ATOM     36  N   UNL A   1      33.116  33.821  27.846  1.00  0.00    -0.352 N 
ATOM     37  C   UNL A   1      33.402  34.651  28.905  1.00  0.00     0.251 C 
ATOM     38  H   UNL A   1      32.372  34.100  27.267  1.00  0.00     0.163 HD
ATOM     39  O   UNL A   1      32.685  35.614  29.157  1.00  0.00    -0.269 OA
BRANCH  37  40
ATOM     40  C   UNL A   1      34.565  34.327  29.757  1.00  0.00     0.039 A 
ATOM     41  C   UNL A   1      34.368  33.583  30.922  1.00  0.00     0.014 A 
ATOM     42  C   UNL A   1      35.853  34.677  29.344  1.00  0.00     0.014 A 
ATOM     43  C   UNL A   1      35.476  33.116  31.633  1.00  0.00     0.010 A 
ATOM     44  C   UNL A   1      36.951  34.152  30.012  1.00  0.00     0.010 A 
ATOM     45  C   UNL A   1      36.775  33.359  31.158  1.00  0.00    -0.014 A 
BRANCH  45  46
ATOM     46  C   UNL A   1      37.974  32.795  31.832  1.00  0.00     0.031 A 
ATOM     47  C   UNL A   1      38.752  31.697  31.163  1.00  0.00     0.074 A 
ATOM     48  C   UNL A   1      38.300  33.200  33.077  1.00  0.00     0.049 A 
ATOM     49  N   UNL A   1      39.723  30.962  31.636  1.00  0.00    -0.248 NA
ATOM     50  C   UNL A   1      38.356  31.361  29.786  1.00  0.00     0.031 C 
ATOM     51  C   UNL A   1      37.602  34.237  33.840  1.00  0.00     0.029 A 
ATOM     52  N   UNL A   1      39.288  32.772  33.928  1.00  0.00    -0.354 N 
ATOM     53  C   UNL A   1      40.041  30.060  30.626  1.00  0.00     0.074 A 
ATOM     54  C   UNL A   1      39.118  30.308  29.538  1.00  0.00     0.031 C 
ATOM     55  C   UNL A   1      38.191  34.372  35.039  1.00  0.00     0.029 A 
ATOM     56  C   UNL A   1      39.271  33.397  35.154  1.00  0.00     0.049 A 
ATOM     57  H   UNL A   1      39.947  32.082  33.685  1.00  0.00     0.167 HD
ATOM     58  C   UNL A   1      41.025  29.127  30.603  1.00  0.00     0.034 A 
ATOM     59  C   UNL A   1      40.024  33.191  36.255  1.00  0.00     0.034 A 
ATOM     60  C   UNL A   1      41.944  28.907  31.692  1.00  0.00     0.049 A 
ATOM     61  C   UNL A   1      41.089  32.123  36.218  1.00  0.00     0.074 A 
ATOM     62  C   UNL A   1      43.011  28.028  31.753  1.00  0.00     0.029 A 
ATOM     63  N   UNL A   1      41.903  29.568  32.913  1.00  0.00    -0.354 N 
ATOM     64  N   UNL A   1      41.404  31.305  35.240  1.00  0.00    -0.248 NA
ATOM     65  C   UNL A   1      41.905  31.954  37.429  1.00  0.00     0.031 C 
ATOM     66  C   UNL A   1      43.571  28.107  33.032  1.00  0.00     0.029 A 
ATOM     67  C   UNL A   1      42.906  29.093  33.744  1.00  0.00     0.049 A 
ATOM     68  H   UNL A   1      41.257  30.270  33.153  1.00  0.00     0.167 HD
ATOM     69  C   UNL A   1      42.478  30.550  35.707  1.00  0.00     0.074 A 
ATOM     70  C   UNL A   1      42.759  31.015  37.049  1.00  0.00     0.031 C 
ATOM     71  C   UNL A   1      43.174  29.568  35.081  1.00  0.00     0.034 A 
BRANCH  58  72
ATOM     72  C   UNL A   1      41.130  28.260  29.371  1.00  0.00     0.023 A 
ATOM     73  C   UNL A   1      42.112  28.486  28.391  1.00  0.00     0.031 A 
ATOM     74  C   UNL A   1      40.220  27.210  29.160  1.00  0.00     0.131 A 
ATOM     75  C   UNL A   1      42.111  27.728  27.210  1.00  0.00     0.055 A 
ATOM     76  C   UNL A   1      40.279  26.401  28.023  1.00  0.00     0.041 A 
ATOM     77  F   UNL A   1      39.246  26.958  30.049  1.00  0.00    -0.206 F 
ATOM     78  C   UNL A   1      41.219  26.669  27.032  1.00  0.00     0.022 A 
BRANCH  75  79
ATOM     79  S   UNL A   1      43.198  28.241  25.852  1.00  0.00     0.124 S 
ATOM     80  O   UNL A   1      43.551  29.600  26.257  1.00  0.00    -0.237 OA
ATOM     81  O   UNL A   1      44.271  27.256  25.916  1.00  0.00    -0.237 OA
ATOM     82  O   UNL A   1      42.339  28.153  24.674  1.00  0.00    -0.744 OA
ENDBRANCH  75  79
ENDBRANCH  58  72
BRANCH  59  83
ATOM     83  C   UNL A   1      39.790  33.988  37.495  1.00  0.00     0.023 A 
ATOM     84  C   UNL A   1      40.546  35.140  37.765  1.00  0.00     0.031 A 
ATOM     85  C   UNL A   1      38.843  33.582  38.452  1.00  0.00     0.131 A 
ATOM     86  C   UNL A   1      40.379  35.816  38.984  1.00  0.00     0.055 A 
ATOM     87  C   UNL A   1      38.640  34.292  39.637  1.00  0.00     0.041 A 
ATOM     88  F   UNL A   1      38.090  32.490  38.242  1.00  0.00    -0.206 F 
ATOM     89  C   UNL A   1      39.421  35.409  39.915  1.00  0.00     0.022 A 
BRANCH  86  90
ATOM     90  S   UNL A   1      41.501  37.187  39.375  1.00  0.00     0.124 S 
ATOM     91  O   UNL A   1      42.292  37.281  38.153  1.00  0.00    -0.237 OA
ATOM     92  O   UNL A   1      40.568  38.281  39.621  1.00  0.00    -0.237 OA
ATOM     93  O   UNL A   1      42.224  36.709  40.552  1.00  0.00    -0.744 OA
ENDBRANCH  86  90
ENDBRANCH  59  83
BRANCH  71  94
ATOM     94  C   UNL A   1      44.347  28.974  35.819  1.00  0.00     0.023 A 
ATOM     95  C   UNL A   1      44.194  27.925  36.743  1.00  0.00     0.031 A 
ATOM     96  C   UNL A   1      45.645  29.460  35.578  1.00  0.00     0.131 A 
ATOM     97  C   UNL A   1      45.314  27.424  37.421  1.00  0.00     0.055 A 
ATOM     98  C   UNL A   1      46.763  28.919  36.214  1.00  0.00     0.041 A 
ATOM     99  F   UNL A   1      45.849  30.461  34.708  1.00  0.00    -0.206 F 
ATOM    100  C   UNL A   1      46.600  27.901  37.150  1.00  0.00     0.022 A 
BRANCH  97 101
ATOM    101  S   UNL A   1      45.067  26.181  38.718  1.00  0.00     0.124 S 
ATOM    102  O   UNL A   1      45.082  24.937  37.954  1.00  0.00    -0.237 OA
ATOM    103  O   UNL A   1      46.214  26.406  39.592  1.00  0.00    -0.237 OA
ATOM    104  O   UNL A   1      43.772  26.538  39.295  1.00  0.00    -0.744 OA
ENDBRANCH  97 101
ENDBRANCH  71  94
ENDBRANCH  45  46
ENDBRANCH  37  40
ENDBRANCH  35  36
ENDBRANCH  34  35
ENDBRANCH   1  34
TORSDOF 18
ENDMDL
