MODEL 1
REMARK VINA RESULT:     -12.4      0.000      0.000
REMARK SMILES Cc1cc(NC(=O)c2sccc2/C=C/C(=O)NCCCCNC(=O)c2ccc(-c3c4nc(c(-c5cc(S(=O)(=O)[O-])ccc5F)c5ccc([nH]5)c(-c5cc(S(=O)(=O)[O-])ccc5F)c5nc(c(-c6cc(S(=O)(=O)[O-])ccc6F)c6ccc3[nH]6)C=C5)C=C4)cc2)ccn1
REMARK SMILES IDX 19 1 18 2 17 3 15 4 16 5 14 7 13 8 12 9 8 10 9 11 10 12
REMARK SMILES IDX 11 13 6 14 5 15 7 17 4 18 1 19 2 20 3 21 90 22 89 23 88 24
REMARK SMILES IDX 20 25 21 26 22 27 23 28 24 30 25 31 26 32 87 33 27 34 86 35
REMARK SMILES IDX 28 36 29 37 30 38 80 39 31 40 85 41 79 42 81 43 32 44 84 45
REMARK SMILES IDX 78 46 77 47 33 49 65 50 45 51 64 52 46 53 49 54 63 55 82 56
REMARK SMILES IDX 47 57 48 58 62 60 83 61 50 62 34 63 35 64 43 65 36 66 42 67
REMARK SMILES IDX 44 68 41 69 37 70 38 71 39 72 40 73 66 74 67 75 75 76 68 77
REMARK SMILES IDX 74 78 76 79 73 80 69 81 70 82 71 83 72 84 51 85 52 86 60 87
REMARK SMILES IDX 53 88 59 89 61 90 58 91 54 92 55 93 56 94 57 95
REMARK H PARENT 17 6 5 16 22 29 81 48 49 59
REMARK Flexibility Score: inf
ROOT
ATOM      1  C   UNL A   1      31.290  27.553  25.693  1.00  0.00     0.023 C 
ENDROOT
BRANCH   1   2
ATOM      2  C   UNL A   1      30.375  26.544  25.008  1.00  0.00     0.116 C 
BRANCH   2   3
ATOM      3  N   UNL A   1      29.845  25.576  25.946  1.00  0.00    -0.353 N 
ATOM      4  C   UNL A   1      30.338  24.367  26.326  1.00  0.00     0.243 C 
ATOM      5  O   UNL A   1      29.796  23.739  27.233  1.00  0.00    -0.270 OA
ATOM      6  H   UNL A   1      28.996  25.833  26.374  1.00  0.00     0.163 HD
BRANCH   4   7
ATOM      7  C   UNL A   1      31.578  23.827  25.728  1.00  0.00     0.072 C 
ATOM      8  C   UNL A   1      32.827  24.181  26.071  1.00  0.00     0.015 C 
BRANCH   8   9
ATOM      9  C   UNL A   1      34.005  23.628  25.472  1.00  0.00    -0.002 A 
ATOM     10  C   UNL A   1      34.551  22.402  25.819  1.00  0.00     0.099 A 
ATOM     11  S   UNL A   1      36.013  22.100  24.969  1.00  0.00    -0.138 S 
ATOM     12  C   UNL A   1      35.858  23.537  24.060  1.00  0.00     0.066 A 
ATOM     13  C   UNL A   1      34.751  24.266  24.431  1.00  0.00     0.020 A 
BRANCH  10  14
ATOM     14  C   UNL A   1      34.116  21.396  26.768  1.00  0.00     0.266 C 
ATOM     15  N   UNL A   1      33.464  20.249  26.354  1.00  0.00    -0.321 N 
ATOM     16  H   UNL A   1      33.110  19.712  27.100  1.00  0.00     0.170 HD
ATOM     17  O   UNL A   1      34.262  21.536  27.985  1.00  0.00    -0.268 OA
BRANCH  15  18
ATOM     18  C   UNL A   1      33.202  19.688  25.089  1.00  0.00     0.044 A 
ATOM     19  C   UNL A   1      33.974  16.400  23.365  1.00  0.00     0.067 C 
ATOM     20  C   UNL A   1      33.467  17.784  23.636  1.00  0.00     0.039 A 
ATOM     21  C   UNL A   1      33.789  18.448  24.818  1.00  0.00     0.049 A 
ATOM     22  N   UNL A   1      32.630  18.313  22.717  1.00  0.00    -0.261 NA
ATOM     23  C   UNL A   1      32.129  19.538  22.967  1.00  0.00     0.113 A 
ATOM     24  C   UNL A   1      32.392  20.261  24.118  1.00  0.00     0.046 A 
ENDBRANCH  15  18
ENDBRANCH  10  14
ENDBRANCH   8   9
ENDBRANCH   4   7
ENDBRANCH   2   3
ENDBRANCH   1   2
BRANCH   1  25
ATOM     25  C   UNL A   1      31.793  28.661  24.766  1.00  0.00     0.023 C 
BRANCH  25  26
ATOM     26  C   UNL A   1      32.856  29.576  25.370  1.00  0.00     0.116 C 
BRANCH  26  27
ATOM     27  N   UNL A   1      32.307  30.785  25.963  1.00  0.00    -0.352 N 
ATOM     28  C   UNL A   1      32.826  31.551  26.982  1.00  0.00     0.251 C 
ATOM     29  H   UNL A   1      31.453  31.097  25.586  1.00  0.00     0.163 HD
ATOM     30  O   UNL A   1      32.187  32.493  27.428  1.00  0.00    -0.269 OA
BRANCH  28  31
ATOM     31  C   UNL A   1      34.142  31.189  27.554  1.00  0.00     0.039 A 
ATOM     32  C   UNL A   1      35.086  32.196  27.762  1.00  0.00     0.014 A 
ATOM     33  C   UNL A   1      34.416  29.872  27.932  1.00  0.00     0.014 A 
ATOM     34  C   UNL A   1      36.280  31.895  28.420  1.00  0.00     0.010 A 
ATOM     35  C   UNL A   1      35.576  29.588  28.645  1.00  0.00     0.010 A 
ATOM     36  C   UNL A   1      36.517  30.597  28.903  1.00  0.00    -0.014 A 
BRANCH  36  37
ATOM     37  C   UNL A   1      37.740  30.275  29.684  1.00  0.00     0.031 A 
ATOM     38  C   UNL A   1      38.777  29.351  29.107  1.00  0.00     0.074 A 
ATOM     39  C   UNL A   1      37.878  30.752  30.936  1.00  0.00     0.049 A 
ATOM     40  N   UNL A   1      39.861  28.874  29.662  1.00  0.00    -0.248 NA
ATOM     41  C   UNL A   1      38.542  28.876  27.736  1.00  0.00     0.031 C 
ATOM     42  C   UNL A   1      36.916  31.621  31.621  1.00  0.00     0.029 A 
ATOM     43  N   UNL A   1      38.872  30.566  31.864  1.00  0.00    -0.354 N 
ATOM     44  C   UNL A   1      40.432  28.031  28.713  1.00  0.00     0.074 A 
ATOM     45  C   UNL A   1      39.537  28.017  27.576  1.00  0.00     0.031 C 
ATOM     46  C   UNL A   1      37.378  31.906  32.850  1.00  0.00     0.029 A 
ATOM     47  C   UNL A   1      38.643  31.209  33.058  1.00  0.00     0.049 A 
ATOM     48  H   UNL A   1      39.674  30.021  31.691  1.00  0.00     0.167 HD
ATOM     49  C   UNL A   1      41.604  27.351  28.778  1.00  0.00     0.034 A 
ATOM     50  C   UNL A   1      39.366  31.225  34.197  1.00  0.00     0.034 A 
ATOM     51  C   UNL A   1      42.491  27.388  29.915  1.00  0.00     0.049 A 
ATOM     52  C   UNL A   1      40.658  30.451  34.250  1.00  0.00     0.074 A 
ATOM     53  C   UNL A   1      43.728  26.786  30.066  1.00  0.00     0.029 A 
ATOM     54  N   UNL A   1      42.232  28.061  31.103  1.00  0.00    -0.354 N 
ATOM     55  N   UNL A   1      41.210  29.699  33.326  1.00  0.00    -0.248 NA
ATOM     56  C   UNL A   1      41.430  30.539  35.497  1.00  0.00     0.031 C 
ATOM     57  C   UNL A   1      44.188  27.041  31.363  1.00  0.00     0.029 A 
ATOM     58  C   UNL A   1      43.273  27.865  31.999  1.00  0.00     0.049 A 
ATOM     59  H   UNL A   1      41.428  28.599  31.283  1.00  0.00     0.167 HD
ATOM     60  C   UNL A   1      42.409  29.249  33.871  1.00  0.00     0.074 A 
ATOM     61  C   UNL A   1      42.505  29.824  35.197  1.00  0.00     0.031 C 
ATOM     62  C   UNL A   1      43.349  28.437  33.323  1.00  0.00     0.034 A 
BRANCH  49  63
ATOM     63  C   UNL A   1      41.972  26.494  27.590  1.00  0.00     0.023 A 
ATOM     64  C   UNL A   1      41.620  25.135  27.523  1.00  0.00     0.031 A 
ATOM     65  C   UNL A   1      42.719  27.032  26.527  1.00  0.00     0.131 A 
ATOM     66  C   UNL A   1      42.083  24.341  26.464  1.00  0.00     0.055 A 
ATOM     67  C   UNL A   1      43.103  26.255  25.431  1.00  0.00     0.041 A 
ATOM     68  F   UNL A   1      43.102  28.318  26.542  1.00  0.00    -0.206 F 
ATOM     69  C   UNL A   1      42.801  24.897  25.403  1.00  0.00     0.022 A 
BRANCH  66  70
ATOM     70  S   UNL A   1      41.865  22.544  26.571  1.00  0.00     0.124 S 
ATOM     71  O   UNL A   1      42.405  22.105  25.286  1.00  0.00    -0.237 OA
ATOM     72  O   UNL A   1      42.655  22.199  27.747  1.00  0.00    -0.237 OA
ATOM     73  O   UNL A   1      40.421  22.381  26.718  1.00  0.00    -0.744 OA
ENDBRANCH  66  70
ENDBRANCH  49  63
BRANCH  50  74
ATOM     74  C   UNL A   1      38.888  31.991  35.383  1.00  0.00     0.023 A 
ATOM     75  C   UNL A   1      38.324  31.334  36.489  1.00  0.00     0.031 A 
ATOM     76  C   UNL A   1      38.952  33.396  35.413  1.00  0.00     0.131 A 
ATOM     77  C   UNL A   1      37.804  32.081  37.557  1.00  0.00     0.055 A 
ATOM     78  C   UNL A   1      38.478  34.132  36.500  1.00  0.00     0.041 A 
ATOM     79  F   UNL A   1      39.488  34.072  34.385  1.00  0.00    -0.206 F 
ATOM     80  C   UNL A   1      37.889  33.475  37.576  1.00  0.00     0.022 A 
BRANCH  77  81
ATOM     81  S   UNL A   1      36.944  31.204  38.891  1.00  0.00     0.124 S 
ATOM     82  O   UNL A   1      35.681  31.930  38.959  1.00  0.00    -0.237 OA
ATOM     83  O   UNL A   1      36.876  29.845  38.364  1.00  0.00    -0.237 OA
ATOM     84  O   UNL A   1      37.830  31.381  40.040  1.00  0.00    -0.744 OA
ENDBRANCH  77  81
ENDBRANCH  50  74
BRANCH  62  85
ATOM     85  C   UNL A   1      44.583  28.166  34.148  1.00  0.00     0.023 A 
ATOM     86  C   UNL A   1      44.665  27.067  35.021  1.00  0.00     0.031 A 
ATOM     87  C   UNL A   1      45.690  29.030  34.065  1.00  0.00     0.131 A 
ATOM     88  C   UNL A   1      45.806  26.891  35.817  1.00  0.00     0.055 A 
ATOM     89  C   UNL A   1      46.846  28.817  34.816  1.00  0.00     0.041 A 
ATOM     90  F   UNL A   1      45.665  30.096  33.248  1.00  0.00    -0.206 F 
ATOM     91  C   UNL A   1      46.903  27.749  35.708  1.00  0.00     0.022 A 
BRANCH  88  92
ATOM     92  S   UNL A   1      45.806  25.572  37.061  1.00  0.00     0.124 S 
ATOM     93  O   UNL A   1      46.834  24.672  36.551  1.00  0.00    -0.237 OA
ATOM     94  O   UNL A   1      46.141  26.296  38.283  1.00  0.00    -0.237 OA
ATOM     95  O   UNL A   1      44.441  25.050  37.007  1.00  0.00    -0.744 OA
ENDBRANCH  88  92
ENDBRANCH  62  85
ENDBRANCH  36  37
ENDBRANCH  28  31
ENDBRANCH  26  27
ENDBRANCH  25  26
ENDBRANCH   1  25
TORSDOF 17
ENDMDL
MODEL 2
REMARK VINA RESULT:     -12.2      2.308      7.816
REMARK SMILES Cc1cc(NC(=O)c2sccc2/C=C/C(=O)NCCCCNC(=O)c2ccc(-c3c4nc(c(-c5cc(S(=O)(=O)[O-])ccc5F)c5ccc([nH]5)c(-c5cc(S(=O)(=O)[O-])ccc5F)c5nc(c(-c6cc(S(=O)(=O)[O-])ccc6F)c6ccc3[nH]6)C=C5)C=C4)cc2)ccn1
REMARK SMILES IDX 19 1 18 2 17 3 15 4 16 5 14 7 13 8 12 9 8 10 9 11 10 12
REMARK SMILES IDX 11 13 6 14 5 15 7 17 4 18 1 19 2 20 3 21 90 22 89 23 88 24
REMARK SMILES IDX 20 25 21 26 22 27 23 28 24 30 25 31 26 32 87 33 27 34 86 35
REMARK SMILES IDX 28 36 29 37 30 38 80 39 31 40 85 41 79 42 81 43 32 44 84 45
REMARK SMILES IDX 78 46 77 47 33 49 65 50 45 51 64 52 46 53 49 54 63 55 82 56
REMARK SMILES IDX 47 57 48 58 62 60 83 61 50 62 34 63 35 64 43 65 36 66 42 67
REMARK SMILES IDX 44 68 41 69 37 70 38 71 39 72 40 73 66 74 67 75 75 76 68 77
REMARK SMILES IDX 74 78 76 79 73 80 69 81 70 82 71 83 72 84 51 85 52 86 60 87
REMARK SMILES IDX 53 88 59 89 61 90 58 91 54 92 55 93 56 94 57 95
REMARK H PARENT 17 6 5 16 22 29 81 48 49 59
REMARK Flexibility Score: inf
ROOT
ATOM      1  C   UNL A   1      31.910  27.535  25.105  1.00  0.00     0.023 C 
ENDROOT
BRANCH   1   2
ATOM      2  C   UNL A   1      31.510  26.330  24.261  1.00  0.00     0.116 C 
BRANCH   2   3
ATOM      3  N   UNL A   1      32.047  26.412  22.918  1.00  0.00    -0.353 N 
ATOM      4  C   UNL A   1      33.124  25.792  22.368  1.00  0.00     0.243 C 
ATOM      5  O   UNL A   1      33.351  25.903  21.165  1.00  0.00    -0.270 OA
ATOM      6  H   UNL A   1      31.557  27.012  22.310  1.00  0.00     0.163 HD
BRANCH   4   7
ATOM      7  C   UNL A   1      33.987  24.902  23.176  1.00  0.00     0.072 C 
ATOM      8  C   UNL A   1      34.271  23.621  22.890  1.00  0.00     0.015 C 
BRANCH   8   9
ATOM      9  C   UNL A   1      35.118  22.794  23.696  1.00  0.00    -0.002 A 
ATOM     10  C   UNL A   1      34.676  22.052  24.781  1.00  0.00     0.099 A 
ATOM     11  S   UNL A   1      35.978  21.257  25.572  1.00  0.00    -0.138 S 
ATOM     12  C   UNL A   1      37.103  21.801  24.410  1.00  0.00     0.066 A 
ATOM     13  C   UNL A   1      36.520  22.620  23.469  1.00  0.00     0.020 A 
BRANCH  10  14
ATOM     14  C   UNL A   1      33.351  21.877  25.343  1.00  0.00     0.266 C 
ATOM     15  N   UNL A   1      32.540  20.825  24.962  1.00  0.00    -0.321 N 
ATOM     16  H   UNL A   1      31.624  20.891  25.319  1.00  0.00     0.170 HD
ATOM     17  O   UNL A   1      32.870  22.680  26.147  1.00  0.00    -0.268 OA
BRANCH  15  18
ATOM     18  C   UNL A   1      32.750  19.678  24.172  1.00  0.00     0.044 A 
ATOM     19  C   UNL A   1      34.375  16.291  24.683  1.00  0.00     0.067 C 
ATOM     20  C   UNL A   1      33.661  17.451  24.057  1.00  0.00     0.039 A 
ATOM     21  C   UNL A   1      33.523  18.659  24.737  1.00  0.00     0.049 A 
ATOM     22  N   UNL A   1      33.102  17.237  22.846  1.00  0.00    -0.261 NA
ATOM     23  C   UNL A   1      32.419  18.255  22.290  1.00  0.00     0.113 A 
ATOM     24  C   UNL A   1      32.228  19.483  22.900  1.00  0.00     0.046 A 
ENDBRANCH  15  18
ENDBRANCH  10  14
ENDBRANCH   8   9
ENDBRANCH   4   7
ENDBRANCH   2   3
ENDBRANCH   1   2
BRANCH   1  25
ATOM     25  C   UNL A   1      32.889  27.204  26.233  1.00  0.00     0.023 C 
BRANCH  25  26
ATOM     26  C   UNL A   1      34.052  28.181  26.387  1.00  0.00     0.116 C 
BRANCH  26  27
ATOM     27  N   UNL A   1      33.627  29.544  26.664  1.00  0.00    -0.352 N 
ATOM     28  C   UNL A   1      34.254  30.497  27.435  1.00  0.00     0.251 C 
ATOM     29  H   UNL A   1      32.780  29.822  26.245  1.00  0.00     0.163 HD
ATOM     30  O   UNL A   1      33.711  31.572  27.642  1.00  0.00    -0.269 OA
BRANCH  28  31
ATOM     31  C   UNL A   1      35.566  30.180  28.041  1.00  0.00     0.039 A 
ATOM     32  C   UNL A   1      35.602  29.689  29.348  1.00  0.00     0.014 A 
ATOM     33  C   UNL A   1      36.743  30.314  27.301  1.00  0.00     0.014 A 
ATOM     34  C   UNL A   1      36.817  29.260  29.888  1.00  0.00     0.010 A 
ATOM     35  C   UNL A   1      37.939  29.827  27.818  1.00  0.00     0.010 A 
ATOM     36  C   UNL A   1      37.988  29.289  29.114  1.00  0.00    -0.014 A 
BRANCH  36  37
ATOM     37  C   UNL A   1      39.273  28.756  29.636  1.00  0.00     0.031 A 
ATOM     38  C   UNL A   1      39.947  29.430  30.800  1.00  0.00     0.074 A 
ATOM     39  C   UNL A   1      39.866  27.716  29.018  1.00  0.00     0.049 A 
ATOM     40  N   UNL A   1      41.110  29.178  31.342  1.00  0.00    -0.248 NA
ATOM     41  C   UNL A   1      39.229  30.558  31.410  1.00  0.00     0.031 C 
ATOM     42  C   UNL A   1      39.331  27.009  27.851  1.00  0.00     0.029 A 
ATOM     43  N   UNL A   1      41.055  27.080  29.272  1.00  0.00    -0.354 N 
ATOM     44  C   UNL A   1      41.271  30.125  32.349  1.00  0.00     0.074 A 
ATOM     45  C   UNL A   1      40.113  30.992  32.295  1.00  0.00     0.031 C 
ATOM     46  C   UNL A   1      40.179  26.026  27.505  1.00  0.00     0.029 A 
ATOM     47  C   UNL A   1      41.336  26.059  28.394  1.00  0.00     0.049 A 
ATOM     48  H   UNL A   1      41.652  27.331  30.014  1.00  0.00     0.167 HD
ATOM     49  C   UNL A   1      42.281  30.246  33.247  1.00  0.00     0.034 A 
ATOM     50  C   UNL A   1      42.411  25.249  28.308  1.00  0.00     0.034 A 
ATOM     51  C   UNL A   1      43.422  29.363  33.294  1.00  0.00     0.049 A 
ATOM     52  C   UNL A   1      43.526  25.409  29.308  1.00  0.00     0.074 A 
ATOM     53  C   UNL A   1      44.472  29.357  34.196  1.00  0.00     0.029 A 
ATOM     54  N   UNL A   1      43.666  28.331  32.397  1.00  0.00    -0.354 N 
ATOM     55  N   UNL A   1      43.640  26.277  30.287  1.00  0.00    -0.248 NA
ATOM     56  C   UNL A   1      44.652  24.472  29.200  1.00  0.00     0.031 C 
ATOM     57  C   UNL A   1      45.380  28.366  33.808  1.00  0.00     0.029 A 
ATOM     58  C   UNL A   1      44.863  27.702  32.707  1.00  0.00     0.049 A 
ATOM     59  H   UNL A   1      43.076  28.082  31.649  1.00  0.00     0.167 HD
ATOM     60  C   UNL A   1      44.837  25.971  30.928  1.00  0.00     0.074 A 
ATOM     61  C   UNL A   1      45.400  24.830  30.234  1.00  0.00     0.031 C 
ATOM     62  C   UNL A   1      45.417  26.572  31.998  1.00  0.00     0.034 A 
BRANCH  49  63
ATOM     63  C   UNL A   1      42.198  31.388  34.231  1.00  0.00     0.023 A 
ATOM     64  C   UNL A   1      41.293  31.371  35.307  1.00  0.00     0.031 A 
ATOM     65  C   UNL A   1      43.006  32.528  34.071  1.00  0.00     0.131 A 
ATOM     66  C   UNL A   1      41.157  32.499  36.128  1.00  0.00     0.055 A 
ATOM     67  C   UNL A   1      42.927  33.614  34.946  1.00  0.00     0.041 A 
ATOM     68  F   UNL A   1      43.875  32.612  33.052  1.00  0.00    -0.206 F 
ATOM     69  C   UNL A   1      41.987  33.612  35.972  1.00  0.00     0.022 A 
BRANCH  66  70
ATOM     70  S   UNL A   1      39.778  32.551  37.305  1.00  0.00     0.124 S 
ATOM     71  O   UNL A   1      39.038  31.344  36.943  1.00  0.00    -0.237 OA
ATOM     72  O   UNL A   1      40.460  32.520  38.593  1.00  0.00    -0.237 OA
ATOM     73  O   UNL A   1      39.102  33.806  36.986  1.00  0.00    -0.744 OA
ENDBRANCH  66  70
ENDBRANCH  49  63
BRANCH  50  74
ATOM     74  C   UNL A   1      42.494  24.217  27.234  1.00  0.00     0.023 A 
ATOM     75  C   UNL A   1      41.877  22.965  27.386  1.00  0.00     0.031 A 
ATOM     76  C   UNL A   1      43.225  24.454  26.057  1.00  0.00     0.131 A 
ATOM     77  C   UNL A   1      42.040  21.980  26.400  1.00  0.00     0.055 A 
ATOM     78  C   UNL A   1      43.343  23.488  25.056  1.00  0.00     0.041 A 
ATOM     79  F   UNL A   1      43.828  25.637  25.859  1.00  0.00    -0.206 F 
ATOM     80  C   UNL A   1      42.759  22.237  25.230  1.00  0.00     0.022 A 
BRANCH  77  81
ATOM     81  S   UNL A   1      41.362  20.326  26.705  1.00  0.00     0.124 S 
ATOM     82  O   UNL A   1      41.712  19.628  25.473  1.00  0.00    -0.237 OA
ATOM     83  O   UNL A   1      42.088  19.918  27.902  1.00  0.00    -0.237 OA
ATOM     84  O   UNL A   1      39.935  20.575  26.899  1.00  0.00    -0.744 OA
ENDBRANCH  77  81
ENDBRANCH  50  74
BRANCH  62  85
ATOM     85  C   UNL A   1      46.704  25.973  32.505  1.00  0.00     0.023 A 
ATOM     86  C   UNL A   1      46.718  24.965  33.485  1.00  0.00     0.031 A 
ATOM     87  C   UNL A   1      47.938  26.428  32.006  1.00  0.00     0.131 A 
ATOM     88  C   UNL A   1      47.941  24.483  33.975  1.00  0.00     0.055 A 
ATOM     89  C   UNL A   1      49.151  25.904  32.455  1.00  0.00     0.041 A 
ATOM     90  F   UNL A   1      47.984  27.390  31.070  1.00  0.00    -0.206 F 
ATOM     91  C   UNL A   1      49.157  24.935  33.455  1.00  0.00     0.022 A 
BRANCH  88  92
ATOM     92  S   UNL A   1      47.925  23.318  35.364  1.00  0.00     0.124 S 
ATOM     93  O   UNL A   1      46.524  22.912  35.405  1.00  0.00    -0.237 OA
ATOM     94  O   UNL A   1      48.872  22.298  34.928  1.00  0.00    -0.237 OA
ATOM     95  O   UNL A   1      48.368  24.129  36.497  1.00  0.00    -0.744 OA
ENDBRANCH  88  92
ENDBRANCH  62  85
ENDBRANCH  36  37
ENDBRANCH  28  31
ENDBRANCH  26  27
ENDBRANCH  25  26
ENDBRANCH   1  25
TORSDOF 17
ENDMDL
MODEL 3
REMARK VINA RESULT:     -12.2      4.806      7.903
REMARK SMILES Cc1cc(NC(=O)c2sccc2/C=C/C(=O)NCCCCNC(=O)c2ccc(-c3c4nc(c(-c5cc(S(=O)(=O)[O-])ccc5F)c5ccc([nH]5)c(-c5cc(S(=O)(=O)[O-])ccc5F)c5nc(c(-c6cc(S(=O)(=O)[O-])ccc6F)c6ccc3[nH]6)C=C5)C=C4)cc2)ccn1
REMARK SMILES IDX 19 1 18 2 17 3 15 4 16 5 14 7 13 8 12 9 8 10 9 11 10 12
REMARK SMILES IDX 11 13 6 14 5 15 7 17 4 18 1 19 2 20 3 21 90 22 89 23 88 24
REMARK SMILES IDX 20 25 21 26 22 27 23 28 24 30 25 31 26 32 87 33 27 34 86 35
REMARK SMILES IDX 28 36 29 37 30 38 80 39 31 40 85 41 79 42 81 43 32 44 84 45
REMARK SMILES IDX 78 46 77 47 33 49 65 50 45 51 64 52 46 53 49 54 63 55 82 56
REMARK SMILES IDX 47 57 48 58 62 60 83 61 50 62 34 63 35 64 43 65 36 66 42 67
REMARK SMILES IDX 44 68 41 69 37 70 38 71 39 72 40 73 66 74 67 75 75 76 68 77
REMARK SMILES IDX 74 78 76 79 73 80 69 81 70 82 71 83 72 84 51 85 52 86 60 87
REMARK SMILES IDX 53 88 59 89 61 90 58 91 54 92 55 93 56 94 57 95
REMARK H PARENT 17 6 5 16 22 29 81 48 49 59
REMARK Flexibility Score: inf
ROOT
ATOM      1  C   UNL A   1      34.310  22.206  25.963  1.00  0.00     0.023 C 
ENDROOT
BRANCH   1   2
ATOM      2  C   UNL A   1      33.028  22.566  25.221  1.00  0.00     0.116 C 
BRANCH   2   3
ATOM      3  N   UNL A   1      31.869  22.500  26.087  1.00  0.00    -0.353 N 
ATOM      4  C   UNL A   1      31.198  23.494  26.727  1.00  0.00     0.243 C 
ATOM      5  O   UNL A   1      30.156  23.245  27.330  1.00  0.00    -0.270 OA
ATOM      6  H   UNL A   1      31.513  21.594  26.237  1.00  0.00     0.163 HD
BRANCH   4   7
ATOM      7  C   UNL A   1      31.650  24.900  26.637  1.00  0.00     0.072 C 
ATOM      8  C   UNL A   1      30.930  25.920  26.143  1.00  0.00     0.015 C 
BRANCH   8   9
ATOM      9  C   UNL A   1      31.402  27.271  26.080  1.00  0.00    -0.002 A 
ATOM     10  C   UNL A   1      31.826  27.893  24.916  1.00  0.00     0.099 A 
ATOM     11  S   UNL A   1      32.416  29.476  25.226  1.00  0.00    -0.138 S 
ATOM     12  C   UNL A   1      32.000  29.378  26.879  1.00  0.00     0.066 A 
ATOM     13  C   UNL A   1      31.478  28.148  27.208  1.00  0.00     0.020 A 
BRANCH  10  14
ATOM     14  C   UNL A   1      31.876  27.422  23.545  1.00  0.00     0.266 C 
ATOM     15  N   UNL A   1      30.820  27.622  22.676  1.00  0.00    -0.321 N 
ATOM     16  H   UNL A   1      30.925  27.147  21.820  1.00  0.00     0.170 HD
ATOM     17  O   UNL A   1      32.836  26.784  23.106  1.00  0.00    -0.268 OA
BRANCH  15  18
ATOM     18  C   UNL A   1      29.625  28.364  22.759  1.00  0.00     0.044 A 
ATOM     19  C   UNL A   1      28.400  31.692  21.417  1.00  0.00     0.067 C 
ATOM     20  C   UNL A   1      28.456  30.375  22.129  1.00  0.00     0.039 A 
ATOM     21  C   UNL A   1      29.639  29.642  22.191  1.00  0.00     0.049 A 
ATOM     22  N   UNL A   1      27.293  29.909  22.634  1.00  0.00    -0.261 NA
ATOM     23  C   UNL A   1      27.316  28.705  23.237  1.00  0.00     0.113 A 
ATOM     24  C   UNL A   1      28.446  27.911  23.335  1.00  0.00     0.046 A 
ENDBRANCH  15  18
ENDBRANCH  10  14
ENDBRANCH   8   9
ENDBRANCH   4   7
ENDBRANCH   2   3
ENDBRANCH   1   2
BRANCH   1  25
ATOM     25  C   UNL A   1      35.006  23.403  26.612  1.00  0.00     0.023 C 
BRANCH  25  26
ATOM     26  C   UNL A   1      36.375  23.749  26.031  1.00  0.00     0.116 C 
BRANCH  26  27
ATOM     27  N   UNL A   1      37.296  22.623  26.016  1.00  0.00    -0.352 N 
ATOM     28  C   UNL A   1      38.636  22.609  26.330  1.00  0.00     0.251 C 
ATOM     29  H   UNL A   1      36.910  21.759  25.745  1.00  0.00     0.163 HD
ATOM     30  O   UNL A   1      39.291  21.589  26.174  1.00  0.00    -0.269 OA
BRANCH  28  31
ATOM     31  C   UNL A   1      39.274  23.854  26.812  1.00  0.00     0.039 A 
ATOM     32  C   UNL A   1      39.939  24.669  25.895  1.00  0.00     0.014 A 
ATOM     33  C   UNL A   1      39.163  24.237  28.151  1.00  0.00     0.014 A 
ATOM     34  C   UNL A   1      40.432  25.909  26.306  1.00  0.00     0.010 A 
ATOM     35  C   UNL A   1      39.597  25.500  28.543  1.00  0.00     0.010 A 
ATOM     36  C   UNL A   1      40.229  26.352  27.623  1.00  0.00    -0.014 A 
BRANCH  36  37
ATOM     37  C   UNL A   1      40.665  27.704  28.060  1.00  0.00     0.031 A 
ATOM     38  C   UNL A   1      42.128  28.054  28.070  1.00  0.00     0.074 A 
ATOM     39  C   UNL A   1      39.754  28.585  28.516  1.00  0.00     0.049 A 
ATOM     40  N   UNL A   1      42.716  29.140  28.500  1.00  0.00    -0.248 NA
ATOM     41  C   UNL A   1      43.050  27.030  27.558  1.00  0.00     0.031 C 
ATOM     42  C   UNL A   1      38.310  28.343  28.598  1.00  0.00     0.029 A 
ATOM     43  N   UNL A   1      39.903  29.856  29.011  1.00  0.00    -0.354 N 
ATOM     44  C   UNL A   1      44.080  28.926  28.324  1.00  0.00     0.074 A 
ATOM     45  C   UNL A   1      44.228  27.581  27.808  1.00  0.00     0.031 C 
ATOM     46  C   UNL A   1      37.708  29.438  29.092  1.00  0.00     0.029 A 
ATOM     47  C   UNL A   1      38.721  30.441  29.404  1.00  0.00     0.049 A 
ATOM     48  H   UNL A   1      40.775  30.308  29.079  1.00  0.00     0.167 HD
ATOM     49  C   UNL A   1      45.109  29.779  28.552  1.00  0.00     0.034 A 
ATOM     50  C   UNL A   1      38.483  31.644  29.963  1.00  0.00     0.034 A 
ATOM     51  C   UNL A   1      44.942  31.121  29.055  1.00  0.00     0.049 A 
ATOM     52  C   UNL A   1      39.643  32.571  30.220  1.00  0.00     0.074 A 
ATOM     53  C   UNL A   1      45.907  32.090  29.268  1.00  0.00     0.029 A 
ATOM     54  N   UNL A   1      43.728  31.684  29.430  1.00  0.00    -0.354 N 
ATOM     55  N   UNL A   1      40.923  32.373  30.001  1.00  0.00    -0.248 NA
ATOM     56  C   UNL A   1      39.325  33.888  30.788  1.00  0.00     0.031 C 
ATOM     57  C   UNL A   1      45.288  33.213  29.829  1.00  0.00     0.029 A 
ATOM     58  C   UNL A   1      43.925  32.975  29.899  1.00  0.00     0.049 A 
ATOM     59  H   UNL A   1      42.856  31.233  29.371  1.00  0.00     0.167 HD
ATOM     60  C   UNL A   1      41.558  33.554  30.377  1.00  0.00     0.074 A 
ATOM     61  C   UNL A   1      40.520  34.460  30.823  1.00  0.00     0.031 C 
ATOM     62  C   UNL A   1      42.879  33.863  30.351  1.00  0.00     0.034 A 
BRANCH  49  63
ATOM     63  C   UNL A   1      46.504  29.269  28.279  1.00  0.00     0.023 A 
ATOM     64  C   UNL A   1      46.946  28.993  26.973  1.00  0.00     0.031 A 
ATOM     65  C   UNL A   1      47.393  29.018  29.339  1.00  0.00     0.131 A 
ATOM     66  C   UNL A   1      48.203  28.405  26.766  1.00  0.00     0.055 A 
ATOM     67  C   UNL A   1      48.677  28.514  29.119  1.00  0.00     0.041 A 
ATOM     68  F   UNL A   1      47.023  29.243  30.609  1.00  0.00    -0.206 F 
ATOM     69  C   UNL A   1      49.083  28.188  27.829  1.00  0.00     0.022 A 
BRANCH  66  70
ATOM     70  S   UNL A   1      48.608  27.790  25.109  1.00  0.00     0.124 S 
ATOM     71  O   UNL A   1      49.948  28.337  24.913  1.00  0.00    -0.237 OA
ATOM     72  O   UNL A   1      48.527  26.344  25.280  1.00  0.00    -0.237 OA
ATOM     73  O   UNL A   1      47.573  28.378  24.262  1.00  0.00    -0.744 OA
ENDBRANCH  66  70
ENDBRANCH  49  63
BRANCH  50  74
ATOM     74  C   UNL A   1      37.093  32.045  30.327  1.00  0.00     0.023 A 
ATOM     75  C   UNL A   1      36.223  32.588  29.369  1.00  0.00     0.031 A 
ATOM     76  C   UNL A   1      36.629  31.929  31.650  1.00  0.00     0.131 A 
ATOM     77  C   UNL A   1      34.950  33.036  29.754  1.00  0.00     0.055 A 
ATOM     78  C   UNL A   1      35.344  32.330  32.017  1.00  0.00     0.041 A 
ATOM     79  F   UNL A   1      37.419  31.409  32.603  1.00  0.00    -0.206 F 
ATOM     80  C   UNL A   1      34.500  32.900  31.069  1.00  0.00     0.022 A 
BRANCH  77  81
ATOM     81  S   UNL A   1      33.916  33.874  28.521  1.00  0.00     0.124 S 
ATOM     82  O   UNL A   1      34.872  34.782  27.898  1.00  0.00    -0.237 OA
ATOM     83  O   UNL A   1      33.462  32.757  27.699  1.00  0.00    -0.237 OA
ATOM     84  O   UNL A   1      32.879  34.515  29.326  1.00  0.00    -0.744 OA
ENDBRANCH  77  81
ENDBRANCH  50  74
BRANCH  62  85
ATOM     85  C   UNL A   1      43.263  35.258  30.776  1.00  0.00     0.023 A 
ATOM     86  C   UNL A   1      43.316  35.632  32.131  1.00  0.00     0.031 A 
ATOM     87  C   UNL A   1      43.571  36.231  29.808  1.00  0.00     0.131 A 
ATOM     88  C   UNL A   1      43.615  36.958  32.478  1.00  0.00     0.055 A 
ATOM     89  C   UNL A   1      43.924  37.534  30.162  1.00  0.00     0.041 A 
ATOM     90  F   UNL A   1      43.535  35.929  28.500  1.00  0.00    -0.206 F 
ATOM     91  C   UNL A   1      43.934  37.907  31.503  1.00  0.00     0.022 A 
BRANCH  88  92
ATOM     92  S   UNL A   1      43.496  37.451  34.219  1.00  0.00     0.124 S 
ATOM     93  O   UNL A   1      42.898  38.778  34.120  1.00  0.00    -0.237 OA
ATOM     94  O   UNL A   1      42.644  36.408  34.781  1.00  0.00    -0.237 OA
ATOM     95  O   UNL A   1      44.884  37.429  34.678  1.00  0.00    -0.744 OA
ENDBRANCH  88  92
ENDBRANCH  62  85
ENDBRANCH  36  37
ENDBRANCH  28  31
ENDBRANCH  26  27
ENDBRANCH  25  26
ENDBRANCH   1  25
TORSDOF 17
ENDMDL
