MODEL 1
REMARK VINA RESULT:     -11.8      0.000      0.000
REMARK SMILES CC1(C)[C@H]2CC[C@]1(C)[C@](O)(CC(=O)NCCCCNC(=O)c1ccc(-c3c4nc(c(-c5cc(S(=O)(=O)[O-])ccc5F)c5ccc([nH]5)c(-c5cc(S(=O)(=O)[O-])ccc5F)c5nc(c(-c6cc(S(=O)(=O)[O-])ccc6F)c6ccc3[nH]6)C=C5)C=C4)cc1)C2
REMARK SMILES IDX 17 1 16 2 15 3 14 4 12 5 13 6 11 8 9 9 1 10 2 11 3 12 4 13
REMARK SMILES IDX 7 14 5 15 85 16 6 17 8 18 10 19 18 21 19 22 20 23 21 25
REMARK SMILES IDX 22 26 23 27 84 28 24 29 83 30 25 31 26 32 27 33 77 34 28 35
REMARK SMILES IDX 82 36 76 37 78 38 29 39 81 40 75 41 74 42 30 44 62 45 42 46
REMARK SMILES IDX 61 47 43 48 46 49 60 50 79 51 44 52 45 53 59 55 80 56 47 57
REMARK SMILES IDX 31 58 32 59 40 60 33 61 39 62 41 63 38 64 34 65 35 66 36 67
REMARK SMILES IDX 37 68 63 69 64 70 72 71 65 72 71 73 73 74 70 75 66 76 67 77
REMARK SMILES IDX 68 78 69 79 48 80 49 81 57 82 50 83 56 84 58 85 55 86 51 87
REMARK SMILES IDX 52 88 53 89 54 90
REMARK H PARENT 14 7 10 20 19 24 78 43 46 54
REMARK Flexibility Score: inf
ROOT
ATOM      1  C   UNL A   1      31.775  28.926  26.479  1.00  0.00     0.023 C 
ENDROOT
BRANCH   1   2
ATOM      2  C   UNL A   1      32.181  27.466  26.351  1.00  0.00     0.023 C 
BRANCH   2   3
ATOM      3  C   UNL A   1      31.148  26.568  25.669  1.00  0.00     0.116 C 
BRANCH   3   4
ATOM      4  N   UNL A   1      30.589  25.578  26.570  1.00  0.00    -0.356 N 
ATOM      5  C   UNL A   1      30.453  24.229  26.376  1.00  0.00     0.222 C 
ATOM      6  O   UNL A   1      29.919  23.547  27.251  1.00  0.00    -0.275 OA
ATOM      7  H   UNL A   1      30.265  25.921  27.434  1.00  0.00     0.163 HD
BRANCH   5   8
ATOM      8  C   UNL A   1      31.029  23.589  25.124  1.00  0.00     0.135 C 
BRANCH   8   9
ATOM      9  C   UNL A   1      32.346  22.803  25.307  1.00  0.00     0.080 C 
ATOM     10  C   UNL A   1      35.916  22.593  23.723  1.00  0.00     0.012 C 
ATOM     11  C   UNL A   1      34.718  22.463  24.693  1.00  0.00    -0.024 C 
ATOM     12  C   UNL A   1      34.855  21.062  25.319  1.00  0.00     0.012 C 
ATOM     13  C   UNL A   1      34.617  23.598  25.745  1.00  0.00    -0.002 C 
ATOM     14  C   UNL A   1      33.333  22.871  24.074  1.00  0.00     0.002 C 
ATOM     15  C   UNL A   1      34.460  24.864  24.884  1.00  0.00     0.005 C 
ATOM     16  C   UNL A   1      33.247  23.362  26.444  1.00  0.00     0.040 C 
ATOM     17  C   UNL A   1      33.561  24.383  23.738  1.00  0.00     0.010 C 
ATOM     18  C   UNL A   1      32.915  22.093  22.833  1.00  0.00     0.015 C 
BRANCH   9  19
ATOM     19  O   UNL A   1      32.032  21.465  25.668  1.00  0.00    -0.389 OA
ATOM     20  H   UNL A   1      31.763  20.972  24.877  1.00  0.00     0.211 HD
ENDBRANCH   9  19
ENDBRANCH   8   9
ENDBRANCH   5   8
ENDBRANCH   3   4
ENDBRANCH   2   3
ENDBRANCH   1   2
BRANCH   1  21
ATOM     21  C   UNL A   1      32.798  29.917  25.955  1.00  0.00     0.116 C 
BRANCH  21  22
ATOM     22  N   UNL A   1      32.555  31.286  26.394  1.00  0.00    -0.352 N 
ATOM     23  C   UNL A   1      33.301  32.048  27.261  1.00  0.00     0.251 C 
ATOM     24  H   UNL A   1      31.753  31.719  26.022  1.00  0.00     0.163 HD
ATOM     25  O   UNL A   1      32.893  33.146  27.626  1.00  0.00    -0.269 OA
BRANCH  23  26
ATOM     26  C   UNL A   1      34.573  31.500  27.777  1.00  0.00     0.039 A 
ATOM     27  C   UNL A   1      35.655  32.360  27.969  1.00  0.00     0.014 A 
ATOM     28  C   UNL A   1      34.660  30.155  28.144  1.00  0.00     0.014 A 
ATOM     29  C   UNL A   1      36.802  31.883  28.608  1.00  0.00     0.010 A 
ATOM     30  C   UNL A   1      35.761  29.710  28.866  1.00  0.00     0.010 A 
ATOM     31  C   UNL A   1      36.847  30.569  29.100  1.00  0.00    -0.014 A 
BRANCH  31  32
ATOM     32  C   UNL A   1      38.025  30.061  29.848  1.00  0.00     0.031 A 
ATOM     33  C   UNL A   1      38.272  30.533  31.255  1.00  0.00     0.074 A 
ATOM     34  C   UNL A   1      38.903  29.239  29.240  1.00  0.00     0.049 A 
ATOM     35  N   UNL A   1      39.278  30.276  32.050  1.00  0.00    -0.248 NA
ATOM     36  C   UNL A   1      37.273  31.448  31.827  1.00  0.00     0.031 C 
ATOM     37  C   UNL A   1      38.799  28.763  27.857  1.00  0.00     0.029 A 
ATOM     38  N   UNL A   1      40.059  28.665  29.701  1.00  0.00    -0.354 N 
ATOM     39  C   UNL A   1      39.042  31.012  33.207  1.00  0.00     0.074 A 
ATOM     40  C   UNL A   1      37.839  31.780  32.978  1.00  0.00     0.031 C 
ATOM     41  C   UNL A   1      39.833  27.946  27.595  1.00  0.00     0.029 A 
ATOM     42  C   UNL A   1      40.693  27.871  28.772  1.00  0.00     0.049 A 
ATOM     43  H   UNL A   1      40.405  28.806  30.612  1.00  0.00     0.167 HD
ATOM     44  C   UNL A   1      39.748  31.024  34.365  1.00  0.00     0.034 A 
ATOM     45  C   UNL A   1      41.839  27.168  28.860  1.00  0.00     0.034 A 
ATOM     46  C   UNL A   1      40.933  30.231  34.584  1.00  0.00     0.049 A 
ATOM     47  C   UNL A   1      42.605  27.191  30.158  1.00  0.00     0.074 A 
ATOM     48  C   UNL A   1      41.692  30.113  35.734  1.00  0.00     0.029 A 
ATOM     49  N   UNL A   1      41.535  29.424  33.627  1.00  0.00    -0.354 N 
ATOM     50  N   UNL A   1      42.336  27.845  31.265  1.00  0.00    -0.248 NA
ATOM     51  C   UNL A   1      43.819  26.369  30.222  1.00  0.00     0.031 C 
ATOM     52  C   UNL A   1      42.784  29.283  35.456  1.00  0.00     0.029 A 
ATOM     53  C   UNL A   1      42.670  28.826  34.153  1.00  0.00     0.049 A 
ATOM     54  H   UNL A   1      41.205  29.295  32.708  1.00  0.00     0.167 HD
ATOM     55  C   UNL A   1      43.337  27.492  32.165  1.00  0.00     0.074 A 
ATOM     56  C   UNL A   1      44.200  26.552  31.477  1.00  0.00     0.031 C 
ATOM     57  C   UNL A   1      43.527  27.903  33.446  1.00  0.00     0.034 A 
BRANCH  44  58
ATOM     58  C   UNL A   1      39.257  31.934  35.465  1.00  0.00     0.023 A 
ATOM     59  C   UNL A   1      39.720  33.256  35.590  1.00  0.00     0.031 A 
ATOM     60  C   UNL A   1      38.348  31.463  36.429  1.00  0.00     0.131 A 
ATOM     61  C   UNL A   1      39.344  34.030  36.698  1.00  0.00     0.055 A 
ATOM     62  C   UNL A   1      37.909  32.269  37.483  1.00  0.00     0.041 A 
ATOM     63  F   UNL A   1      37.886  30.204  36.375  1.00  0.00    -0.206 F 
ATOM     64  C   UNL A   1      38.421  33.555  37.631  1.00  0.00     0.022 A 
BRANCH  61  65
ATOM     65  S   UNL A   1      40.198  35.605  36.982  1.00  0.00     0.124 S 
ATOM     66  O   UNL A   1      41.597  35.212  36.830  1.00  0.00    -0.237 OA
ATOM     67  O   UNL A   1      39.654  36.453  35.929  1.00  0.00    -0.237 OA
ATOM     68  O   UNL A   1      39.804  35.968  38.342  1.00  0.00    -0.744 OA
ENDBRANCH  61  65
ENDBRANCH  44  58
BRANCH  45  69
ATOM     69  C   UNL A   1      42.337  26.382  27.694  1.00  0.00     0.023 A 
ATOM     70  C   UNL A   1      41.952  25.046  27.507  1.00  0.00     0.031 A 
ATOM     71  C   UNL A   1      43.238  26.944  26.773  1.00  0.00     0.131 A 
ATOM     72  C   UNL A   1      42.503  24.299  26.453  1.00  0.00     0.055 A 
ATOM     73  C   UNL A   1      43.745  26.213  25.697  1.00  0.00     0.041 A 
ATOM     74  F   UNL A   1      43.632  28.221  26.901  1.00  0.00    -0.206 F 
ATOM     75  C   UNL A   1      43.388  24.878  25.541  1.00  0.00     0.022 A 
BRANCH  72  76
ATOM     76  S   UNL A   1      42.105  22.533  26.340  1.00  0.00     0.124 S 
ATOM     77  O   UNL A   1      42.610  22.198  25.013  1.00  0.00    -0.237 OA
ATOM     78  O   UNL A   1      42.848  21.982  27.468  1.00  0.00    -0.237 OA
ATOM     79  O   UNL A   1      40.651  22.503  26.482  1.00  0.00    -0.744 OA
ENDBRANCH  72  76
ENDBRANCH  45  69
BRANCH  57  80
ATOM     80  C   UNL A   1      44.695  27.302  34.186  1.00  0.00     0.023 A 
ATOM     81  C   UNL A   1      44.566  26.118  34.933  1.00  0.00     0.031 A 
ATOM     82  C   UNL A   1      45.951  27.935  34.160  1.00  0.00     0.131 A 
ATOM     83  C   UNL A   1      45.655  25.637  35.672  1.00  0.00     0.055 A 
ATOM     84  C   UNL A   1      47.048  27.418  34.850  1.00  0.00     0.041 A 
ATOM     85  F   UNL A   1      46.130  29.069  33.464  1.00  0.00    -0.206 F 
ATOM     86  C   UNL A   1      46.900  26.270  35.623  1.00  0.00     0.022 A 
BRANCH  83  87
ATOM     87  S   UNL A   1      45.399  24.224  36.781  1.00  0.00     0.124 S 
ATOM     88  O   UNL A   1      46.767  23.894  37.171  1.00  0.00    -0.237 OA
ATOM     89  O   UNL A   1      44.558  24.796  37.827  1.00  0.00    -0.237 OA
ATOM     90  O   UNL A   1      44.742  23.234  35.930  1.00  0.00    -0.744 OA
ENDBRANCH  83  87
ENDBRANCH  57  80
ENDBRANCH  31  32
ENDBRANCH  23  26
ENDBRANCH  21  22
ENDBRANCH   1  21
TORSDOF 16
ENDMDL
MODEL 2
REMARK VINA RESULT:     -11.7      5.181      7.634
REMARK SMILES CC1(C)[C@H]2CC[C@]1(C)[C@](O)(CC(=O)NCCCCNC(=O)c1ccc(-c3c4nc(c(-c5cc(S(=O)(=O)[O-])ccc5F)c5ccc([nH]5)c(-c5cc(S(=O)(=O)[O-])ccc5F)c5nc(c(-c6cc(S(=O)(=O)[O-])ccc6F)c6ccc3[nH]6)C=C5)C=C4)cc1)C2
REMARK SMILES IDX 17 1 16 2 15 3 14 4 12 5 13 6 11 8 9 9 1 10 2 11 3 12 4 13
REMARK SMILES IDX 7 14 5 15 85 16 6 17 8 18 10 19 18 21 19 22 20 23 21 25
REMARK SMILES IDX 22 26 23 27 84 28 24 29 83 30 25 31 26 32 27 33 77 34 28 35
REMARK SMILES IDX 82 36 76 37 78 38 29 39 81 40 75 41 74 42 30 44 62 45 42 46
REMARK SMILES IDX 61 47 43 48 46 49 60 50 79 51 44 52 45 53 59 55 80 56 47 57
REMARK SMILES IDX 31 58 32 59 40 60 33 61 39 62 41 63 38 64 34 65 35 66 36 67
REMARK SMILES IDX 37 68 63 69 64 70 72 71 65 72 71 73 73 74 70 75 66 76 67 77
REMARK SMILES IDX 68 78 69 79 48 80 49 81 57 82 50 83 56 84 58 85 55 86 51 87
REMARK SMILES IDX 52 88 53 89 54 90
REMARK H PARENT 14 7 10 20 19 24 78 43 46 54
REMARK Flexibility Score: inf
ROOT
ATOM      1  C   UNL A   1      35.204  21.669  24.599  1.00  0.00     0.023 C 
ENDROOT
BRANCH   1   2
ATOM      2  C   UNL A   1      34.049  21.058  25.376  1.00  0.00     0.023 C 
BRANCH   2   3
ATOM      3  C   UNL A   1      33.833  21.640  26.773  1.00  0.00     0.116 C 
BRANCH   3   4
ATOM      4  N   UNL A   1      32.449  21.993  27.023  1.00  0.00    -0.356 N 
ATOM      5  C   UNL A   1      31.861  23.228  26.972  1.00  0.00     0.222 C 
ATOM      6  O   UNL A   1      30.666  23.337  27.250  1.00  0.00    -0.275 OA
ATOM      7  H   UNL A   1      31.854  21.245  27.260  1.00  0.00     0.163 HD
BRANCH   5   8
ATOM      8  C   UNL A   1      32.670  24.425  26.501  1.00  0.00     0.135 C 
BRANCH   8   9
ATOM      9  C   UNL A   1      32.508  24.813  25.015  1.00  0.00     0.080 C 
ATOM     10  C   UNL A   1      31.554  27.929  22.853  1.00  0.00     0.012 C 
ATOM     11  C   UNL A   1      32.103  26.558  23.309  1.00  0.00    -0.024 C 
ATOM     12  C   UNL A   1      31.786  25.590  22.151  1.00  0.00     0.012 C 
ATOM     13  C   UNL A   1      33.602  26.566  23.707  1.00  0.00    -0.002 C 
ATOM     14  C   UNL A   1      31.686  26.140  24.764  1.00  0.00     0.002 C 
ATOM     15  C   UNL A   1      33.649  27.566  24.878  1.00  0.00     0.005 C 
ATOM     16  C   UNL A   1      33.853  25.156  24.315  1.00  0.00     0.040 C 
ATOM     17  C   UNL A   1      32.344  27.270  25.626  1.00  0.00     0.010 C 
ATOM     18  C   UNL A   1      30.186  26.062  25.019  1.00  0.00     0.015 C 
BRANCH   9  19
ATOM     19  O   UNL A   1      31.963  23.706  24.312  1.00  0.00    -0.389 OA
ATOM     20  H   UNL A   1      31.147  23.415  24.749  1.00  0.00     0.211 HD
ENDBRANCH   9  19
ENDBRANCH   8   9
ENDBRANCH   5   8
ENDBRANCH   3   4
ENDBRANCH   2   3
ENDBRANCH   1   2
BRANCH   1  21
ATOM     21  C   UNL A   1      36.440  21.965  25.430  1.00  0.00     0.116 C 
BRANCH  21  22
ATOM     22  N   UNL A   1      37.401  20.869  25.445  1.00  0.00    -0.352 N 
ATOM     23  C   UNL A   1      38.730  20.904  25.799  1.00  0.00     0.251 C 
ATOM     24  H   UNL A   1      37.054  19.991  25.166  1.00  0.00     0.163 HD
ATOM     25  O   UNL A   1      39.437  19.915  25.640  1.00  0.00    -0.269 OA
BRANCH  23  26
ATOM     26  C   UNL A   1      39.292  22.164  26.326  1.00  0.00     0.039 A 
ATOM     27  C   UNL A   1      40.351  22.109  27.234  1.00  0.00     0.014 A 
ATOM     28  C   UNL A   1      38.823  23.394  25.857  1.00  0.00     0.014 A 
ATOM     29  C   UNL A   1      40.993  23.291  27.609  1.00  0.00     0.010 A 
ATOM     30  C   UNL A   1      39.524  24.555  26.154  1.00  0.00     0.010 A 
ATOM     31  C   UNL A   1      40.614  24.517  27.038  1.00  0.00    -0.014 A 
BRANCH  31  32
ATOM     32  C   UNL A   1      41.329  25.777  27.364  1.00  0.00     0.031 A 
ATOM     33  C   UNL A   1      40.636  26.838  28.175  1.00  0.00     0.074 A 
ATOM     34  C   UNL A   1      42.565  25.993  26.871  1.00  0.00     0.049 A 
ATOM     35  N   UNL A   1      41.049  28.035  28.500  1.00  0.00    -0.248 NA
ATOM     36  C   UNL A   1      39.279  26.522  28.648  1.00  0.00     0.031 C 
ATOM     37  C   UNL A   1      43.313  25.063  26.021  1.00  0.00     0.029 A 
ATOM     38  N   UNL A   1      43.407  27.066  27.006  1.00  0.00    -0.354 N 
ATOM     39  C   UNL A   1      39.999  28.621  29.198  1.00  0.00     0.074 A 
ATOM     40  C   UNL A   1      38.906  27.674  29.183  1.00  0.00     0.031 C 
ATOM     41  C   UNL A   1      44.514  25.594  25.738  1.00  0.00     0.029 A 
ATOM     42  C   UNL A   1      44.607  26.916  26.348  1.00  0.00     0.049 A 
ATOM     43  H   UNL A   1      43.177  27.871  27.526  1.00  0.00     0.167 HD
ATOM     44  C   UNL A   1      39.960  29.825  29.820  1.00  0.00     0.034 A 
ATOM     45  C   UNL A   1      45.659  27.752  26.247  1.00  0.00     0.034 A 
ATOM     46  C   UNL A   1      41.070  30.745  29.845  1.00  0.00     0.049 A 
ATOM     47  C   UNL A   1      45.595  29.084  26.950  1.00  0.00     0.074 A 
ATOM     48  C   UNL A   1      41.167  31.962  30.497  1.00  0.00     0.029 A 
ATOM     49  N   UNL A   1      42.276  30.551  29.184  1.00  0.00    -0.354 N 
ATOM     50  N   UNL A   1      44.617  29.600  27.659  1.00  0.00    -0.248 NA
ATOM     51  C   UNL A   1      46.785  29.938  26.853  1.00  0.00     0.031 C 
ATOM     52  C   UNL A   1      42.407  32.530  30.181  1.00  0.00     0.029 A 
ATOM     53  C   UNL A   1      43.113  31.637  29.391  1.00  0.00     0.049 A 
ATOM     54  H   UNL A   1      42.504  29.758  28.647  1.00  0.00     0.167 HD
ATOM     55  C   UNL A   1      45.085  30.829  28.112  1.00  0.00     0.074 A 
ATOM     56  C   UNL A   1      46.439  30.966  27.614  1.00  0.00     0.031 C 
ATOM     57  C   UNL A   1      44.456  31.762  28.873  1.00  0.00     0.034 A 
BRANCH  44  58
ATOM     58  C   UNL A   1      38.669  30.208  30.504  1.00  0.00     0.023 A 
ATOM     59  C   UNL A   1      37.676  30.952  29.842  1.00  0.00     0.031 A 
ATOM     60  C   UNL A   1      38.444  29.865  31.849  1.00  0.00     0.131 A 
ATOM     61  C   UNL A   1      36.550  31.404  30.546  1.00  0.00     0.055 A 
ATOM     62  C   UNL A   1      37.278  30.243  32.520  1.00  0.00     0.041 A 
ATOM     63  F   UNL A   1      39.363  29.174  32.541  1.00  0.00    -0.206 F 
ATOM     64  C   UNL A   1      36.330  31.032  31.873  1.00  0.00     0.022 A 
BRANCH  61  65
ATOM     65  S   UNL A   1      35.456  32.609  29.745  1.00  0.00     0.124 S 
ATOM     66  O   UNL A   1      34.373  32.717  30.721  1.00  0.00    -0.237 OA
ATOM     67  O   UNL A   1      36.317  33.778  29.613  1.00  0.00    -0.237 OA
ATOM     68  O   UNL A   1      35.090  31.958  28.489  1.00  0.00    -0.744 OA
ENDBRANCH  61  65
ENDBRANCH  44  58
BRANCH  45  69
ATOM     69  C   UNL A   1      46.861  27.365  25.454  1.00  0.00     0.023 A 
ATOM     70  C   UNL A   1      47.028  27.810  24.133  1.00  0.00     0.031 A 
ATOM     71  C   UNL A   1      47.840  26.510  25.990  1.00  0.00     0.131 A 
ATOM     72  C   UNL A   1      48.121  27.361  23.376  1.00  0.00     0.055 A 
ATOM     73  C   UNL A   1      48.952  26.107  25.250  1.00  0.00     0.041 A 
ATOM     74  F   UNL A   1      47.732  26.063  27.251  1.00  0.00    -0.206 F 
ATOM     75  C   UNL A   1      49.090  26.522  23.930  1.00  0.00     0.022 A 
BRANCH  72  76
ATOM     76  S   UNL A   1      48.216  27.831  21.625  1.00  0.00     0.124 S 
ATOM     77  O   UNL A   1      48.501  26.550  20.989  1.00  0.00    -0.237 OA
ATOM     78  O   UNL A   1      46.888  28.383  21.388  1.00  0.00    -0.237 OA
ATOM     79  O   UNL A   1      49.307  28.802  21.593  1.00  0.00    -0.744 OA
ENDBRANCH  72  76
ENDBRANCH  45  69
BRANCH  57  80
ATOM     80  C   UNL A   1      45.251  32.991  29.237  1.00  0.00     0.023 A 
ATOM     81  C   UNL A   1      45.223  34.150  28.442  1.00  0.00     0.031 A 
ATOM     82  C   UNL A   1      46.062  32.994  30.386  1.00  0.00     0.131 A 
ATOM     83  C   UNL A   1      46.039  35.241  28.772  1.00  0.00     0.055 A 
ATOM     84  C   UNL A   1      46.826  34.105  30.742  1.00  0.00     0.041 A 
ATOM     85  F   UNL A   1      46.127  31.913  31.180  1.00  0.00    -0.206 F 
ATOM     86  C   UNL A   1      46.828  35.233  29.925  1.00  0.00     0.022 A 
BRANCH  83  87
ATOM     87  S   UNL A   1      46.132  36.639  27.619  1.00  0.00     0.124 S 
ATOM     88  O   UNL A   1      47.193  37.449  28.210  1.00  0.00    -0.237 OA
ATOM     89  O   UNL A   1      46.458  35.982  26.358  1.00  0.00    -0.237 OA
ATOM     90  O   UNL A   1      44.795  37.226  27.683  1.00  0.00    -0.744 OA
ENDBRANCH  83  87
ENDBRANCH  57  80
ENDBRANCH  31  32
ENDBRANCH  23  26
ENDBRANCH  21  22
ENDBRANCH   1  21
TORSDOF 16
ENDMDL
MODEL 3
REMARK VINA RESULT:     -11.7      1.452      1.783
REMARK SMILES CC1(C)[C@H]2CC[C@]1(C)[C@](O)(CC(=O)NCCCCNC(=O)c1ccc(-c3c4nc(c(-c5cc(S(=O)(=O)[O-])ccc5F)c5ccc([nH]5)c(-c5cc(S(=O)(=O)[O-])ccc5F)c5nc(c(-c6cc(S(=O)(=O)[O-])ccc6F)c6ccc3[nH]6)C=C5)C=C4)cc1)C2
REMARK SMILES IDX 17 1 16 2 15 3 14 4 12 5 13 6 11 8 9 9 1 10 2 11 3 12 4 13
REMARK SMILES IDX 7 14 5 15 85 16 6 17 8 18 10 19 18 21 19 22 20 23 21 25
REMARK SMILES IDX 22 26 23 27 84 28 24 29 83 30 25 31 26 32 27 33 77 34 28 35
REMARK SMILES IDX 82 36 76 37 78 38 29 39 81 40 75 41 74 42 30 44 62 45 42 46
REMARK SMILES IDX 61 47 43 48 46 49 60 50 79 51 44 52 45 53 59 55 80 56 47 57
REMARK SMILES IDX 31 58 32 59 40 60 33 61 39 62 41 63 38 64 34 65 35 66 36 67
REMARK SMILES IDX 37 68 63 69 64 70 72 71 65 72 71 73 73 74 70 75 66 76 67 77
REMARK SMILES IDX 68 78 69 79 48 80 49 81 57 82 50 83 56 84 58 85 55 86 51 87
REMARK SMILES IDX 52 88 53 89 54 90
REMARK H PARENT 14 7 10 20 19 24 78 43 46 54
REMARK Flexibility Score: inf
ROOT
ATOM      1  C   UNL A   1      31.983  28.972  25.947  1.00  0.00     0.023 C 
ENDROOT
BRANCH   1   2
ATOM      2  C   UNL A   1      31.989  27.522  26.404  1.00  0.00     0.023 C 
BRANCH   2   3
ATOM      3  C   UNL A   1      30.939  26.632  25.737  1.00  0.00     0.116 C 
BRANCH   3   4
ATOM      4  N   UNL A   1      30.428  25.608  26.629  1.00  0.00    -0.356 N 
ATOM      5  C   UNL A   1      30.387  24.254  26.436  1.00  0.00     0.222 C 
ATOM      6  O   UNL A   1      29.881  23.539  27.302  1.00  0.00    -0.275 OA
ATOM      7  H   UNL A   1      30.064  25.931  27.484  1.00  0.00     0.163 HD
BRANCH   5   8
ATOM      8  C   UNL A   1      31.031  23.651  25.199  1.00  0.00     0.135 C 
BRANCH   8   9
ATOM      9  C   UNL A   1      32.393  22.954  25.413  1.00  0.00     0.080 C 
ATOM     10  C   UNL A   1      35.876  22.656  23.660  1.00  0.00     0.012 C 
ATOM     11  C   UNL A   1      34.741  22.623  24.709  1.00  0.00    -0.024 C 
ATOM     12  C   UNL A   1      34.980  21.336  25.523  1.00  0.00     0.012 C 
ATOM     13  C   UNL A   1      34.643  23.895  25.590  1.00  0.00    -0.002 C 
ATOM     14  C   UNL A   1      33.306  22.879  24.124  1.00  0.00     0.002 C 
ATOM     15  C   UNL A   1      34.378  25.013  24.565  1.00  0.00     0.005 C 
ATOM     16  C   UNL A   1      33.327  23.711  26.399  1.00  0.00     0.040 C 
ATOM     17  C   UNL A   1      33.442  24.333  23.559  1.00  0.00     0.010 C 
ATOM     18  C   UNL A   1      32.859  21.910  23.038  1.00  0.00     0.015 C 
BRANCH   9  19
ATOM     19  O   UNL A   1      32.165  21.673  25.982  1.00  0.00    -0.389 OA
ATOM     20  H   UNL A   1      31.439  21.234  25.511  1.00  0.00     0.211 HD
ENDBRANCH   9  19
ENDBRANCH   8   9
ENDBRANCH   5   8
ENDBRANCH   3   4
ENDBRANCH   2   3
ENDBRANCH   1   2
BRANCH   1  21
ATOM     21  C   UNL A   1      33.275  29.725  26.208  1.00  0.00     0.116 C 
BRANCH  21  22
ATOM     22  N   UNL A   1      33.066  31.066  26.739  1.00  0.00    -0.352 N 
ATOM     23  C   UNL A   1      33.861  31.773  27.610  1.00  0.00     0.251 C 
ATOM     24  H   UNL A   1      32.249  31.524  26.434  1.00  0.00     0.163 HD
ATOM     25  O   UNL A   1      33.481  32.849  28.059  1.00  0.00    -0.269 OA
BRANCH  23  26
ATOM     26  C   UNL A   1      35.152  31.189  28.027  1.00  0.00     0.039 A 
ATOM     27  C   UNL A   1      36.288  31.999  28.056  1.00  0.00     0.014 A 
ATOM     28  C   UNL A   1      35.215  29.863  28.466  1.00  0.00     0.014 A 
ATOM     29  C   UNL A   1      37.471  31.500  28.604  1.00  0.00     0.010 A 
ATOM     30  C   UNL A   1      36.363  29.403  29.098  1.00  0.00     0.010 A 
ATOM     31  C   UNL A   1      37.506  30.215  29.169  1.00  0.00    -0.014 A 
BRANCH  31  32
ATOM     32  C   UNL A   1      38.730  29.689  29.823  1.00  0.00     0.031 A 
ATOM     33  C   UNL A   1      39.135  30.213  31.174  1.00  0.00     0.074 A 
ATOM     34  C   UNL A   1      39.509  28.801  29.175  1.00  0.00     0.049 A 
ATOM     35  N   UNL A   1      40.203  29.948  31.880  1.00  0.00    -0.248 NA
ATOM     36  C   UNL A   1      38.235  31.198  31.794  1.00  0.00     0.031 C 
ATOM     37  C   UNL A   1      39.250  28.267  27.835  1.00  0.00     0.029 A 
ATOM     38  N   UNL A   1      40.681  28.196  29.550  1.00  0.00    -0.354 N 
ATOM     39  C   UNL A   1      40.114  30.747  33.016  1.00  0.00     0.074 A 
ATOM     40  C   UNL A   1      38.925  31.557  32.866  1.00  0.00     0.031 C 
ATOM     41  C   UNL A   1      40.218  27.392  27.515  1.00  0.00     0.029 A 
ATOM     42  C   UNL A   1      41.187  27.332  28.605  1.00  0.00     0.049 A 
ATOM     43  H   UNL A   1      41.121  28.363  30.415  1.00  0.00     0.167 HD
ATOM     44  C   UNL A   1      40.930  30.779  34.097  1.00  0.00     0.034 A 
ATOM     45  C   UNL A   1      42.306  26.582  28.617  1.00  0.00     0.034 A 
ATOM     46  C   UNL A   1      42.098  29.944  34.240  1.00  0.00     0.049 A 
ATOM     47  C   UNL A   1      43.197  26.630  29.832  1.00  0.00     0.074 A 
ATOM     48  C   UNL A   1      42.961  29.845  35.316  1.00  0.00     0.029 A 
ATOM     49  N   UNL A   1      42.569  29.067  33.271  1.00  0.00    -0.354 N 
ATOM     50  N   UNL A   1      43.067  27.346  30.926  1.00  0.00    -0.248 NA
ATOM     51  C   UNL A   1      44.378  25.758  29.819  1.00  0.00     0.031 C 
ATOM     52  C   UNL A   1      43.986  28.954  34.975  1.00  0.00     0.029 A 
ATOM     53  C   UNL A   1      43.725  28.443  33.714  1.00  0.00     0.049 A 
ATOM     54  H   UNL A   1      42.144  28.911  32.396  1.00  0.00     0.167 HD
ATOM     55  C   UNL A   1      44.137  26.989  31.741  1.00  0.00     0.074 A 
ATOM     56  C   UNL A   1      44.888  25.981  31.021  1.00  0.00     0.031 C 
ATOM     57  C   UNL A   1      44.469  27.450  32.975  1.00  0.00     0.034 A 
BRANCH  44  58
ATOM     58  C   UNL A   1      40.588  31.761  35.193  1.00  0.00     0.023 A 
ATOM     59  C   UNL A   1      39.553  31.509  36.111  1.00  0.00     0.031 A 
ATOM     60  C   UNL A   1      41.274  32.983  35.296  1.00  0.00     0.131 A 
ATOM     61  C   UNL A   1      39.175  32.499  37.032  1.00  0.00     0.055 A 
ATOM     62  C   UNL A   1      40.951  33.929  36.272  1.00  0.00     0.041 A 
ATOM     63  F   UNL A   1      42.257  33.290  34.436  1.00  0.00    -0.206 F 
ATOM     64  C   UNL A   1      39.884  33.696  37.137  1.00  0.00     0.022 A 
BRANCH  61  65
ATOM     65  S   UNL A   1      37.650  32.257  37.983  1.00  0.00     0.124 S 
ATOM     66  O   UNL A   1      36.710  33.105  37.251  1.00  0.00    -0.237 OA
ATOM     67  O   UNL A   1      37.433  30.820  37.873  1.00  0.00    -0.237 OA
ATOM     68  O   UNL A   1      37.999  32.736  39.318  1.00  0.00    -0.744 OA
ENDBRANCH  61  65
ENDBRANCH  44  58
BRANCH  45  69
ATOM     69  C   UNL A   1      42.654  25.722  27.449  1.00  0.00     0.023 A 
ATOM     70  C   UNL A   1      42.183  24.403  27.359  1.00  0.00     0.031 A 
ATOM     71  C   UNL A   1      43.497  26.192  26.427  1.00  0.00     0.131 A 
ATOM     72  C   UNL A   1      42.595  23.583  26.297  1.00  0.00     0.055 A 
ATOM     73  C   UNL A   1      43.865  25.389  25.346  1.00  0.00     0.041 A 
ATOM     74  F   UNL A   1      43.969  27.449  26.462  1.00  0.00    -0.206 F 
ATOM     75  C   UNL A   1      43.423  24.072  25.284  1.00  0.00     0.022 A 
BRANCH  72  76
ATOM     76  S   UNL A   1      42.094  21.839  26.301  1.00  0.00     0.124 S 
ATOM     77  O   UNL A   1      42.446  21.431  27.656  1.00  0.00    -0.237 OA
ATOM     78  O   UNL A   1      40.668  21.934  26.009  1.00  0.00    -0.237 OA
ATOM     79  O   UNL A   1      42.906  21.250  25.239  1.00  0.00    -0.744 OA
ENDBRANCH  72  76
ENDBRANCH  45  69
BRANCH  57  80
ATOM     80  C   UNL A   1      45.679  26.831  33.628  1.00  0.00     0.023 A 
ATOM     81  C   UNL A   1      45.584  25.659  34.397  1.00  0.00     0.031 A 
ATOM     82  C   UNL A   1      46.942  27.436  33.494  1.00  0.00     0.131 A 
ATOM     83  C   UNL A   1      46.719  25.161  35.054  1.00  0.00     0.055 A 
ATOM     84  C   UNL A   1      48.079  26.902  34.101  1.00  0.00     0.041 A 
ATOM     85  F   UNL A   1      47.090  28.558  32.772  1.00  0.00    -0.206 F 
ATOM     86  C   UNL A   1      47.969  25.766  34.898  1.00  0.00     0.022 A 
BRANCH  83  87
ATOM     87  S   UNL A   1      46.521  23.767  36.197  1.00  0.00     0.124 S 
ATOM     88  O   UNL A   1      45.349  24.170  36.967  1.00  0.00    -0.237 OA
ATOM     89  O   UNL A   1      46.330  22.642  35.287  1.00  0.00    -0.237 OA
ATOM     90  O   UNL A   1      47.778  23.753  36.943  1.00  0.00    -0.744 OA
ENDBRANCH  83  87
ENDBRANCH  57  80
ENDBRANCH  31  32
ENDBRANCH  23  26
ENDBRANCH  21  22
ENDBRANCH   1  21
TORSDOF 16
ENDMDL
