MODEL 1
REMARK VINA RESULT:     -12.2      0.000      0.000
REMARK SMILES C[N@@H+](Cc1ncccc1C(=O)NCCCCNC(=O)c1ccc(-c2c3nc(c(-c4cc(S(=O)(=O)[O-])ccc4F)c4ccc([nH]4)c(-c4cc(S(=O)(=O)[O-])ccc4F)c4nc(c(-c5cc(S(=O)(=O)[O-])ccc5F)c5ccc2[nH]5)C=C4)C=C3)cc1)C[C@@H]1CCN(c2ccccc2)C1
REMARK SMILES IDX 13 1 12 2 10 3 11 4 9 6 4 7 5 8 6 9 8 10 7 11 3 12 2 13 1 14
REMARK SMILES IDX 83 16 84 17 85 18 94 19 86 20 87 21 88 22 89 23 93 24 90 25
REMARK SMILES IDX 92 26 91 27 14 28 15 29 16 30 17 31 18 32 19 34 20 35 21 36
REMARK SMILES IDX 82 37 22 38 81 39 23 40 24 41 25 42 75 43 26 44 80 45 74 46
REMARK SMILES IDX 76 47 27 48 79 49 73 50 72 51 28 53 60 54 40 55 59 56 41 57
REMARK SMILES IDX 44 58 58 59 77 60 42 61 43 62 57 64 78 65 45 66 29 67 30 68
REMARK SMILES IDX 38 69 31 70 37 71 39 72 36 73 32 74 33 75 34 76 35 77 61 78
REMARK SMILES IDX 62 79 70 80 63 81 69 82 71 83 68 84 64 85 65 86 66 87 67 88
REMARK SMILES IDX 46 89 47 90 55 91 48 92 54 93 56 94 53 95 49 96 50 97 51 98
REMARK SMILES IDX 52 99
REMARK H PARENT 12 5 2 15 17 33 76 52 44 63
REMARK Flexibility Score: inf
ROOT
ATOM      1  C   UNL A   1      34.519  29.293  27.015  1.00  0.00     0.116 C 
ENDROOT
BRANCH   1   2
ATOM      2  N   UNL A   1      33.360  28.715  27.664  1.00  0.00    -0.352 N 
ATOM      3  C   UNL A   1      32.159  28.242  27.189  1.00  0.00     0.253 C 
ATOM      4  O   UNL A   1      31.326  27.962  28.049  1.00  0.00    -0.269 OA
ATOM      5  H   UNL A   1      33.450  28.647  28.642  1.00  0.00     0.163 HD
BRANCH   3   6
ATOM      6  C   UNL A   1      31.821  28.090  25.736  1.00  0.00     0.067 A 
ATOM      7  C   UNL A   1      31.950  26.870  25.059  1.00  0.00     0.107 A 
ATOM      8  N   UNL A   1      31.505  26.761  23.775  1.00  0.00    -0.254 NA
ATOM      9  C   UNL A   1      31.021  27.806  23.091  1.00  0.00     0.111 A 
ATOM     10  C   UNL A   1      31.266  29.151  24.988  1.00  0.00     0.017 A 
ATOM     11  C   UNL A   1      30.885  29.032  23.658  1.00  0.00     0.021 A 
BRANCH   7  12
ATOM     12  C   UNL A   1      32.513  25.554  25.612  1.00  0.00     0.320 C 
BRANCH  12  13
ATOM     13  N   UNL A   1      31.564  24.500  26.049  1.00  0.00    -0.332 N 
ATOM     14  C   UNL A   1      30.201  24.973  26.207  1.00  0.00     0.333 C 
ATOM     15  H   UNL A   1      31.613  23.913  25.217  1.00  0.00     0.348 HD
BRANCH  13  16
ATOM     16  C   UNL A   1      31.966  23.461  27.009  1.00  0.00     0.267 C 
BRANCH  16  17
ATOM     17  C   UNL A   1      32.630  22.172  26.508  1.00  0.00     0.065 C 
ATOM     18  C   UNL A   1      34.050  21.972  27.085  1.00  0.00     0.032 C 
ATOM     19  C   UNL A   1      32.821  22.036  24.990  1.00  0.00     0.126 C 
ATOM     20  C   UNL A   1      34.900  21.427  25.944  1.00  0.00     0.117 C 
ATOM     21  N   UNL A   1      33.945  21.093  24.897  1.00  0.00    -0.371 N 
BRANCH  21  22
ATOM     22  C   UNL A   1      33.785  19.810  24.410  1.00  0.00     0.037 A 
ATOM     23  C   UNL A   1      34.772  18.838  24.632  1.00  0.00     0.026 A 
ATOM     24  C   UNL A   1      32.631  19.384  23.731  1.00  0.00     0.026 A 
ATOM     25  C   UNL A   1      34.595  17.502  24.249  1.00  0.00     0.002 A 
ATOM     26  C   UNL A   1      32.446  18.052  23.337  1.00  0.00     0.002 A 
ATOM     27  C   UNL A   1      33.424  17.106  23.610  1.00  0.00     0.000 A 
ENDBRANCH  21  22
ENDBRANCH  16  17
ENDBRANCH  13  16
ENDBRANCH  12  13
ENDBRANCH   7  12
ENDBRANCH   3   6
ENDBRANCH   1   2
BRANCH   1  28
ATOM     28  C   UNL A   1      35.130  30.397  27.893  1.00  0.00     0.023 C 
BRANCH  28  29
ATOM     29  C   UNL A   1      34.646  31.809  27.591  1.00  0.00     0.023 C 
BRANCH  29  30
ATOM     30  C   UNL A   1      33.195  32.064  27.960  1.00  0.00     0.116 C 
BRANCH  30  31
ATOM     31  N   UNL A   1      32.823  33.469  27.926  1.00  0.00    -0.352 N 
ATOM     32  C   UNL A   1      33.384  34.498  28.655  1.00  0.00     0.251 C 
ATOM     33  H   UNL A   1      32.091  33.713  27.315  1.00  0.00     0.163 HD
ATOM     34  O   UNL A   1      32.927  35.630  28.597  1.00  0.00    -0.269 OA
BRANCH  32  35
ATOM     35  C   UNL A   1      34.508  34.163  29.547  1.00  0.00     0.039 A 
ATOM     36  C   UNL A   1      34.254  33.390  30.679  1.00  0.00     0.014 A 
ATOM     37  C   UNL A   1      35.813  34.492  29.173  1.00  0.00     0.014 A 
ATOM     38  C   UNL A   1      35.329  32.874  31.402  1.00  0.00     0.010 A 
ATOM     39  C   UNL A   1      36.879  33.913  29.849  1.00  0.00     0.010 A 
ATOM     40  C   UNL A   1      36.645  33.092  30.962  1.00  0.00    -0.014 A 
BRANCH  40  41
ATOM     41  C   UNL A   1      37.794  32.455  31.648  1.00  0.00     0.031 A 
ATOM     42  C   UNL A   1      38.514  31.313  30.991  1.00  0.00     0.074 A 
ATOM     43  C   UNL A   1      38.135  32.863  32.887  1.00  0.00     0.049 A 
ATOM     44  N   UNL A   1      39.495  30.581  31.450  1.00  0.00    -0.248 NA
ATOM     45  C   UNL A   1      38.043  30.923  29.654  1.00  0.00     0.031 C 
ATOM     46  C   UNL A   1      37.466  33.927  33.641  1.00  0.00     0.029 A 
ATOM     47  N   UNL A   1      39.119  32.426  33.736  1.00  0.00    -0.354 N 
ATOM     48  C   UNL A   1      39.754  29.638  30.462  1.00  0.00     0.074 A 
ATOM     49  C   UNL A   1      38.781  29.851  29.412  1.00  0.00     0.031 C 
ATOM     50  C   UNL A   1      38.077  34.075  34.829  1.00  0.00     0.029 A 
ATOM     51  C   UNL A   1      39.149  33.091  34.938  1.00  0.00     0.049 A 
ATOM     52  H   UNL A   1      39.746  31.702  33.505  1.00  0.00     0.167 HD
ATOM     53  C   UNL A   1      40.731  28.700  30.426  1.00  0.00     0.034 A 
ATOM     54  C   UNL A   1      39.947  32.921  36.011  1.00  0.00     0.034 A 
ATOM     55  C   UNL A   1      41.696  28.512  31.481  1.00  0.00     0.049 A 
ATOM     56  C   UNL A   1      41.016  31.860  35.954  1.00  0.00     0.074 A 
ATOM     57  C   UNL A   1      42.767  27.637  31.526  1.00  0.00     0.029 A 
ATOM     58  N   UNL A   1      41.701  29.207  32.685  1.00  0.00    -0.354 N 
ATOM     59  N   UNL A   1      41.291  31.017  34.985  1.00  0.00    -0.248 NA
ATOM     60  C   UNL A   1      41.885  31.734  37.130  1.00  0.00     0.031 C 
ATOM     61  C   UNL A   1      43.378  27.757  32.779  1.00  0.00     0.029 A 
ATOM     62  C   UNL A   1      42.734  28.757  33.491  1.00  0.00     0.049 A 
ATOM     63  H   UNL A   1      41.061  29.915  32.930  1.00  0.00     0.167 HD
ATOM     64  C   UNL A   1      42.382  30.275  35.427  1.00  0.00     0.074 A 
ATOM     65  C   UNL A   1      42.725  30.786  36.739  1.00  0.00     0.031 C 
ATOM     66  C   UNL A   1      43.045  29.266  34.807  1.00  0.00     0.034 A 
BRANCH  53  67
ATOM     67  C   UNL A   1      40.779  27.799  29.216  1.00  0.00     0.023 A 
ATOM     68  C   UNL A   1      41.709  28.004  28.180  1.00  0.00     0.031 A 
ATOM     69  C   UNL A   1      39.861  26.745  29.074  1.00  0.00     0.131 A 
ATOM     70  C   UNL A   1      41.648  27.223  27.018  1.00  0.00     0.055 A 
ATOM     71  C   UNL A   1      39.859  25.916  27.949  1.00  0.00     0.041 A 
ATOM     72  F   UNL A   1      38.935  26.512  30.018  1.00  0.00    -0.206 F 
ATOM     73  C   UNL A   1      40.747  26.163  26.905  1.00  0.00     0.022 A 
BRANCH  70  74
ATOM     74  S   UNL A   1      42.668  27.705  25.597  1.00  0.00     0.124 S 
ATOM     75  O   UNL A   1      43.957  27.965  26.235  1.00  0.00    -0.237 OA
ATOM     76  O   UNL A   1      42.603  26.522  24.746  1.00  0.00    -0.237 OA
ATOM     77  O   UNL A   1      41.990  28.889  25.074  1.00  0.00    -0.744 OA
ENDBRANCH  70  74
ENDBRANCH  53  67
BRANCH  54  78
ATOM     78  C   UNL A   1      39.769  33.762  37.228  1.00  0.00     0.023 A 
ATOM     79  C   UNL A   1      39.013  33.305  38.319  1.00  0.00     0.031 A 
ATOM     80  C   UNL A   1      40.321  35.054  37.303  1.00  0.00     0.131 A 
ATOM     81  C   UNL A   1      38.791  34.148  39.419  1.00  0.00     0.055 A 
ATOM     82  C   UNL A   1      40.138  35.870  38.421  1.00  0.00     0.041 A 
ATOM     83  F   UNL A   1      41.059  35.536  36.290  1.00  0.00    -0.206 F 
ATOM     84  C   UNL A   1      39.359  35.423  39.482  1.00  0.00     0.022 A 
BRANCH  81  85
ATOM     85  S   UNL A   1      37.682  33.581  40.738  1.00  0.00     0.124 S 
ATOM     86  O   UNL A   1      37.362  34.832  41.416  1.00  0.00    -0.237 OA
ATOM     87  O   UNL A   1      36.598  32.967  39.977  1.00  0.00    -0.237 OA
ATOM     88  O   UNL A   1      38.510  32.650  41.502  1.00  0.00    -0.744 OA
ENDBRANCH  81  85
ENDBRANCH  54  78
BRANCH  66  89
ATOM     89  C   UNL A   1      44.225  28.677  35.538  1.00  0.00     0.023 A 
ATOM     90  C   UNL A   1      44.070  27.625  36.457  1.00  0.00     0.031 A 
ATOM     91  C   UNL A   1      45.517  29.187  35.325  1.00  0.00     0.131 A 
ATOM     92  C   UNL A   1      45.181  27.152  37.171  1.00  0.00     0.055 A 
ATOM     93  C   UNL A   1      46.629  28.672  35.993  1.00  0.00     0.041 A 
ATOM     94  F   UNL A   1      45.721  30.193  34.459  1.00  0.00    -0.206 F 
ATOM     95  C   UNL A   1      46.461  27.658  36.932  1.00  0.00     0.022 A 
BRANCH  92  96
ATOM     96  S   UNL A   1      44.916  25.927  38.481  1.00  0.00     0.124 S 
ATOM     97  O   UNL A   1      43.839  26.537  39.253  1.00  0.00    -0.237 OA
ATOM     98  O   UNL A   1      44.561  24.732  37.724  1.00  0.00    -0.237 OA
ATOM     99  O   UNL A   1      46.210  25.868  39.161  1.00  0.00    -0.744 OA
ENDBRANCH  92  96
ENDBRANCH  66  89
ENDBRANCH  40  41
ENDBRANCH  32  35
ENDBRANCH  30  31
ENDBRANCH  29  30
ENDBRANCH  28  29
ENDBRANCH   1  28
TORSDOF 19
ENDMDL
MODEL 2
REMARK VINA RESULT:     -12.2      5.357      8.208
REMARK SMILES C[N@@H+](Cc1ncccc1C(=O)NCCCCNC(=O)c1ccc(-c2c3nc(c(-c4cc(S(=O)(=O)[O-])ccc4F)c4ccc([nH]4)c(-c4cc(S(=O)(=O)[O-])ccc4F)c4nc(c(-c5cc(S(=O)(=O)[O-])ccc5F)c5ccc2[nH]5)C=C4)C=C3)cc1)C[C@@H]1CCN(c2ccccc2)C1
REMARK SMILES IDX 13 1 12 2 10 3 11 4 9 6 4 7 5 8 6 9 8 10 7 11 3 12 2 13 1 14
REMARK SMILES IDX 83 16 84 17 85 18 94 19 86 20 87 21 88 22 89 23 93 24 90 25
REMARK SMILES IDX 92 26 91 27 14 28 15 29 16 30 17 31 18 32 19 34 20 35 21 36
REMARK SMILES IDX 82 37 22 38 81 39 23 40 24 41 25 42 75 43 26 44 80 45 74 46
REMARK SMILES IDX 76 47 27 48 79 49 73 50 72 51 28 53 60 54 40 55 59 56 41 57
REMARK SMILES IDX 44 58 58 59 77 60 42 61 43 62 57 64 78 65 45 66 29 67 30 68
REMARK SMILES IDX 38 69 31 70 37 71 39 72 36 73 32 74 33 75 34 76 35 77 61 78
REMARK SMILES IDX 62 79 70 80 63 81 69 82 71 83 68 84 64 85 65 86 66 87 67 88
REMARK SMILES IDX 46 89 47 90 55 91 48 92 54 93 56 94 53 95 49 96 50 97 51 98
REMARK SMILES IDX 52 99
REMARK H PARENT 12 5 2 15 17 33 76 52 44 63
REMARK Flexibility Score: inf
ROOT
ATOM      1  C   UNL A   1      34.980  24.120  23.668  1.00  0.00     0.116 C 
ENDROOT
BRANCH   1   2
ATOM      2  N   UNL A   1      33.759  24.400  22.939  1.00  0.00    -0.352 N 
ATOM      3  C   UNL A   1      32.824  25.404  23.028  1.00  0.00     0.253 C 
ATOM      4  O   UNL A   1      31.812  25.243  22.347  1.00  0.00    -0.269 OA
ATOM      5  H   UNL A   1      33.560  23.738  22.238  1.00  0.00     0.163 HD
BRANCH   3   6
ATOM      6  C   UNL A   1      32.959  26.614  23.903  1.00  0.00     0.067 A 
ATOM      7  C   UNL A   1      32.767  26.562  25.290  1.00  0.00     0.107 A 
ATOM      8  N   UNL A   1      33.030  27.664  26.049  1.00  0.00    -0.254 NA
ATOM      9  C   UNL A   1      33.387  28.838  25.512  1.00  0.00     0.111 A 
ATOM     10  C   UNL A   1      33.376  27.860  23.387  1.00  0.00     0.017 A 
ATOM     11  C   UNL A   1      33.569  28.988  24.175  1.00  0.00     0.021 A 
BRANCH   7  12
ATOM     12  C   UNL A   1      32.321  25.353  26.123  1.00  0.00     0.320 C 
BRANCH  12  13
ATOM     13  N   UNL A   1      30.999  24.743  25.844  1.00  0.00    -0.332 N 
ATOM     14  C   UNL A   1      29.917  25.708  25.767  1.00  0.00     0.333 C 
ATOM     15  H   UNL A   1      31.198  24.399  24.906  1.00  0.00     0.348 HD
BRANCH  13  16
ATOM     16  C   UNL A   1      30.619  23.445  26.421  1.00  0.00     0.267 C 
BRANCH  16  17
ATOM     17  C   UNL A   1      31.431  22.189  26.079  1.00  0.00     0.065 C 
ATOM     18  C   UNL A   1      32.686  22.033  26.966  1.00  0.00     0.032 C 
ATOM     19  C   UNL A   1      31.972  22.083  24.645  1.00  0.00     0.126 C 
ATOM     20  C   UNL A   1      33.798  21.536  26.049  1.00  0.00     0.117 C 
ATOM     21  N   UNL A   1      33.123  21.183  24.809  1.00  0.00    -0.371 N 
BRANCH  21  22
ATOM     22  C   UNL A   1      33.129  19.902  24.290  1.00  0.00     0.037 A 
ATOM     23  C   UNL A   1      32.280  19.562  23.228  1.00  0.00     0.026 A 
ATOM     24  C   UNL A   1      34.004  18.897  24.737  1.00  0.00     0.026 A 
ATOM     25  C   UNL A   1      32.337  18.308  22.606  1.00  0.00     0.002 A 
ATOM     26  C   UNL A   1      34.065  17.637  24.128  1.00  0.00     0.002 A 
ATOM     27  C   UNL A   1      33.239  17.347  23.050  1.00  0.00     0.000 A 
ENDBRANCH  21  22
ENDBRANCH  16  17
ENDBRANCH  13  16
ENDBRANCH  12  13
ENDBRANCH   7  12
ENDBRANCH   3   6
ENDBRANCH   1   2
BRANCH   1  28
ATOM     28  C   UNL A   1      35.609  22.807  23.176  1.00  0.00     0.023 C 
BRANCH  28  29
ATOM     29  C   UNL A   1      37.030  22.548  23.657  1.00  0.00     0.023 C 
BRANCH  29  30
ATOM     30  C   UNL A   1      37.134  22.177  25.126  1.00  0.00     0.116 C 
BRANCH  30  31
ATOM     31  N   UNL A   1      38.073  21.099  25.391  1.00  0.00    -0.352 N 
ATOM     32  C   UNL A   1      39.260  21.180  26.090  1.00  0.00     0.251 C 
ATOM     33  H   UNL A   1      37.835  20.214  25.033  1.00  0.00     0.163 HD
ATOM     34  O   UNL A   1      40.005  20.216  26.176  1.00  0.00    -0.269 OA
BRANCH  32  35
ATOM     35  C   UNL A   1      39.619  22.487  26.668  1.00  0.00     0.039 A 
ATOM     36  C   UNL A   1      40.663  22.546  27.589  1.00  0.00     0.014 A 
ATOM     37  C   UNL A   1      39.018  23.650  26.181  1.00  0.00     0.014 A 
ATOM     38  C   UNL A   1      41.165  23.790  27.967  1.00  0.00     0.010 A 
ATOM     39  C   UNL A   1      39.569  24.885  26.500  1.00  0.00     0.010 A 
ATOM     40  C   UNL A   1      40.653  24.963  27.388  1.00  0.00    -0.014 A 
BRANCH  40  41
ATOM     41  C   UNL A   1      41.250  26.286  27.688  1.00  0.00     0.031 A 
ATOM     42  C   UNL A   1      42.648  26.593  27.235  1.00  0.00     0.074 A 
ATOM     43  C   UNL A   1      40.554  27.174  28.427  1.00  0.00     0.049 A 
ATOM     44  N   UNL A   1      43.372  27.659  27.453  1.00  0.00    -0.248 NA
ATOM     45  C   UNL A   1      43.333  25.544  26.465  1.00  0.00     0.031 C 
ATOM     46  C   UNL A   1      39.209  26.957  28.965  1.00  0.00     0.029 A 
ATOM     47  N   UNL A   1      40.885  28.431  28.862  1.00  0.00    -0.354 N 
ATOM     48  C   UNL A   1      44.601  27.407  26.854  1.00  0.00     0.074 A 
ATOM     49  C   UNL A   1      44.544  26.061  26.325  1.00  0.00     0.031 C 
ATOM     50  C   UNL A   1      38.822  28.054  29.637  1.00  0.00     0.029 A 
ATOM     51  C   UNL A   1      39.903  29.033  29.614  1.00  0.00     0.049 A 
ATOM     52  H   UNL A   1      41.746  28.863  28.656  1.00  0.00     0.167 HD
ATOM     53  C   UNL A   1      45.668  28.235  26.735  1.00  0.00     0.034 A 
ATOM     54  C   UNL A   1      39.883  30.235  30.222  1.00  0.00     0.034 A 
ATOM     55  C   UNL A   1      45.699  29.576  27.262  1.00  0.00     0.049 A 
ATOM     56  C   UNL A   1      41.087  31.132  30.089  1.00  0.00     0.074 A 
ATOM     57  C   UNL A   1      46.698  30.526  27.147  1.00  0.00     0.029 A 
ATOM     58  N   UNL A   1      44.685  30.157  28.015  1.00  0.00    -0.354 N 
ATOM     59  N   UNL A   1      42.219  30.906  29.463  1.00  0.00    -0.248 NA
ATOM     60  C   UNL A   1      41.007  32.446  30.737  1.00  0.00     0.031 C 
ATOM     61  C   UNL A   1      46.317  31.654  27.883  1.00  0.00     0.029 A 
ATOM     62  C   UNL A   1      45.049  31.438  28.399  1.00  0.00     0.049 A 
ATOM     63  H   UNL A   1      43.832  29.721  28.244  1.00  0.00     0.167 HD
ATOM     64  C   UNL A   1      42.977  32.062  29.623  1.00  0.00     0.074 A 
ATOM     65  C   UNL A   1      42.164  32.987  30.386  1.00  0.00     0.031 C 
ATOM     66  C   UNL A   1      44.230  32.337  29.179  1.00  0.00     0.034 A 
BRANCH  53  67
ATOM     67  C   UNL A   1      46.886  27.694  26.027  1.00  0.00     0.023 A 
ATOM     68  C   UNL A   1      47.162  28.014  24.685  1.00  0.00     0.031 A 
ATOM     69  C   UNL A   1      47.763  26.816  26.686  1.00  0.00     0.131 A 
ATOM     70  C   UNL A   1      48.235  27.401  24.024  1.00  0.00     0.055 A 
ATOM     71  C   UNL A   1      48.880  26.273  26.046  1.00  0.00     0.041 A 
ATOM     72  F   UNL A   1      47.541  26.456  27.960  1.00  0.00    -0.206 F 
ATOM     73  C   UNL A   1      49.113  26.552  24.702  1.00  0.00     0.022 A 
BRANCH  70  74
ATOM     74  S   UNL A   1      48.383  27.616  22.229  1.00  0.00     0.124 S 
ATOM     75  O   UNL A   1      48.592  26.239  21.785  1.00  0.00    -0.237 OA
ATOM     76  O   UNL A   1      47.101  28.214  21.875  1.00  0.00    -0.237 OA
ATOM     77  O   UNL A   1      49.543  28.492  22.082  1.00  0.00    -0.744 OA
ENDBRANCH  70  74
ENDBRANCH  53  67
BRANCH  54  78
ATOM     78  C   UNL A   1      38.694  30.663  31.012  1.00  0.00     0.023 A 
ATOM     79  C   UNL A   1      37.594  31.274  30.391  1.00  0.00     0.031 A 
ATOM     80  C   UNL A   1      38.657  30.503  32.410  1.00  0.00     0.131 A 
ATOM     81  C   UNL A   1      36.522  31.743  31.167  1.00  0.00     0.055 A 
ATOM     82  C   UNL A   1      37.567  30.927  33.172  1.00  0.00     0.041 A 
ATOM     83  F   UNL A   1      39.681  29.918  33.052  1.00  0.00    -0.206 F 
ATOM     84  C   UNL A   1      36.497  31.563  32.552  1.00  0.00     0.022 A 
BRANCH  81  85
ATOM     85  S   UNL A   1      35.192  32.664  30.346  1.00  0.00     0.124 S 
ATOM     86  O   UNL A   1      34.817  31.751  29.273  1.00  0.00    -0.237 OA
ATOM     87  O   UNL A   1      34.223  32.821  31.427  1.00  0.00    -0.237 OA
ATOM     88  O   UNL A   1      35.848  33.898  29.917  1.00  0.00    -0.744 OA
ENDBRANCH  81  85
ENDBRANCH  54  78
BRANCH  66  89
ATOM     89  C   UNL A   1      44.774  33.709  29.487  1.00  0.00     0.023 A 
ATOM     90  C   UNL A   1      44.513  34.809  28.651  1.00  0.00     0.031 A 
ATOM     91  C   UNL A   1      45.579  33.914  30.621  1.00  0.00     0.131 A 
ATOM     92  C   UNL A   1      45.096  36.053  28.932  1.00  0.00     0.055 A 
ATOM     93  C   UNL A   1      46.107  35.168  30.929  1.00  0.00     0.041 A 
ATOM     94  F   UNL A   1      45.862  32.898  31.452  1.00  0.00    -0.206 F 
ATOM     95  C   UNL A   1      45.878  36.243  30.074  1.00  0.00     0.022 A 
BRANCH  92  96
ATOM     96  S   UNL A   1      44.892  37.399  27.735  1.00  0.00     0.124 S 
ATOM     97  O   UNL A   1      46.113  37.289  26.943  1.00  0.00    -0.237 OA
ATOM     98  O   UNL A   1      43.655  37.028  27.056  1.00  0.00    -0.237 OA
ATOM     99  O   UNL A   1      44.803  38.593  28.574  1.00  0.00    -0.744 OA
ENDBRANCH  92  96
ENDBRANCH  66  89
ENDBRANCH  40  41
ENDBRANCH  32  35
ENDBRANCH  30  31
ENDBRANCH  29  30
ENDBRANCH  28  29
ENDBRANCH   1  28
TORSDOF 19
ENDMDL
MODEL 3
REMARK VINA RESULT:     -11.8      2.075      7.481
REMARK SMILES C[N@@H+](Cc1ncccc1C(=O)NCCCCNC(=O)c1ccc(-c2c3nc(c(-c4cc(S(=O)(=O)[O-])ccc4F)c4ccc([nH]4)c(-c4cc(S(=O)(=O)[O-])ccc4F)c4nc(c(-c5cc(S(=O)(=O)[O-])ccc5F)c5ccc2[nH]5)C=C4)C=C3)cc1)C[C@@H]1CCN(c2ccccc2)C1
REMARK SMILES IDX 13 1 12 2 10 3 11 4 9 6 4 7 5 8 6 9 8 10 7 11 3 12 2 13 1 14
REMARK SMILES IDX 83 16 84 17 85 18 94 19 86 20 87 21 88 22 89 23 93 24 90 25
REMARK SMILES IDX 92 26 91 27 14 28 15 29 16 30 17 31 18 32 19 34 20 35 21 36
REMARK SMILES IDX 82 37 22 38 81 39 23 40 24 41 25 42 75 43 26 44 80 45 74 46
REMARK SMILES IDX 76 47 27 48 79 49 73 50 72 51 28 53 60 54 40 55 59 56 41 57
REMARK SMILES IDX 44 58 58 59 77 60 42 61 43 62 57 64 78 65 45 66 29 67 30 68
REMARK SMILES IDX 38 69 31 70 37 71 39 72 36 73 32 74 33 75 34 76 35 77 61 78
REMARK SMILES IDX 62 79 70 80 63 81 69 82 71 83 68 84 64 85 65 86 66 87 67 88
REMARK SMILES IDX 46 89 47 90 55 91 48 92 54 93 56 94 53 95 49 96 50 97 51 98
REMARK SMILES IDX 52 99
REMARK H PARENT 12 5 2 15 17 33 76 52 44 63
REMARK Flexibility Score: inf
ROOT
ATOM      1  C   UNL A   1      33.223  29.476  26.480  1.00  0.00     0.116 C 
ENDROOT
BRANCH   1   2
ATOM      2  N   UNL A   1      32.495  28.306  26.927  1.00  0.00    -0.352 N 
ATOM      3  C   UNL A   1      31.662  27.419  26.285  1.00  0.00     0.253 C 
ATOM      4  O   UNL A   1      31.079  26.620  27.017  1.00  0.00    -0.269 OA
ATOM      5  H   UNL A   1      32.622  28.106  27.882  1.00  0.00     0.163 HD
BRANCH   3   6
ATOM      6  C   UNL A   1      31.416  27.403  24.807  1.00  0.00     0.067 A 
ATOM      7  C   UNL A   1      32.348  26.886  23.896  1.00  0.00     0.107 A 
ATOM      8  N   UNL A   1      32.016  26.778  22.579  1.00  0.00    -0.254 NA
ATOM      9  C   UNL A   1      30.853  27.230  22.091  1.00  0.00     0.111 A 
ATOM     10  C   UNL A   1      30.189  27.827  24.253  1.00  0.00     0.017 A 
ATOM     11  C   UNL A   1      29.902  27.772  22.895  1.00  0.00     0.021 A 
BRANCH   7  12
ATOM     12  C   UNL A   1      33.753  26.351  24.206  1.00  0.00     0.320 C 
BRANCH  12  13
ATOM     13  N   UNL A   1      33.901  24.937  24.628  1.00  0.00    -0.332 N 
ATOM     14  C   UNL A   1      34.214  24.779  26.036  1.00  0.00     0.333 C 
ATOM     15  H   UNL A   1      32.937  24.642  24.472  1.00  0.00     0.348 HD
BRANCH  13  16
ATOM     16  C   UNL A   1      34.525  23.938  23.748  1.00  0.00     0.267 C 
BRANCH  16  17
ATOM     17  C   UNL A   1      33.963  22.511  23.689  1.00  0.00     0.065 C 
ATOM     18  C   UNL A   1      32.434  22.466  23.908  1.00  0.00     0.032 C 
ATOM     19  C   UNL A   1      34.516  21.507  24.711  1.00  0.00     0.126 C 
ATOM     20  C   UNL A   1      32.164  21.246  24.782  1.00  0.00     0.117 C 
ATOM     21  N   UNL A   1      33.428  20.523  24.807  1.00  0.00    -0.371 N 
BRANCH  21  22
ATOM     22  C   UNL A   1      33.563  19.234  24.330  1.00  0.00     0.037 A 
ATOM     23  C   UNL A   1      32.629  18.711  23.424  1.00  0.00     0.026 A 
ATOM     24  C   UNL A   1      34.645  18.401  24.662  1.00  0.00     0.026 A 
ATOM     25  C   UNL A   1      32.793  17.449  22.836  1.00  0.00     0.002 A 
ATOM     26  C   UNL A   1      34.815  17.135  24.086  1.00  0.00     0.002 A 
ATOM     27  C   UNL A   1      33.895  16.664  23.160  1.00  0.00     0.000 A 
ENDBRANCH  21  22
ENDBRANCH  16  17
ENDBRANCH  13  16
ENDBRANCH  12  13
ENDBRANCH   7  12
ENDBRANCH   3   6
ENDBRANCH   1   2
BRANCH   1  28
ATOM     28  C   UNL A   1      32.249  30.556  25.983  1.00  0.00     0.023 C 
BRANCH  28  29
ATOM     29  C   UNL A   1      31.885  31.621  27.009  1.00  0.00     0.023 C 
BRANCH  29  30
ATOM     30  C   UNL A   1      33.039  32.523  27.410  1.00  0.00     0.116 C 
BRANCH  30  31
ATOM     31  N   UNL A   1      32.642  33.897  27.674  1.00  0.00    -0.352 N 
ATOM     32  C   UNL A   1      33.196  34.762  28.595  1.00  0.00     0.251 C 
ATOM     33  H   UNL A   1      31.896  34.248  27.136  1.00  0.00     0.163 HD
ATOM     34  O   UNL A   1      32.719  35.871  28.780  1.00  0.00    -0.269 OA
BRANCH  32  35
ATOM     35  C   UNL A   1      34.339  34.271  29.386  1.00  0.00     0.039 A 
ATOM     36  C   UNL A   1      34.088  33.453  30.485  1.00  0.00     0.014 A 
ATOM     37  C   UNL A   1      35.642  34.506  28.941  1.00  0.00     0.014 A 
ATOM     38  C   UNL A   1      35.154  32.796  31.099  1.00  0.00     0.010 A 
ATOM     39  C   UNL A   1      36.691  33.792  29.505  1.00  0.00     0.010 A 
ATOM     40  C   UNL A   1      36.454  32.925  30.581  1.00  0.00    -0.014 A 
BRANCH  40  41
ATOM     41  C   UNL A   1      37.581  32.145  31.146  1.00  0.00     0.031 A 
ATOM     42  C   UNL A   1      38.080  32.453  32.529  1.00  0.00     0.074 A 
ATOM     43  C   UNL A   1      38.192  31.217  30.384  1.00  0.00     0.049 A 
ATOM     44  N   UNL A   1      39.091  31.936  33.176  1.00  0.00    -0.248 NA
ATOM     45  C   UNL A   1      37.367  33.508  33.264  1.00  0.00     0.031 C 
ATOM     46  C   UNL A   1      37.823  30.877  29.007  1.00  0.00     0.029 A 
ATOM     47  N   UNL A   1      39.257  30.396  30.652  1.00  0.00    -0.354 N 
ATOM     48  C   UNL A   1      39.141  32.607  34.392  1.00  0.00     0.074 A 
ATOM     49  C   UNL A   1      38.101  33.613  34.361  1.00  0.00     0.031 C 
ATOM     50  C   UNL A   1      38.633  29.902  28.563  1.00  0.00     0.029 A 
ATOM     51  C   UNL A   1      39.603  29.577  29.604  1.00  0.00     0.049 A 
ATOM     52  H   UNL A   1      39.730  30.394  31.516  1.00  0.00     0.167 HD
ATOM     53  C   UNL A   1      39.963  32.384  35.447  1.00  0.00     0.034 A 
ATOM     54  C   UNL A   1      40.596  28.673  29.492  1.00  0.00     0.034 A 
ATOM     55  C   UNL A   1      40.986  31.369  35.459  1.00  0.00     0.049 A 
ATOM     56  C   UNL A   1      41.508  28.454  30.672  1.00  0.00     0.074 A 
ATOM     57  C   UNL A   1      41.835  31.010  36.492  1.00  0.00     0.029 A 
ATOM     58  N   UNL A   1      41.308  30.553  34.381  1.00  0.00    -0.354 N 
ATOM     59  N   UNL A   1      41.502  29.051  31.842  1.00  0.00    -0.248 NA
ATOM     60  C   UNL A   1      42.552  27.435  30.520  1.00  0.00     0.031 C 
ATOM     61  C   UNL A   1      42.709  30.026  36.018  1.00  0.00     0.029 A 
ATOM     62  C   UNL A   1      42.363  29.717  34.712  1.00  0.00     0.049 A 
ATOM     63  H   UNL A   1      40.853  30.567  33.507  1.00  0.00     0.167 HD
ATOM     64  C   UNL A   1      42.529  28.462  32.573  1.00  0.00     0.074 A 
ATOM     65  C   UNL A   1      43.116  27.450  31.719  1.00  0.00     0.031 C 
ATOM     66  C   UNL A   1      42.948  28.728  33.837  1.00  0.00     0.034 A 
BRANCH  53  67
ATOM     67  C   UNL A   1      39.793  33.273  36.655  1.00  0.00     0.023 A 
ATOM     68  C   UNL A   1      40.593  34.412  36.851  1.00  0.00     0.031 A 
ATOM     69  C   UNL A   1      38.846  32.958  37.645  1.00  0.00     0.131 A 
ATOM     70  C   UNL A   1      40.489  35.147  38.039  1.00  0.00     0.055 A 
ATOM     71  C   UNL A   1      38.690  33.742  38.790  1.00  0.00     0.041 A 
ATOM     72  F   UNL A   1      38.067  31.870  37.525  1.00  0.00    -0.206 F 
ATOM     73  C   UNL A   1      39.525  34.836  39.000  1.00  0.00     0.022 A 
BRANCH  70  74
ATOM     74  S   UNL A   1      41.730  36.427  38.378  1.00  0.00     0.124 S 
ATOM     75  O   UNL A   1      40.914  37.469  39.000  1.00  0.00    -0.237 OA
ATOM     76  O   UNL A   1      42.665  35.737  39.258  1.00  0.00    -0.237 OA
ATOM     77  O   UNL A   1      42.248  36.761  37.054  1.00  0.00    -0.744 OA
ENDBRANCH  70  74
ENDBRANCH  53  67
BRANCH  54  78
ATOM     78  C   UNL A   1      40.789  27.912  28.226  1.00  0.00     0.023 A 
ATOM     79  C   UNL A   1      40.278  26.613  28.077  1.00  0.00     0.031 A 
ATOM     80  C   UNL A   1      41.521  28.459  27.156  1.00  0.00     0.131 A 
ATOM     81  C   UNL A   1      40.544  25.886  26.906  1.00  0.00     0.055 A 
ATOM     82  C   UNL A   1      41.741  27.750  25.974  1.00  0.00     0.041 A 
ATOM     83  F   UNL A   1      42.025  29.701  27.244  1.00  0.00    -0.206 F 
ATOM     84  C   UNL A   1      41.261  26.451  25.849  1.00  0.00     0.022 A 
BRANCH  81  85
ATOM     85  S   UNL A   1      40.001  24.157  26.815  1.00  0.00     0.124 S 
ATOM     86  O   UNL A   1      38.760  24.275  26.058  1.00  0.00    -0.237 OA
ATOM     87  O   UNL A   1      41.119  23.526  26.122  1.00  0.00    -0.237 OA
ATOM     88  O   UNL A   1      39.845  23.776  28.217  1.00  0.00    -0.744 OA
ENDBRANCH  81  85
ENDBRANCH  54  78
BRANCH  66  89
ATOM     89  C   UNL A   1      44.077  27.884  34.370  1.00  0.00     0.023 A 
ATOM     90  C   UNL A   1      43.846  26.618  34.937  1.00  0.00     0.031 A 
ATOM     91  C   UNL A   1      45.399  28.360  34.327  1.00  0.00     0.131 A 
ATOM     92  C   UNL A   1      44.914  25.894  35.488  1.00  0.00     0.055 A 
ATOM     93  C   UNL A   1      46.466  27.609  34.822  1.00  0.00     0.041 A 
ATOM     94  F   UNL A   1      45.676  29.562  33.798  1.00  0.00    -0.206 F 
ATOM     95  C   UNL A   1      46.224  26.375  35.419  1.00  0.00     0.022 A 
BRANCH  92  96
ATOM     96  S   UNL A   1      44.554  24.355  36.376  1.00  0.00     0.124 S 
ATOM     97  O   UNL A   1      45.772  23.583  36.150  1.00  0.00    -0.237 OA
ATOM     98  O   UNL A   1      44.340  24.825  37.741  1.00  0.00    -0.237 OA
ATOM     99  O   UNL A   1      43.361  23.843  35.703  1.00  0.00    -0.744 OA
ENDBRANCH  92  96
ENDBRANCH  66  89
ENDBRANCH  40  41
ENDBRANCH  32  35
ENDBRANCH  30  31
ENDBRANCH  29  30
ENDBRANCH  28  29
ENDBRANCH   1  28
TORSDOF 19
ENDMDL
