MODEL 1
REMARK VINA RESULT:     -12.0      0.000      0.000
REMARK SMILES CCc1cc(Nc2ccc(C(=O)NCCCCNC(=O)c3ccc(-c4c5nc(c(-c6cc(S(=O)(=O)[O-])ccc6F)c6ccc([nH]6)c(-c6cc(S(=O)(=O)[O-])ccc6F)c6nc(c(-c7cc(S(=O)(=O)[O-])ccc7F)c7ccc4[nH]7)C=C6)C=C5)cc3)cc2)nc(C(C)C)n1
REMARK SMILES IDX 15 1 14 2 13 3 11 4 12 5 10 7 7 8 8 9 85 10 9 11 84 12 6 13
REMARK SMILES IDX 5 15 3 16 4 17 91 18 87 19 86 20 2 21 1 22 88 23 89 24 90 25
REMARK SMILES IDX 16 26 17 27 18 28 19 29 20 31 21 32 22 33 83 34 23 35 82 36
REMARK SMILES IDX 24 37 25 38 26 39 76 40 27 41 81 42 75 43 77 44 28 45 80 46
REMARK SMILES IDX 74 47 73 48 29 50 61 51 41 52 60 53 42 54 45 55 59 56 78 57
REMARK SMILES IDX 43 58 44 59 58 61 79 62 46 63 30 64 31 65 39 66 32 67 38 68
REMARK SMILES IDX 40 69 37 70 33 71 34 72 35 73 36 74 62 75 63 76 71 77 64 78
REMARK SMILES IDX 70 79 72 80 69 81 65 82 66 83 67 84 68 85 47 86 48 87 56 88
REMARK SMILES IDX 49 89 55 90 57 91 54 92 50 93 51 94 52 95 53 96
REMARK H PARENT 13 6 6 14 18 30 77 49 45 60
REMARK Flexibility Score: inf
ROOT
ATOM      1  C   UNL A   1      32.024  30.305  26.851  1.00  0.00     0.023 C 
ENDROOT
BRANCH   1   2
ATOM      2  C   UNL A   1      32.154  29.712  25.446  1.00  0.00     0.116 C 
BRANCH   2   3
ATOM      3  N   UNL A   1      31.014  30.079  24.627  1.00  0.00    -0.352 N 
ATOM      4  C   UNL A   1      30.276  29.369  23.714  1.00  0.00     0.251 C 
ATOM      5  O   UNL A   1      29.315  29.927  23.183  1.00  0.00    -0.269 OA
ATOM      6  H   UNL A   1      30.715  31.009  24.749  1.00  0.00     0.163 HD
BRANCH   4   7
ATOM      7  C   UNL A   1      30.550  27.944  23.384  1.00  0.00     0.039 A 
ATOM      8  C   UNL A   1      31.100  25.208  22.999  1.00  0.00     0.040 A 
ATOM      9  C   UNL A   1      30.246  25.613  24.024  1.00  0.00     0.027 A 
ATOM     10  C   UNL A   1      31.579  26.166  22.100  1.00  0.00     0.027 A 
ATOM     11  C   UNL A   1      29.990  26.973  24.228  1.00  0.00     0.016 A 
ATOM     12  C   UNL A   1      31.292  27.521  22.282  1.00  0.00     0.016 A 
BRANCH   8  13
ATOM     13  N   UNL A   1      31.389  23.845  22.816  1.00  0.00    -0.340 N 
ATOM     14  H   UNL A   1      30.935  23.371  22.082  1.00  0.00     0.168 HD
BRANCH  13  15
ATOM     15  C   UNL A   1      32.289  23.113  23.615  1.00  0.00     0.134 A 
ATOM     16  C   UNL A   1      34.225  23.004  24.960  1.00  0.00     0.046 A 
ATOM     17  C   UNL A   1      33.331  23.773  24.238  1.00  0.00     0.071 A 
ATOM     18  N   UNL A   1      34.104  21.666  25.055  1.00  0.00    -0.238 NA
ATOM     19  C   UNL A   1      33.084  21.095  24.390  1.00  0.00     0.133 A 
ATOM     20  N   UNL A   1      32.172  21.776  23.681  1.00  0.00    -0.216 NA
BRANCH  16  21
ATOM     21  C   UNL A   1      35.352  23.652  25.722  1.00  0.00     0.053 C 
ATOM     22  C   UNL A   1      36.703  23.456  25.048  1.00  0.00     0.011 C 
ENDBRANCH  16  21
BRANCH  19  23
ATOM     23  C   UNL A   1      32.974  19.587  24.387  1.00  0.00     0.051 C 
ATOM     24  C   UNL A   1      32.305  19.101  23.101  1.00  0.00     0.016 C 
ATOM     25  C   UNL A   1      34.338  18.930  24.581  1.00  0.00     0.016 C 
ENDBRANCH  19  23
ENDBRANCH  13  15
ENDBRANCH   8  13
ENDBRANCH   4   7
ENDBRANCH   2   3
ENDBRANCH   1   2
BRANCH   1  26
ATOM     26  C   UNL A   1      31.633  31.786  26.873  1.00  0.00     0.023 C 
BRANCH  26  27
ATOM     27  C   UNL A   1      32.805  32.760  26.879  1.00  0.00     0.116 C 
BRANCH  27  28
ATOM     28  N   UNL A   1      32.526  33.983  27.617  1.00  0.00    -0.352 N 
ATOM     29  C   UNL A   1      33.174  34.480  28.724  1.00  0.00     0.251 C 
ATOM     30  H   UNL A   1      31.777  34.525  27.280  1.00  0.00     0.163 HD
ATOM     31  O   UNL A   1      32.742  35.472  29.297  1.00  0.00    -0.269 OA
BRANCH  29  32
ATOM     32  C   UNL A   1      34.367  33.772  29.237  1.00  0.00     0.039 A 
ATOM     33  C   UNL A   1      35.633  34.264  28.913  1.00  0.00     0.014 A 
ATOM     34  C   UNL A   1      34.230  32.660  30.073  1.00  0.00     0.014 A 
ATOM     35  C   UNL A   1      36.764  33.689  29.495  1.00  0.00     0.010 A 
ATOM     36  C   UNL A   1      35.353  32.128  30.698  1.00  0.00     0.010 A 
ATOM     37  C   UNL A   1      36.630  32.645  30.425  1.00  0.00    -0.014 A 
BRANCH  37  38
ATOM     38  C   UNL A   1      37.806  32.089  31.140  1.00  0.00     0.031 A 
ATOM     39  C   UNL A   1      38.596  30.965  30.530  1.00  0.00     0.074 A 
ATOM     40  C   UNL A   1      38.107  32.541  32.374  1.00  0.00     0.049 A 
ATOM     41  N   UNL A   1      39.586  30.278  31.038  1.00  0.00    -0.248 NA
ATOM     42  C   UNL A   1      38.194  30.540  29.181  1.00  0.00     0.031 C 
ATOM     43  C   UNL A   1      37.388  33.602  33.084  1.00  0.00     0.029 A 
ATOM     44  N   UNL A   1      39.084  32.156  33.256  1.00  0.00    -0.354 N 
ATOM     45  C   UNL A   1      39.916  29.326  30.079  1.00  0.00     0.074 A 
ATOM     46  C   UNL A   1      38.983  29.494  28.985  1.00  0.00     0.031 C 
ATOM     47  C   UNL A   1      37.962  33.793  34.284  1.00  0.00     0.029 A 
ATOM     48  C   UNL A   1      39.056  32.842  34.447  1.00  0.00     0.049 A 
ATOM     49  H   UNL A   1      39.745  31.454  33.055  1.00  0.00     0.167 HD
ATOM     50  C   UNL A   1      40.917  28.411  30.103  1.00  0.00     0.034 A 
ATOM     51  C   UNL A   1      39.817  32.711  35.552  1.00  0.00     0.034 A 
ATOM     52  C   UNL A   1      41.847  28.268  31.198  1.00  0.00     0.049 A 
ATOM     53  C   UNL A   1      40.903  31.666  35.568  1.00  0.00     0.074 A 
ATOM     54  C   UNL A   1      42.941  27.427  31.296  1.00  0.00     0.029 A 
ATOM     55  N   UNL A   1      41.785  28.978  32.390  1.00  0.00    -0.354 N 
ATOM     56  N   UNL A   1      41.240  30.810  34.631  1.00  0.00    -0.248 NA
ATOM     57  C   UNL A   1      41.715  31.575  36.788  1.00  0.00     0.031 C 
ATOM     58  C   UNL A   1      43.502  27.582  32.569  1.00  0.00     0.029 A 
ATOM     59  C   UNL A   1      42.800  28.569  33.242  1.00  0.00     0.049 A 
ATOM     60  H   UNL A   1      41.118  29.671  32.601  1.00  0.00     0.167 HD
ATOM     61  C   UNL A   1      42.323  30.099  35.139  1.00  0.00     0.074 A 
ATOM     62  C   UNL A   1      42.587  30.632  36.460  1.00  0.00     0.031 C 
ATOM     63  C   UNL A   1      43.040  29.101  34.563  1.00  0.00     0.034 A 
BRANCH  50  64
ATOM     64  C   UNL A   1      41.030  27.480  28.921  1.00  0.00     0.023 A 
ATOM     65  C   UNL A   1      42.021  27.651  27.937  1.00  0.00     0.031 A 
ATOM     66  C   UNL A   1      40.110  26.430  28.750  1.00  0.00     0.131 A 
ATOM     67  C   UNL A   1      42.017  26.844  26.790  1.00  0.00     0.055 A 
ATOM     68  C   UNL A   1      40.162  25.577  27.645  1.00  0.00     0.041 A 
ATOM     69  F   UNL A   1      39.130  26.228  29.645  1.00  0.00    -0.206 F 
ATOM     70  C   UNL A   1      41.108  25.793  26.648  1.00  0.00     0.022 A 
BRANCH  67  71
ATOM     71  S   UNL A   1      43.115  27.290  25.416  1.00  0.00     0.124 S 
ATOM     72  O   UNL A   1      43.350  25.990  24.793  1.00  0.00    -0.237 OA
ATOM     73  O   UNL A   1      42.299  28.228  24.653  1.00  0.00    -0.237 OA
ATOM     74  O   UNL A   1      44.278  27.873  26.083  1.00  0.00    -0.744 OA
ENDBRANCH  67  71
ENDBRANCH  50  64
BRANCH  51  75
ATOM     75  C   UNL A   1      39.580  33.577  36.740  1.00  0.00     0.023 A 
ATOM     76  C   UNL A   1      38.957  33.064  37.889  1.00  0.00     0.031 A 
ATOM     77  C   UNL A   1      39.936  34.936  36.732  1.00  0.00     0.131 A 
ATOM     78  C   UNL A   1      38.671  33.915  38.968  1.00  0.00     0.055 A 
ATOM     79  C   UNL A   1      39.691  35.768  37.826  1.00  0.00     0.041 A 
ATOM     80  F   UNL A   1      40.540  35.473  35.660  1.00  0.00    -0.206 F 
ATOM     81  C   UNL A   1      39.044  35.261  38.949  1.00  0.00     0.022 A 
BRANCH  78  82
ATOM     82  S   UNL A   1      37.737  33.249  40.373  1.00  0.00     0.124 S 
ATOM     83  O   UNL A   1      36.392  33.159  39.820  1.00  0.00    -0.237 OA
ATOM     84  O   UNL A   1      38.419  31.982  40.617  1.00  0.00    -0.237 OA
ATOM     85  O   UNL A   1      37.919  34.261  41.412  1.00  0.00    -0.744 OA
ENDBRANCH  78  82
ENDBRANCH  51  75
BRANCH  63  86
ATOM     86  C   UNL A   1      44.207  28.558  35.350  1.00  0.00     0.023 A 
ATOM     87  C   UNL A   1      44.061  27.476  36.236  1.00  0.00     0.031 A 
ATOM     88  C   UNL A   1      45.478  29.143  35.218  1.00  0.00     0.131 A 
ATOM     89  C   UNL A   1      45.160  27.041  36.992  1.00  0.00     0.055 A 
ATOM     90  C   UNL A   1      46.580  28.671  35.933  1.00  0.00     0.041 A 
ATOM     91  F   UNL A   1      45.671  30.180  34.388  1.00  0.00    -0.206 F 
ATOM     92  C   UNL A   1      46.422  27.622  36.834  1.00  0.00     0.022 A 
BRANCH  89  93
ATOM     93  S   UNL A   1      44.904  25.752  38.242  1.00  0.00     0.124 S 
ATOM     94  O   UNL A   1      43.868  24.932  37.624  1.00  0.00    -0.237 OA
ATOM     95  O   UNL A   1      46.226  25.143  38.339  1.00  0.00    -0.237 OA
ATOM     96  O   UNL A   1      44.481  26.501  39.424  1.00  0.00    -0.744 OA
ENDBRANCH  89  93
ENDBRANCH  63  86
ENDBRANCH  37  38
ENDBRANCH  29  32
ENDBRANCH  27  28
ENDBRANCH  26  27
ENDBRANCH   1  26
TORSDOF 18
ENDMDL
MODEL 2
REMARK VINA RESULT:     -11.9      1.932      2.451
REMARK SMILES CCc1cc(Nc2ccc(C(=O)NCCCCNC(=O)c3ccc(-c4c5nc(c(-c6cc(S(=O)(=O)[O-])ccc6F)c6ccc([nH]6)c(-c6cc(S(=O)(=O)[O-])ccc6F)c6nc(c(-c7cc(S(=O)(=O)[O-])ccc7F)c7ccc4[nH]7)C=C6)C=C5)cc3)cc2)nc(C(C)C)n1
REMARK SMILES IDX 15 1 14 2 13 3 11 4 12 5 10 7 7 8 8 9 85 10 9 11 84 12 6 13
REMARK SMILES IDX 5 15 3 16 4 17 91 18 87 19 86 20 2 21 1 22 88 23 89 24 90 25
REMARK SMILES IDX 16 26 17 27 18 28 19 29 20 31 21 32 22 33 83 34 23 35 82 36
REMARK SMILES IDX 24 37 25 38 26 39 76 40 27 41 81 42 75 43 77 44 28 45 80 46
REMARK SMILES IDX 74 47 73 48 29 50 61 51 41 52 60 53 42 54 45 55 59 56 78 57
REMARK SMILES IDX 43 58 44 59 58 61 79 62 46 63 30 64 31 65 39 66 32 67 38 68
REMARK SMILES IDX 40 69 37 70 33 71 34 72 35 73 36 74 62 75 63 76 71 77 64 78
REMARK SMILES IDX 70 79 72 80 69 81 65 82 66 83 67 84 68 85 47 86 48 87 56 88
REMARK SMILES IDX 49 89 55 90 57 91 54 92 50 93 51 94 52 95 53 96
REMARK H PARENT 13 6 6 14 18 30 77 49 45 60
REMARK Flexibility Score: inf
ROOT
ATOM      1  C   UNL A   1      33.675  28.706  25.769  1.00  0.00     0.023 C 
ENDROOT
BRANCH   1   2
ATOM      2  C   UNL A   1      33.255  27.846  24.574  1.00  0.00     0.116 C 
BRANCH   2   3
ATOM      3  N   UNL A   1      31.876  28.114  24.209  1.00  0.00    -0.352 N 
ATOM      4  C   UNL A   1      30.772  27.301  24.143  1.00  0.00     0.251 C 
ATOM      5  O   UNL A   1      29.694  27.810  23.837  1.00  0.00    -0.269 OA
ATOM      6  H   UNL A   1      31.700  29.051  23.964  1.00  0.00     0.163 HD
BRANCH   4   7
ATOM      7  C   UNL A   1      30.812  25.852  24.480  1.00  0.00     0.039 A 
ATOM      8  C   UNL A   1      31.052  23.164  25.290  1.00  0.00     0.040 A 
ATOM      9  C   UNL A   1      30.951  24.177  26.243  1.00  0.00     0.027 A 
ATOM     10  C   UNL A   1      30.914  23.493  23.938  1.00  0.00     0.027 A 
ATOM     11  C   UNL A   1      30.853  25.513  25.841  1.00  0.00     0.016 A 
ATOM     12  C   UNL A   1      30.777  24.825  23.538  1.00  0.00     0.016 A 
BRANCH   8  13
ATOM     13  N   UNL A   1      31.189  21.826  25.693  1.00  0.00    -0.340 N 
ATOM     14  H   UNL A   1      30.459  21.424  26.218  1.00  0.00     0.168 HD
BRANCH  13  15
ATOM     15  C   UNL A   1      32.304  21.019  25.392  1.00  0.00     0.134 A 
ATOM     16  C   UNL A   1      34.638  20.694  25.284  1.00  0.00     0.046 A 
ATOM     17  C   UNL A   1      33.573  21.495  25.654  1.00  0.00     0.071 A 
ATOM     18  N   UNL A   1      34.463  19.502  24.684  1.00  0.00    -0.238 NA
ATOM     19  C   UNL A   1      33.197  19.125  24.431  1.00  0.00     0.133 A 
ATOM     20  N   UNL A   1      32.116  19.841  24.771  1.00  0.00    -0.216 NA
BRANCH  16  21
ATOM     21  C   UNL A   1      36.054  21.111  25.592  1.00  0.00     0.053 C 
ATOM     22  C   UNL A   1      37.083  20.318  24.798  1.00  0.00     0.011 C 
ENDBRANCH  16  21
BRANCH  19  23
ATOM     23  C   UNL A   1      32.960  17.842  23.668  1.00  0.00     0.051 C 
ATOM     24  C   UNL A   1      32.390  18.139  22.281  1.00  0.00     0.016 C 
ATOM     25  C   UNL A   1      34.237  17.009  23.572  1.00  0.00     0.016 C 
ENDBRANCH  19  23
ENDBRANCH  13  15
ENDBRANCH   8  13
ENDBRANCH   4   7
ENDBRANCH   2   3
ENDBRANCH   1   2
BRANCH   1  26
ATOM     26  C   UNL A   1      33.177  30.153  25.705  1.00  0.00     0.023 C 
BRANCH  26  27
ATOM     27  C   UNL A   1      32.358  30.605  26.908  1.00  0.00     0.116 C 
BRANCH  27  28
ATOM     28  N   UNL A   1      32.317  32.052  27.060  1.00  0.00    -0.352 N 
ATOM     29  C   UNL A   1      33.250  32.877  27.646  1.00  0.00     0.251 C 
ATOM     30  H   UNL A   1      31.520  32.498  26.695  1.00  0.00     0.163 HD
ATOM     31  O   UNL A   1      33.012  34.068  27.793  1.00  0.00    -0.269 OA
BRANCH  29  32
ATOM     32  C   UNL A   1      34.517  32.293  28.135  1.00  0.00     0.039 A 
ATOM     33  C   UNL A   1      35.710  32.980  27.900  1.00  0.00     0.014 A 
ATOM     34  C   UNL A   1      34.517  31.102  28.866  1.00  0.00     0.014 A 
ATOM     35  C   UNL A   1      36.897  32.514  28.468  1.00  0.00     0.010 A 
ATOM     36  C   UNL A   1      35.689  30.672  29.481  1.00  0.00     0.010 A 
ATOM     37  C   UNL A   1      36.888  31.380  29.298  1.00  0.00    -0.014 A 
BRANCH  37  38
ATOM     38  C   UNL A   1      38.113  30.927  30.003  1.00  0.00     0.031 A 
ATOM     39  C   UNL A   1      39.036  29.937  29.347  1.00  0.00     0.074 A 
ATOM     40  C   UNL A   1      38.346  31.342  31.263  1.00  0.00     0.049 A 
ATOM     41  N   UNL A   1      40.094  29.343  29.835  1.00  0.00    -0.248 NA
ATOM     42  C   UNL A   1      38.700  29.543  27.971  1.00  0.00     0.031 C 
ATOM     43  C   UNL A   1      37.501  32.272  32.017  1.00  0.00     0.029 A 
ATOM     44  N   UNL A   1      39.353  31.026  32.140  1.00  0.00    -0.354 N 
ATOM     45  C   UNL A   1      40.543  28.490  28.832  1.00  0.00     0.074 A 
ATOM     46  C   UNL A   1      39.608  28.608  27.733  1.00  0.00     0.031 C 
ATOM     47  C   UNL A   1      38.036  32.463  33.234  1.00  0.00     0.029 A 
ATOM     48  C   UNL A   1      39.233  31.638  33.365  1.00  0.00     0.049 A 
ATOM     49  H   UNL A   1      40.093  30.417  31.914  1.00  0.00     0.167 HD
ATOM     50  C   UNL A   1      41.643  27.698  28.824  1.00  0.00     0.034 A 
ATOM     51  C   UNL A   1      39.992  31.536  34.474  1.00  0.00     0.034 A 
ATOM     52  C   UNL A   1      42.572  27.604  29.925  1.00  0.00     0.049 A 
ATOM     53  C   UNL A   1      41.192  30.626  34.453  1.00  0.00     0.074 A 
ATOM     54  C   UNL A   1      43.756  26.891  29.997  1.00  0.00     0.029 A 
ATOM     55  N   UNL A   1      42.416  28.235  31.152  1.00  0.00    -0.354 N 
ATOM     56  N   UNL A   1      41.637  29.867  33.477  1.00  0.00    -0.248 NA
ATOM     57  C   UNL A   1      41.996  30.563  35.680  1.00  0.00     0.031 C 
ATOM     58  C   UNL A   1      44.281  27.040  31.286  1.00  0.00     0.029 A 
ATOM     59  C   UNL A   1      43.462  27.901  31.998  1.00  0.00     0.049 A 
ATOM     60  H   UNL A   1      41.670  28.834  31.388  1.00  0.00     0.167 HD
ATOM     61  C   UNL A   1      42.790  29.260  33.966  1.00  0.00     0.074 A 
ATOM     62  C   UNL A   1      42.976  29.747  35.317  1.00  0.00     0.031 C 
ATOM     63  C   UNL A   1      43.625  28.385  33.350  1.00  0.00     0.034 A 
BRANCH  50  64
ATOM     64  C   UNL A   1      41.877  26.851  27.596  1.00  0.00     0.023 A 
ATOM     65  C   UNL A   1      41.519  25.492  27.556  1.00  0.00     0.031 A 
ATOM     66  C   UNL A   1      42.506  27.398  26.463  1.00  0.00     0.131 A 
ATOM     67  C   UNL A   1      41.865  24.707  26.447  1.00  0.00     0.055 A 
ATOM     68  C   UNL A   1      42.775  26.630  25.328  1.00  0.00     0.041 A 
ATOM     69  F   UNL A   1      42.889  28.684  26.448  1.00  0.00    -0.206 F 
ATOM     70  C   UNL A   1      42.471  25.272  25.322  1.00  0.00     0.022 A 
BRANCH  67  71
ATOM     71  S   UNL A   1      41.657  22.909  26.562  1.00  0.00     0.124 S 
ATOM     72  O   UNL A   1      42.201  22.466  25.280  1.00  0.00    -0.237 OA
ATOM     73  O   UNL A   1      42.446  22.575  27.742  1.00  0.00    -0.237 OA
ATOM     74  O   UNL A   1      40.212  22.740  26.708  1.00  0.00    -0.744 OA
ENDBRANCH  67  71
ENDBRANCH  50  64
BRANCH  51  75
ATOM     75  C   UNL A   1      39.642  32.302  35.703  1.00  0.00     0.023 A 
ATOM     76  C   UNL A   1      38.747  31.776  36.647  1.00  0.00     0.031 A 
ATOM     77  C   UNL A   1      40.167  33.585  35.933  1.00  0.00     0.131 A 
ATOM     78  C   UNL A   1      38.370  32.546  37.758  1.00  0.00     0.055 A 
ATOM     79  C   UNL A   1      39.824  34.330  37.064  1.00  0.00     0.041 A 
ATOM     80  F   UNL A   1      41.033  34.131  35.064  1.00  0.00    -0.206 F 
ATOM     81  C   UNL A   1      38.911  33.814  37.979  1.00  0.00     0.022 A 
BRANCH  78  82
ATOM     82  S   UNL A   1      37.102  31.890  38.877  1.00  0.00     0.124 S 
ATOM     83  O   UNL A   1      37.697  32.145  40.183  1.00  0.00    -0.237 OA
ATOM     84  O   UNL A   1      35.941  32.704  38.529  1.00  0.00    -0.237 OA
ATOM     85  O   UNL A   1      37.008  30.482  38.497  1.00  0.00    -0.744 OA
ENDBRANCH  78  82
ENDBRANCH  51  75
BRANCH  63  86
ATOM     86  C   UNL A   1      44.839  27.939  34.126  1.00  0.00     0.023 A 
ATOM     87  C   UNL A   1      44.824  26.775  34.916  1.00  0.00     0.031 A 
ATOM     88  C   UNL A   1      46.021  28.698  34.082  1.00  0.00     0.131 A 
ATOM     89  C   UNL A   1      45.957  26.430  35.668  1.00  0.00     0.055 A 
ATOM     90  C   UNL A   1      47.162  28.320  34.790  1.00  0.00     0.041 A 
ATOM     91  F   UNL A   1      46.086  29.818  33.345  1.00  0.00    -0.206 F 
ATOM     92  C   UNL A   1      47.130  27.187  35.598  1.00  0.00     0.022 A 
BRANCH  89  93
ATOM     93  S   UNL A   1      45.854  25.017  36.801  1.00  0.00     0.124 S 
ATOM     94  O   UNL A   1      44.618  25.297  37.523  1.00  0.00    -0.237 OA
ATOM     95  O   UNL A   1      45.814  23.883  35.884  1.00  0.00    -0.237 OA
ATOM     96  O   UNL A   1      47.076  25.126  37.596  1.00  0.00    -0.744 OA
ENDBRANCH  89  93
ENDBRANCH  63  86
ENDBRANCH  37  38
ENDBRANCH  29  32
ENDBRANCH  27  28
ENDBRANCH  26  27
ENDBRANCH   1  26
TORSDOF 18
ENDMDL
MODEL 3
REMARK VINA RESULT:     -11.9      2.453      8.040
REMARK SMILES CCc1cc(Nc2ccc(C(=O)NCCCCNC(=O)c3ccc(-c4c5nc(c(-c6cc(S(=O)(=O)[O-])ccc6F)c6ccc([nH]6)c(-c6cc(S(=O)(=O)[O-])ccc6F)c6nc(c(-c7cc(S(=O)(=O)[O-])ccc7F)c7ccc4[nH]7)C=C6)C=C5)cc3)cc2)nc(C(C)C)n1
REMARK SMILES IDX 15 1 14 2 13 3 11 4 12 5 10 7 7 8 8 9 85 10 9 11 84 12 6 13
REMARK SMILES IDX 5 15 3 16 4 17 91 18 87 19 86 20 2 21 1 22 88 23 89 24 90 25
REMARK SMILES IDX 16 26 17 27 18 28 19 29 20 31 21 32 22 33 83 34 23 35 82 36
REMARK SMILES IDX 24 37 25 38 26 39 76 40 27 41 81 42 75 43 77 44 28 45 80 46
REMARK SMILES IDX 74 47 73 48 29 50 61 51 41 52 60 53 42 54 45 55 59 56 78 57
REMARK SMILES IDX 43 58 44 59 58 61 79 62 46 63 30 64 31 65 39 66 32 67 38 68
REMARK SMILES IDX 40 69 37 70 33 71 34 72 35 73 36 74 62 75 63 76 71 77 64 78
REMARK SMILES IDX 70 79 72 80 69 81 65 82 66 83 67 84 68 85 47 86 48 87 56 88
REMARK SMILES IDX 49 89 55 90 57 91 54 92 50 93 51 94 52 95 53 96
REMARK H PARENT 13 6 6 14 18 30 77 49 45 60
REMARK Flexibility Score: inf
ROOT
ATOM      1  C   UNL A   1      31.121  30.073  25.009  1.00  0.00     0.023 C 
ENDROOT
BRANCH   1   2
ATOM      2  C   UNL A   1      31.131  29.294  23.690  1.00  0.00     0.116 C 
BRANCH   2   3
ATOM      3  N   UNL A   1      32.464  29.275  23.117  1.00  0.00    -0.352 N 
ATOM      4  C   UNL A   1      33.421  28.293  23.058  1.00  0.00     0.251 C 
ATOM      5  O   UNL A   1      34.470  28.538  22.462  1.00  0.00    -0.269 OA
ATOM      6  H   UNL A   1      32.731  30.121  22.691  1.00  0.00     0.163 HD
BRANCH   4   7
ATOM      7  C   UNL A   1      33.221  26.933  23.629  1.00  0.00     0.039 A 
ATOM      8  C   UNL A   1      32.629  24.353  24.597  1.00  0.00     0.040 A 
ATOM      9  C   UNL A   1      32.399  24.670  23.258  1.00  0.00     0.027 A 
ATOM     10  C   UNL A   1      33.264  25.293  25.413  1.00  0.00     0.027 A 
ATOM     11  C   UNL A   1      32.673  25.957  22.783  1.00  0.00     0.016 A 
ATOM     12  C   UNL A   1      33.574  26.567  24.928  1.00  0.00     0.016 A 
BRANCH   8  13
ATOM     13  N   UNL A   1      32.318  23.073  25.084  1.00  0.00    -0.340 N 
ATOM     14  H   UNL A   1      31.426  22.933  25.476  1.00  0.00     0.168 HD
BRANCH  13  15
ATOM     15  C   UNL A   1      33.201  21.976  25.046  1.00  0.00     0.134 A 
ATOM     16  C   UNL A   1      35.390  21.098  25.016  1.00  0.00     0.046 A 
ATOM     17  C   UNL A   1      34.561  22.200  25.121  1.00  0.00     0.071 A 
ATOM     18  N   UNL A   1      34.908  19.853  24.839  1.00  0.00    -0.238 NA
ATOM     19  C   UNL A   1      33.573  19.723  24.739  1.00  0.00     0.133 A 
ATOM     20  N   UNL A   1      32.707  20.742  24.844  1.00  0.00    -0.216 NA
BRANCH  16  21
ATOM     21  C   UNL A   1      36.884  21.247  25.152  1.00  0.00     0.053 C 
ATOM     22  C   UNL A   1      37.636  19.982  24.762  1.00  0.00     0.011 C 
ENDBRANCH  16  21
BRANCH  19  23
ATOM     23  C   UNL A   1      32.997  18.358  24.438  1.00  0.00     0.051 C 
ATOM     24  C   UNL A   1      33.967  17.544  23.581  1.00  0.00     0.016 C 
ATOM     25  C   UNL A   1      32.637  17.612  25.721  1.00  0.00     0.016 C 
ENDBRANCH  19  23
ENDBRANCH  13  15
ENDBRANCH   8  13
ENDBRANCH   4   7
ENDBRANCH   2   3
ENDBRANCH   1   2
BRANCH   1  26
ATOM     26  C   UNL A   1      31.621  29.272  26.214  1.00  0.00     0.023 C 
BRANCH  26  27
ATOM     27  C   UNL A   1      32.924  29.774  26.825  1.00  0.00     0.116 C 
BRANCH  27  28
ATOM     28  N   UNL A   1      32.927  31.210  27.060  1.00  0.00    -0.352 N 
ATOM     29  C   UNL A   1      33.891  31.974  27.677  1.00  0.00     0.251 C 
ATOM     30  H   UNL A   1      32.137  31.699  26.736  1.00  0.00     0.163 HD
ATOM     31  O   UNL A   1      33.689  33.161  27.897  1.00  0.00    -0.269 OA
BRANCH  29  32
ATOM     32  C   UNL A   1      35.149  31.329  28.110  1.00  0.00     0.039 A 
ATOM     33  C   UNL A   1      36.331  32.073  28.086  1.00  0.00     0.014 A 
ATOM     34  C   UNL A   1      35.148  30.014  28.584  1.00  0.00     0.014 A 
ATOM     35  C   UNL A   1      37.501  31.525  28.615  1.00  0.00     0.010 A 
ATOM     36  C   UNL A   1      36.300  29.493  29.166  1.00  0.00     0.010 A 
ATOM     37  C   UNL A   1      37.484  30.247  29.198  1.00  0.00    -0.014 A 
BRANCH  37  38
ATOM     38  C   UNL A   1      38.685  29.685  29.865  1.00  0.00     0.031 A 
ATOM     39  C   UNL A   1      39.099  30.189  31.220  1.00  0.00     0.074 A 
ATOM     40  C   UNL A   1      39.447  28.785  29.213  1.00  0.00     0.049 A 
ATOM     41  N   UNL A   1      40.166  29.903  31.919  1.00  0.00    -0.248 NA
ATOM     42  C   UNL A   1      38.205  31.170  31.853  1.00  0.00     0.031 C 
ATOM     43  C   UNL A   1      39.167  28.249  27.878  1.00  0.00     0.029 A 
ATOM     44  N   UNL A   1      40.619  28.172  29.575  1.00  0.00    -0.354 N 
ATOM     45  C   UNL A   1      40.082  30.681  33.070  1.00  0.00     0.074 A 
ATOM     46  C   UNL A   1      38.888  31.488  32.942  1.00  0.00     0.031 C 
ATOM     47  C   UNL A   1      40.131  27.376  27.544  1.00  0.00     0.029 A 
ATOM     48  C   UNL A   1      41.119  27.322  28.617  1.00  0.00     0.049 A 
ATOM     49  H   UNL A   1      41.062  28.325  30.441  1.00  0.00     0.167 HD
ATOM     50  C   UNL A   1      40.917  30.703  34.138  1.00  0.00     0.034 A 
ATOM     51  C   UNL A   1      42.252  26.593  28.598  1.00  0.00     0.034 A 
ATOM     52  C   UNL A   1      42.097  29.880  34.253  1.00  0.00     0.049 A 
ATOM     53  C   UNL A   1      43.179  26.657  29.783  1.00  0.00     0.074 A 
ATOM     54  C   UNL A   1      42.971  29.769  35.320  1.00  0.00     0.029 A 
ATOM     55  N   UNL A   1      42.575  29.034  33.260  1.00  0.00    -0.354 N 
ATOM     56  N   UNL A   1      43.060  27.356  30.889  1.00  0.00    -0.248 NA
ATOM     57  C   UNL A   1      44.392  25.831  29.720  1.00  0.00     0.031 C 
ATOM     58  C   UNL A   1      44.009  28.906  34.949  1.00  0.00     0.029 A 
ATOM     59  C   UNL A   1      43.748  28.425  33.676  1.00  0.00     0.049 A 
ATOM     60  H   UNL A   1      42.142  28.888  32.387  1.00  0.00     0.167 HD
ATOM     61  C   UNL A   1      44.167  27.028  31.665  1.00  0.00     0.074 A 
ATOM     62  C   UNL A   1      44.937  26.065  30.905  1.00  0.00     0.031 C 
ATOM     63  C   UNL A   1      44.513  27.477  32.899  1.00  0.00     0.034 A 
BRANCH  50  64
ATOM     64  C   UNL A   1      40.591  31.673  35.249  1.00  0.00     0.023 A 
ATOM     65  C   UNL A   1      39.590  31.400  36.199  1.00  0.00     0.031 A 
ATOM     66  C   UNL A   1      41.260  32.907  35.336  1.00  0.00     0.131 A 
ATOM     67  C   UNL A   1      39.229  32.376  37.138  1.00  0.00     0.055 A 
ATOM     68  C   UNL A   1      40.952  33.843  36.326  1.00  0.00     0.041 A 
ATOM     69  F   UNL A   1      42.211  33.233  34.448  1.00  0.00    -0.206 F 
ATOM     70  C   UNL A   1      39.919  33.588  37.223  1.00  0.00     0.022 A 
BRANCH  67  71
ATOM     71  S   UNL A   1      37.742  32.103  38.140  1.00  0.00     0.124 S 
ATOM     72  O   UNL A   1      38.255  32.313  39.492  1.00  0.00    -0.237 OA
ATOM     73  O   UNL A   1      36.831  33.124  37.636  1.00  0.00    -0.237 OA
ATOM     74  O   UNL A   1      37.369  30.724  37.830  1.00  0.00    -0.744 OA
ENDBRANCH  67  71
ENDBRANCH  50  64
BRANCH  51  75
ATOM     75  C   UNL A   1      42.586  25.746  27.418  1.00  0.00     0.023 A 
ATOM     76  C   UNL A   1      42.155  24.411  27.348  1.00  0.00     0.031 A 
ATOM     77  C   UNL A   1      43.370  26.244  26.364  1.00  0.00     0.131 A 
ATOM     78  C   UNL A   1      42.546  23.607  26.267  1.00  0.00     0.055 A 
ATOM     79  C   UNL A   1      43.718  25.453  25.267  1.00  0.00     0.041 A 
ATOM     80  F   UNL A   1      43.800  27.516  26.381  1.00  0.00    -0.206 F 
ATOM     81  C   UNL A   1      43.315  24.122  25.220  1.00  0.00     0.022 A 
BRANCH  78  82
ATOM     82  S   UNL A   1      42.093  21.851  26.283  1.00  0.00     0.124 S 
ATOM     83  O   UNL A   1      42.450  21.464  27.642  1.00  0.00    -0.237 OA
ATOM     84  O   UNL A   1      40.665  21.904  25.984  1.00  0.00    -0.237 OA
ATOM     85  O   UNL A   1      42.926  21.275  25.230  1.00  0.00    -0.744 OA
ENDBRANCH  78  82
ENDBRANCH  51  75
BRANCH  63  86
ATOM     86  C   UNL A   1      45.758  26.889  33.514  1.00  0.00     0.023 A 
ATOM     87  C   UNL A   1      45.731  25.674  34.220  1.00  0.00     0.031 A 
ATOM     88  C   UNL A   1      46.986  27.565  33.400  1.00  0.00     0.131 A 
ATOM     89  C   UNL A   1      46.902  25.194  34.826  1.00  0.00     0.055 A 
ATOM     90  C   UNL A   1      48.158  27.056  33.960  1.00  0.00     0.041 A 
ATOM     91  F   UNL A   1      47.066  28.730  32.738  1.00  0.00    -0.206 F 
ATOM     92  C   UNL A   1      48.118  25.870  34.688  1.00  0.00     0.022 A 
BRANCH  89  93
ATOM     93  S   UNL A   1      46.801  23.711  35.865  1.00  0.00     0.124 S 
ATOM     94  O   UNL A   1      45.399  23.716  36.266  1.00  0.00    -0.237 OA
ATOM     95  O   UNL A   1      47.195  22.653  34.940  1.00  0.00    -0.237 OA
ATOM     96  O   UNL A   1      47.755  23.979  36.939  1.00  0.00    -0.744 OA
ENDBRANCH  89  93
ENDBRANCH  63  86
ENDBRANCH  37  38
ENDBRANCH  29  32
ENDBRANCH  27  28
ENDBRANCH  26  27
ENDBRANCH   1  26
TORSDOF 18
ENDMDL
