MODEL 1
REMARK VINA RESULT:     -12.9      0.000      0.000
REMARK SMILES O=C(NCCCCNC(=O)c1ccc2nc(-c3c[nH]nc3-c3ccc(F)cc3F)[nH]c2c1)c1ccc(-c2c3nc(c(-c4cc(S(=O)(=O)[O-])ccc4F)c4ccc([nH]4)c(-c4cc(S(=O)(=O)[O-])ccc4F)c4nc(c(-c5cc(S(=O)(=O)[O-])ccc5F)c5ccc2[nH]5)C=C4)C=C3)cc1
REMARK SMILES IDX 5 1 4 2 3 3 1 4 2 5 33 7 34 8 95 9 35 10 94 11 36 12 37 13
REMARK SMILES IDX 38 14 88 15 39 16 93 17 87 18 89 19 40 20 92 21 86 22 85 23
REMARK SMILES IDX 41 25 73 26 53 27 72 28 54 29 57 30 71 31 90 32 55 33 56 34
REMARK SMILES IDX 70 36 91 37 58 38 42 39 43 40 51 41 44 42 50 43 52 44 49 45
REMARK SMILES IDX 45 46 46 47 47 48 48 49 74 50 75 51 83 52 76 53 82 54 84 55
REMARK SMILES IDX 81 56 77 57 78 58 79 59 80 60 59 61 60 62 68 63 61 64 67 65
REMARK SMILES IDX 69 66 66 67 62 68 63 69 64 70 65 71 6 72 7 73 8 74 9 75
REMARK SMILES IDX 10 77 11 78 12 79 32 80 13 81 31 82 14 83 30 84 15 85 16 86
REMARK SMILES IDX 17 88 18 89 21 90 19 91 20 92 22 94 23 95 28 96 24 97 27 98
REMARK SMILES IDX 29 99 25 100 26 101
REMARK H PARENT 3 6 89 24 57 35 8 76 30 87 19 93
REMARK Flexibility Score: inf
ROOT
ATOM      1  C   UNL A   1      31.577  31.413  26.406  1.00  0.00     0.023 C 
ENDROOT
BRANCH   1   2
ATOM      2  C   UNL A   1      32.826  32.013  27.042  1.00  0.00     0.116 C 
BRANCH   2   3
ATOM      3  N   UNL A   1      32.633  33.390  27.470  1.00  0.00    -0.352 N 
ATOM      4  O   UNL A   1      32.893  35.219  28.754  1.00  0.00    -0.269 OA
ATOM      5  C   UNL A   1      33.298  34.104  28.436  1.00  0.00     0.251 C 
ATOM      6  H   UNL A   1      31.923  33.881  26.997  1.00  0.00     0.163 HD
BRANCH   5   7
ATOM      7  C   UNL A   1      34.480  33.523  29.106  1.00  0.00     0.039 A 
ATOM      8  C   UNL A   1      34.344  32.492  30.041  1.00  0.00     0.014 A 
ATOM      9  C   UNL A   1      35.746  34.015  28.781  1.00  0.00     0.014 A 
ATOM     10  C   UNL A   1      35.462  32.036  30.737  1.00  0.00     0.010 A 
ATOM     11  C   UNL A   1      36.872  33.512  29.435  1.00  0.00     0.010 A 
ATOM     12  C   UNL A   1      36.737  32.538  30.437  1.00  0.00    -0.014 A 
BRANCH  12  13
ATOM     13  C   UNL A   1      37.933  32.029  31.152  1.00  0.00     0.031 A 
ATOM     14  C   UNL A   1      38.778  30.944  30.547  1.00  0.00     0.074 A 
ATOM     15  C   UNL A   1      38.234  32.523  32.368  1.00  0.00     0.049 A 
ATOM     16  N   UNL A   1      39.791  30.296  31.063  1.00  0.00    -0.248 NA
ATOM     17  C   UNL A   1      38.425  30.525  29.183  1.00  0.00     0.031 C 
ATOM     18  C   UNL A   1      37.488  33.579  33.054  1.00  0.00     0.029 A 
ATOM     19  N   UNL A   1      39.231  32.193  33.249  1.00  0.00    -0.354 N 
ATOM     20  C   UNL A   1      40.185  29.375  30.098  1.00  0.00     0.074 A 
ATOM     21  C   UNL A   1      39.277  29.531  28.980  1.00  0.00     0.031 C 
ATOM     22  C   UNL A   1      38.050  33.807  34.249  1.00  0.00     0.029 A 
ATOM     23  C   UNL A   1      39.154  32.873  34.441  1.00  0.00     0.049 A 
ATOM     24  H   UNL A   1      39.933  31.532  33.047  1.00  0.00     0.167 HD
ATOM     25  C   UNL A   1      41.213  28.489  30.143  1.00  0.00     0.034 A 
ATOM     26  C   UNL A   1      39.861  32.732  35.578  1.00  0.00     0.034 A 
ATOM     27  C   UNL A   1      42.102  28.349  31.273  1.00  0.00     0.049 A 
ATOM     28  C   UNL A   1      40.959  31.707  35.633  1.00  0.00     0.074 A 
ATOM     29  C   UNL A   1      43.198  27.515  31.414  1.00  0.00     0.029 A 
ATOM     30  N   UNL A   1      41.985  29.050  32.468  1.00  0.00    -0.354 N 
ATOM     31  N   UNL A   1      41.335  30.854  34.709  1.00  0.00    -0.248 NA
ATOM     32  C   UNL A   1      41.731  31.628  36.879  1.00  0.00     0.031 C 
ATOM     33  C   UNL A   1      43.700  27.661  32.712  1.00  0.00     0.029 A 
ATOM     34  C   UNL A   1      42.967  28.643  33.361  1.00  0.00     0.049 A 
ATOM     35  H   UNL A   1      41.304  29.736  32.655  1.00  0.00     0.167 HD
ATOM     36  C   UNL A   1      42.405  30.152  35.253  1.00  0.00     0.074 A 
ATOM     37  C   UNL A   1      42.614  30.683  36.586  1.00  0.00     0.031 C 
ATOM     38  C   UNL A   1      43.155  29.169  34.693  1.00  0.00     0.034 A 
BRANCH  25  39
ATOM     39  C   UNL A   1      41.386  27.570  28.955  1.00  0.00     0.023 A 
ATOM     40  C   UNL A   1      42.385  27.789  27.988  1.00  0.00     0.031 A 
ATOM     41  C   UNL A   1      40.506  26.492  28.755  1.00  0.00     0.131 A 
ATOM     42  C   UNL A   1      42.420  27.003  26.825  1.00  0.00     0.055 A 
ATOM     43  C   UNL A   1      40.601  25.658  27.638  1.00  0.00     0.041 A 
ATOM     44  F   UNL A   1      39.520  26.243  29.631  1.00  0.00    -0.206 F 
ATOM     45  C   UNL A   1      41.549  25.924  26.655  1.00  0.00     0.022 A 
BRANCH  42  46
ATOM     46  S   UNL A   1      43.496  27.524  25.461  1.00  0.00     0.124 S 
ATOM     47  O   UNL A   1      44.216  28.646  26.062  1.00  0.00    -0.237 OA
ATOM     48  O   UNL A   1      44.284  26.325  25.205  1.00  0.00    -0.237 OA
ATOM     49  O   UNL A   1      42.557  27.895  24.404  1.00  0.00    -0.744 OA
ENDBRANCH  42  46
ENDBRANCH  25  39
BRANCH  26  50
ATOM     50  C   UNL A   1      39.504  33.555  36.765  1.00  0.00     0.023 A 
ATOM     51  C   UNL A   1      38.778  33.013  37.836  1.00  0.00     0.031 A 
ATOM     52  C   UNL A   1      39.922  34.896  36.855  1.00  0.00     0.131 A 
ATOM     53  C   UNL A   1      38.477  33.816  38.947  1.00  0.00     0.055 A 
ATOM     54  C   UNL A   1      39.654  35.677  37.979  1.00  0.00     0.041 A 
ATOM     55  F   UNL A   1      40.630  35.453  35.860  1.00  0.00    -0.206 F 
ATOM     56  C   UNL A   1      38.921  35.138  39.032  1.00  0.00     0.022 A 
BRANCH  53  57
ATOM     57  S   UNL A   1      37.465  33.113  40.277  1.00  0.00     0.124 S 
ATOM     58  O   UNL A   1      36.233  32.780  39.570  1.00  0.00    -0.237 OA
ATOM     59  O   UNL A   1      38.279  31.984  40.715  1.00  0.00    -0.237 OA
ATOM     60  O   UNL A   1      37.358  34.209  41.238  1.00  0.00    -0.744 OA
ENDBRANCH  53  57
ENDBRANCH  26  50
BRANCH  38  61
ATOM     61  C   UNL A   1      44.310  28.641  35.504  1.00  0.00     0.023 A 
ATOM     62  C   UNL A   1      44.154  27.587  36.422  1.00  0.00     0.031 A 
ATOM     63  C   UNL A   1      45.592  29.195  35.339  1.00  0.00     0.131 A 
ATOM     64  C   UNL A   1      45.259  27.143  37.165  1.00  0.00     0.055 A 
ATOM     65  C   UNL A   1      46.695  28.718  36.045  1.00  0.00     0.041 A 
ATOM     66  F   UNL A   1      45.792  30.205  34.477  1.00  0.00    -0.206 F 
ATOM     67  C   UNL A   1      46.531  27.690  36.970  1.00  0.00     0.022 A 
BRANCH  64  68
ATOM     68  S   UNL A   1      45.009  25.866  38.430  1.00  0.00     0.124 S 
ATOM     69  O   UNL A   1      44.257  24.855  37.693  1.00  0.00    -0.237 OA
ATOM     70  O   UNL A   1      46.376  25.508  38.790  1.00  0.00    -0.237 OA
ATOM     71  O   UNL A   1      44.257  26.560  39.474  1.00  0.00    -0.744 OA
ENDBRANCH  64  68
ENDBRANCH  38  61
ENDBRANCH  12  13
ENDBRANCH   5   7
ENDBRANCH   2   3
ENDBRANCH   1   2
BRANCH   1  72
ATOM     72  C   UNL A   1      31.630  29.907  26.144  1.00  0.00     0.023 C 
BRANCH  72  73
ATOM     73  C   UNL A   1      32.353  29.499  24.862  1.00  0.00     0.116 C 
BRANCH  73  74
ATOM     74  N   UNL A   1      31.483  29.557  23.701  1.00  0.00    -0.352 N 
ATOM     75  C   UNL A   1      30.843  28.529  23.063  1.00  0.00     0.251 C 
ATOM     76  H   UNL A   1      31.335  30.454  23.322  1.00  0.00     0.163 HD
ATOM     77  O   UNL A   1      30.243  28.702  22.008  1.00  0.00    -0.269 OA
BRANCH  75  78
ATOM     78  C   UNL A   1      30.885  27.184  23.658  1.00  0.00     0.042 A 
ATOM     79  C   UNL A   1      29.958  26.835  24.649  1.00  0.00     0.016 A 
ATOM     80  C   UNL A   1      31.855  26.287  23.188  1.00  0.00     0.042 A 
ATOM     81  C   UNL A   1      29.976  25.553  25.207  1.00  0.00     0.031 A 
ATOM     82  C   UNL A   1      31.859  25.028  23.787  1.00  0.00     0.067 A 
ATOM     83  C   UNL A   1      30.933  24.636  24.748  1.00  0.00     0.089 A 
ATOM     84  N   UNL A   1      32.673  23.934  23.639  1.00  0.00    -0.338 N 
ATOM     85  N   UNL A   1      31.117  23.324  25.092  1.00  0.00    -0.228 NA
ATOM     86  C   UNL A   1      32.176  22.923  24.421  1.00  0.00     0.142 A 
ATOM     87  H   UNL A   1      33.474  23.883  23.069  1.00  0.00     0.168 HD
BRANCH  86  88
ATOM     88  C   UNL A   1      32.730  21.554  24.499  1.00  0.00     0.063 A 
ATOM     89  C   UNL A   1      32.018  20.381  24.435  1.00  0.00     0.117 A 
ATOM     90  C   UNL A   1      34.092  21.172  24.661  1.00  0.00     0.106 A 
ATOM     91  N   UNL A   1      32.955  19.390  24.474  1.00  0.00    -0.284 N 
ATOM     92  N   UNL A   1      34.207  19.832  24.658  1.00  0.00    -0.175 NA
ATOM     93  H   UNL A   1      32.730  18.436  24.376  1.00  0.00     0.189 HD
BRANCH  90  94
ATOM     94  C   UNL A   1      35.230  22.031  24.963  1.00  0.00     0.039 A 
ATOM     95  C   UNL A   1      36.257  22.171  24.011  1.00  0.00     0.016 A 
ATOM     96  C   UNL A   1      35.329  22.725  26.171  1.00  0.00     0.135 A 
ATOM     97  C   UNL A   1      37.359  22.986  24.275  1.00  0.00     0.040 A 
ATOM     98  C   UNL A   1      36.426  23.542  26.437  1.00  0.00     0.079 A 
ATOM     99  F   UNL A   1      34.381  22.609  27.113  1.00  0.00    -0.206 F 
ATOM    100  C   UNL A   1      37.431  23.664  25.486  1.00  0.00     0.126 A 
ATOM    101  F   UNL A   1      38.486  24.449  25.737  1.00  0.00    -0.207 F 
ENDBRANCH  90  94
ENDBRANCH  86  88
ENDBRANCH  75  78
ENDBRANCH  73  74
ENDBRANCH  72  73
ENDBRANCH   1  72
TORSDOF 16
ENDMDL
MODEL 2
REMARK VINA RESULT:     -12.8      2.377      2.944
REMARK SMILES O=C(NCCCCNC(=O)c1ccc2nc(-c3c[nH]nc3-c3ccc(F)cc3F)[nH]c2c1)c1ccc(-c2c3nc(c(-c4cc(S(=O)(=O)[O-])ccc4F)c4ccc([nH]4)c(-c4cc(S(=O)(=O)[O-])ccc4F)c4nc(c(-c5cc(S(=O)(=O)[O-])ccc5F)c5ccc2[nH]5)C=C4)C=C3)cc1
REMARK SMILES IDX 5 1 4 2 3 3 1 4 2 5 33 7 34 8 95 9 35 10 94 11 36 12 37 13
REMARK SMILES IDX 38 14 88 15 39 16 93 17 87 18 89 19 40 20 92 21 86 22 85 23
REMARK SMILES IDX 41 25 73 26 53 27 72 28 54 29 57 30 71 31 90 32 55 33 56 34
REMARK SMILES IDX 70 36 91 37 58 38 42 39 43 40 51 41 44 42 50 43 52 44 49 45
REMARK SMILES IDX 45 46 46 47 47 48 48 49 74 50 75 51 83 52 76 53 82 54 84 55
REMARK SMILES IDX 81 56 77 57 78 58 79 59 80 60 59 61 60 62 68 63 61 64 67 65
REMARK SMILES IDX 69 66 66 67 62 68 63 69 64 70 65 71 6 72 7 73 8 74 9 75
REMARK SMILES IDX 10 77 11 78 12 79 32 80 13 81 31 82 14 83 30 84 15 85 16 86
REMARK SMILES IDX 17 88 18 89 21 90 19 91 20 92 22 94 23 95 28 96 24 97 27 98
REMARK SMILES IDX 29 99 25 100 26 101
REMARK H PARENT 3 6 89 24 57 35 8 76 30 87 19 93
REMARK Flexibility Score: inf
ROOT
ATOM      1  C   UNL A   1      33.241  28.432  24.022  1.00  0.00     0.023 C 
ENDROOT
BRANCH   1   2
ATOM      2  C   UNL A   1      33.830  29.011  25.304  1.00  0.00     0.116 C 
BRANCH   2   3
ATOM      3  N   UNL A   1      33.101  30.176  25.780  1.00  0.00    -0.352 N 
ATOM      4  O   UNL A   1      32.534  31.834  27.192  1.00  0.00    -0.269 OA
ATOM      5  C   UNL A   1      33.351  30.976  26.868  1.00  0.00     0.251 C 
ATOM      6  H   UNL A   1      32.315  30.428  25.245  1.00  0.00     0.163 HD
BRANCH   5   7
ATOM      7  C   UNL A   1      34.585  30.788  27.659  1.00  0.00     0.039 A 
ATOM      8  C   UNL A   1      35.573  31.777  27.700  1.00  0.00     0.014 A 
ATOM      9  C   UNL A   1      34.747  29.603  28.381  1.00  0.00     0.014 A 
ATOM     10  C   UNL A   1      36.772  31.532  28.364  1.00  0.00     0.010 A 
ATOM     11  C   UNL A   1      35.924  29.385  29.099  1.00  0.00     0.010 A 
ATOM     12  C   UNL A   1      36.957  30.336  29.074  1.00  0.00    -0.014 A 
BRANCH  12  13
ATOM     13  C   UNL A   1      38.220  30.086  29.812  1.00  0.00     0.031 A 
ATOM     14  C   UNL A   1      39.240  29.122  29.275  1.00  0.00     0.074 A 
ATOM     15  C   UNL A   1      38.427  30.705  30.990  1.00  0.00     0.049 A 
ATOM     16  N   UNL A   1      40.346  28.692  29.825  1.00  0.00    -0.248 NA
ATOM     17  C   UNL A   1      38.969  28.559  27.945  1.00  0.00     0.031 C 
ATOM     18  C   UNL A   1      37.509  31.662  31.610  1.00  0.00     0.029 A 
ATOM     19  N   UNL A   1      39.463  30.608  31.884  1.00  0.00    -0.354 N 
ATOM     20  C   UNL A   1      40.895  27.789  28.922  1.00  0.00     0.074 A 
ATOM     21  C   UNL A   1      39.978  27.713  27.803  1.00  0.00     0.031 C 
ATOM     22  C   UNL A   1      38.020  32.061  32.784  1.00  0.00     0.029 A 
ATOM     23  C   UNL A   1      39.266  31.344  33.028  1.00  0.00     0.049 A 
ATOM     24  H   UNL A   1      40.267  30.064  31.722  1.00  0.00     0.167 HD
ATOM     25  C   UNL A   1      42.059  27.096  29.018  1.00  0.00     0.034 A 
ATOM     26  C   UNL A   1      39.982  31.402  34.168  1.00  0.00     0.034 A 
ATOM     27  C   UNL A   1      42.954  27.185  30.149  1.00  0.00     0.049 A 
ATOM     28  C   UNL A   1      41.238  30.585  34.282  1.00  0.00     0.074 A 
ATOM     29  C   UNL A   1      44.175  26.562  30.336  1.00  0.00     0.029 A 
ATOM     30  N   UNL A   1      42.714  27.935  31.295  1.00  0.00    -0.354 N 
ATOM     31  N   UNL A   1      41.758  29.748  33.415  1.00  0.00    -0.248 NA
ATOM     32  C   UNL A   1      42.008  30.722  35.525  1.00  0.00     0.031 C 
ATOM     33  C   UNL A   1      44.640  26.878  31.618  1.00  0.00     0.029 A 
ATOM     34  C   UNL A   1      43.747  27.761  32.206  1.00  0.00     0.049 A 
ATOM     35  H   UNL A   1      41.926  28.506  31.441  1.00  0.00     0.167 HD
ATOM     36  C   UNL A   1      42.929  29.276  33.997  1.00  0.00     0.074 A 
ATOM     37  C   UNL A   1      43.039  29.923  35.290  1.00  0.00     0.031 C 
ATOM     38  C   UNL A   1      43.837  28.400  33.498  1.00  0.00     0.034 A 
BRANCH  25  39
ATOM     39  C   UNL A   1      42.390  26.143  27.893  1.00  0.00     0.023 A 
ATOM     40  C   UNL A   1      41.839  24.850  27.829  1.00  0.00     0.031 A 
ATOM     41  C   UNL A   1      43.315  26.510  26.898  1.00  0.00     0.131 A 
ATOM     42  C   UNL A   1      42.284  23.944  26.853  1.00  0.00     0.055 A 
ATOM     43  C   UNL A   1      43.687  25.633  25.876  1.00  0.00     0.041 A 
ATOM     44  F   UNL A   1      43.890  27.722  26.914  1.00  0.00    -0.206 F 
ATOM     45  C   UNL A   1      43.187  24.335  25.862  1.00  0.00     0.022 A 
BRANCH  42  46
ATOM     46  S   UNL A   1      41.805  22.202  27.009  1.00  0.00     0.124 S 
ATOM     47  O   UNL A   1      42.718  21.733  28.050  1.00  0.00    -0.237 OA
ATOM     48  O   UNL A   1      40.400  22.293  27.386  1.00  0.00    -0.237 OA
ATOM     49  O   UNL A   1      42.063  21.654  25.678  1.00  0.00    -0.744 OA
ENDBRANCH  42  46
ENDBRANCH  25  39
BRANCH  26  50
ATOM     50  C   UNL A   1      39.485  32.230  35.300  1.00  0.00     0.023 A 
ATOM     51  C   UNL A   1      39.922  33.550  35.484  1.00  0.00     0.031 A 
ATOM     52  C   UNL A   1      38.532  31.712  36.197  1.00  0.00     0.131 A 
ATOM     53  C   UNL A   1      39.417  34.305  36.554  1.00  0.00     0.055 A 
ATOM     54  C   UNL A   1      38.004  32.481  37.234  1.00  0.00     0.041 A 
ATOM     55  F   UNL A   1      38.076  30.458  36.052  1.00  0.00    -0.206 F 
ATOM     56  C   UNL A   1      38.451  33.785  37.420  1.00  0.00     0.022 A 
BRANCH  53  57
ATOM     57  S   UNL A   1      40.063  35.978  36.817  1.00  0.00     0.124 S 
ATOM     58  O   UNL A   1      39.706  36.635  35.564  1.00  0.00    -0.237 OA
ATOM     59  O   UNL A   1      39.324  36.408  37.999  1.00  0.00    -0.237 OA
ATOM     60  O   UNL A   1      41.493  35.761  37.024  1.00  0.00    -0.744 OA
ENDBRANCH  53  57
ENDBRANCH  26  50
BRANCH  38  61
ATOM     61  C   UNL A   1      45.062  28.131  34.334  1.00  0.00     0.023 A 
ATOM     62  C   UNL A   1      45.102  27.097  35.286  1.00  0.00     0.031 A 
ATOM     63  C   UNL A   1      46.215  28.918  34.160  1.00  0.00     0.131 A 
ATOM     64  C   UNL A   1      46.262  26.899  36.050  1.00  0.00     0.055 A 
ATOM     65  C   UNL A   1      47.381  28.687  34.888  1.00  0.00     0.041 A 
ATOM     66  F   UNL A   1      46.227  29.920  33.265  1.00  0.00    -0.206 F 
ATOM     67  C   UNL A   1      47.406  27.676  35.845  1.00  0.00     0.022 A 
BRANCH  64  68
ATOM     68  S   UNL A   1      46.247  25.638  37.355  1.00  0.00     0.124 S 
ATOM     69  O   UNL A   1      44.849  25.221  37.355  1.00  0.00    -0.237 OA
ATOM     70  O   UNL A   1      47.205  24.658  36.856  1.00  0.00    -0.237 OA
ATOM     71  O   UNL A   1      46.676  26.371  38.545  1.00  0.00    -0.744 OA
ENDBRANCH  64  68
ENDBRANCH  38  61
ENDBRANCH  12  13
ENDBRANCH   5   7
ENDBRANCH   2   3
ENDBRANCH   1   2
BRANCH   1  72
ATOM     72  C   UNL A   1      31.892  29.014  23.595  1.00  0.00     0.023 C 
BRANCH  72  73
ATOM     73  C   UNL A   1      31.116  28.173  22.584  1.00  0.00     0.116 C 
BRANCH  73  74
ATOM     74  N   UNL A   1      29.708  28.068  22.926  1.00  0.00    -0.352 N 
ATOM     75  C   UNL A   1      29.070  27.070  23.612  1.00  0.00     0.251 C 
ATOM     76  H   UNL A   1      29.138  28.812  22.624  1.00  0.00     0.163 HD
ATOM     77  O   UNL A   1      27.848  27.041  23.715  1.00  0.00    -0.269 OA
BRANCH  75  78
ATOM     78  C   UNL A   1      29.872  26.003  24.231  1.00  0.00     0.042 A 
ATOM     79  C   UNL A   1      30.204  26.086  25.590  1.00  0.00     0.016 A 
ATOM     80  C   UNL A   1      30.264  24.924  23.428  1.00  0.00     0.042 A 
ATOM     81  C   UNL A   1      30.948  25.068  26.194  1.00  0.00     0.031 A 
ATOM     82  C   UNL A   1      31.028  23.943  24.058  1.00  0.00     0.067 A 
ATOM     83  C   UNL A   1      31.346  23.974  25.412  1.00  0.00     0.089 A 
ATOM     84  N   UNL A   1      31.629  22.799  23.599  1.00  0.00    -0.338 N 
ATOM     85  N   UNL A   1      32.024  22.844  25.778  1.00  0.00    -0.228 NA
ATOM     86  C   UNL A   1      32.194  22.154  24.669  1.00  0.00     0.142 A 
ATOM     87  H   UNL A   1      31.651  22.492  22.664  1.00  0.00     0.168 HD
BRANCH  86  88
ATOM     88  C   UNL A   1      32.888  20.849  24.610  1.00  0.00     0.063 A 
ATOM     89  C   UNL A   1      32.294  19.611  24.559  1.00  0.00     0.117 A 
ATOM     90  C   UNL A   1      34.290  20.607  24.600  1.00  0.00     0.106 A 
ATOM     91  N   UNL A   1      33.324  18.724  24.440  1.00  0.00    -0.284 N 
ATOM     92  N   UNL A   1      34.539  19.288  24.510  1.00  0.00    -0.175 NA
ATOM     93  H   UNL A   1      33.187  17.757  24.314  1.00  0.00     0.189 HD
BRANCH  90  94
ATOM     94  C   UNL A   1      35.364  21.567  24.822  1.00  0.00     0.039 A 
ATOM     95  C   UNL A   1      36.146  21.468  25.988  1.00  0.00     0.016 A 
ATOM     96  C   UNL A   1      35.645  22.582  23.905  1.00  0.00     0.135 A 
ATOM     97  C   UNL A   1      37.179  22.376  26.226  1.00  0.00     0.040 A 
ATOM     98  C   UNL A   1      36.678  23.489  24.137  1.00  0.00     0.079 A 
ATOM     99  F   UNL A   1      34.917  22.724  22.787  1.00  0.00    -0.206 F 
ATOM    100  C   UNL A   1      37.435  23.376  25.296  1.00  0.00     0.126 A 
ATOM    101  F   UNL A   1      38.430  24.243  25.522  1.00  0.00    -0.207 F 
ENDBRANCH  90  94
ENDBRANCH  86  88
ENDBRANCH  75  78
ENDBRANCH  73  74
ENDBRANCH  72  73
ENDBRANCH   1  72
TORSDOF 16
ENDMDL
MODEL 3
REMARK VINA RESULT:     -12.8      3.127      8.130
REMARK SMILES O=C(NCCCCNC(=O)c1ccc2nc(-c3c[nH]nc3-c3ccc(F)cc3F)[nH]c2c1)c1ccc(-c2c3nc(c(-c4cc(S(=O)(=O)[O-])ccc4F)c4ccc([nH]4)c(-c4cc(S(=O)(=O)[O-])ccc4F)c4nc(c(-c5cc(S(=O)(=O)[O-])ccc5F)c5ccc2[nH]5)C=C4)C=C3)cc1
REMARK SMILES IDX 5 1 4 2 3 3 1 4 2 5 33 7 34 8 95 9 35 10 94 11 36 12 37 13
REMARK SMILES IDX 38 14 88 15 39 16 93 17 87 18 89 19 40 20 92 21 86 22 85 23
REMARK SMILES IDX 41 25 73 26 53 27 72 28 54 29 57 30 71 31 90 32 55 33 56 34
REMARK SMILES IDX 70 36 91 37 58 38 42 39 43 40 51 41 44 42 50 43 52 44 49 45
REMARK SMILES IDX 45 46 46 47 47 48 48 49 74 50 75 51 83 52 76 53 82 54 84 55
REMARK SMILES IDX 81 56 77 57 78 58 79 59 80 60 59 61 60 62 68 63 61 64 67 65
REMARK SMILES IDX 69 66 66 67 62 68 63 69 64 70 65 71 6 72 7 73 8 74 9 75
REMARK SMILES IDX 10 77 11 78 12 79 32 80 13 81 31 82 14 83 30 84 15 85 16 86
REMARK SMILES IDX 17 88 18 89 21 90 19 91 20 92 22 94 23 95 28 96 24 97 27 98
REMARK SMILES IDX 29 99 25 100 26 101
REMARK H PARENT 3 6 89 24 57 35 8 76 30 87 19 93
REMARK Flexibility Score: inf
ROOT
ATOM      1  C   UNL A   1      32.938  27.955  25.796  1.00  0.00     0.023 C 
ENDROOT
BRANCH   1   2
ATOM      2  C   UNL A   1      34.147  28.600  26.466  1.00  0.00     0.116 C 
BRANCH   2   3
ATOM      3  N   UNL A   1      33.911  29.988  26.834  1.00  0.00    -0.352 N 
ATOM      4  O   UNL A   1      34.197  31.912  27.965  1.00  0.00    -0.269 OA
ATOM      5  C   UNL A   1      34.638  30.805  27.663  1.00  0.00     0.251 C 
ATOM      6  H   UNL A   1      33.114  30.400  26.429  1.00  0.00     0.163 HD
BRANCH   5   7
ATOM      7  C   UNL A   1      35.933  30.347  28.208  1.00  0.00     0.039 A 
ATOM      8  C   UNL A   1      37.126  30.563  27.511  1.00  0.00     0.014 A 
ATOM      9  C   UNL A   1      35.949  29.699  29.446  1.00  0.00     0.014 A 
ATOM     10  C   UNL A   1      38.317  30.026  27.994  1.00  0.00     0.010 A 
ATOM     11  C   UNL A   1      37.154  29.218  29.959  1.00  0.00     0.010 A 
ATOM     12  C   UNL A   1      38.344  29.354  29.225  1.00  0.00    -0.014 A 
BRANCH  12  13
ATOM     13  C   UNL A   1      39.618  28.813  29.760  1.00  0.00     0.031 A 
ATOM     14  C   UNL A   1      40.339  29.519  30.872  1.00  0.00     0.074 A 
ATOM     15  C   UNL A   1      40.143  27.701  29.211  1.00  0.00     0.049 A 
ATOM     16  N   UNL A   1      41.511  29.265  31.395  1.00  0.00    -0.248 NA
ATOM     17  C   UNL A   1      39.652  30.675  31.466  1.00  0.00     0.031 C 
ATOM     18  C   UNL A   1      39.531  26.928  28.128  1.00  0.00     0.029 A 
ATOM     19  N   UNL A   1      41.314  27.037  29.474  1.00  0.00    -0.354 N 
ATOM     20  C   UNL A   1      41.717  30.241  32.364  1.00  0.00     0.074 A 
ATOM     21  C   UNL A   1      40.558  31.110  32.329  1.00  0.00     0.031 C 
ATOM     22  C   UNL A   1      40.333  25.901  27.816  1.00  0.00     0.029 A 
ATOM     23  C   UNL A   1      41.541  25.976  28.631  1.00  0.00     0.049 A 
ATOM     24  H   UNL A   1      41.931  27.297  30.196  1.00  0.00     0.167 HD
ATOM     25  C   UNL A   1      42.771  30.390  33.206  1.00  0.00     0.034 A 
ATOM     26  C   UNL A   1      42.618  25.179  28.494  1.00  0.00     0.034 A 
ATOM     27  C   UNL A   1      43.919  29.512  33.216  1.00  0.00     0.049 A 
ATOM     28  C   UNL A   1      43.802  25.393  29.395  1.00  0.00     0.074 A 
ATOM     29  C   UNL A   1      45.024  29.544  34.049  1.00  0.00     0.029 A 
ATOM     30  N   UNL A   1      44.118  28.452  32.338  1.00  0.00    -0.354 N 
ATOM     31  N   UNL A   1      43.979  26.307  30.320  1.00  0.00    -0.248 NA
ATOM     32  C   UNL A   1      44.930  24.466  29.239  1.00  0.00     0.031 C 
ATOM     33  C   UNL A   1      45.919  28.551  33.632  1.00  0.00     0.029 A 
ATOM     34  C   UNL A   1      45.341  27.847  32.587  1.00  0.00     0.049 A 
ATOM     35  H   UNL A   1      43.482  28.172  31.641  1.00  0.00     0.167 HD
ATOM     36  C   UNL A   1      45.228  26.051  30.873  1.00  0.00     0.074 A 
ATOM     37  C   UNL A   1      45.761  24.895  30.178  1.00  0.00     0.031 C 
ATOM     38  C   UNL A   1      45.867  26.704  31.877  1.00  0.00     0.034 A 
BRANCH  25  39
ATOM     39  C   UNL A   1      42.748  31.579  34.139  1.00  0.00     0.023 A 
ATOM     40  C   UNL A   1      42.175  31.505  35.421  1.00  0.00     0.031 A 
ATOM     41  C   UNL A   1      43.257  32.822  33.720  1.00  0.00     0.131 A 
ATOM     42  C   UNL A   1      42.040  32.666  36.199  1.00  0.00     0.055 A 
ATOM     43  C   UNL A   1      43.199  33.955  34.535  1.00  0.00     0.041 A 
ATOM     44  F   UNL A   1      43.799  32.963  32.501  1.00  0.00    -0.206 F 
ATOM     45  C   UNL A   1      42.570  33.886  35.774  1.00  0.00     0.022 A 
BRANCH  42  46
ATOM     46  S   UNL A   1      41.004  32.594  37.686  1.00  0.00     0.124 S 
ATOM     47  O   UNL A   1      39.806  31.924  37.184  1.00  0.00    -0.237 OA
ATOM     48  O   UNL A   1      41.829  31.822  38.608  1.00  0.00    -0.237 OA
ATOM     49  O   UNL A   1      40.816  34.000  38.042  1.00  0.00    -0.744 OA
ENDBRANCH  42  46
ENDBRANCH  25  39
BRANCH  26  50
ATOM     50  C   UNL A   1      42.630  24.145  27.424  1.00  0.00     0.023 A 
ATOM     51  C   UNL A   1      41.966  22.920  27.587  1.00  0.00     0.031 A 
ATOM     52  C   UNL A   1      43.283  24.391  26.203  1.00  0.00     0.131 A 
ATOM     53  C   UNL A   1      41.985  21.978  26.547  1.00  0.00     0.055 A 
ATOM     54  C   UNL A   1      43.264  23.467  25.158  1.00  0.00     0.041 A 
ATOM     55  F   UNL A   1      43.920  25.555  25.997  1.00  0.00    -0.206 F 
ATOM     56  C   UNL A   1      42.617  22.248  25.331  1.00  0.00     0.022 A 
BRANCH  53  57
ATOM     57  S   UNL A   1      41.191  20.370  26.818  1.00  0.00     0.124 S 
ATOM     58  O   UNL A   1      42.251  19.446  26.434  1.00  0.00    -0.237 OA
ATOM     59  O   UNL A   1      40.872  20.424  28.241  1.00  0.00    -0.237 OA
ATOM     60  O   UNL A   1      40.037  20.406  25.922  1.00  0.00    -0.744 OA
ENDBRANCH  53  57
ENDBRANCH  26  50
BRANCH  38  61
ATOM     61  C   UNL A   1      47.196  26.148  32.320  1.00  0.00     0.023 A 
ATOM     62  C   UNL A   1      47.293  25.147  33.303  1.00  0.00     0.031 A 
ATOM     63  C   UNL A   1      48.383  26.620  31.733  1.00  0.00     0.131 A 
ATOM     64  C   UNL A   1      48.556  24.674  33.692  1.00  0.00     0.055 A 
ATOM     65  C   UNL A   1      49.632  26.113  32.089  1.00  0.00     0.041 A 
ATOM     66  F   UNL A   1      48.344  27.577  30.791  1.00  0.00    -0.206 F 
ATOM     67  C   UNL A   1      49.724  25.139  33.079  1.00  0.00     0.022 A 
BRANCH  64  68
ATOM     68  S   UNL A   1      48.663  23.472  35.046  1.00  0.00     0.124 S 
ATOM     69  O   UNL A   1      49.155  22.283  34.357  1.00  0.00    -0.237 OA
ATOM     70  O   UNL A   1      49.600  24.112  35.962  1.00  0.00    -0.237 OA
ATOM     71  O   UNL A   1      47.287  23.380  35.533  1.00  0.00    -0.744 OA
ENDBRANCH  64  68
ENDBRANCH  38  61
ENDBRANCH  12  13
ENDBRANCH   5   7
ENDBRANCH   2   3
ENDBRANCH   1   2
BRANCH   1  72
ATOM     72  C   UNL A   1      31.705  28.849  25.662  1.00  0.00     0.023 C 
BRANCH  72  73
ATOM     73  C   UNL A   1      31.398  29.317  24.241  1.00  0.00     0.116 C 
BRANCH  73  74
ATOM     74  N   UNL A   1      30.028  29.026  23.853  1.00  0.00    -0.352 N 
ATOM     75  C   UNL A   1      29.536  27.906  23.241  1.00  0.00     0.251 C 
ATOM     76  H   UNL A   1      29.368  29.728  24.056  1.00  0.00     0.163 HD
ATOM     77  O   UNL A   1      28.377  27.846  22.846  1.00  0.00    -0.269 OA
BRANCH  75  78
ATOM     78  C   UNL A   1      30.425  26.749  23.045  1.00  0.00     0.042 A 
ATOM     79  C   UNL A   1      31.394  26.785  22.034  1.00  0.00     0.016 A 
ATOM     80  C   UNL A   1      30.275  25.651  23.902  1.00  0.00     0.042 A 
ATOM     81  C   UNL A   1      32.258  25.700  21.851  1.00  0.00     0.031 A 
ATOM     82  C   UNL A   1      31.135  24.578  23.672  1.00  0.00     0.067 A 
ATOM     83  C   UNL A   1      32.131  24.592  22.701  1.00  0.00     0.089 A 
ATOM     84  N   UNL A   1      31.247  23.339  24.250  1.00  0.00    -0.338 N 
ATOM     85  N   UNL A   1      32.881  23.449  22.758  1.00  0.00    -0.228 NA
ATOM     86  C   UNL A   1      32.325  22.703  23.690  1.00  0.00     0.142 A 
ATOM     87  H   UNL A   1      30.657  22.971  24.946  1.00  0.00     0.168 HD
BRANCH  86  88
ATOM     88  C   UNL A   1      32.824  21.366  24.081  1.00  0.00     0.063 A 
ATOM     89  C   UNL A   1      32.109  20.193  24.068  1.00  0.00     0.117 A 
ATOM     90  C   UNL A   1      34.123  21.023  24.550  1.00  0.00     0.106 A 
ATOM     91  N   UNL A   1      33.000  19.226  24.433  1.00  0.00    -0.284 N 
ATOM     92  N   UNL A   1      34.207  19.700  24.776  1.00  0.00    -0.175 NA
ATOM     93  H   UNL A   1      32.776  18.267  24.444  1.00  0.00     0.189 HD
BRANCH  90  94
ATOM     94  C   UNL A   1      35.206  21.926  24.921  1.00  0.00     0.039 A 
ATOM     95  C   UNL A   1      36.418  21.876  24.208  1.00  0.00     0.016 A 
ATOM     96  C   UNL A   1      35.073  22.845  25.963  1.00  0.00     0.135 A 
ATOM     97  C   UNL A   1      37.472  22.728  24.543  1.00  0.00     0.040 A 
ATOM     98  C   UNL A   1      36.121  23.700  26.300  1.00  0.00     0.079 A 
ATOM     99  F   UNL A   1      33.941  22.918  26.680  1.00  0.00    -0.206 F 
ATOM    100  C   UNL A   1      37.311  23.633  25.585  1.00  0.00     0.126 A 
ATOM    101  F   UNL A   1      38.320  24.453  25.904  1.00  0.00    -0.207 F 
ENDBRANCH  90  94
ENDBRANCH  86  88
ENDBRANCH  75  78
ENDBRANCH  73  74
ENDBRANCH  72  73
ENDBRANCH   1  72
TORSDOF 16
ENDMDL
