MODEL 1
REMARK VINA RESULT:     -12.1      0.000      0.000
REMARK SMILES C[C@@H](C(=O)NCCCCNC(=O)c1ccc(-c2c3nc(c(-c4cc(S(=O)(=O)[O-])ccc4F)c4ccc([nH]4)c(-c4cc(S(=O)(=O)[O-])ccc4F)c4nc(c(-c5cc(S(=O)(=O)[O-])ccc5F)c5ccc2[nH]5)C=C4)C=C3)cc1)c1cccc(C(=O)c2ccccc2)c1
REMARK SMILES IDX 7 1 6 2 5 3 3 4 4 5 2 7 1 8 76 9 77 10 89 11 78 12 80 13
REMARK SMILES IDX 79 14 81 15 82 16 83 17 84 18 88 19 85 20 87 21 86 22 8 23
REMARK SMILES IDX 9 24 10 25 11 26 12 28 13 29 14 30 75 31 15 32 74 33 16 34
REMARK SMILES IDX 17 35 18 36 68 37 19 38 73 39 67 40 69 41 20 42 72 43 66 44
REMARK SMILES IDX 65 45 21 47 53 48 33 49 52 50 34 51 37 52 51 53 70 54 35 55
REMARK SMILES IDX 36 56 50 58 71 59 38 60 22 61 23 62 31 63 24 64 30 65 32 66
REMARK SMILES IDX 29 67 25 68 26 69 27 70 28 71 54 72 55 73 63 74 56 75 62 76
REMARK SMILES IDX 64 77 61 78 57 79 58 80 59 81 60 82 39 83 40 84 48 85 41 86
REMARK SMILES IDX 47 87 49 88 46 89 42 90 43 91 44 92 45 93
REMARK H PARENT 5 6 10 27 69 46 37 57
REMARK Flexibility Score: inf
ROOT
ATOM      1  C   UNL A   1      31.692  29.292  26.963  1.00  0.00     0.023 C 
ENDROOT
BRANCH   1   2
ATOM      2  C   UNL A   1      32.552  28.052  27.211  1.00  0.00     0.116 C 
BRANCH   2   3
ATOM      3  N   UNL A   1      31.743  26.857  27.332  1.00  0.00    -0.356 N 
ATOM      4  C   UNL A   1      31.596  25.795  26.488  1.00  0.00     0.227 C 
ATOM      5  O   UNL A   1      30.813  24.913  26.849  1.00  0.00    -0.274 OA
ATOM      6  H   UNL A   1      31.213  26.800  28.159  1.00  0.00     0.163 HD
BRANCH   4   7
ATOM      7  C   UNL A   1      32.406  25.714  25.180  1.00  0.00     0.105 C 
ATOM      8  C   UNL A   1      33.922  25.759  25.420  1.00  0.00     0.023 C 
BRANCH   7   9
ATOM      9  C   UNL A   1      32.066  26.835  24.197  1.00  0.00    -0.035 A 
ATOM     10  C   UNL A   1      33.075  27.570  23.561  1.00  0.00     0.004 A 
ATOM     11  C   UNL A   1      30.726  27.198  23.974  1.00  0.00     0.016 A 
ATOM     12  C   UNL A   1      32.748  28.653  22.742  1.00  0.00     0.001 A 
ATOM     13  C   UNL A   1      30.391  28.308  23.191  1.00  0.00     0.023 A 
ATOM     14  C   UNL A   1      31.413  29.027  22.565  1.00  0.00     0.012 A 
BRANCH  13  15
ATOM     15  C   UNL A   1      28.973  28.734  22.995  1.00  0.00     0.193 C 
ATOM     16  O   UNL A   1      28.054  27.949  23.210  1.00  0.00    -0.289 OA
BRANCH  15  17
ATOM     17  C   UNL A   1      28.645  30.112  22.558  1.00  0.00     0.022 A 
ATOM     18  C   UNL A   1      28.769  31.151  23.483  1.00  0.00     0.012 A 
ATOM     19  C   UNL A   1      28.234  30.381  21.245  1.00  0.00     0.012 A 
ATOM     20  C   UNL A   1      28.537  32.467  23.080  1.00  0.00     0.001 A 
ATOM     21  C   UNL A   1      28.010  31.699  20.847  1.00  0.00     0.001 A 
ATOM     22  C   UNL A   1      28.170  32.741  21.762  1.00  0.00     0.000 A 
ENDBRANCH  15  17
ENDBRANCH  13  15
ENDBRANCH   7   9
ENDBRANCH   4   7
ENDBRANCH   2   3
ENDBRANCH   1   2
BRANCH   1  23
ATOM     23  C   UNL A   1      32.424  30.467  26.305  1.00  0.00     0.023 C 
BRANCH  23  24
ATOM     24  C   UNL A   1      33.276  31.320  27.240  1.00  0.00     0.116 C 
BRANCH  24  25
ATOM     25  N   UNL A   1      32.767  32.674  27.394  1.00  0.00    -0.352 N 
ATOM     26  C   UNL A   1      33.190  33.662  28.254  1.00  0.00     0.251 C 
ATOM     27  H   UNL A   1      32.019  32.917  26.803  1.00  0.00     0.163 HD
ATOM     28  O   UNL A   1      32.562  34.715  28.331  1.00  0.00    -0.269 OA
BRANCH  26  29
ATOM     29  C   UNL A   1      34.372  33.429  29.111  1.00  0.00     0.039 A 
ATOM     30  C   UNL A   1      34.224  32.665  30.272  1.00  0.00     0.014 A 
ATOM     31  C   UNL A   1      35.626  33.922  28.745  1.00  0.00     0.014 A 
ATOM     32  C   UNL A   1      35.353  32.314  31.016  1.00  0.00     0.010 A 
ATOM     33  C   UNL A   1      36.756  33.528  29.458  1.00  0.00     0.010 A 
ATOM     34  C   UNL A   1      36.633  32.701  30.586  1.00  0.00    -0.014 A 
BRANCH  34  35
ATOM     35  C   UNL A   1      37.862  32.203  31.255  1.00  0.00     0.031 A 
ATOM     36  C   UNL A   1      38.692  31.129  30.609  1.00  0.00     0.074 A 
ATOM     37  C   UNL A   1      38.159  32.637  32.497  1.00  0.00     0.049 A 
ATOM     38  N   UNL A   1      39.703  30.461  31.099  1.00  0.00    -0.248 NA
ATOM     39  C   UNL A   1      38.319  30.740  29.241  1.00  0.00     0.031 C 
ATOM     40  C   UNL A   1      37.402  33.648  33.242  1.00  0.00     0.029 A 
ATOM     41  N   UNL A   1      39.154  32.264  33.368  1.00  0.00    -0.354 N 
ATOM     42  C   UNL A   1      40.072  29.552  30.114  1.00  0.00     0.074 A 
ATOM     43  C   UNL A   1      39.157  29.740  29.007  1.00  0.00     0.031 C 
ATOM     44  C   UNL A   1      37.953  33.805  34.456  1.00  0.00     0.029 A 
ATOM     45  C   UNL A   1      39.069  32.875  34.599  1.00  0.00     0.049 A 
ATOM     46  H   UNL A   1      39.861  31.621  33.134  1.00  0.00     0.167 HD
ATOM     47  C   UNL A   1      41.086  28.653  30.132  1.00  0.00     0.034 A 
ATOM     48  C   UNL A   1      39.783  32.683  35.726  1.00  0.00     0.034 A 
ATOM     49  C   UNL A   1      42.007  28.501  31.230  1.00  0.00     0.049 A 
ATOM     50  C   UNL A   1      40.889  31.660  35.723  1.00  0.00     0.074 A 
ATOM     51  C   UNL A   1      43.137  27.705  31.299  1.00  0.00     0.029 A 
ATOM     52  N   UNL A   1      41.898  29.143  32.455  1.00  0.00    -0.354 N 
ATOM     53  N   UNL A   1      41.278  30.869  34.750  1.00  0.00    -0.248 NA
ATOM     54  C   UNL A   1      41.656  31.504  36.967  1.00  0.00     0.031 C 
ATOM     55  C   UNL A   1      43.671  27.812  32.588  1.00  0.00     0.029 A 
ATOM     56  C   UNL A   1      42.913  28.724  33.303  1.00  0.00     0.049 A 
ATOM     57  H   UNL A   1      41.202  29.799  32.689  1.00  0.00     0.167 HD
ATOM     58  C   UNL A   1      42.346  30.137  35.261  1.00  0.00     0.074 A 
ATOM     59  C   UNL A   1      42.553  30.593  36.620  1.00  0.00     0.031 C 
ATOM     60  C   UNL A   1      43.093  29.177  34.661  1.00  0.00     0.034 A 
BRANCH  47  61
ATOM     61  C   UNL A   1      41.236  27.739  28.943  1.00  0.00     0.023 A 
ATOM     62  C   UNL A   1      42.194  27.973  27.944  1.00  0.00     0.031 A 
ATOM     63  C   UNL A   1      40.417  26.603  28.823  1.00  0.00     0.131 A 
ATOM     64  C   UNL A   1      42.277  27.109  26.841  1.00  0.00     0.055 A 
ATOM     65  C   UNL A   1      40.546  25.712  27.756  1.00  0.00     0.041 A 
ATOM     66  F   UNL A   1      39.472  26.341  29.741  1.00  0.00    -0.206 F 
ATOM     67  C   UNL A   1      41.475  25.967  26.752  1.00  0.00     0.022 A 
BRANCH  64  68
ATOM     68  S   UNL A   1      43.387  27.547  25.475  1.00  0.00     0.124 S 
ATOM     69  O   UNL A   1      42.449  28.091  24.497  1.00  0.00    -0.237 OA
ATOM     70  O   UNL A   1      44.290  28.509  26.098  1.00  0.00    -0.237 OA
ATOM     71  O   UNL A   1      43.994  26.270  25.104  1.00  0.00    -0.744 OA
ENDBRANCH  64  68
ENDBRANCH  47  61
BRANCH  48  72
ATOM     72  C   UNL A   1      39.449  33.429  36.974  1.00  0.00     0.023 A 
ATOM     73  C   UNL A   1      40.099  34.631  37.295  1.00  0.00     0.031 A 
ATOM     74  C   UNL A   1      38.520  32.915  37.896  1.00  0.00     0.131 A 
ATOM     75  C   UNL A   1      39.852  35.251  38.529  1.00  0.00     0.055 A 
ATOM     76  C   UNL A   1      38.240  33.563  39.100  1.00  0.00     0.041 A 
ATOM     77  F   UNL A   1      37.867  31.771  37.637  1.00  0.00    -0.206 F 
ATOM     78  C   UNL A   1      38.919  34.731  39.430  1.00  0.00     0.022 A 
BRANCH  75  79
ATOM     79  S   UNL A   1      40.850  36.694  38.990  1.00  0.00     0.124 S 
ATOM     80  O   UNL A   1      41.215  36.377  40.366  1.00  0.00    -0.237 OA
ATOM     81  O   UNL A   1      41.931  36.637  38.010  1.00  0.00    -0.237 OA
ATOM     82  O   UNL A   1      39.924  37.813  38.831  1.00  0.00    -0.744 OA
ENDBRANCH  75  79
ENDBRANCH  48  72
BRANCH  60  83
ATOM     83  C   UNL A   1      44.217  28.582  35.469  1.00  0.00     0.023 A 
ATOM     84  C   UNL A   1      44.014  27.467  36.299  1.00  0.00     0.031 A 
ATOM     85  C   UNL A   1      45.505  29.143  35.410  1.00  0.00     0.131 A 
ATOM     86  C   UNL A   1      45.074  26.974  37.074  1.00  0.00     0.055 A 
ATOM     87  C   UNL A   1      46.568  28.616  36.143  1.00  0.00     0.041 A 
ATOM     88  F   UNL A   1      45.751  30.211  34.633  1.00  0.00    -0.206 F 
ATOM     89  C   UNL A   1      46.354  27.531  36.988  1.00  0.00     0.022 A 
BRANCH  86  90
ATOM     90  S   UNL A   1      44.745  25.629  38.245  1.00  0.00     0.124 S 
ATOM     91  O   UNL A   1      44.055  26.329  39.324  1.00  0.00    -0.237 OA
ATOM     92  O   UNL A   1      43.929  24.714  37.454  1.00  0.00    -0.237 OA
ATOM     93  O   UNL A   1      46.079  25.133  38.582  1.00  0.00    -0.744 OA
ENDBRANCH  86  90
ENDBRANCH  60  83
ENDBRANCH  34  35
ENDBRANCH  26  29
ENDBRANCH  24  25
ENDBRANCH  23  24
ENDBRANCH   1  23
TORSDOF 17
ENDMDL
MODEL 2
REMARK VINA RESULT:     -11.9      1.592      2.060
REMARK SMILES C[C@@H](C(=O)NCCCCNC(=O)c1ccc(-c2c3nc(c(-c4cc(S(=O)(=O)[O-])ccc4F)c4ccc([nH]4)c(-c4cc(S(=O)(=O)[O-])ccc4F)c4nc(c(-c5cc(S(=O)(=O)[O-])ccc5F)c5ccc2[nH]5)C=C4)C=C3)cc1)c1cccc(C(=O)c2ccccc2)c1
REMARK SMILES IDX 7 1 6 2 5 3 3 4 4 5 2 7 1 8 76 9 77 10 89 11 78 12 80 13
REMARK SMILES IDX 79 14 81 15 82 16 83 17 84 18 88 19 85 20 87 21 86 22 8 23
REMARK SMILES IDX 9 24 10 25 11 26 12 28 13 29 14 30 75 31 15 32 74 33 16 34
REMARK SMILES IDX 17 35 18 36 68 37 19 38 73 39 67 40 69 41 20 42 72 43 66 44
REMARK SMILES IDX 65 45 21 47 53 48 33 49 52 50 34 51 37 52 51 53 70 54 35 55
REMARK SMILES IDX 36 56 50 58 71 59 38 60 22 61 23 62 31 63 24 64 30 65 32 66
REMARK SMILES IDX 29 67 25 68 26 69 27 70 28 71 54 72 55 73 63 74 56 75 62 76
REMARK SMILES IDX 64 77 61 78 57 79 58 80 59 81 60 82 39 83 40 84 48 85 41 86
REMARK SMILES IDX 47 87 49 88 46 89 42 90 43 91 44 92 45 93
REMARK H PARENT 5 6 10 27 69 46 37 57
REMARK Flexibility Score: inf
ROOT
ATOM      1  C   UNL A   1      32.299  29.717  26.896  1.00  0.00     0.023 C 
ENDROOT
BRANCH   1   2
ATOM      2  C   UNL A   1      33.742  29.277  26.643  1.00  0.00     0.116 C 
BRANCH   2   3
ATOM      3  N   UNL A   1      33.978  29.001  25.241  1.00  0.00    -0.356 N 
ATOM      4  C   UNL A   1      33.928  27.828  24.547  1.00  0.00     0.227 C 
ATOM      5  O   UNL A   1      34.196  27.891  23.345  1.00  0.00    -0.274 OA
ATOM      6  H   UNL A   1      34.212  29.789  24.700  1.00  0.00     0.163 HD
BRANCH   4   7
ATOM      7  C   UNL A   1      33.518  26.518  25.248  1.00  0.00     0.105 C 
ATOM      8  C   UNL A   1      34.619  25.449  25.195  1.00  0.00     0.023 C 
BRANCH   7   9
ATOM      9  C   UNL A   1      32.251  25.897  24.658  1.00  0.00    -0.035 A 
ATOM     10  C   UNL A   1      32.249  24.586  24.165  1.00  0.00     0.004 A 
ATOM     11  C   UNL A   1      31.080  26.667  24.531  1.00  0.00     0.016 A 
ATOM     12  C   UNL A   1      31.111  24.068  23.543  1.00  0.00     0.001 A 
ATOM     13  C   UNL A   1      29.951  26.171  23.869  1.00  0.00     0.023 A 
ATOM     14  C   UNL A   1      29.970  24.860  23.386  1.00  0.00     0.012 A 
BRANCH  13  15
ATOM     15  C   UNL A   1      28.724  27.001  23.679  1.00  0.00     0.193 C 
ATOM     16  O   UNL A   1      27.631  26.588  24.058  1.00  0.00    -0.289 OA
BRANCH  15  17
ATOM     17  C   UNL A   1      28.798  28.341  23.049  1.00  0.00     0.022 A 
ATOM     18  C   UNL A   1      30.018  28.754  22.506  1.00  0.00     0.012 A 
ATOM     19  C   UNL A   1      27.675  29.176  22.979  1.00  0.00     0.012 A 
ATOM     20  C   UNL A   1      30.099  29.978  21.843  1.00  0.00     0.001 A 
ATOM     21  C   UNL A   1      27.762  30.396  22.308  1.00  0.00     0.001 A 
ATOM     22  C   UNL A   1      28.970  30.793  21.734  1.00  0.00     0.000 A 
ENDBRANCH  15  17
ENDBRANCH  13  15
ENDBRANCH   7   9
ENDBRANCH   4   7
ENDBRANCH   2   3
ENDBRANCH   1   2
BRANCH   1  23
ATOM     23  C   UNL A   1      32.056  31.227  26.801  1.00  0.00     0.023 C 
BRANCH  23  24
ATOM     24  C   UNL A   1      33.124  32.108  27.442  1.00  0.00     0.116 C 
BRANCH  24  25
ATOM     25  N   UNL A   1      32.671  33.471  27.676  1.00  0.00    -0.352 N 
ATOM     26  C   UNL A   1      33.157  34.402  28.565  1.00  0.00     0.251 C 
ATOM     27  H   UNL A   1      31.912  33.767  27.124  1.00  0.00     0.163 HD
ATOM     28  O   UNL A   1      32.571  35.471  28.712  1.00  0.00    -0.269 OA
BRANCH  26  29
ATOM     29  C   UNL A   1      34.358  34.087  29.369  1.00  0.00     0.039 A 
ATOM     30  C   UNL A   1      34.214  33.312  30.522  1.00  0.00     0.014 A 
ATOM     31  C   UNL A   1      35.623  34.516  28.959  1.00  0.00     0.014 A 
ATOM     32  C   UNL A   1      35.351  32.886  31.213  1.00  0.00     0.010 A 
ATOM     33  C   UNL A   1      36.756  34.047  29.618  1.00  0.00     0.010 A 
ATOM     34  C   UNL A   1      36.631  33.207  30.737  1.00  0.00    -0.014 A 
BRANCH  34  35
ATOM     35  C   UNL A   1      37.857  32.629  31.347  1.00  0.00     0.031 A 
ATOM     36  C   UNL A   1      38.564  31.482  30.681  1.00  0.00     0.074 A 
ATOM     37  C   UNL A   1      38.258  33.063  32.560  1.00  0.00     0.049 A 
ATOM     38  N   UNL A   1      39.548  30.748  31.128  1.00  0.00    -0.248 NA
ATOM     39  C   UNL A   1      38.082  31.096  29.346  1.00  0.00     0.031 C 
ATOM     40  C   UNL A   1      37.625  34.144  33.322  1.00  0.00     0.029 A 
ATOM     41  N   UNL A   1      39.271  32.632  33.381  1.00  0.00    -0.354 N 
ATOM     42  C   UNL A   1      39.789  29.794  30.146  1.00  0.00     0.074 A 
ATOM     43  C   UNL A   1      38.827  30.030  29.089  1.00  0.00     0.031 C 
ATOM     44  C   UNL A   1      38.256  34.282  34.498  1.00  0.00     0.029 A 
ATOM     45  C   UNL A   1      39.305  33.272  34.600  1.00  0.00     0.049 A 
ATOM     46  H   UNL A   1      39.912  31.932  33.123  1.00  0.00     0.167 HD
ATOM     47  C   UNL A   1      40.730  28.820  30.129  1.00  0.00     0.034 A 
ATOM     48  C   UNL A   1      40.067  33.048  35.689  1.00  0.00     0.034 A 
ATOM     49  C   UNL A   1      41.700  28.618  31.176  1.00  0.00     0.049 A 
ATOM     50  C   UNL A   1      41.091  31.943  35.647  1.00  0.00     0.074 A 
ATOM     51  C   UNL A   1      42.769  27.740  31.200  1.00  0.00     0.029 A 
ATOM     52  N   UNL A   1      41.712  29.291  32.390  1.00  0.00    -0.354 N 
ATOM     53  N   UNL A   1      41.360  31.104  34.673  1.00  0.00    -0.248 NA
ATOM     54  C   UNL A   1      41.914  31.752  36.849  1.00  0.00     0.031 C 
ATOM     55  C   UNL A   1      43.384  27.831  32.453  1.00  0.00     0.029 A 
ATOM     56  C   UNL A   1      42.740  28.812  33.188  1.00  0.00     0.049 A 
ATOM     57  H   UNL A   1      41.083  30.004  32.647  1.00  0.00     0.167 HD
ATOM     58  C   UNL A   1      42.398  30.303  35.140  1.00  0.00     0.074 A 
ATOM     59  C   UNL A   1      42.718  30.768  36.474  1.00  0.00     0.031 C 
ATOM     60  C   UNL A   1      43.033  29.276  34.522  1.00  0.00     0.034 A 
BRANCH  47  61
ATOM     61  C   UNL A   1      40.741  27.874  28.955  1.00  0.00     0.023 A 
ATOM     62  C   UNL A   1      41.672  27.996  27.912  1.00  0.00     0.031 A 
ATOM     63  C   UNL A   1      39.813  26.819  28.895  1.00  0.00     0.131 A 
ATOM     64  C   UNL A   1      41.624  27.108  26.826  1.00  0.00     0.055 A 
ATOM     65  C   UNL A   1      39.811  25.900  27.844  1.00  0.00     0.041 A 
ATOM     66  F   UNL A   1      38.889  26.666  29.858  1.00  0.00    -0.206 F 
ATOM     67  C   UNL A   1      40.715  26.047  26.797  1.00  0.00     0.022 A 
BRANCH  64  68
ATOM     68  S   UNL A   1      42.709  27.413  25.405  1.00  0.00     0.124 S 
ATOM     69  O   UNL A   1      42.612  26.147  24.683  1.00  0.00    -0.237 OA
ATOM     70  O   UNL A   1      42.077  28.562  24.766  1.00  0.00    -0.237 OA
ATOM     71  O   UNL A   1      44.010  27.677  26.017  1.00  0.00    -0.744 OA
ENDBRANCH  64  68
ENDBRANCH  47  61
BRANCH  48  72
ATOM     72  C   UNL A   1      39.864  33.842  36.935  1.00  0.00     0.023 A 
ATOM     73  C   UNL A   1      39.268  33.270  38.070  1.00  0.00     0.031 A 
ATOM     74  C   UNL A   1      40.205  35.206  36.985  1.00  0.00     0.131 A 
ATOM     75  C   UNL A   1      38.981  34.070  39.186  1.00  0.00     0.055 A 
ATOM     76  C   UNL A   1      39.964  35.985  38.118  1.00  0.00     0.041 A 
ATOM     77  F   UNL A   1      40.781  35.802  35.929  1.00  0.00    -0.206 F 
ATOM     78  C   UNL A   1      39.334  35.421  39.222  1.00  0.00     0.022 A 
BRANCH  75  79
ATOM     79  S   UNL A   1      38.039  33.342  40.555  1.00  0.00     0.124 S 
ATOM     80  O   UNL A   1      38.648  32.022  40.667  1.00  0.00    -0.237 OA
ATOM     81  O   UNL A   1      38.321  34.274  41.643  1.00  0.00    -0.237 OA
ATOM     82  O   UNL A   1      36.662  33.355  40.066  1.00  0.00    -0.744 OA
ENDBRANCH  75  79
ENDBRANCH  48  72
BRANCH  60  83
ATOM     83  C   UNL A   1      44.154  28.613  35.279  1.00  0.00     0.023 A 
ATOM     84  C   UNL A   1      43.914  27.544  36.158  1.00  0.00     0.031 A 
ATOM     85  C   UNL A   1      45.478  29.060  35.120  1.00  0.00     0.131 A 
ATOM     86  C   UNL A   1      44.978  26.985  36.882  1.00  0.00     0.055 A 
ATOM     87  C   UNL A   1      46.539  28.467  35.804  1.00  0.00     0.041 A 
ATOM     88  F   UNL A   1      45.760  30.080  34.293  1.00  0.00    -0.206 F 
ATOM     89  C   UNL A   1      46.291  27.429  36.698  1.00  0.00     0.022 A 
BRANCH  86  90
ATOM     90  S   UNL A   1      44.616  25.708  38.118  1.00  0.00     0.124 S 
ATOM     91  O   UNL A   1      45.953  25.311  38.544  1.00  0.00    -0.237 OA
ATOM     92  O   UNL A   1      43.824  26.438  39.102  1.00  0.00    -0.237 OA
ATOM     93  O   UNL A   1      43.880  24.696  37.360  1.00  0.00    -0.744 OA
ENDBRANCH  86  90
ENDBRANCH  60  83
ENDBRANCH  34  35
ENDBRANCH  26  29
ENDBRANCH  24  25
ENDBRANCH  23  24
ENDBRANCH   1  23
TORSDOF 17
ENDMDL
MODEL 3
REMARK VINA RESULT:     -11.9      2.630      4.647
REMARK SMILES C[C@@H](C(=O)NCCCCNC(=O)c1ccc(-c2c3nc(c(-c4cc(S(=O)(=O)[O-])ccc4F)c4ccc([nH]4)c(-c4cc(S(=O)(=O)[O-])ccc4F)c4nc(c(-c5cc(S(=O)(=O)[O-])ccc5F)c5ccc2[nH]5)C=C4)C=C3)cc1)c1cccc(C(=O)c2ccccc2)c1
REMARK SMILES IDX 7 1 6 2 5 3 3 4 4 5 2 7 1 8 76 9 77 10 89 11 78 12 80 13
REMARK SMILES IDX 79 14 81 15 82 16 83 17 84 18 88 19 85 20 87 21 86 22 8 23
REMARK SMILES IDX 9 24 10 25 11 26 12 28 13 29 14 30 75 31 15 32 74 33 16 34
REMARK SMILES IDX 17 35 18 36 68 37 19 38 73 39 67 40 69 41 20 42 72 43 66 44
REMARK SMILES IDX 65 45 21 47 53 48 33 49 52 50 34 51 37 52 51 53 70 54 35 55
REMARK SMILES IDX 36 56 50 58 71 59 38 60 22 61 23 62 31 63 24 64 30 65 32 66
REMARK SMILES IDX 29 67 25 68 26 69 27 70 28 71 54 72 55 73 63 74 56 75 62 76
REMARK SMILES IDX 64 77 61 78 57 79 58 80 59 81 60 82 39 83 40 84 48 85 41 86
REMARK SMILES IDX 47 87 49 88 46 89 42 90 43 91 44 92 45 93
REMARK H PARENT 5 6 10 27 69 46 37 57
REMARK Flexibility Score: inf
ROOT
ATOM      1  C   UNL A   1      32.248  28.733  27.229  1.00  0.00     0.023 C 
ENDROOT
BRANCH   1   2
ATOM      2  C   UNL A   1      31.762  27.717  26.194  1.00  0.00     0.116 C 
BRANCH   2   3
ATOM      3  N   UNL A   1      31.351  26.476  26.817  1.00  0.00    -0.356 N 
ATOM      4  C   UNL A   1      31.652  25.183  26.503  1.00  0.00     0.227 C 
ATOM      5  O   UNL A   1      31.138  24.314  27.211  1.00  0.00    -0.274 OA
ATOM      6  H   UNL A   1      30.759  26.583  27.595  1.00  0.00     0.163 HD
BRANCH   4   7
ATOM      7  C   UNL A   1      32.615  24.860  25.345  1.00  0.00     0.105 C 
ATOM      8  C   UNL A   1      31.951  24.998  23.967  1.00  0.00     0.023 C 
BRANCH   7   9
ATOM      9  C   UNL A   1      33.202  23.451  25.431  1.00  0.00    -0.035 A 
ATOM     10  C   UNL A   1      34.345  23.188  26.196  1.00  0.00     0.004 A 
ATOM     11  C   UNL A   1      32.642  22.405  24.675  1.00  0.00     0.016 A 
ATOM     12  C   UNL A   1      34.924  21.917  26.187  1.00  0.00     0.001 A 
ATOM     13  C   UNL A   1      33.240  21.141  24.624  1.00  0.00     0.023 A 
ATOM     14  C   UNL A   1      34.380  20.900  25.396  1.00  0.00     0.012 A 
BRANCH  13  15
ATOM     15  C   UNL A   1      32.686  20.041  23.780  1.00  0.00     0.193 C 
ATOM     16  O   UNL A   1      32.044  20.301  22.766  1.00  0.00    -0.289 OA
BRANCH  15  17
ATOM     17  C   UNL A   1      32.912  18.619  24.133  1.00  0.00     0.022 A 
ATOM     18  C   UNL A   1      33.486  17.779  23.176  1.00  0.00     0.012 A 
ATOM     19  C   UNL A   1      32.578  18.122  25.400  1.00  0.00     0.012 A 
ATOM     20  C   UNL A   1      33.777  16.455  23.505  1.00  0.00     0.001 A 
ATOM     21  C   UNL A   1      32.879  16.800  25.725  1.00  0.00     0.001 A 
ATOM     22  C   UNL A   1      33.485  15.970  24.781  1.00  0.00     0.000 A 
ENDBRANCH  15  17
ENDBRANCH  13  15
ENDBRANCH   7   9
ENDBRANCH   4   7
ENDBRANCH   2   3
ENDBRANCH   1   2
BRANCH   1  23
ATOM     23  C   UNL A   1      32.062  30.202  26.832  1.00  0.00     0.023 C 
BRANCH  23  24
ATOM     24  C   UNL A   1      33.129  31.164  27.346  1.00  0.00     0.116 C 
BRANCH  24  25
ATOM     25  N   UNL A   1      32.664  32.541  27.420  1.00  0.00    -0.352 N 
ATOM     26  C   UNL A   1      33.151  33.576  28.184  1.00  0.00     0.251 C 
ATOM     27  H   UNL A   1      31.897  32.762  26.844  1.00  0.00     0.163 HD
ATOM     28  O   UNL A   1      32.555  34.650  28.208  1.00  0.00    -0.269 OA
BRANCH  26  29
ATOM     29  C   UNL A   1      34.362  33.371  29.006  1.00  0.00     0.039 A 
ATOM     30  C   UNL A   1      34.232  32.775  30.264  1.00  0.00     0.014 A 
ATOM     31  C   UNL A   1      35.623  33.723  28.518  1.00  0.00     0.014 A 
ATOM     32  C   UNL A   1      35.377  32.443  30.992  1.00  0.00     0.010 A 
ATOM     33  C   UNL A   1      36.764  33.344  29.221  1.00  0.00     0.010 A 
ATOM     34  C   UNL A   1      36.652  32.679  30.454  1.00  0.00    -0.014 A 
BRANCH  34  35
ATOM     35  C   UNL A   1      37.884  32.184  31.122  1.00  0.00     0.031 A 
ATOM     36  C   UNL A   1      38.705  31.099  30.486  1.00  0.00     0.074 A 
ATOM     37  C   UNL A   1      38.189  32.634  32.357  1.00  0.00     0.049 A 
ATOM     38  N   UNL A   1      39.716  30.433  30.979  1.00  0.00    -0.248 NA
ATOM     39  C   UNL A   1      38.322  30.693  29.125  1.00  0.00     0.031 C 
ATOM     40  C   UNL A   1      37.441  33.657  33.092  1.00  0.00     0.029 A 
ATOM     41  N   UNL A   1      39.187  32.268  33.227  1.00  0.00    -0.354 N 
ATOM     42  C   UNL A   1      40.076  29.509  30.004  1.00  0.00     0.074 A 
ATOM     43  C   UNL A   1      39.155  29.686  28.900  1.00  0.00     0.031 C 
ATOM     44  C   UNL A   1      37.999  33.828  34.301  1.00  0.00     0.029 A 
ATOM     45  C   UNL A   1      39.112  32.895  34.450  1.00  0.00     0.049 A 
ATOM     46  H   UNL A   1      39.890  31.618  32.997  1.00  0.00     0.167 HD
ATOM     47  C   UNL A   1      41.085  28.606  30.029  1.00  0.00     0.034 A 
ATOM     48  C   UNL A   1      39.832  32.715  35.576  1.00  0.00     0.034 A 
ATOM     49  C   UNL A   1      42.012  28.464  31.123  1.00  0.00     0.049 A 
ATOM     50  C   UNL A   1      40.934  31.688  35.580  1.00  0.00     0.074 A 
ATOM     51  C   UNL A   1      43.139  27.664  31.197  1.00  0.00     0.029 A 
ATOM     52  N   UNL A   1      41.913  29.123  32.341  1.00  0.00    -0.354 N 
ATOM     53  N   UNL A   1      41.313  30.882  34.615  1.00  0.00    -0.248 NA
ATOM     54  C   UNL A   1      41.707  31.544  36.821  1.00  0.00     0.031 C 
ATOM     55  C   UNL A   1      43.681  27.786  32.481  1.00  0.00     0.029 A 
ATOM     56  C   UNL A   1      42.930  28.711  33.188  1.00  0.00     0.049 A 
ATOM     57  H   UNL A   1      41.221  29.786  32.569  1.00  0.00     0.167 HD
ATOM     58  C   UNL A   1      42.381  30.153  35.130  1.00  0.00     0.074 A 
ATOM     59  C   UNL A   1      42.597  30.625  36.481  1.00  0.00     0.031 C 
ATOM     60  C   UNL A   1      43.120  29.181  34.539  1.00  0.00     0.034 A 
BRANCH  47  61
ATOM     61  C   UNL A   1      41.225  27.676  28.851  1.00  0.00     0.023 A 
ATOM     62  C   UNL A   1      42.214  27.860  27.872  1.00  0.00     0.031 A 
ATOM     63  C   UNL A   1      40.362  26.573  28.721  1.00  0.00     0.131 A 
ATOM     64  C   UNL A   1      42.286  26.983  26.779  1.00  0.00     0.055 A 
ATOM     65  C   UNL A   1      40.479  25.667  27.665  1.00  0.00     0.041 A 
ATOM     66  F   UNL A   1      39.387  26.359  29.619  1.00  0.00    -0.206 F 
ATOM     67  C   UNL A   1      41.441  25.875  26.681  1.00  0.00     0.022 A 
BRANCH  64  68
ATOM     68  S   UNL A   1      43.444  27.363  25.435  1.00  0.00     0.124 S 
ATOM     69  O   UNL A   1      43.996  26.044  25.140  1.00  0.00    -0.237 OA
ATOM     70  O   UNL A   1      42.569  27.931  24.415  1.00  0.00    -0.237 OA
ATOM     71  O   UNL A   1      44.382  28.303  26.046  1.00  0.00    -0.744 OA
ENDBRANCH  64  68
ENDBRANCH  47  61
BRANCH  48  72
ATOM     72  C   UNL A   1      39.508  33.480  36.815  1.00  0.00     0.023 A 
ATOM     73  C   UNL A   1      40.163  34.684  37.115  1.00  0.00     0.031 A 
ATOM     74  C   UNL A   1      38.584  32.980  37.751  1.00  0.00     0.131 A 
ATOM     75  C   UNL A   1      39.926  35.322  38.343  1.00  0.00     0.055 A 
ATOM     76  C   UNL A   1      38.314  33.646  38.948  1.00  0.00     0.041 A 
ATOM     77  F   UNL A   1      37.928  31.834  37.513  1.00  0.00    -0.206 F 
ATOM     78  C   UNL A   1      38.999  34.816  39.256  1.00  0.00     0.022 A 
BRANCH  75  79
ATOM     79  S   UNL A   1      40.930  36.769  38.776  1.00  0.00     0.124 S 
ATOM     80  O   UNL A   1      39.906  37.769  39.058  1.00  0.00    -0.237 OA
ATOM     81  O   UNL A   1      41.684  36.279  39.926  1.00  0.00    -0.237 OA
ATOM     82  O   UNL A   1      41.720  37.008  37.570  1.00  0.00    -0.744 OA
ENDBRANCH  75  79
ENDBRANCH  48  72
BRANCH  60  83
ATOM     83  C   UNL A   1      44.246  28.592  35.348  1.00  0.00     0.023 A 
ATOM     84  C   UNL A   1      44.023  27.561  36.276  1.00  0.00     0.031 A 
ATOM     85  C   UNL A   1      45.558  29.073  35.191  1.00  0.00     0.131 A 
ATOM     86  C   UNL A   1      45.088  27.074  37.046  1.00  0.00     0.055 A 
ATOM     87  C   UNL A   1      46.624  28.549  35.923  1.00  0.00     0.041 A 
ATOM     88  F   UNL A   1      45.824  30.059  34.319  1.00  0.00    -0.206 F 
ATOM     89  C   UNL A   1      46.390  27.550  36.864  1.00  0.00     0.022 A 
BRANCH  86  90
ATOM     90  S   UNL A   1      44.742  25.849  38.338  1.00  0.00     0.124 S 
ATOM     91  O   UNL A   1      44.503  24.642  37.554  1.00  0.00    -0.237 OA
ATOM     92  O   UNL A   1      45.970  25.865  39.125  1.00  0.00    -0.237 OA
ATOM     93  O   UNL A   1      43.565  26.390  39.017  1.00  0.00    -0.744 OA
ENDBRANCH  86  90
ENDBRANCH  60  83
ENDBRANCH  34  35
ENDBRANCH  26  29
ENDBRANCH  24  25
ENDBRANCH  23  24
ENDBRANCH   1  23
TORSDOF 17
ENDMDL
