MODEL 1
REMARK VINA RESULT:     -11.9      0.000      0.000
REMARK SMILES CC(C)(C)OC(=O)N1CCC[C@](Cc2ccccc2)(C(=O)NCCCCNC(=O)c2ccc(-c3c4nc(c(-c5cc(S(=O)(=O)[O-])ccc5F)c5ccc([nH]5)c(-c5cc(S(=O)(=O)[O-])ccc5F)c5nc(c(-c6cc(S(=O)(=O)[O-])ccc6F)c6ccc3[nH]6)C=C5)C=C4)cc2)C1
REMARK SMILES IDX 24 1 23 2 22 3 20 4 21 5 12 7 8 8 9 9 93 10 10 11 11 12 6 13
REMARK SMILES IDX 7 14 5 15 2 16 1 17 3 18 4 19 13 20 14 21 15 22 19 23 16 24
REMARK SMILES IDX 18 25 17 26 25 27 26 28 27 29 28 30 29 32 30 33 31 34 92 35
REMARK SMILES IDX 32 36 91 37 33 38 34 39 35 40 85 41 36 42 90 43 84 44 86 45
REMARK SMILES IDX 37 46 89 47 83 48 82 49 38 51 70 52 50 53 69 54 51 55 54 56
REMARK SMILES IDX 68 57 87 58 52 59 53 60 67 62 88 63 55 64 39 65 40 66 48 67
REMARK SMILES IDX 41 68 47 69 49 70 46 71 42 72 43 73 44 74 45 75 71 76 72 77
REMARK SMILES IDX 80 78 73 79 79 80 81 81 78 82 74 83 75 84 76 85 77 86 56 87
REMARK SMILES IDX 57 88 65 89 58 90 64 91 66 92 63 93 59 94 60 95 61 96 62 97
REMARK H PARENT 22 6 27 31 86 50 54 61
REMARK Flexibility Score: inf
ROOT
ATOM      1  C   UNL A   1      35.137  23.363  23.758  1.00  0.00     0.023 C 
ENDROOT
BRANCH   1   2
ATOM      2  C   UNL A   1      34.542  24.692  24.234  1.00  0.00     0.116 C 
BRANCH   2   3
ATOM      3  N   UNL A   1      33.382  25.047  23.437  1.00  0.00    -0.356 N 
ATOM      4  C   UNL A   1      32.055  25.208  23.659  1.00  0.00     0.228 C 
ATOM      5  O   UNL A   1      31.387  25.156  22.618  1.00  0.00    -0.274 OA
ATOM      6  H   UNL A   1      33.621  25.213  22.496  1.00  0.00     0.163 HD
BRANCH   4   7
ATOM      7  C   UNL A   1      31.380  25.573  25.020  1.00  0.00     0.071 C 
ATOM      8  N   UNL A   1      30.529  27.851  24.291  1.00  0.00    -0.307 N 
ATOM      9  C   UNL A   1      31.440  28.551  25.174  1.00  0.00     0.123 C 
ATOM     10  C   UNL A   1      30.157  26.493  24.691  1.00  0.00     0.140 C 
ATOM     11  C   UNL A   1      32.723  27.756  25.353  1.00  0.00     0.023 C 
ATOM     12  C   UNL A   1      32.426  26.344  25.873  1.00  0.00     0.021 C 
BRANCH   8  13
ATOM     13  C   UNL A   1      30.141  28.455  23.102  1.00  0.00     0.410 C 
ATOM     14  O   UNL A   1      30.368  27.970  22.005  1.00  0.00    -0.224 OA
BRANCH  13  15
ATOM     15  O   UNL A   1      29.565  29.675  23.297  1.00  0.00    -0.444 OA
BRANCH  15  16
ATOM     16  C   UNL A   1      28.226  29.957  22.802  1.00  0.00     0.106 C 
ATOM     17  C   UNL A   1      27.735  31.156  23.631  1.00  0.00     0.056 C 
ATOM     18  C   UNL A   1      27.322  28.753  23.079  1.00  0.00     0.056 C 
ATOM     19  C   UNL A   1      28.171  30.368  21.321  1.00  0.00     0.056 C 
ENDBRANCH  15  16
ENDBRANCH  13  15
ENDBRANCH   8  13
BRANCH   7  20
ATOM     20  C   UNL A   1      30.910  24.302  25.779  1.00  0.00     0.054 C 
BRANCH  20  21
ATOM     21  C   UNL A   1      31.805  23.094  25.980  1.00  0.00    -0.047 A 
ATOM     22  C   UNL A   1      32.742  23.098  27.033  1.00  0.00     0.004 A 
ATOM     23  C   UNL A   1      31.826  22.023  25.084  1.00  0.00     0.004 A 
ATOM     24  C   UNL A   1      33.654  22.054  27.195  1.00  0.00     0.000 A 
ATOM     25  C   UNL A   1      32.720  20.963  25.263  1.00  0.00     0.000 A 
ATOM     26  C   UNL A   1      33.635  20.980  26.314  1.00  0.00     0.000 A 
ENDBRANCH  20  21
ENDBRANCH   7  20
ENDBRANCH   4   7
ENDBRANCH   2   3
ENDBRANCH   1   2
BRANCH   1  27
ATOM     27  C   UNL A   1      36.609  23.179  24.139  1.00  0.00     0.023 C 
BRANCH  27  28
ATOM     28  C   UNL A   1      36.882  23.132  25.640  1.00  0.00     0.116 C 
BRANCH  28  29
ATOM     29  N   UNL A   1      38.001  22.268  25.992  1.00  0.00    -0.352 N 
ATOM     30  C   UNL A   1      39.215  22.623  26.526  1.00  0.00     0.251 C 
ATOM     31  H   UNL A   1      37.869  21.307  25.826  1.00  0.00     0.163 HD
ATOM     32  O   UNL A   1      40.105  21.788  26.648  1.00  0.00    -0.269 OA
BRANCH  30  33
ATOM     33  C   UNL A   1      39.438  24.032  26.909  1.00  0.00     0.039 A 
ATOM     34  C   UNL A   1      39.157  24.430  28.216  1.00  0.00     0.014 A 
ATOM     35  C   UNL A   1      39.992  24.931  25.993  1.00  0.00     0.014 A 
ATOM     36  C   UNL A   1      39.500  25.719  28.627  1.00  0.00     0.010 A 
ATOM     37  C   UNL A   1      40.408  26.184  26.428  1.00  0.00     0.010 A 
ATOM     38  C   UNL A   1      40.168  26.591  27.749  1.00  0.00    -0.014 A 
BRANCH  38  39
ATOM     39  C   UNL A   1      40.623  27.933  28.197  1.00  0.00     0.031 A 
ATOM     40  C   UNL A   1      42.088  28.271  28.181  1.00  0.00     0.074 A 
ATOM     41  C   UNL A   1      39.723  28.819  28.673  1.00  0.00     0.049 A 
ATOM     42  N   UNL A   1      42.691  29.357  28.594  1.00  0.00    -0.248 NA
ATOM     43  C   UNL A   1      42.998  27.240  27.658  1.00  0.00     0.031 C 
ATOM     44  C   UNL A   1      38.281  28.586  28.777  1.00  0.00     0.029 A 
ATOM     45  N   UNL A   1      39.887  30.090  29.164  1.00  0.00    -0.354 N 
ATOM     46  C   UNL A   1      44.049  29.134  28.392  1.00  0.00     0.074 A 
ATOM     47  C   UNL A   1      44.183  27.786  27.883  1.00  0.00     0.031 C 
ATOM     48  C   UNL A   1      37.691  29.688  29.269  1.00  0.00     0.029 A 
ATOM     49  C   UNL A   1      38.714  30.686  29.565  1.00  0.00     0.049 A 
ATOM     50  H   UNL A   1      40.764  30.534  29.222  1.00  0.00     0.167 HD
ATOM     51  C   UNL A   1      45.084  29.986  28.587  1.00  0.00     0.034 A 
ATOM     52  C   UNL A   1      38.488  31.894  30.120  1.00  0.00     0.034 A 
ATOM     53  C   UNL A   1      44.930  31.332  29.085  1.00  0.00     0.049 A 
ATOM     54  C   UNL A   1      39.662  32.811  30.358  1.00  0.00     0.074 A 
ATOM     55  C   UNL A   1      45.903  32.297  29.271  1.00  0.00     0.029 A 
ATOM     56  N   UNL A   1      43.727  31.900  29.485  1.00  0.00    -0.354 N 
ATOM     57  N   UNL A   1      40.935  32.607  30.109  1.00  0.00    -0.248 NA
ATOM     58  C   UNL A   1      39.367  34.126  30.942  1.00  0.00     0.031 C 
ATOM     59  C   UNL A   1      45.303  33.418  29.855  1.00  0.00     0.029 A 
ATOM     60  C   UNL A   1      43.940  33.188  29.950  1.00  0.00     0.049 A 
ATOM     61  H   UNL A   1      42.851  31.451  29.445  1.00  0.00     0.167 HD
ATOM     62  C   UNL A   1      41.587  33.783  30.473  1.00  0.00     0.074 A 
ATOM     63  C   UNL A   1      40.564  34.695  30.941  1.00  0.00     0.031 C 
ATOM     64  C   UNL A   1      42.910  34.085  30.422  1.00  0.00     0.034 A 
BRANCH  51  65
ATOM     65  C   UNL A   1      46.474  29.477  28.285  1.00  0.00     0.023 A 
ATOM     66  C   UNL A   1      47.276  28.885  29.277  1.00  0.00     0.031 A 
ATOM     67  C   UNL A   1      47.012  29.597  26.992  1.00  0.00     0.131 A 
ATOM     68  C   UNL A   1      48.593  28.504  28.979  1.00  0.00     0.055 A 
ATOM     69  C   UNL A   1      48.294  29.138  26.681  1.00  0.00     0.041 A 
ATOM     70  F   UNL A   1      46.305  30.174  26.008  1.00  0.00    -0.206 F 
ATOM     71  C   UNL A   1      49.098  28.600  27.682  1.00  0.00     0.022 A 
BRANCH  68  72
ATOM     72  S   UNL A   1      49.683  28.016  30.345  1.00  0.00     0.124 S 
ATOM     73  O   UNL A   1      48.784  28.125  31.492  1.00  0.00    -0.237 OA
ATOM     74  O   UNL A   1      50.075  26.663  29.968  1.00  0.00    -0.237 OA
ATOM     75  O   UNL A   1      50.752  29.010  30.303  1.00  0.00    -0.744 OA
ENDBRANCH  68  72
ENDBRANCH  51  65
BRANCH  52  76
ATOM     76  C   UNL A   1      37.107  32.309  30.505  1.00  0.00     0.023 A 
ATOM     77  C   UNL A   1      36.233  32.877  29.564  1.00  0.00     0.031 A 
ATOM     78  C   UNL A   1      36.660  32.198  31.834  1.00  0.00     0.131 A 
ATOM     79  C   UNL A   1      34.982  33.365  29.975  1.00  0.00     0.055 A 
ATOM     80  C   UNL A   1      35.390  32.627  32.224  1.00  0.00     0.041 A 
ATOM     81  F   UNL A   1      37.452  31.661  32.776  1.00  0.00    -0.206 F 
ATOM     82  C   UNL A   1      34.548  33.229  31.295  1.00  0.00     0.022 A 
BRANCH  79  83
ATOM     83  S   UNL A   1      33.970  34.276  28.776  1.00  0.00     0.124 S 
ATOM     84  O   UNL A   1      33.811  33.290  27.713  1.00  0.00    -0.237 OA
ATOM     85  O   UNL A   1      32.775  34.578  29.557  1.00  0.00    -0.237 OA
ATOM     86  O   UNL A   1      34.800  35.430  28.438  1.00  0.00    -0.744 OA
ENDBRANCH  79  83
ENDBRANCH  52  76
BRANCH  64  87
ATOM     87  C   UNL A   1      43.314  35.480  30.835  1.00  0.00     0.023 A 
ATOM     88  C   UNL A   1      43.408  36.532  29.908  1.00  0.00     0.031 A 
ATOM     89  C   UNL A   1      43.619  35.756  32.181  1.00  0.00     0.131 A 
ATOM     90  C   UNL A   1      43.853  37.794  30.327  1.00  0.00     0.055 A 
ATOM     91  C   UNL A   1      43.994  37.032  32.603  1.00  0.00     0.041 A 
ATOM     92  F   UNL A   1      43.550  34.789  33.110  1.00  0.00    -0.206 F 
ATOM     93  C   UNL A   1      44.128  38.056  31.672  1.00  0.00     0.022 A 
BRANCH  90  94
ATOM     94  S   UNL A   1      44.167  39.067  29.073  1.00  0.00     0.124 S 
ATOM     95  O   UNL A   1      42.933  39.844  29.114  1.00  0.00    -0.237 OA
ATOM     96  O   UNL A   1      45.357  39.733  29.595  1.00  0.00    -0.237 OA
ATOM     97  O   UNL A   1      44.375  38.298  27.848  1.00  0.00    -0.744 OA
ENDBRANCH  90  94
ENDBRANCH  64  87
ENDBRANCH  38  39
ENDBRANCH  30  33
ENDBRANCH  28  29
ENDBRANCH  27  28
ENDBRANCH   1  27
TORSDOF 19
ENDMDL
MODEL 2
REMARK VINA RESULT:     -11.8      2.462      7.661
REMARK SMILES CC(C)(C)OC(=O)N1CCC[C@](Cc2ccccc2)(C(=O)NCCCCNC(=O)c2ccc(-c3c4nc(c(-c5cc(S(=O)(=O)[O-])ccc5F)c5ccc([nH]5)c(-c5cc(S(=O)(=O)[O-])ccc5F)c5nc(c(-c6cc(S(=O)(=O)[O-])ccc6F)c6ccc3[nH]6)C=C5)C=C4)cc2)C1
REMARK SMILES IDX 24 1 23 2 22 3 20 4 21 5 12 7 8 8 9 9 93 10 10 11 11 12 6 13
REMARK SMILES IDX 7 14 5 15 2 16 1 17 3 18 4 19 13 20 14 21 15 22 19 23 16 24
REMARK SMILES IDX 18 25 17 26 25 27 26 28 27 29 28 30 29 32 30 33 31 34 92 35
REMARK SMILES IDX 32 36 91 37 33 38 34 39 35 40 85 41 36 42 90 43 84 44 86 45
REMARK SMILES IDX 37 46 89 47 83 48 82 49 38 51 70 52 50 53 69 54 51 55 54 56
REMARK SMILES IDX 68 57 87 58 52 59 53 60 67 62 88 63 55 64 39 65 40 66 48 67
REMARK SMILES IDX 41 68 47 69 49 70 46 71 42 72 43 73 44 74 45 75 71 76 72 77
REMARK SMILES IDX 80 78 73 79 79 80 81 81 78 82 74 83 75 84 76 85 77 86 56 87
REMARK SMILES IDX 57 88 65 89 58 90 64 91 66 92 63 93 59 94 60 95 61 96 62 97
REMARK H PARENT 22 6 27 31 86 50 54 61
REMARK Flexibility Score: inf
ROOT
ATOM      1  C   UNL A   1      35.107  23.282  23.491  1.00  0.00     0.023 C 
ENDROOT
BRANCH   1   2
ATOM      2  C   UNL A   1      34.525  24.555  24.112  1.00  0.00     0.116 C 
BRANCH   2   3
ATOM      3  N   UNL A   1      33.391  25.028  23.338  1.00  0.00    -0.356 N 
ATOM      4  C   UNL A   1      32.078  25.267  23.573  1.00  0.00     0.228 C 
ATOM      5  O   UNL A   1      31.407  25.313  22.534  1.00  0.00    -0.274 OA
ATOM      6  H   UNL A   1      33.640  25.227  22.406  1.00  0.00     0.163 HD
BRANCH   4   7
ATOM      7  C   UNL A   1      31.430  25.605  24.954  1.00  0.00     0.071 C 
ATOM      8  N   UNL A   1      30.533  27.880  24.274  1.00  0.00    -0.307 N 
ATOM      9  C   UNL A   1      31.455  28.581  25.145  1.00  0.00     0.123 C 
ATOM     10  C   UNL A   1      30.188  26.512  24.665  1.00  0.00     0.140 C 
ATOM     11  C   UNL A   1      32.751  27.802  25.284  1.00  0.00     0.023 C 
ATOM     12  C   UNL A   1      32.485  26.380  25.792  1.00  0.00     0.021 C 
BRANCH   8  13
ATOM     13  C   UNL A   1      30.109  28.494  23.102  1.00  0.00     0.410 C 
ATOM     14  O   UNL A   1      30.316  28.024  21.995  1.00  0.00    -0.224 OA
BRANCH  13  15
ATOM     15  O   UNL A   1      29.523  29.704  23.325  1.00  0.00    -0.444 OA
BRANCH  15  16
ATOM     16  C   UNL A   1      28.181  29.987  22.839  1.00  0.00     0.106 C 
ATOM     17  C   UNL A   1      27.697  31.188  23.668  1.00  0.00     0.056 C 
ATOM     18  C   UNL A   1      27.278  28.784  23.123  1.00  0.00     0.056 C 
ATOM     19  C   UNL A   1      28.117  30.396  21.358  1.00  0.00     0.056 C 
ENDBRANCH  15  16
ENDBRANCH  13  15
ENDBRANCH   8  13
BRANCH   7  20
ATOM     20  C   UNL A   1      30.995  24.318  25.707  1.00  0.00     0.054 C 
BRANCH  20  21
ATOM     21  C   UNL A   1      31.892  23.102  25.831  1.00  0.00    -0.047 A 
ATOM     22  C   UNL A   1      31.772  22.058  24.891  1.00  0.00     0.004 A 
ATOM     23  C   UNL A   1      32.751  22.915  26.916  1.00  0.00     0.004 A 
ATOM     24  C   UNL A   1      32.503  20.877  25.023  1.00  0.00     0.000 A 
ATOM     25  C   UNL A   1      33.505  21.744  27.033  1.00  0.00     0.000 A 
ATOM     26  C   UNL A   1      33.380  20.725  26.090  1.00  0.00     0.000 A 
ENDBRANCH  20  21
ENDBRANCH   7  20
ENDBRANCH   4   7
ENDBRANCH   2   3
ENDBRANCH   1   2
BRANCH   1  27
ATOM     27  C   UNL A   1      36.532  22.968  23.959  1.00  0.00     0.023 C 
BRANCH  27  28
ATOM     28  C   UNL A   1      36.633  22.409  25.376  1.00  0.00     0.116 C 
BRANCH  28  29
ATOM     29  N   UNL A   1      37.559  21.291  25.485  1.00  0.00    -0.352 N 
ATOM     30  C   UNL A   1      38.856  21.301  25.939  1.00  0.00     0.251 C 
ATOM     31  H   UNL A   1      37.211  20.416  25.199  1.00  0.00     0.163 HD
ATOM     32  O   UNL A   1      39.550  20.294  25.850  1.00  0.00    -0.269 OA
BRANCH  30  33
ATOM     33  C   UNL A   1      39.404  22.555  26.494  1.00  0.00     0.039 A 
ATOM     34  C   UNL A   1      40.443  22.487  27.423  1.00  0.00     0.014 A 
ATOM     35  C   UNL A   1      38.937  23.791  26.036  1.00  0.00     0.014 A 
ATOM     36  C   UNL A   1      41.065  23.664  27.841  1.00  0.00     0.010 A 
ATOM     37  C   UNL A   1      39.612  24.953  26.391  1.00  0.00     0.010 A 
ATOM     38  C   UNL A   1      40.683  24.902  27.295  1.00  0.00    -0.014 A 
BRANCH  38  39
ATOM     39  C   UNL A   1      41.395  26.155  27.660  1.00  0.00     0.031 A 
ATOM     40  C   UNL A   1      40.671  27.235  28.416  1.00  0.00     0.074 A 
ATOM     41  C   UNL A   1      42.669  26.340  27.258  1.00  0.00     0.049 A 
ATOM     42  N   UNL A   1      41.092  28.423  28.768  1.00  0.00    -0.248 NA
ATOM     43  C   UNL A   1      39.280  26.951  28.803  1.00  0.00     0.031 C 
ATOM     44  C   UNL A   1      43.460  25.381  26.482  1.00  0.00     0.029 A 
ATOM     45  N   UNL A   1      43.523  27.399  27.439  1.00  0.00    -0.354 N 
ATOM     46  C   UNL A   1      40.015  29.032  29.404  1.00  0.00     0.074 A 
ATOM     47  C   UNL A   1      38.905  28.107  29.330  1.00  0.00     0.031 C 
ATOM     48  C   UNL A   1      44.689  25.883  26.283  1.00  0.00     0.029 A 
ATOM     49  C   UNL A   1      44.762  27.218  26.867  1.00  0.00     0.049 A 
ATOM     50  H   UNL A   1      43.273  28.213  27.934  1.00  0.00     0.167 HD
ATOM     51  C   UNL A   1      39.968  30.239  30.017  1.00  0.00     0.034 A 
ATOM     52  C   UNL A   1      45.830  28.039  26.809  1.00  0.00     0.034 A 
ATOM     53  C   UNL A   1      41.089  31.144  30.090  1.00  0.00     0.049 A 
ATOM     54  C   UNL A   1      45.740  29.392  27.471  1.00  0.00     0.074 A 
ATOM     55  C   UNL A   1      41.167  32.368  30.731  1.00  0.00     0.029 A 
ATOM     56  N   UNL A   1      42.326  30.929  29.496  1.00  0.00    -0.354 N 
ATOM     57  N   UNL A   1      44.732  29.931  28.118  1.00  0.00    -0.248 NA
ATOM     58  C   UNL A   1      46.935  30.243  27.404  1.00  0.00     0.031 C 
ATOM     59  C   UNL A   1      42.420  32.926  30.460  1.00  0.00     0.029 A 
ATOM     60  C   UNL A   1      43.160  32.012  29.726  1.00  0.00     0.049 A 
ATOM     61  H   UNL A   1      42.574  30.124  28.985  1.00  0.00     0.167 HD
ATOM     62  C   UNL A   1      45.186  31.169  28.566  1.00  0.00     0.074 A 
ATOM     63  C   UNL A   1      46.562  31.287  28.129  1.00  0.00     0.031 C 
ATOM     64  C   UNL A   1      44.529  32.121  29.277  1.00  0.00     0.034 A 
BRANCH  51  65
ATOM     65  C   UNL A   1      38.653  30.658  30.632  1.00  0.00     0.023 A 
ATOM     66  C   UNL A   1      37.656  31.302  29.878  1.00  0.00     0.031 A 
ATOM     67  C   UNL A   1      38.397  30.425  31.995  1.00  0.00     0.131 A 
ATOM     68  C   UNL A   1      36.484  31.753  30.505  1.00  0.00     0.055 A 
ATOM     69  C   UNL A   1      37.193  30.801  32.594  1.00  0.00     0.041 A 
ATOM     70  F   UNL A   1      39.319  29.835  32.772  1.00  0.00    -0.206 F 
ATOM     71  C   UNL A   1      36.234  31.483  31.851  1.00  0.00     0.022 A 
BRANCH  68  72
ATOM     72  S   UNL A   1      35.360  32.826  29.568  1.00  0.00     0.124 S 
ATOM     73  O   UNL A   1      34.400  33.216  30.598  1.00  0.00    -0.237 OA
ATOM     74  O   UNL A   1      36.250  33.878  29.092  1.00  0.00    -0.237 OA
ATOM     75  O   UNL A   1      34.828  31.943  28.533  1.00  0.00    -0.744 OA
ENDBRANCH  68  72
ENDBRANCH  51  65
BRANCH  52  76
ATOM     76  C   UNL A   1      47.071  27.624  26.092  1.00  0.00     0.023 A 
ATOM     77  C   UNL A   1      47.246  27.903  24.727  1.00  0.00     0.031 A 
ATOM     78  C   UNL A   1      48.077  26.891  26.747  1.00  0.00     0.131 A 
ATOM     79  C   UNL A   1      48.369  27.403  24.048  1.00  0.00     0.055 A 
ATOM     80  C   UNL A   1      49.222  26.450  26.081  1.00  0.00     0.041 A 
ATOM     81  F   UNL A   1      47.964  26.597  28.052  1.00  0.00    -0.206 F 
ATOM     82  C   UNL A   1      49.365  26.692  24.719  1.00  0.00     0.022 A 
BRANCH  79  83
ATOM     83  S   UNL A   1      48.455  27.606  22.247  1.00  0.00     0.124 S 
ATOM     84  O   UNL A   1      49.609  28.487  22.104  1.00  0.00    -0.237 OA
ATOM     85  O   UNL A   1      48.636  26.231  21.796  1.00  0.00    -0.237 OA
ATOM     86  O   UNL A   1      47.166  28.206  21.911  1.00  0.00    -0.744 OA
ENDBRANCH  79  83
ENDBRANCH  52  76
BRANCH  64  87
ATOM     87  C   UNL A   1      45.312  33.350  29.671  1.00  0.00     0.023 A 
ATOM     88  C   UNL A   1      45.360  34.494  28.855  1.00  0.00     0.031 A 
ATOM     89  C   UNL A   1      46.030  33.371  30.881  1.00  0.00     0.131 A 
ATOM     90  C   UNL A   1      46.156  35.586  29.231  1.00  0.00     0.055 A 
ATOM     91  C   UNL A   1      46.764  34.488  31.281  1.00  0.00     0.041 A 
ATOM     92  F   UNL A   1      46.024  32.305  31.698  1.00  0.00    -0.206 F 
ATOM     93  C   UNL A   1      46.842  35.598  30.448  1.00  0.00     0.022 A 
BRANCH  90  94
ATOM     94  S   UNL A   1      46.365  36.954  28.058  1.00  0.00     0.124 S 
ATOM     95  O   UNL A   1      47.294  36.383  27.089  1.00  0.00    -0.237 OA
ATOM     96  O   UNL A   1      45.002  37.171  27.583  1.00  0.00    -0.237 OA
ATOM     97  O   UNL A   1      46.912  38.032  28.880  1.00  0.00    -0.744 OA
ENDBRANCH  90  94
ENDBRANCH  64  87
ENDBRANCH  38  39
ENDBRANCH  30  33
ENDBRANCH  28  29
ENDBRANCH  27  28
ENDBRANCH   1  27
TORSDOF 19
ENDMDL
MODEL 3
REMARK VINA RESULT:     -11.6      1.843      2.127
REMARK SMILES CC(C)(C)OC(=O)N1CCC[C@](Cc2ccccc2)(C(=O)NCCCCNC(=O)c2ccc(-c3c4nc(c(-c5cc(S(=O)(=O)[O-])ccc5F)c5ccc([nH]5)c(-c5cc(S(=O)(=O)[O-])ccc5F)c5nc(c(-c6cc(S(=O)(=O)[O-])ccc6F)c6ccc3[nH]6)C=C5)C=C4)cc2)C1
REMARK SMILES IDX 24 1 23 2 22 3 20 4 21 5 12 7 8 8 9 9 93 10 10 11 11 12 6 13
REMARK SMILES IDX 7 14 5 15 2 16 1 17 3 18 4 19 13 20 14 21 15 22 19 23 16 24
REMARK SMILES IDX 18 25 17 26 25 27 26 28 27 29 28 30 29 32 30 33 31 34 92 35
REMARK SMILES IDX 32 36 91 37 33 38 34 39 35 40 85 41 36 42 90 43 84 44 86 45
REMARK SMILES IDX 37 46 89 47 83 48 82 49 38 51 70 52 50 53 69 54 51 55 54 56
REMARK SMILES IDX 68 57 87 58 52 59 53 60 67 62 88 63 55 64 39 65 40 66 48 67
REMARK SMILES IDX 41 68 47 69 49 70 46 71 42 72 43 73 44 74 45 75 71 76 72 77
REMARK SMILES IDX 80 78 73 79 79 80 81 81 78 82 74 83 75 84 76 85 77 86 56 87
REMARK SMILES IDX 57 88 65 89 58 90 64 91 66 92 63 93 59 94 60 95 61 96 62 97
REMARK H PARENT 22 6 27 31 86 50 54 61
REMARK Flexibility Score: inf
ROOT
ATOM      1  C   UNL A   1      35.030  23.246  23.457  1.00  0.00     0.023 C 
ENDROOT
BRANCH   1   2
ATOM      2  C   UNL A   1      34.667  24.724  23.623  1.00  0.00     0.116 C 
BRANCH   2   3
ATOM      3  N   UNL A   1      33.315  24.974  23.154  1.00  0.00    -0.356 N 
ATOM      4  C   UNL A   1      32.114  25.235  23.726  1.00  0.00     0.228 C 
ATOM      5  O   UNL A   1      31.164  25.016  22.963  1.00  0.00    -0.274 OA
ATOM      6  H   UNL A   1      33.257  24.947  22.172  1.00  0.00     0.163 HD
BRANCH   4   7
ATOM      7  C   UNL A   1      31.876  25.883  25.128  1.00  0.00     0.071 C 
ATOM      8  N   UNL A   1      31.018  28.105  24.249  1.00  0.00    -0.307 N 
ATOM      9  C   UNL A   1      32.188  28.820  24.718  1.00  0.00     0.123 C 
ATOM     10  C   UNL A   1      30.678  26.878  24.973  1.00  0.00     0.140 C 
ATOM     11  C   UNL A   1      33.409  27.918  24.693  1.00  0.00     0.023 C 
ATOM     12  C   UNL A   1      33.171  26.648  25.519  1.00  0.00     0.021 C 
BRANCH   8  13
ATOM     13  C   UNL A   1      30.356  28.559  23.116  1.00  0.00     0.410 C 
ATOM     14  O   UNL A   1      30.406  27.982  22.042  1.00  0.00    -0.224 OA
BRANCH  13  15
ATOM     15  O   UNL A   1      29.725  29.751  23.319  1.00  0.00    -0.444 OA
BRANCH  15  16
ATOM     16  C   UNL A   1      28.345  29.947  22.902  1.00  0.00     0.106 C 
ATOM     17  C   UNL A   1      28.422  30.285  21.404  1.00  0.00     0.056 C 
ATOM     18  C   UNL A   1      27.756  31.142  23.656  1.00  0.00     0.056 C 
ATOM     19  C   UNL A   1      27.456  28.701  23.047  1.00  0.00     0.056 C 
ENDBRANCH  15  16
ENDBRANCH  13  15
ENDBRANCH   8  13
BRANCH   7  20
ATOM     20  C   UNL A   1      31.550  24.809  26.201  1.00  0.00     0.054 C 
BRANCH  20  21
ATOM     21  C   UNL A   1      32.199  23.438  26.208  1.00  0.00    -0.047 A 
ATOM     22  C   UNL A   1      33.360  23.229  26.979  1.00  0.00     0.004 A 
ATOM     23  C   UNL A   1      31.762  22.401  25.380  1.00  0.00     0.004 A 
ATOM     24  C   UNL A   1      34.048  22.016  26.937  1.00  0.00     0.000 A 
ATOM     25  C   UNL A   1      32.435  21.176  25.360  1.00  0.00     0.000 A 
ATOM     26  C   UNL A   1      33.577  20.984  26.134  1.00  0.00     0.000 A 
ENDBRANCH  20  21
ENDBRANCH   7  20
ENDBRANCH   4   7
ENDBRANCH   2   3
ENDBRANCH   1   2
BRANCH   1  27
ATOM     27  C   UNL A   1      36.498  22.937  23.769  1.00  0.00     0.023 C 
BRANCH  27  28
ATOM     28  C   UNL A   1      36.907  23.170  25.221  1.00  0.00     0.116 C 
BRANCH  28  29
ATOM     29  N   UNL A   1      37.944  22.255  25.677  1.00  0.00    -0.352 N 
ATOM     30  C   UNL A   1      39.107  22.551  26.346  1.00  0.00     0.251 C 
ATOM     31  H   UNL A   1      37.791  21.302  25.482  1.00  0.00     0.163 HD
ATOM     32  O   UNL A   1      39.943  21.676  26.549  1.00  0.00    -0.269 OA
BRANCH  30  33
ATOM     33  C   UNL A   1      39.345  23.944  26.774  1.00  0.00     0.039 A 
ATOM     34  C   UNL A   1      39.040  24.309  28.086  1.00  0.00     0.014 A 
ATOM     35  C   UNL A   1      39.934  24.859  25.898  1.00  0.00     0.014 A 
ATOM     36  C   UNL A   1      39.396  25.579  28.542  1.00  0.00     0.010 A 
ATOM     37  C   UNL A   1      40.362  26.091  26.378  1.00  0.00     0.010 A 
ATOM     38  C   UNL A   1      40.099  26.464  27.705  1.00  0.00    -0.014 A 
BRANCH  38  39
ATOM     39  C   UNL A   1      40.566  27.784  28.201  1.00  0.00     0.031 A 
ATOM     40  C   UNL A   1      42.039  28.078  28.277  1.00  0.00     0.074 A 
ATOM     41  C   UNL A   1      39.667  28.690  28.638  1.00  0.00     0.049 A 
ATOM     42  N   UNL A   1      42.649  29.138  28.743  1.00  0.00    -0.248 NA
ATOM     43  C   UNL A   1      42.948  27.027  27.791  1.00  0.00     0.031 C 
ATOM     44  C   UNL A   1      38.214  28.501  28.653  1.00  0.00     0.029 A 
ATOM     45  N   UNL A   1      39.839  29.948  29.159  1.00  0.00    -0.354 N 
ATOM     46  C   UNL A   1      44.009  28.876  28.618  1.00  0.00     0.074 A 
ATOM     47  C   UNL A   1      44.133  27.533  28.095  1.00  0.00     0.031 C 
ATOM     48  C   UNL A   1      37.630  29.612  29.128  1.00  0.00     0.029 A 
ATOM     49  C   UNL A   1      38.662  30.574  29.500  1.00  0.00     0.049 A 
ATOM     50  H   UNL A   1      40.724  30.365  29.276  1.00  0.00     0.167 HD
ATOM     51  C   UNL A   1      45.056  29.693  28.888  1.00  0.00     0.034 A 
ATOM     52  C   UNL A   1      38.440  31.780  30.061  1.00  0.00     0.034 A 
ATOM     53  C   UNL A   1      44.913  31.035  29.399  1.00  0.00     0.049 A 
ATOM     54  C   UNL A   1      39.625  32.657  30.384  1.00  0.00     0.074 A 
ATOM     55  C   UNL A   1      45.901  31.967  29.659  1.00  0.00     0.029 A 
ATOM     56  N   UNL A   1      43.705  31.634  29.737  1.00  0.00    -0.354 N 
ATOM     57  N   UNL A   1      40.904  32.418  30.207  1.00  0.00    -0.248 NA
ATOM     58  C   UNL A   1      39.335  33.971  30.971  1.00  0.00     0.031 C 
ATOM     59  C   UNL A   1      45.301  33.097  30.224  1.00  0.00     0.029 A 
ATOM     60  C   UNL A   1      43.928  32.908  30.235  1.00  0.00     0.049 A 
ATOM     61  H   UNL A   1      42.820  31.213  29.638  1.00  0.00     0.167 HD
ATOM     62  C   UNL A   1      41.568  33.567  30.629  1.00  0.00     0.074 A 
ATOM     63  C   UNL A   1      40.546  34.503  31.051  1.00  0.00     0.031 C 
ATOM     64  C   UNL A   1      42.900  33.829  30.660  1.00  0.00     0.034 A 
BRANCH  51  65
ATOM     65  C   UNL A   1      46.445  29.146  28.660  1.00  0.00     0.023 A 
ATOM     66  C   UNL A   1      46.967  28.971  27.366  1.00  0.00     0.031 A 
ATOM     67  C   UNL A   1      47.254  28.778  29.749  1.00  0.00     0.131 A 
ATOM     68  C   UNL A   1      48.227  28.378  27.193  1.00  0.00     0.055 A 
ATOM     69  C   UNL A   1      48.542  28.267  29.572  1.00  0.00     0.041 A 
ATOM     70  F   UNL A   1      46.803  28.899  31.008  1.00  0.00    -0.206 F 
ATOM     71  C   UNL A   1      49.030  28.051  28.287  1.00  0.00     0.022 A 
BRANCH  68  72
ATOM     72  S   UNL A   1      48.739  27.908  25.517  1.00  0.00     0.124 S 
ATOM     73  O   UNL A   1      49.977  28.669  25.363  1.00  0.00    -0.237 OA
ATOM     74  O   UNL A   1      48.888  26.461  25.625  1.00  0.00    -0.237 OA
ATOM     75  O   UNL A   1      47.630  28.360  24.681  1.00  0.00    -0.744 OA
ENDBRANCH  68  72
ENDBRANCH  51  65
BRANCH  52  76
ATOM     76  C   UNL A   1      37.052  32.232  30.371  1.00  0.00     0.023 A 
ATOM     77  C   UNL A   1      36.268  32.878  29.402  1.00  0.00     0.031 A 
ATOM     78  C   UNL A   1      36.508  32.076  31.659  1.00  0.00     0.131 A 
ATOM     79  C   UNL A   1      35.009  33.395  29.750  1.00  0.00     0.055 A 
ATOM     80  C   UNL A   1      35.231  32.537  31.983  1.00  0.00     0.041 A 
ATOM     81  F   UNL A   1      37.212  31.464  32.625  1.00  0.00    -0.206 F 
ATOM     82  C   UNL A   1      34.479  33.215  31.029  1.00  0.00     0.022 A 
BRANCH  79  83
ATOM     83  S   UNL A   1      34.118  34.402  28.532  1.00  0.00     0.124 S 
ATOM     84  O   UNL A   1      34.209  33.570  27.338  1.00  0.00    -0.237 OA
ATOM     85  O   UNL A   1      32.797  34.512  29.140  1.00  0.00    -0.237 OA
ATOM     86  O   UNL A   1      34.888  35.643  28.489  1.00  0.00    -0.744 OA
ENDBRANCH  79  83
ENDBRANCH  52  76
BRANCH  64  87
ATOM     87  C   UNL A   1      43.320  35.204  31.121  1.00  0.00     0.023 A 
ATOM     88  C   UNL A   1      43.314  35.568  32.478  1.00  0.00     0.031 A 
ATOM     89  C   UNL A   1      43.728  36.168  30.180  1.00  0.00     0.131 A 
ATOM     90  C   UNL A   1      43.648  36.878  32.851  1.00  0.00     0.055 A 
ATOM     91  C   UNL A   1      44.126  37.449  30.565  1.00  0.00     0.041 A 
ATOM     92  F   UNL A   1      43.752  35.878  28.869  1.00  0.00    -0.206 F 
ATOM     93  C   UNL A   1      44.073  37.815  31.905  1.00  0.00     0.022 A 
BRANCH  90  94
ATOM     94  S   UNL A   1      43.422  37.375  34.581  1.00  0.00     0.124 S 
ATOM     95  O   UNL A   1      44.800  37.513  35.039  1.00  0.00    -0.237 OA
ATOM     96  O   UNL A   1      42.666  38.618  34.453  1.00  0.00    -0.237 OA
ATOM     97  O   UNL A   1      42.683  36.258  35.166  1.00  0.00    -0.744 OA
ENDBRANCH  90  94
ENDBRANCH  64  87
ENDBRANCH  38  39
ENDBRANCH  30  33
ENDBRANCH  28  29
ENDBRANCH  27  28
ENDBRANCH   1  27
TORSDOF 19
ENDMDL
