MODEL 1
REMARK VINA RESULT:     -12.6      0.000      0.000
REMARK SMILES CCc1ccsc1CNC(=O)N1[C@H]2CC[C@@H]1[C@H](C(=O)NCCCCNC(=O)c1ccc(-c3c4nc(c(-c5cc(S(=O)(=O)[O-])ccc5F)c5ccc([nH]5)c(-c5cc(S(=O)(=O)[O-])ccc5F)c5nc(c(-c6cc(S(=O)(=O)[O-])ccc6F)c6ccc3[nH]6)C=C5)C=C4)cc1)C2
REMARK SMILES IDX 22 1 21 2 20 3 18 4 19 5 17 7 12 8 13 9 16 10 14 11 91 12
REMARK SMILES IDX 15 13 10 14 9 15 11 17 8 18 7 19 3 20 4 21 5 22 6 23 2 24
REMARK SMILES IDX 1 25 23 26 24 27 25 28 26 29 27 31 28 32 29 33 90 34 30 35
REMARK SMILES IDX 89 36 31 37 32 38 33 39 83 40 34 41 88 42 82 43 84 44 35 45
REMARK SMILES IDX 87 46 81 47 80 48 36 50 68 51 48 52 67 53 49 54 52 55 66 56
REMARK SMILES IDX 85 57 50 58 51 59 65 61 86 62 53 63 37 64 38 65 46 66 39 67
REMARK SMILES IDX 45 68 47 69 44 70 40 71 41 72 42 73 43 74 69 75 70 76 78 77
REMARK SMILES IDX 71 78 77 79 79 80 76 81 72 82 73 83 74 84 75 85 54 86 55 87
REMARK SMILES IDX 63 88 56 89 62 90 64 91 61 92 57 93 58 94 59 95 60 96
REMARK H PARENT 20 6 9 16 25 30 84 49 52 60
REMARK Flexibility Score: inf
ROOT
ATOM      1  C   UNL A   1      34.677  21.509  26.447  1.00  0.00     0.023 C 
ENDROOT
BRANCH   1   2
ATOM      2  C   UNL A   1      33.205  21.470  26.044  1.00  0.00     0.116 C 
BRANCH   2   3
ATOM      3  N   UNL A   1      32.458  22.524  26.689  1.00  0.00    -0.356 N 
ATOM      4  C   UNL A   1      31.935  23.687  26.241  1.00  0.00     0.225 C 
ATOM      5  O   UNL A   1      31.472  24.439  27.108  1.00  0.00    -0.275 OA
ATOM      6  H   UNL A   1      32.297  22.363  27.647  1.00  0.00     0.163 HD
BRANCH   4   7
ATOM      7  C   UNL A   1      31.888  24.130  24.790  1.00  0.00     0.103 C 
ATOM      8  N   UNL A   1      32.649  25.083  22.887  1.00  0.00    -0.318 N 
ATOM      9  C   UNL A   1      32.652  23.667  22.564  1.00  0.00     0.088 C 
ATOM     10  C   UNL A   1      33.038  25.022  24.283  1.00  0.00     0.099 C 
ATOM     11  C   UNL A   1      34.095  23.310  22.960  1.00  0.00     0.027 C 
ATOM     12  C   UNL A   1      31.663  23.139  23.623  1.00  0.00     0.040 C 
ATOM     13  C   UNL A   1      34.366  24.274  24.137  1.00  0.00     0.028 C 
BRANCH   8  14
ATOM     14  C   UNL A   1      32.765  26.162  22.082  1.00  0.00     0.318 C 
ATOM     15  N   UNL A   1      31.730  27.035  22.037  1.00  0.00    -0.333 N 
ATOM     16  H   UNL A   1      31.689  27.627  21.252  1.00  0.00     0.165 HD
ATOM     17  O   UNL A   1      33.781  26.406  21.436  1.00  0.00    -0.249 OA
BRANCH  15  18
ATOM     18  C   UNL A   1      30.677  27.190  23.016  1.00  0.00     0.165 C 
BRANCH  18  19
ATOM     19  C   UNL A   1      30.833  28.478  23.772  1.00  0.00     0.027 A 
ATOM     20  C   UNL A   1      30.079  29.649  23.763  1.00  0.00    -0.033 A 
ATOM     21  C   UNL A   1      30.573  30.566  24.766  1.00  0.00     0.016 A 
ATOM     22  C   UNL A   1      31.641  30.084  25.480  1.00  0.00     0.065 A 
ATOM     23  S   UNL A   1      32.077  28.526  24.975  1.00  0.00    -0.147 S 
BRANCH  20  24
ATOM     24  C   UNL A   1      28.870  30.035  22.943  1.00  0.00     0.033 C 
ATOM     25  C   UNL A   1      27.942  31.111  23.467  1.00  0.00     0.009 C 
ENDBRANCH  20  24
ENDBRANCH  18  19
ENDBRANCH  15  18
ENDBRANCH   8  14
ENDBRANCH   4   7
ENDBRANCH   2   3
ENDBRANCH   1   2
BRANCH   1  26
ATOM     26  C   UNL A   1      35.635  20.967  25.399  1.00  0.00     0.023 C 
BRANCH  26  27
ATOM     27  C   UNL A   1      37.031  21.569  25.436  1.00  0.00     0.116 C 
BRANCH  27  28
ATOM     28  N   UNL A   1      38.103  20.588  25.525  1.00  0.00    -0.352 N 
ATOM     29  C   UNL A   1      39.362  20.771  26.060  1.00  0.00     0.251 C 
ATOM     30  H   UNL A   1      37.908  19.694  25.163  1.00  0.00     0.163 HD
ATOM     31  O   UNL A   1      40.199  19.880  26.018  1.00  0.00    -0.269 OA
BRANCH  29  32
ATOM     32  C   UNL A   1      39.677  22.094  26.632  1.00  0.00     0.039 A 
ATOM     33  C   UNL A   1      40.728  22.205  27.542  1.00  0.00     0.014 A 
ATOM     34  C   UNL A   1      39.035  23.231  26.133  1.00  0.00     0.014 A 
ATOM     35  C   UNL A   1      41.201  23.473  27.887  1.00  0.00     0.010 A 
ATOM     36  C   UNL A   1      39.569  24.484  26.404  1.00  0.00     0.010 A 
ATOM     37  C   UNL A   1      40.659  24.619  27.280  1.00  0.00    -0.014 A 
BRANCH  37  38
ATOM     38  C   UNL A   1      41.206  25.975  27.549  1.00  0.00     0.031 A 
ATOM     39  C   UNL A   1      42.570  26.335  27.025  1.00  0.00     0.074 A 
ATOM     40  C   UNL A   1      40.524  26.837  28.330  1.00  0.00     0.049 A 
ATOM     41  N   UNL A   1      43.286  27.407  27.245  1.00  0.00    -0.248 NA
ATOM     42  C   UNL A   1      43.236  25.333  26.176  1.00  0.00     0.031 C 
ATOM     43  C   UNL A   1      39.220  26.578  28.947  1.00  0.00     0.029 A 
ATOM     44  N   UNL A   1      40.839  28.105  28.752  1.00  0.00    -0.354 N 
ATOM     45  C   UNL A   1      44.495  27.192  26.593  1.00  0.00     0.074 A 
ATOM     46  C   UNL A   1      44.436  25.866  26.019  1.00  0.00     0.031 C 
ATOM     47  C   UNL A   1      38.837  27.660  29.645  1.00  0.00     0.029 A 
ATOM     48  C   UNL A   1      39.883  28.675  29.562  1.00  0.00     0.049 A 
ATOM     49  H   UNL A   1      41.671  28.565  28.498  1.00  0.00     0.167 HD
ATOM     50  C   UNL A   1      45.548  28.036  26.462  1.00  0.00     0.034 A 
ATOM     51  C   UNL A   1      39.858  29.877  30.175  1.00  0.00     0.034 A 
ATOM     52  C   UNL A   1      45.568  29.374  26.993  1.00  0.00     0.049 A 
ATOM     53  C   UNL A   1      41.027  30.812  29.980  1.00  0.00     0.074 A 
ATOM     54  C   UNL A   1      46.545  30.343  26.850  1.00  0.00     0.029 A 
ATOM     55  N   UNL A   1      44.560  29.936  27.765  1.00  0.00    -0.354 N 
ATOM     56  N   UNL A   1      42.138  30.617  29.307  1.00  0.00    -0.248 NA
ATOM     57  C   UNL A   1      40.934  32.133  30.614  1.00  0.00     0.031 C 
ATOM     58  C   UNL A   1      46.151  31.473  27.575  1.00  0.00     0.029 A 
ATOM     59  C   UNL A   1      44.899  31.231  28.120  1.00  0.00     0.049 A 
ATOM     60  H   UNL A   1      43.725  29.480  28.023  1.00  0.00     0.167 HD
ATOM     61  C   UNL A   1      42.857  31.805  29.409  1.00  0.00     0.074 A 
ATOM     62  C   UNL A   1      42.049  32.713  30.195  1.00  0.00     0.031 C 
ATOM     63  C   UNL A   1      44.073  32.120  28.899  1.00  0.00     0.034 A 
BRANCH  50  64
ATOM     64  C   UNL A   1      46.761  27.525  25.727  1.00  0.00     0.023 A 
ATOM     65  C   UNL A   1      47.046  27.920  24.408  1.00  0.00     0.031 A 
ATOM     66  C   UNL A   1      47.635  26.615  26.346  1.00  0.00     0.131 A 
ATOM     67  C   UNL A   1      48.132  27.352  23.727  1.00  0.00     0.055 A 
ATOM     68  C   UNL A   1      48.761  26.114  25.688  1.00  0.00     0.041 A 
ATOM     69  F   UNL A   1      47.401  26.186  27.596  1.00  0.00    -0.206 F 
ATOM     70  C   UNL A   1      49.007  26.472  24.367  1.00  0.00     0.022 A 
BRANCH  67  71
ATOM     71  S   UNL A   1      48.313  27.690  21.955  1.00  0.00     0.124 S 
ATOM     72  O   UNL A   1      49.444  28.614  21.947  1.00  0.00    -0.237 OA
ATOM     73  O   UNL A   1      48.570  26.365  21.403  1.00  0.00    -0.237 OA
ATOM     74  O   UNL A   1      47.029  28.281  21.585  1.00  0.00    -0.744 OA
ENDBRANCH  67  71
ENDBRANCH  50  64
BRANCH  51  75
ATOM     75  C   UNL A   1      38.705  30.279  31.031  1.00  0.00     0.023 A 
ATOM     76  C   UNL A   1      37.615  30.979  30.488  1.00  0.00     0.031 A 
ATOM     77  C   UNL A   1      38.705  30.033  32.415  1.00  0.00     0.131 A 
ATOM     78  C   UNL A   1      36.602  31.463  31.332  1.00  0.00     0.055 A 
ATOM     79  C   UNL A   1      37.668  30.470  33.242  1.00  0.00     0.041 A 
ATOM     80  F   UNL A   1      39.719  29.363  32.985  1.00  0.00    -0.206 F 
ATOM     81  C   UNL A   1      36.617  31.205  32.703  1.00  0.00     0.022 A 
BRANCH  78  82
ATOM     82  S   UNL A   1      35.320  32.531  30.621  1.00  0.00     0.124 S 
ATOM     83  O   UNL A   1      34.865  31.737  29.484  1.00  0.00    -0.237 OA
ATOM     84  O   UNL A   1      34.383  32.657  31.732  1.00  0.00    -0.237 OA
ATOM     85  O   UNL A   1      36.047  33.752  30.278  1.00  0.00    -0.744 OA
ENDBRANCH  78  82
ENDBRANCH  51  75
BRANCH  63  86
ATOM     86  C   UNL A   1      44.569  33.524  29.131  1.00  0.00     0.023 A 
ATOM     87  C   UNL A   1      44.077  34.612  28.390  1.00  0.00     0.031 A 
ATOM     88  C   UNL A   1      45.552  33.771  30.105  1.00  0.00     0.131 A 
ATOM     89  C   UNL A   1      44.607  35.893  28.601  1.00  0.00     0.055 A 
ATOM     90  C   UNL A   1      46.036  35.057  30.348  1.00  0.00     0.041 A 
ATOM     91  F   UNL A   1      46.053  32.765  30.840  1.00  0.00    -0.206 F 
ATOM     92  C   UNL A   1      45.572  36.125  29.584  1.00  0.00     0.022 A 
BRANCH  89  93
ATOM     93  S   UNL A   1      44.072  37.244  27.515  1.00  0.00     0.124 S 
ATOM     94  O   UNL A   1      43.360  38.117  28.445  1.00  0.00    -0.237 OA
ATOM     95  O   UNL A   1      45.339  37.755  27.004  1.00  0.00    -0.237 OA
ATOM     96  O   UNL A   1      43.230  36.575  26.525  1.00  0.00    -0.744 OA
ENDBRANCH  89  93
ENDBRANCH  63  86
ENDBRANCH  37  38
ENDBRANCH  29  32
ENDBRANCH  27  28
ENDBRANCH  26  27
ENDBRANCH   1  26
TORSDOF 18
ENDMDL
MODEL 2
REMARK VINA RESULT:     -12.4      4.914     10.404
REMARK SMILES CCc1ccsc1CNC(=O)N1[C@H]2CC[C@@H]1[C@H](C(=O)NCCCCNC(=O)c1ccc(-c3c4nc(c(-c5cc(S(=O)(=O)[O-])ccc5F)c5ccc([nH]5)c(-c5cc(S(=O)(=O)[O-])ccc5F)c5nc(c(-c6cc(S(=O)(=O)[O-])ccc6F)c6ccc3[nH]6)C=C5)C=C4)cc1)C2
REMARK SMILES IDX 22 1 21 2 20 3 18 4 19 5 17 7 12 8 13 9 16 10 14 11 91 12
REMARK SMILES IDX 15 13 10 14 9 15 11 17 8 18 7 19 3 20 4 21 5 22 6 23 2 24
REMARK SMILES IDX 1 25 23 26 24 27 25 28 26 29 27 31 28 32 29 33 90 34 30 35
REMARK SMILES IDX 89 36 31 37 32 38 33 39 83 40 34 41 88 42 82 43 84 44 35 45
REMARK SMILES IDX 87 46 81 47 80 48 36 50 68 51 48 52 67 53 49 54 52 55 66 56
REMARK SMILES IDX 85 57 50 58 51 59 65 61 86 62 53 63 37 64 38 65 46 66 39 67
REMARK SMILES IDX 45 68 47 69 44 70 40 71 41 72 42 73 43 74 69 75 70 76 78 77
REMARK SMILES IDX 71 78 77 79 79 80 76 81 72 82 73 83 74 84 75 85 54 86 55 87
REMARK SMILES IDX 63 88 56 89 62 90 64 91 61 92 57 93 58 94 59 95 60 96
REMARK H PARENT 20 6 9 16 25 30 84 49 52 60
REMARK Flexibility Score: inf
ROOT
ATOM      1  C   UNL A   1      32.742  28.920  23.792  1.00  0.00     0.023 C 
ENDROOT
BRANCH   1   2
ATOM      2  C   UNL A   1      31.958  27.905  22.964  1.00  0.00     0.116 C 
BRANCH   2   3
ATOM      3  N   UNL A   1      32.836  26.922  22.374  1.00  0.00    -0.356 N 
ATOM      4  C   UNL A   1      33.078  25.622  22.652  1.00  0.00     0.225 C 
ATOM      5  O   UNL A   1      34.016  25.104  22.032  1.00  0.00    -0.275 OA
ATOM      6  H   UNL A   1      33.364  27.268  21.618  1.00  0.00     0.163 HD
BRANCH   4   7
ATOM      7  C   UNL A   1      32.310  24.777  23.652  1.00  0.00     0.103 C 
ATOM      8  N   UNL A   1      31.853  23.842  25.659  1.00  0.00    -0.318 N 
ATOM      9  C   UNL A   1      30.789  24.818  25.506  1.00  0.00     0.088 C 
ATOM     10  C   UNL A   1      32.947  24.567  25.040  1.00  0.00     0.099 C 
ATOM     11  C   UNL A   1      31.431  26.022  26.215  1.00  0.00     0.027 C 
ATOM     12  C   UNL A   1      30.817  25.022  23.977  1.00  0.00     0.040 C 
ATOM     13  C   UNL A   1      32.933  25.826  25.910  1.00  0.00     0.028 C 
BRANCH   8  14
ATOM     14  C   UNL A   1      31.980  22.817  26.530  1.00  0.00     0.318 C 
ATOM     15  N   UNL A   1      31.888  21.556  26.044  1.00  0.00    -0.333 N 
ATOM     16  H   UNL A   1      31.678  20.848  26.696  1.00  0.00     0.165 HD
ATOM     17  O   UNL A   1      32.222  22.981  27.724  1.00  0.00    -0.249 OA
BRANCH  15  18
ATOM     18  C   UNL A   1      32.064  21.136  24.672  1.00  0.00     0.165 C 
BRANCH  18  19
ATOM     19  C   UNL A   1      33.101  20.055  24.569  1.00  0.00     0.027 A 
ATOM     20  C   UNL A   1      34.474  20.070  24.802  1.00  0.00    -0.033 A 
ATOM     21  C   UNL A   1      35.014  18.734  24.680  1.00  0.00     0.016 A 
ATOM     22  C   UNL A   1      34.074  17.783  24.375  1.00  0.00     0.065 A 
ATOM     23  S   UNL A   1      32.527  18.458  24.229  1.00  0.00    -0.147 S 
BRANCH  20  24
ATOM     24  C   UNL A   1      35.395  21.205  25.191  1.00  0.00     0.033 C 
ATOM     25  C   UNL A   1      35.722  22.267  24.164  1.00  0.00     0.009 C 
ENDBRANCH  20  24
ENDBRANCH  18  19
ENDBRANCH  15  18
ENDBRANCH   8  14
ENDBRANCH   4   7
ENDBRANCH   2   3
ENDBRANCH   1   2
BRANCH   1  26
ATOM     26  C   UNL A   1      31.951  29.564  24.920  1.00  0.00     0.023 C 
BRANCH  26  27
ATOM     27  C   UNL A   1      32.780  29.981  26.124  1.00  0.00     0.116 C 
BRANCH  27  28
ATOM     28  N   UNL A   1      32.521  31.337  26.587  1.00  0.00    -0.352 N 
ATOM     29  C   UNL A   1      33.339  32.124  27.372  1.00  0.00     0.251 C 
ATOM     30  H   UNL A   1      31.666  31.738  26.309  1.00  0.00     0.163 HD
ATOM     31  O   UNL A   1      32.977  33.230  27.747  1.00  0.00    -0.269 OA
BRANCH  29  32
ATOM     32  C   UNL A   1      34.638  31.559  27.787  1.00  0.00     0.039 A 
ATOM     33  C   UNL A   1      35.714  32.422  27.997  1.00  0.00     0.014 A 
ATOM     34  C   UNL A   1      34.726  30.206  28.122  1.00  0.00     0.014 A 
ATOM     35  C   UNL A   1      36.860  31.939  28.634  1.00  0.00     0.010 A 
ATOM     36  C   UNL A   1      35.826  29.754  28.838  1.00  0.00     0.010 A 
ATOM     37  C   UNL A   1      36.903  30.616  29.105  1.00  0.00    -0.014 A 
BRANCH  37  38
ATOM     38  C   UNL A   1      38.067  30.102  29.874  1.00  0.00     0.031 A 
ATOM     39  C   UNL A   1      38.290  30.586  31.282  1.00  0.00     0.074 A 
ATOM     40  C   UNL A   1      38.960  29.283  29.284  1.00  0.00     0.049 A 
ATOM     41  N   UNL A   1      39.299  30.366  32.084  1.00  0.00    -0.248 NA
ATOM     42  C   UNL A   1      37.259  31.473  31.845  1.00  0.00     0.031 C 
ATOM     43  C   UNL A   1      38.884  28.794  27.904  1.00  0.00     0.029 A 
ATOM     44  N   UNL A   1      40.117  28.723  29.765  1.00  0.00    -0.354 N 
ATOM     45  C   UNL A   1      39.042  31.114  33.227  1.00  0.00     0.074 A 
ATOM     46  C   UNL A   1      37.811  31.837  32.991  1.00  0.00     0.031 C 
ATOM     47  C   UNL A   1      39.932  27.990  27.660  1.00  0.00     0.029 A 
ATOM     48  C   UNL A   1      40.779  27.937  28.848  1.00  0.00     0.049 A 
ATOM     49  H   UNL A   1      40.444  28.869  30.682  1.00  0.00     0.167 HD
ATOM     50  C   UNL A   1      39.753  31.171  34.380  1.00  0.00     0.034 A 
ATOM     51  C   UNL A   1      41.940  27.259  28.952  1.00  0.00     0.034 A 
ATOM     52  C   UNL A   1      40.946  30.402  34.618  1.00  0.00     0.049 A 
ATOM     53  C   UNL A   1      42.691  27.308  30.260  1.00  0.00     0.074 A 
ATOM     54  C   UNL A   1      41.700  30.318  35.776  1.00  0.00     0.029 A 
ATOM     55  N   UNL A   1      41.558  29.577  33.685  1.00  0.00    -0.354 N 
ATOM     56  N   UNL A   1      42.399  27.972  31.356  1.00  0.00    -0.248 NA
ATOM     57  C   UNL A   1      43.919  26.508  30.353  1.00  0.00     0.031 C 
ATOM     58  C   UNL A   1      42.794  29.482  35.527  1.00  0.00     0.029 A 
ATOM     59  C   UNL A   1      42.689  28.995  34.233  1.00  0.00     0.049 A 
ATOM     60  H   UNL A   1      41.236  29.428  32.766  1.00  0.00     0.167 HD
ATOM     61  C   UNL A   1      43.390  27.639  32.276  1.00  0.00     0.074 A 
ATOM     62  C   UNL A   1      44.276  26.706  31.613  1.00  0.00     0.031 C 
ATOM     63  C   UNL A   1      43.553  28.062  33.554  1.00  0.00     0.034 A 
BRANCH  50  64
ATOM     64  C   UNL A   1      39.259  32.104  35.456  1.00  0.00     0.023 A 
ATOM     65  C   UNL A   1      39.686  33.442  35.527  1.00  0.00     0.031 A 
ATOM     66  C   UNL A   1      38.363  31.645  36.437  1.00  0.00     0.131 A 
ATOM     67  C   UNL A   1      39.276  34.251  36.595  1.00  0.00     0.055 A 
ATOM     68  C   UNL A   1      37.897  32.481  37.455  1.00  0.00     0.041 A 
ATOM     69  F   UNL A   1      37.938  30.372  36.432  1.00  0.00    -0.206 F 
ATOM     70  C   UNL A   1      38.364  33.788  37.545  1.00  0.00     0.022 A 
BRANCH  67  71
ATOM     71  S   UNL A   1      40.048  35.880  36.793  1.00  0.00     0.124 S 
ATOM     72  O   UNL A   1      39.734  36.510  35.513  1.00  0.00    -0.237 OA
ATOM     73  O   UNL A   1      39.357  36.421  37.956  1.00  0.00    -0.237 OA
ATOM     74  O   UNL A   1      41.462  35.567  36.996  1.00  0.00    -0.744 OA
ENDBRANCH  67  71
ENDBRANCH  50  64
BRANCH  51  75
ATOM     75  C   UNL A   1      42.478  26.475  27.803  1.00  0.00     0.023 A 
ATOM     76  C   UNL A   1      42.034  25.166  27.553  1.00  0.00     0.031 A 
ATOM     77  C   UNL A   1      43.492  26.995  26.980  1.00  0.00     0.131 A 
ATOM     78  C   UNL A   1      42.645  24.399  26.548  1.00  0.00     0.055 A 
ATOM     79  C   UNL A   1      44.059  26.246  25.946  1.00  0.00     0.041 A 
ATOM     80  F   UNL A   1      43.948  28.243  27.170  1.00  0.00    -0.206 F 
ATOM     81  C   UNL A   1      43.648  24.933  25.737  1.00  0.00     0.022 A 
BRANCH  78  82
ATOM     82  S   UNL A   1      42.184  22.651  26.392  1.00  0.00     0.124 S 
ATOM     83  O   UNL A   1      40.727  22.724  26.421  1.00  0.00    -0.237 OA
ATOM     84  O   UNL A   1      42.784  22.295  25.110  1.00  0.00    -0.237 OA
ATOM     85  O   UNL A   1      42.801  22.031  27.562  1.00  0.00    -0.744 OA
ENDBRANCH  78  82
ENDBRANCH  51  75
BRANCH  63  86
ATOM     86  C   UNL A   1      44.702  27.469  34.329  1.00  0.00     0.023 A 
ATOM     87  C   UNL A   1      44.545  26.315  35.114  1.00  0.00     0.031 A 
ATOM     88  C   UNL A   1      45.970  28.075  34.281  1.00  0.00     0.131 A 
ATOM     89  C   UNL A   1      45.628  25.830  35.862  1.00  0.00     0.055 A 
ATOM     90  C   UNL A   1      47.057  27.557  34.985  1.00  0.00     0.041 A 
ATOM     91  F   UNL A   1      46.171  29.180  33.544  1.00  0.00    -0.206 F 
ATOM     92  C   UNL A   1      46.886  26.435  35.791  1.00  0.00     0.022 A 
BRANCH  89  93
ATOM     93  S   UNL A   1      45.349  24.440  36.994  1.00  0.00     0.124 S 
ATOM     94  O   UNL A   1      44.196  24.900  37.762  1.00  0.00    -0.237 OA
ATOM     95  O   UNL A   1      45.103  23.334  36.075  1.00  0.00    -0.237 OA
ATOM     96  O   UNL A   1      46.600  24.354  37.745  1.00  0.00    -0.744 OA
ENDBRANCH  89  93
ENDBRANCH  63  86
ENDBRANCH  37  38
ENDBRANCH  29  32
ENDBRANCH  27  28
ENDBRANCH  26  27
ENDBRANCH   1  26
TORSDOF 18
ENDMDL
MODEL 3
REMARK VINA RESULT:     -12.2      5.417      8.691
REMARK SMILES CCc1ccsc1CNC(=O)N1[C@H]2CC[C@@H]1[C@H](C(=O)NCCCCNC(=O)c1ccc(-c3c4nc(c(-c5cc(S(=O)(=O)[O-])ccc5F)c5ccc([nH]5)c(-c5cc(S(=O)(=O)[O-])ccc5F)c5nc(c(-c6cc(S(=O)(=O)[O-])ccc6F)c6ccc3[nH]6)C=C5)C=C4)cc1)C2
REMARK SMILES IDX 22 1 21 2 20 3 18 4 19 5 17 7 12 8 13 9 16 10 14 11 91 12
REMARK SMILES IDX 15 13 10 14 9 15 11 17 8 18 7 19 3 20 4 21 5 22 6 23 2 24
REMARK SMILES IDX 1 25 23 26 24 27 25 28 26 29 27 31 28 32 29 33 90 34 30 35
REMARK SMILES IDX 89 36 31 37 32 38 33 39 83 40 34 41 88 42 82 43 84 44 35 45
REMARK SMILES IDX 87 46 81 47 80 48 36 50 68 51 48 52 67 53 49 54 52 55 66 56
REMARK SMILES IDX 85 57 50 58 51 59 65 61 86 62 53 63 37 64 38 65 46 66 39 67
REMARK SMILES IDX 45 68 47 69 44 70 40 71 41 72 42 73 43 74 69 75 70 76 78 77
REMARK SMILES IDX 71 78 77 79 79 80 76 81 72 82 73 83 74 84 75 85 54 86 55 87
REMARK SMILES IDX 63 88 56 89 62 90 64 91 61 92 57 93 58 94 59 95 60 96
REMARK H PARENT 20 6 9 16 25 30 84 49 52 60
REMARK Flexibility Score: inf
ROOT
ATOM      1  C   UNL A   1      32.771  29.599  26.412  1.00  0.00     0.023 C 
ENDROOT
BRANCH   1   2
ATOM      2  C   UNL A   1      32.945  28.345  27.266  1.00  0.00     0.116 C 
BRANCH   2   3
ATOM      3  N   UNL A   1      31.787  27.486  27.177  1.00  0.00    -0.356 N 
ATOM      4  C   UNL A   1      31.433  26.509  26.314  1.00  0.00     0.225 C 
ATOM      5  O   UNL A   1      30.285  26.066  26.444  1.00  0.00    -0.275 OA
ATOM      6  H   UNL A   1      31.124  27.644  27.887  1.00  0.00     0.163 HD
BRANCH   4   7
ATOM      7  C   UNL A   1      32.314  25.940  25.217  1.00  0.00     0.103 C 
ATOM      8  N   UNL A   1      33.009  25.566  23.098  1.00  0.00    -0.318 N 
ATOM      9  C   UNL A   1      34.049  26.427  23.634  1.00  0.00     0.088 C 
ATOM     10  C   UNL A   1      31.850  26.134  23.761  1.00  0.00     0.099 C 
ATOM     11  C   UNL A   1      33.500  27.800  23.210  1.00  0.00     0.027 C 
ATOM     12  C   UNL A   1      33.836  26.212  25.146  1.00  0.00     0.040 C 
ATOM     13  C   UNL A   1      31.971  27.581  23.274  1.00  0.00     0.028 C 
BRANCH   8  14
ATOM     14  C   UNL A   1      32.987  24.820  21.973  1.00  0.00     0.318 C 
ATOM     15  N   UNL A   1      32.771  23.488  22.098  1.00  0.00    -0.333 N 
ATOM     16  H   UNL A   1      33.052  22.925  21.342  1.00  0.00     0.165 HD
ATOM     17  O   UNL A   1      33.105  25.303  20.849  1.00  0.00    -0.249 OA
BRANCH  15  18
ATOM     18  C   UNL A   1      32.172  22.805  23.223  1.00  0.00     0.165 C 
BRANCH  18  19
ATOM     19  C   UNL A   1      33.122  21.799  23.807  1.00  0.00     0.027 A 
ATOM     20  C   UNL A   1      34.461  21.902  24.176  1.00  0.00    -0.033 A 
ATOM     21  C   UNL A   1      34.898  20.676  24.806  1.00  0.00     0.016 A 
ATOM     22  C   UNL A   1      33.919  19.720  24.897  1.00  0.00     0.065 A 
ATOM     23  S   UNL A   1      32.455  20.261  24.238  1.00  0.00    -0.147 S 
BRANCH  20  24
ATOM     24  C   UNL A   1      35.428  23.058  24.062  1.00  0.00     0.033 C 
ATOM     25  C   UNL A   1      36.614  22.933  23.129  1.00  0.00     0.009 C 
ENDBRANCH  20  24
ENDBRANCH  18  19
ENDBRANCH  15  18
ENDBRANCH   8  14
ENDBRANCH   4   7
ENDBRANCH   2   3
ENDBRANCH   1   2
BRANCH   1  26
ATOM     26  C   UNL A   1      32.263  30.816  27.168  1.00  0.00     0.023 C 
BRANCH  26  27
ATOM     27  C   UNL A   1      33.322  31.860  27.485  1.00  0.00     0.116 C 
BRANCH  27  28
ATOM     28  N   UNL A   1      32.815  33.223  27.552  1.00  0.00    -0.352 N 
ATOM     29  C   UNL A   1      33.255  34.239  28.377  1.00  0.00     0.251 C 
ATOM     30  H   UNL A   1      32.076  33.445  26.941  1.00  0.00     0.163 HD
ATOM     31  O   UNL A   1      32.701  35.329  28.382  1.00  0.00    -0.269 OA
BRANCH  29  32
ATOM     32  C   UNL A   1      34.377  33.944  29.289  1.00  0.00     0.039 A 
ATOM     33  C   UNL A   1      34.136  33.183  30.433  1.00  0.00     0.014 A 
ATOM     34  C   UNL A   1      35.679  34.283  28.912  1.00  0.00     0.014 A 
ATOM     35  C   UNL A   1      35.219  32.681  31.158  1.00  0.00     0.010 A 
ATOM     36  C   UNL A   1      36.750  33.705  29.579  1.00  0.00     0.010 A 
ATOM     37  C   UNL A   1      36.533  32.895  30.706  1.00  0.00    -0.014 A 
BRANCH  37  38
ATOM     38  C   UNL A   1      37.701  32.290  31.398  1.00  0.00     0.031 A 
ATOM     39  C   UNL A   1      38.476  31.195  30.714  1.00  0.00     0.074 A 
ATOM     40  C   UNL A   1      38.006  32.657  32.659  1.00  0.00     0.049 A 
ATOM     41  N   UNL A   1      39.443  30.450  31.179  1.00  0.00    -0.248 NA
ATOM     42  C   UNL A   1      38.075  30.866  29.336  1.00  0.00     0.031 C 
ATOM     43  C   UNL A   1      37.290  33.664  33.449  1.00  0.00     0.029 A 
ATOM     44  N   UNL A   1      38.991  32.217  33.507  1.00  0.00    -0.354 N 
ATOM     45  C   UNL A   1      39.741  29.544  30.168  1.00  0.00     0.074 A 
ATOM     46  C   UNL A   1      38.813  29.797  29.088  1.00  0.00     0.031 C 
ATOM     47  C   UNL A   1      37.875  33.780  34.652  1.00  0.00     0.029 A 
ATOM     48  C   UNL A   1      38.980  32.831  34.740  1.00  0.00     0.049 A 
ATOM     49  H   UNL A   1      39.647  31.527  33.257  1.00  0.00     0.167 HD
ATOM     50  C   UNL A   1      40.717  28.604  30.132  1.00  0.00     0.034 A 
ATOM     51  C   UNL A   1      39.767  32.642  35.819  1.00  0.00     0.034 A 
ATOM     52  C   UNL A   1      41.668  28.402  31.195  1.00  0.00     0.049 A 
ATOM     53  C   UNL A   1      40.871  31.617  35.738  1.00  0.00     0.074 A 
ATOM     54  C   UNL A   1      42.748  27.538  31.231  1.00  0.00     0.029 A 
ATOM     55  N   UNL A   1      41.657  29.078  32.407  1.00  0.00    -0.354 N 
ATOM     56  N   UNL A   1      41.179  30.811  34.747  1.00  0.00    -0.248 NA
ATOM     57  C   UNL A   1      41.743  31.484  36.913  1.00  0.00     0.031 C 
ATOM     58  C   UNL A   1      43.361  27.656  32.484  1.00  0.00     0.029 A 
ATOM     59  C   UNL A   1      42.701  28.638  33.206  1.00  0.00     0.049 A 
ATOM     60  H   UNL A   1      41.004  29.769  32.663  1.00  0.00     0.167 HD
ATOM     61  C   UNL A   1      42.302  30.103  35.169  1.00  0.00     0.074 A 
ATOM     62  C   UNL A   1      42.623  30.587  36.495  1.00  0.00     0.031 C 
ATOM     63  C   UNL A   1      43.006  29.141  34.522  1.00  0.00     0.034 A 
BRANCH  50  64
ATOM     64  C   UNL A   1      40.791  27.724  28.911  1.00  0.00     0.023 A 
ATOM     65  C   UNL A   1      41.737  27.947  27.895  1.00  0.00     0.031 A 
ATOM     66  C   UNL A   1      39.890  26.656  28.750  1.00  0.00     0.131 A 
ATOM     67  C   UNL A   1      41.713  27.163  26.733  1.00  0.00     0.055 A 
ATOM     68  C   UNL A   1      39.924  25.829  27.625  1.00  0.00     0.041 A 
ATOM     69  F   UNL A   1      38.952  26.409  29.678  1.00  0.00    -0.206 F 
ATOM     70  C   UNL A   1      40.831  26.089  26.602  1.00  0.00     0.022 A 
BRANCH  67  71
ATOM     71  S   UNL A   1      42.773  27.645  25.343  1.00  0.00     0.124 S 
ATOM     72  O   UNL A   1      41.953  28.663  24.689  1.00  0.00    -0.237 OA
ATOM     73  O   UNL A   1      43.975  28.128  26.011  1.00  0.00    -0.237 OA
ATOM     74  O   UNL A   1      42.934  26.404  24.589  1.00  0.00    -0.744 OA
ENDBRANCH  67  71
ENDBRANCH  50  64
BRANCH  51  75
ATOM     75  C   UNL A   1      39.554  33.425  37.071  1.00  0.00     0.023 A 
ATOM     76  C   UNL A   1      38.865  32.868  38.160  1.00  0.00     0.031 A 
ATOM     77  C   UNL A   1      39.976  34.762  37.172  1.00  0.00     0.131 A 
ATOM     78  C   UNL A   1      38.562  33.662  39.278  1.00  0.00     0.055 A 
ATOM     79  C   UNL A   1      39.718  35.532  38.309  1.00  0.00     0.041 A 
ATOM     80  F   UNL A   1      40.645  35.342  36.164  1.00  0.00    -0.206 F 
ATOM     81  C   UNL A   1      38.992  34.987  39.363  1.00  0.00     0.022 A 
BRANCH  78  82
ATOM     82  S   UNL A   1      37.498  32.966  40.572  1.00  0.00     0.124 S 
ATOM     83  O   UNL A   1      36.210  32.889  39.891  1.00  0.00    -0.237 OA
ATOM     84  O   UNL A   1      38.155  31.693  40.849  1.00  0.00    -0.237 OA
ATOM     85  O   UNL A   1      37.577  33.955  41.645  1.00  0.00    -0.744 OA
ENDBRANCH  78  82
ENDBRANCH  51  75
BRANCH  63  86
ATOM     86  C   UNL A   1      44.225  28.599  35.221  1.00  0.00     0.023 A 
ATOM     87  C   UNL A   1      44.157  27.472  36.057  1.00  0.00     0.031 A 
ATOM     88  C   UNL A   1      45.472  29.227  35.050  1.00  0.00     0.131 A 
ATOM     89  C   UNL A   1      45.306  27.036  36.732  1.00  0.00     0.055 A 
ATOM     90  C   UNL A   1      46.622  28.755  35.681  1.00  0.00     0.041 A 
ATOM     91  F   UNL A   1      45.590  30.307  34.260  1.00  0.00    -0.206 F 
ATOM     92  C   UNL A   1      46.541  27.661  36.538  1.00  0.00     0.022 A 
BRANCH  89  93
ATOM     93  S   UNL A   1      45.149  25.683  37.931  1.00  0.00     0.124 S 
ATOM     94  O   UNL A   1      43.775  25.242  37.712  1.00  0.00    -0.237 OA
ATOM     95  O   UNL A   1      46.192  24.759  37.497  1.00  0.00    -0.237 OA
ATOM     96  O   UNL A   1      45.395  26.334  39.216  1.00  0.00    -0.744 OA
ENDBRANCH  89  93
ENDBRANCH  63  86
ENDBRANCH  37  38
ENDBRANCH  29  32
ENDBRANCH  27  28
ENDBRANCH  26  27
ENDBRANCH   1  26
TORSDOF 18
ENDMDL
