MODEL 1
REMARK VINA RESULT:     -12.1      0.000      0.000
REMARK SMILES O=C(COc1ccc2c(c1)O/C(=C\c1cccs1)C2=O)NCCCCNC(=O)c1ccc(-c2c3nc(c(-c4cc(S(=O)(=O)[O-])ccc4F)c4ccc([nH]4)c(-c4cc(S(=O)(=O)[O-])ccc4F)c4nc(c(-c5cc(S(=O)(=O)[O-])ccc5F)c5ccc2[nH]5)C=C4)C=C3)cc1
REMARK SMILES IDX 23 1 22 2 21 3 1 4 2 5 3 7 4 8 5 9 6 10 10 11 7 12 9 13 8 14
REMARK SMILES IDX 11 15 19 16 12 17 20 18 13 19 14 20 15 21 18 22 16 23 17 24
REMARK SMILES IDX 24 25 25 26 26 27 27 28 28 30 29 31 30 32 91 33 31 34 90 35
REMARK SMILES IDX 32 36 33 37 34 38 84 39 35 40 89 41 83 42 85 43 36 44 88 45
REMARK SMILES IDX 82 46 81 47 37 49 69 50 49 51 68 52 50 53 53 54 67 55 86 56
REMARK SMILES IDX 51 57 52 58 66 60 87 61 54 62 38 63 39 64 47 65 40 66 46 67
REMARK SMILES IDX 48 68 45 69 41 70 42 71 43 72 44 73 70 74 71 75 79 76 72 77
REMARK SMILES IDX 78 78 80 79 77 80 73 81 74 82 75 83 76 84 55 85 56 86 64 87
REMARK SMILES IDX 57 88 63 89 65 90 62 91 58 92 59 93 60 94 61 95
REMARK H PARENT 21 6 26 29 85 48 53 59
REMARK Flexibility Score: inf
ROOT
ATOM      1  C   UNL A   1      35.059  20.857  25.793  1.00  0.00     0.023 C 
ENDROOT
BRANCH   1   2
ATOM      2  C   UNL A   1      33.576  20.522  25.733  1.00  0.00     0.116 C 
BRANCH   2   3
ATOM      3  N   UNL A   1      32.738  21.513  26.376  1.00  0.00    -0.353 N 
ATOM      4  O   UNL A   1      31.709  22.260  24.457  1.00  0.00    -0.271 OA
ATOM      5  C   UNL A   1      31.780  22.226  25.683  1.00  0.00     0.257 C 
ATOM      6  H   UNL A   1      32.854  21.684  27.339  1.00  0.00     0.163 HD
BRANCH   5   7
ATOM      7  C   UNL A   1      30.766  22.947  26.577  1.00  0.00     0.329 C 
BRANCH   7   8
ATOM      8  O   UNL A   1      31.242  24.095  27.279  1.00  0.00    -0.484 OA
BRANCH   8   9
ATOM      9  C   UNL A   1      31.752  25.099  26.495  1.00  0.00     0.123 A 
ATOM     10  C   UNL A   1      33.102  25.138  26.084  1.00  0.00     0.047 A 
ATOM     11  C   UNL A   1      30.827  26.014  25.975  1.00  0.00     0.094 A 
ATOM     12  C   UNL A   1      33.549  26.068  25.145  1.00  0.00     0.020 A 
ATOM     13  C   UNL A   1      31.287  26.941  25.060  1.00  0.00     0.142 A 
ATOM     14  C   UNL A   1      32.616  26.946  24.646  1.00  0.00     0.069 A 
ATOM     15  O   UNL A   1      30.530  27.905  24.435  1.00  0.00    -0.452 OA
ATOM     16  C   UNL A   1      32.757  27.971  23.625  1.00  0.00     0.232 C 
ATOM     17  C   UNL A   1      31.390  28.536  23.537  1.00  0.00     0.176 C 
ATOM     18  O   UNL A   1      33.759  28.284  23.018  1.00  0.00    -0.285 OA
ATOM     19  C   UNL A   1      31.063  29.502  22.670  1.00  0.00     0.070 C 
BRANCH  19  20
ATOM     20  C   UNL A   1      29.758  30.056  22.643  1.00  0.00     0.031 A 
ATOM     21  C   UNL A   1      28.722  29.806  21.759  1.00  0.00     0.020 A 
ATOM     22  S   UNL A   1      29.278  31.192  23.839  1.00  0.00    -0.144 S 
ATOM     23  C   UNL A   1      27.558  30.574  22.040  1.00  0.00     0.012 A 
ATOM     24  C   UNL A   1      27.734  31.389  23.133  1.00  0.00     0.065 A 
ENDBRANCH  19  20
ENDBRANCH   8   9
ENDBRANCH   7   8
ENDBRANCH   5   7
ENDBRANCH   2   3
ENDBRANCH   1   2
BRANCH   1  25
ATOM     25  C   UNL A   1      35.619  21.513  24.530  1.00  0.00     0.023 C 
BRANCH  25  26
ATOM     26  C   UNL A   1      37.113  21.825  24.556  1.00  0.00     0.116 C 
BRANCH  26  27
ATOM     27  N   UNL A   1      37.910  20.740  25.106  1.00  0.00    -0.352 N 
ATOM     28  C   UNL A   1      39.054  20.795  25.870  1.00  0.00     0.251 C 
ATOM     29  H   UNL A   1      37.584  19.835  24.901  1.00  0.00     0.163 HD
ATOM     30  O   UNL A   1      39.674  19.762  26.103  1.00  0.00    -0.269 OA
BRANCH  28  31
ATOM     31  C   UNL A   1      39.554  22.095  26.378  1.00  0.00     0.039 A 
ATOM     32  C   UNL A   1      40.695  22.111  27.184  1.00  0.00     0.014 A 
ATOM     33  C   UNL A   1      38.909  23.294  26.062  1.00  0.00     0.014 A 
ATOM     34  C   UNL A   1      41.232  23.331  27.606  1.00  0.00     0.010 A 
ATOM     35  C   UNL A   1      39.489  24.511  26.415  1.00  0.00     0.010 A 
ATOM     36  C   UNL A   1      40.660  24.544  27.189  1.00  0.00    -0.014 A 
BRANCH  36  37
ATOM     37  C   UNL A   1      41.280  25.852  27.542  1.00  0.00     0.031 A 
ATOM     38  C   UNL A   1      42.697  26.159  27.131  1.00  0.00     0.074 A 
ATOM     39  C   UNL A   1      40.588  26.743  28.282  1.00  0.00     0.049 A 
ATOM     40  N   UNL A   1      43.429  27.209  27.401  1.00  0.00    -0.248 NA
ATOM     41  C   UNL A   1      43.387  25.136  26.332  1.00  0.00     0.031 C 
ATOM     42  C   UNL A   1      39.220  26.554  28.770  1.00  0.00     0.029 A 
ATOM     43  N   UNL A   1      40.937  27.983  28.760  1.00  0.00    -0.354 N 
ATOM     44  C   UNL A   1      44.668  26.971  26.817  1.00  0.00     0.074 A 
ATOM     45  C   UNL A   1      44.605  25.648  26.232  1.00  0.00     0.031 C 
ATOM     46  C   UNL A   1      38.836  27.648  29.445  1.00  0.00     0.029 A 
ATOM     47  C   UNL A   1      39.945  28.596  29.492  1.00  0.00     0.049 A 
ATOM     48  H   UNL A   1      41.815  28.396  28.592  1.00  0.00     0.167 HD
ATOM     49  C   UNL A   1      45.751  27.786  26.757  1.00  0.00     0.034 A 
ATOM     50  C   UNL A   1      39.933  29.777  30.143  1.00  0.00     0.034 A 
ATOM     51  C   UNL A   1      45.795  29.107  27.339  1.00  0.00     0.049 A 
ATOM     52  C   UNL A   1      41.167  30.644  30.101  1.00  0.00     0.074 A 
ATOM     53  C   UNL A   1      46.821  30.035  27.287  1.00  0.00     0.029 A 
ATOM     54  N   UNL A   1      44.780  29.682  28.092  1.00  0.00    -0.354 N 
ATOM     55  N   UNL A   1      42.314  30.424  29.500  1.00  0.00    -0.248 NA
ATOM     56  C   UNL A   1      41.102  31.925  30.819  1.00  0.00     0.031 C 
ATOM     57  C   UNL A   1      46.463  31.131  28.077  1.00  0.00     0.029 A 
ATOM     58  C   UNL A   1      45.173  30.933  28.545  1.00  0.00     0.049 A 
ATOM     59  H   UNL A   1      43.908  29.264  28.277  1.00  0.00     0.167 HD
ATOM     60  C   UNL A   1      43.090  31.557  29.738  1.00  0.00     0.074 A 
ATOM     61  C   UNL A   1      42.276  32.461  30.523  1.00  0.00     0.031 C 
ATOM     62  C   UNL A   1      44.359  31.826  29.336  1.00  0.00     0.034 A 
BRANCH  49  63
ATOM     63  C   UNL A   1      46.986  27.259  26.064  1.00  0.00     0.023 A 
ATOM     64  C   UNL A   1      47.973  26.534  26.755  1.00  0.00     0.031 A 
ATOM     65  C   UNL A   1      47.187  27.496  24.691  1.00  0.00     0.131 A 
ATOM     66  C   UNL A   1      49.145  26.138  26.093  1.00  0.00     0.055 A 
ATOM     67  C   UNL A   1      48.316  27.021  24.019  1.00  0.00     0.041 A 
ATOM     68  F   UNL A   1      46.293  28.201  23.981  1.00  0.00    -0.206 F 
ATOM     69  C   UNL A   1      49.310  26.351  24.724  1.00  0.00     0.022 A 
BRANCH  66  70
ATOM     70  S   UNL A   1      50.514  25.475  27.081  1.00  0.00     0.124 S 
ATOM     71  O   UNL A   1      51.515  25.204  26.052  1.00  0.00    -0.237 OA
ATOM     72  O   UNL A   1      50.811  26.575  27.989  1.00  0.00    -0.237 OA
ATOM     73  O   UNL A   1      49.939  24.285  27.708  1.00  0.00    -0.744 OA
ENDBRANCH  66  70
ENDBRANCH  49  63
BRANCH  50  74
ATOM     74  C   UNL A   1      38.725  30.214  30.904  1.00  0.00     0.023 A 
ATOM     75  C   UNL A   1      37.676  30.896  30.267  1.00  0.00     0.031 A 
ATOM     76  C   UNL A   1      38.626  30.008  32.292  1.00  0.00     0.131 A 
ATOM     77  C   UNL A   1      36.603  31.395  31.022  1.00  0.00     0.055 A 
ATOM     78  C   UNL A   1      37.527  30.449  33.028  1.00  0.00     0.041 A 
ATOM     79  F   UNL A   1      39.600  29.363  32.954  1.00  0.00    -0.206 F 
ATOM     80  C   UNL A   1      36.514  31.162  32.396  1.00  0.00     0.022 A 
BRANCH  77  81
ATOM     81  S   UNL A   1      35.379  32.451  30.198  1.00  0.00     0.124 S 
ATOM     82  O   UNL A   1      34.366  32.594  31.237  1.00  0.00    -0.237 OA
ATOM     83  O   UNL A   1      36.162  33.644  29.895  1.00  0.00    -0.237 OA
ATOM     84  O   UNL A   1      34.976  31.660  29.037  1.00  0.00    -0.744 OA
ENDBRANCH  77  81
ENDBRANCH  50  74
BRANCH  62  85
ATOM     85  C   UNL A   1      44.925  33.181  29.697  1.00  0.00     0.023 A 
ATOM     86  C   UNL A   1      44.768  34.300  28.861  1.00  0.00     0.031 A 
ATOM     87  C   UNL A   1      45.642  33.350  30.895  1.00  0.00     0.131 A 
ATOM     88  C   UNL A   1      45.370  35.520  29.204  1.00  0.00     0.055 A 
ATOM     89  C   UNL A   1      46.178  34.583  31.266  1.00  0.00     0.041 A 
ATOM     90  F   UNL A   1      45.830  32.316  31.731  1.00  0.00    -0.206 F 
ATOM     91  C   UNL A   1      46.056  35.675  30.412  1.00  0.00     0.022 A 
BRANCH  88  92
ATOM     92  S   UNL A   1      45.336  36.878  28.002  1.00  0.00     0.124 S 
ATOM     93  O   UNL A   1      46.446  36.529  27.119  1.00  0.00    -0.237 OA
ATOM     94  O   UNL A   1      44.001  36.753  27.426  1.00  0.00    -0.237 OA
ATOM     95  O   UNL A   1      45.548  38.069  28.823  1.00  0.00    -0.744 OA
ENDBRANCH  88  92
ENDBRANCH  62  85
ENDBRANCH  36  37
ENDBRANCH  28  31
ENDBRANCH  26  27
ENDBRANCH  25  26
ENDBRANCH   1  25
TORSDOF 17
ENDMDL
MODEL 2
REMARK VINA RESULT:     -12.0      3.018      4.723
REMARK SMILES O=C(COc1ccc2c(c1)O/C(=C\c1cccs1)C2=O)NCCCCNC(=O)c1ccc(-c2c3nc(c(-c4cc(S(=O)(=O)[O-])ccc4F)c4ccc([nH]4)c(-c4cc(S(=O)(=O)[O-])ccc4F)c4nc(c(-c5cc(S(=O)(=O)[O-])ccc5F)c5ccc2[nH]5)C=C4)C=C3)cc1
REMARK SMILES IDX 23 1 22 2 21 3 1 4 2 5 3 7 4 8 5 9 6 10 10 11 7 12 9 13 8 14
REMARK SMILES IDX 11 15 19 16 12 17 20 18 13 19 14 20 15 21 18 22 16 23 17 24
REMARK SMILES IDX 24 25 25 26 26 27 27 28 28 30 29 31 30 32 91 33 31 34 90 35
REMARK SMILES IDX 32 36 33 37 34 38 84 39 35 40 89 41 83 42 85 43 36 44 88 45
REMARK SMILES IDX 82 46 81 47 37 49 69 50 49 51 68 52 50 53 53 54 67 55 86 56
REMARK SMILES IDX 51 57 52 58 66 60 87 61 54 62 38 63 39 64 47 65 40 66 46 67
REMARK SMILES IDX 48 68 45 69 41 70 42 71 43 72 44 73 70 74 71 75 79 76 72 77
REMARK SMILES IDX 78 78 80 79 77 80 73 81 74 82 75 83 76 84 55 85 56 86 64 87
REMARK SMILES IDX 57 88 63 89 65 90 62 91 58 92 59 93 60 94 61 95
REMARK H PARENT 21 6 26 29 85 48 53 59
REMARK Flexibility Score: inf
ROOT
ATOM      1  C   UNL A   1      41.517  21.765  26.285  1.00  0.00     0.023 C 
ENDROOT
BRANCH   1   2
ATOM      2  C   UNL A   1      40.564  22.293  27.348  1.00  0.00     0.116 C 
BRANCH   2   3
ATOM      3  N   UNL A   1      39.209  22.468  26.869  1.00  0.00    -0.353 N 
ATOM      4  O   UNL A   1      39.256  24.768  26.805  1.00  0.00    -0.271 OA
ATOM      5  C   UNL A   1      38.705  23.707  26.525  1.00  0.00     0.257 C 
ATOM      6  H   UNL A   1      38.627  21.678  26.785  1.00  0.00     0.163 HD
BRANCH   5   7
ATOM      7  C   UNL A   1      37.408  23.652  25.713  1.00  0.00     0.329 C 
BRANCH   7   8
ATOM      8  O   UNL A   1      36.631  22.460  25.836  1.00  0.00    -0.484 OA
BRANCH   8   9
ATOM      9  C   UNL A   1      35.283  22.648  26.008  1.00  0.00     0.123 A 
ATOM     10  C   UNL A   1      34.493  21.812  26.828  1.00  0.00     0.047 A 
ATOM     11  C   UNL A   1      34.741  23.818  25.459  1.00  0.00     0.094 A 
ATOM     12  C   UNL A   1      33.167  22.130  27.126  1.00  0.00     0.020 A 
ATOM     13  C   UNL A   1      33.423  24.110  25.748  1.00  0.00     0.142 A 
ATOM     14  C   UNL A   1      32.668  23.289  26.581  1.00  0.00     0.069 A 
ATOM     15  O   UNL A   1      32.724  25.214  25.313  1.00  0.00    -0.452 OA
ATOM     16  C   UNL A   1      31.367  23.912  26.756  1.00  0.00     0.232 C 
ATOM     17  C   UNL A   1      31.475  25.136  25.926  1.00  0.00     0.176 C 
ATOM     18  O   UNL A   1      30.429  23.508  27.410  1.00  0.00    -0.285 OA
ATOM     19  C   UNL A   1      30.489  26.036  25.836  1.00  0.00     0.070 C 
BRANCH  19  20
ATOM     20  C   UNL A   1      30.604  27.173  24.997  1.00  0.00     0.031 A 
ATOM     21  C   UNL A   1      31.248  28.375  25.238  1.00  0.00     0.020 A 
ATOM     22  S   UNL A   1      29.904  27.161  23.428  1.00  0.00    -0.144 S 
ATOM     23  C   UNL A   1      31.130  29.293  24.158  1.00  0.00     0.012 A 
ATOM     24  C   UNL A   1      30.401  28.767  23.118  1.00  0.00     0.065 A 
ENDBRANCH  19  20
ENDBRANCH   8   9
ENDBRANCH   7   8
ENDBRANCH   5   7
ENDBRANCH   2   3
ENDBRANCH   1   2
BRANCH   1  25
ATOM     25  C   UNL A   1      41.471  20.251  26.079  1.00  0.00     0.023 C 
BRANCH  25  26
ATOM     26  C   UNL A   1      42.766  19.504  26.387  1.00  0.00     0.116 C 
BRANCH  26  27
ATOM     27  N   UNL A   1      43.486  19.097  25.191  1.00  0.00    -0.352 N 
ATOM     28  C   UNL A   1      44.316  19.834  24.376  1.00  0.00     0.251 C 
ATOM     29  H   UNL A   1      43.361  18.158  24.925  1.00  0.00     0.163 HD
ATOM     30  O   UNL A   1      44.703  19.352  23.316  1.00  0.00    -0.269 OA
BRANCH  28  31
ATOM     31  C   UNL A   1      44.710  21.211  24.757  1.00  0.00     0.039 A 
ATOM     32  C   UNL A   1      44.416  22.263  23.886  1.00  0.00     0.014 A 
ATOM     33  C   UNL A   1      45.362  21.471  25.966  1.00  0.00     0.014 A 
ATOM     34  C   UNL A   1      44.704  23.578  24.260  1.00  0.00     0.010 A 
ATOM     35  C   UNL A   1      45.575  22.787  26.372  1.00  0.00     0.010 A 
ATOM     36  C   UNL A   1      45.245  23.857  25.526  1.00  0.00    -0.014 A 
BRANCH  36  37
ATOM     37  C   UNL A   1      45.461  25.259  25.982  1.00  0.00     0.031 A 
ATOM     38  C   UNL A   1      46.835  25.873  25.932  1.00  0.00     0.074 A 
ATOM     39  C   UNL A   1      44.429  25.962  26.494  1.00  0.00     0.049 A 
ATOM     40  N   UNL A   1      47.232  27.050  26.345  1.00  0.00    -0.248 NA
ATOM     41  C   UNL A   1      47.909  25.042  25.368  1.00  0.00     0.031 C 
ATOM     42  C   UNL A   1      43.056  25.472  26.626  1.00  0.00     0.029 A 
ATOM     43  N   UNL A   1      44.371  27.237  27.003  1.00  0.00    -0.354 N 
ATOM     44  C   UNL A   1      48.601  27.098  26.101  1.00  0.00     0.074 A 
ATOM     45  C   UNL A   1      48.973  25.806  25.563  1.00  0.00     0.031 C 
ATOM     46  C   UNL A   1      42.288  26.442  27.146  1.00  0.00     0.029 A 
ATOM     47  C   UNL A   1      43.119  27.605  27.441  1.00  0.00     0.049 A 
ATOM     48  H   UNL A   1      45.154  27.833  27.050  1.00  0.00     0.167 HD
ATOM     49  C   UNL A   1      49.463  28.128  26.290  1.00  0.00     0.034 A 
ATOM     50  C   UNL A   1      42.689  28.740  28.028  1.00  0.00     0.034 A 
ATOM     51  C   UNL A   1      49.074  29.413  26.821  1.00  0.00     0.049 A 
ATOM     52  C   UNL A   1      43.679  29.854  28.272  1.00  0.00     0.074 A 
ATOM     53  C   UNL A   1      49.856  30.541  27.000  1.00  0.00     0.029 A 
ATOM     54  N   UNL A   1      47.802  29.739  27.274  1.00  0.00    -0.354 N 
ATOM     55  N   UNL A   1      44.960  29.900  27.987  1.00  0.00    -0.248 NA
ATOM     56  C   UNL A   1      43.161  31.073  28.908  1.00  0.00     0.031 C 
ATOM     57  C   UNL A   1      49.083  31.516  27.638  1.00  0.00     0.029 A 
ATOM     58  C   UNL A   1      47.791  31.034  27.770  1.00  0.00     0.049 A 
ATOM     59  H   UNL A   1      47.022  29.139  27.246  1.00  0.00     0.167 HD
ATOM     60  C   UNL A   1      45.389  31.167  28.377  1.00  0.00     0.074 A 
ATOM     61  C   UNL A   1      44.228  31.856  28.901  1.00  0.00     0.031 C 
ATOM     62  C   UNL A   1      46.630  31.713  28.301  1.00  0.00     0.034 A 
BRANCH  49  63
ATOM     63  C   UNL A   1      50.916  27.896  25.949  1.00  0.00     0.023 A 
ATOM     64  C   UNL A   1      51.402  28.027  24.635  1.00  0.00     0.031 A 
ATOM     65  C   UNL A   1      51.832  27.526  26.951  1.00  0.00     0.131 A 
ATOM     66  C   UNL A   1      52.739  27.718  24.347  1.00  0.00     0.055 A 
ATOM     67  C   UNL A   1      53.183  27.305  26.672  1.00  0.00     0.041 A 
ATOM     68  F   UNL A   1      51.427  27.362  28.220  1.00  0.00    -0.206 F 
ATOM     69  C   UNL A   1      53.640  27.386  25.361  1.00  0.00     0.022 A 
BRANCH  66  70
ATOM     70  S   UNL A   1      53.247  27.609  22.609  1.00  0.00     0.124 S 
ATOM     71  O   UNL A   1      52.030  27.104  21.978  1.00  0.00    -0.237 OA
ATOM     72  O   UNL A   1      53.604  28.987  22.297  1.00  0.00    -0.237 OA
ATOM     73  O   UNL A   1      54.363  26.665  22.637  1.00  0.00    -0.744 OA
ENDBRANCH  66  70
ENDBRANCH  49  63
BRANCH  50  74
ATOM     74  C   UNL A   1      41.264  28.889  28.444  1.00  0.00     0.023 A 
ATOM     75  C   UNL A   1      40.885  28.748  29.789  1.00  0.00     0.031 A 
ATOM     76  C   UNL A   1      40.249  29.116  27.498  1.00  0.00     0.131 A 
ATOM     77  C   UNL A   1      39.527  28.780  30.143  1.00  0.00     0.055 A 
ATOM     78  C   UNL A   1      38.905  29.211  27.862  1.00  0.00     0.041 A 
ATOM     79  F   UNL A   1      40.552  29.256  26.197  1.00  0.00    -0.206 F 
ATOM     80  C   UNL A   1      38.536  29.027  29.190  1.00  0.00     0.022 A 
BRANCH  77  81
ATOM     81  S   UNL A   1      39.064  28.384  31.851  1.00  0.00     0.124 S 
ATOM     82  O   UNL A   1      38.162  29.483  32.176  1.00  0.00    -0.237 OA
ATOM     83  O   UNL A   1      38.449  27.070  31.702  1.00  0.00    -0.237 OA
ATOM     84  O   UNL A   1      40.343  28.395  32.560  1.00  0.00    -0.744 OA
ENDBRANCH  77  81
ENDBRANCH  50  74
BRANCH  62  85
ATOM     85  C   UNL A   1      46.783  33.148  28.748  1.00  0.00     0.023 A 
ATOM     86  C   UNL A   1      46.460  34.228  27.908  1.00  0.00     0.031 A 
ATOM     87  C   UNL A   1      47.268  33.438  30.036  1.00  0.00     0.131 A 
ATOM     88  C   UNL A   1      46.684  35.544  28.342  1.00  0.00     0.055 A 
ATOM     89  C   UNL A   1      47.421  34.749  30.488  1.00  0.00     0.041 A 
ATOM     90  F   UNL A   1      47.599  32.448  30.881  1.00  0.00    -0.206 F 
ATOM     91  C   UNL A   1      47.142  35.812  29.635  1.00  0.00     0.022 A 
BRANCH  88  92
ATOM     92  S   UNL A   1      46.468  36.902  27.158  1.00  0.00     0.124 S 
ATOM     93  O   UNL A   1      47.175  36.397  25.986  1.00  0.00    -0.237 OA
ATOM     94  O   UNL A   1      45.016  36.985  27.039  1.00  0.00    -0.237 OA
ATOM     95  O   UNL A   1      47.101  38.040  27.822  1.00  0.00    -0.744 OA
ENDBRANCH  88  92
ENDBRANCH  62  85
ENDBRANCH  36  37
ENDBRANCH  28  31
ENDBRANCH  26  27
ENDBRANCH  25  26
ENDBRANCH   1  25
TORSDOF 17
ENDMDL
MODEL 3
REMARK VINA RESULT:     -12.0      4.520      9.742
REMARK SMILES O=C(COc1ccc2c(c1)O/C(=C\c1cccs1)C2=O)NCCCCNC(=O)c1ccc(-c2c3nc(c(-c4cc(S(=O)(=O)[O-])ccc4F)c4ccc([nH]4)c(-c4cc(S(=O)(=O)[O-])ccc4F)c4nc(c(-c5cc(S(=O)(=O)[O-])ccc5F)c5ccc2[nH]5)C=C4)C=C3)cc1
REMARK SMILES IDX 23 1 22 2 21 3 1 4 2 5 3 7 4 8 5 9 6 10 10 11 7 12 9 13 8 14
REMARK SMILES IDX 11 15 19 16 12 17 20 18 13 19 14 20 15 21 18 22 16 23 17 24
REMARK SMILES IDX 24 25 25 26 26 27 27 28 28 30 29 31 30 32 91 33 31 34 90 35
REMARK SMILES IDX 32 36 33 37 34 38 84 39 35 40 89 41 83 42 85 43 36 44 88 45
REMARK SMILES IDX 82 46 81 47 37 49 69 50 49 51 68 52 50 53 53 54 67 55 86 56
REMARK SMILES IDX 51 57 52 58 66 60 87 61 54 62 38 63 39 64 47 65 40 66 46 67
REMARK SMILES IDX 48 68 45 69 41 70 42 71 43 72 44 73 70 74 71 75 79 76 72 77
REMARK SMILES IDX 78 78 80 79 77 80 73 81 74 82 75 83 76 84 55 85 56 86 64 87
REMARK SMILES IDX 57 88 63 89 65 90 62 91 58 92 59 93 60 94 61 95
REMARK H PARENT 21 6 26 29 85 48 53 59
REMARK Flexibility Score: inf
ROOT
ATOM      1  C   UNL A   1      31.408  28.839  26.526  1.00  0.00     0.023 C 
ENDROOT
BRANCH   1   2
ATOM      2  C   UNL A   1      31.457  29.248  25.061  1.00  0.00     0.116 C 
BRANCH   2   3
ATOM      3  N   UNL A   1      31.403  28.125  24.149  1.00  0.00    -0.353 N 
ATOM      4  O   UNL A   1      32.412  29.189  22.375  1.00  0.00    -0.271 OA
ATOM      5  C   UNL A   1      31.999  28.161  22.904  1.00  0.00     0.257 C 
ATOM      6  H   UNL A   1      30.927  27.309  24.426  1.00  0.00     0.163 HD
BRANCH   5   7
ATOM      7  C   UNL A   1      32.149  26.787  22.242  1.00  0.00     0.329 C 
BRANCH   7   8
ATOM      8  O   UNL A   1      33.470  26.247  22.192  1.00  0.00    -0.484 OA
BRANCH   8   9
ATOM      9  C   UNL A   1      33.795  25.383  23.208  1.00  0.00     0.123 A 
ATOM     10  C   UNL A   1      34.038  25.814  24.530  1.00  0.00     0.047 A 
ATOM     11  C   UNL A   1      33.717  24.016  22.912  1.00  0.00     0.094 A 
ATOM     12  C   UNL A   1      34.189  24.902  25.575  1.00  0.00     0.020 A 
ATOM     13  C   UNL A   1      33.886  23.124  23.952  1.00  0.00     0.142 A 
ATOM     14  C   UNL A   1      34.097  23.569  25.255  1.00  0.00     0.069 A 
ATOM     15  O   UNL A   1      33.832  21.752  23.860  1.00  0.00    -0.452 OA
ATOM     16  C   UNL A   1      34.146  22.400  26.118  1.00  0.00     0.232 C 
ATOM     17  C   UNL A   1      33.963  21.280  25.164  1.00  0.00     0.176 C 
ATOM     18  O   UNL A   1      34.313  22.368  27.318  1.00  0.00    -0.285 OA
ATOM     19  C   UNL A   1      33.906  20.001  25.555  1.00  0.00     0.070 C 
BRANCH  19  20
ATOM     20  C   UNL A   1      33.779  18.949  24.615  1.00  0.00     0.031 A 
ATOM     21  C   UNL A   1      34.650  17.906  24.349  1.00  0.00     0.020 A 
ATOM     22  S   UNL A   1      32.378  18.839  23.627  1.00  0.00    -0.144 S 
ATOM     23  C   UNL A   1      34.187  17.048  23.312  1.00  0.00     0.012 A 
ATOM     24  C   UNL A   1      32.973  17.458  22.815  1.00  0.00     0.065 A 
ENDBRANCH  19  20
ENDBRANCH   8   9
ENDBRANCH   7   8
ENDBRANCH   5   7
ENDBRANCH   2   3
ENDBRANCH   1   2
BRANCH   1  25
ATOM     25  C   UNL A   1      32.658  28.119  27.033  1.00  0.00     0.023 C 
BRANCH  25  26
ATOM     26  C   UNL A   1      33.963  28.904  26.918  1.00  0.00     0.116 C 
BRANCH  26  27
ATOM     27  N   UNL A   1      33.899  30.207  27.559  1.00  0.00    -0.352 N 
ATOM     28  C   UNL A   1      34.789  30.801  28.425  1.00  0.00     0.251 C 
ATOM     29  H   UNL A   1      33.103  30.743  27.342  1.00  0.00     0.163 HD
ATOM     30  O   UNL A   1      34.478  31.846  28.988  1.00  0.00    -0.269 OA
BRANCH  28  31
ATOM     31  C   UNL A   1      36.099  30.166  28.705  1.00  0.00     0.039 A 
ATOM     32  C   UNL A   1      37.142  30.337  27.792  1.00  0.00     0.014 A 
ATOM     33  C   UNL A   1      36.305  29.408  29.862  1.00  0.00     0.014 A 
ATOM     34  C   UNL A   1      38.408  29.817  28.075  1.00  0.00     0.010 A 
ATOM     35  C   UNL A   1      37.585  28.959  30.181  1.00  0.00     0.010 A 
ATOM     36  C   UNL A   1      38.654  29.162  29.293  1.00  0.00    -0.014 A 
BRANCH  36  37
ATOM     37  C   UNL A   1      40.021  28.694  29.656  1.00  0.00     0.031 A 
ATOM     38  C   UNL A   1      40.801  29.393  30.739  1.00  0.00     0.074 A 
ATOM     39  C   UNL A   1      40.583  27.675  28.974  1.00  0.00     0.049 A 
ATOM     40  N   UNL A   1      42.025  29.176  31.149  1.00  0.00    -0.248 NA
ATOM     41  C   UNL A   1      40.124  30.498  31.432  1.00  0.00     0.031 C 
ATOM     42  C   UNL A   1      39.944  26.935  27.883  1.00  0.00     0.029 A 
ATOM     43  N   UNL A   1      41.819  27.085  29.089  1.00  0.00    -0.354 N 
ATOM     44  C   UNL A   1      42.269  30.122  32.139  1.00  0.00     0.074 A 
ATOM     45  C   UNL A   1      41.086  30.952  32.220  1.00  0.00     0.031 C 
ATOM     46  C   UNL A   1      40.776  25.973  27.455  1.00  0.00     0.029 A 
ATOM     47  C   UNL A   1      42.031  26.059  28.196  1.00  0.00     0.049 A 
ATOM     48  H   UNL A   1      42.490  27.370  29.751  1.00  0.00     0.167 HD
ATOM     49  C   UNL A   1      43.368  30.271  32.920  1.00  0.00     0.034 A 
ATOM     50  C   UNL A   1      43.115  25.287  27.983  1.00  0.00     0.034 A 
ATOM     51  C   UNL A   1      44.538  29.429  32.831  1.00  0.00     0.049 A 
ATOM     52  C   UNL A   1      44.343  25.506  28.833  1.00  0.00     0.074 A 
ATOM     53  C   UNL A   1      45.680  29.460  33.611  1.00  0.00     0.029 A 
ATOM     54  N   UNL A   1      44.724  28.416  31.898  1.00  0.00    -0.354 N 
ATOM     55  N   UNL A   1      44.537  26.373  29.800  1.00  0.00    -0.248 NA
ATOM     56  C   UNL A   1      45.496  24.634  28.568  1.00  0.00     0.031 C 
ATOM     57  C   UNL A   1      46.588  28.529  33.098  1.00  0.00     0.029 A 
ATOM     58  C   UNL A   1      45.978  27.846  32.058  1.00  0.00     0.049 A 
ATOM     59  H   UNL A   1      44.061  28.142  31.223  1.00  0.00     0.167 HD
ATOM     60  C   UNL A   1      45.820  26.123  30.281  1.00  0.00     0.074 A 
ATOM     61  C   UNL A   1      46.346  25.017  29.509  1.00  0.00     0.031 C 
ATOM     62  C   UNL A   1      46.500  26.749  31.277  1.00  0.00     0.034 A 
BRANCH  49  63
ATOM     63  C   UNL A   1      43.369  31.407  33.916  1.00  0.00     0.023 A 
ATOM     64  C   UNL A   1      42.807  31.272  35.198  1.00  0.00     0.031 A 
ATOM     65  C   UNL A   1      43.930  32.652  33.575  1.00  0.00     0.131 A 
ATOM     66  C   UNL A   1      42.752  32.376  36.061  1.00  0.00     0.055 A 
ATOM     67  C   UNL A   1      43.950  33.722  34.472  1.00  0.00     0.041 A 
ATOM     68  F   UNL A   1      44.461  32.852  32.359  1.00  0.00    -0.206 F 
ATOM     69  C   UNL A   1      43.345  33.593  35.718  1.00  0.00     0.022 A 
BRANCH  66  70
ATOM     70  S   UNL A   1      41.760  32.244  37.574  1.00  0.00     0.124 S 
ATOM     71  O   UNL A   1      40.497  31.725  37.053  1.00  0.00    -0.237 OA
ATOM     72  O   UNL A   1      42.544  31.322  38.386  1.00  0.00    -0.237 OA
ATOM     73  O   UNL A   1      41.704  33.619  38.067  1.00  0.00    -0.744 OA
ENDBRANCH  66  70
ENDBRANCH  49  63
BRANCH  50  74
ATOM     74  C   UNL A   1      43.108  24.243  26.916  1.00  0.00     0.023 A 
ATOM     75  C   UNL A   1      42.424  23.030  27.096  1.00  0.00     0.031 A 
ATOM     76  C   UNL A   1      43.833  24.416  25.724  1.00  0.00     0.131 A 
ATOM     77  C   UNL A   1      42.523  22.018  26.128  1.00  0.00     0.055 A 
ATOM     78  C   UNL A   1      43.877  23.433  24.735  1.00  0.00     0.041 A 
ATOM     79  F   UNL A   1      44.508  25.555  25.499  1.00  0.00    -0.206 F 
ATOM     80  C   UNL A   1      43.232  22.218  24.941  1.00  0.00     0.022 A 
BRANCH  77  81
ATOM     81  S   UNL A   1      41.802  20.394  26.492  1.00  0.00     0.124 S 
ATOM     82  O   UNL A   1      40.388  20.723  26.630  1.00  0.00    -0.237 OA
ATOM     83  O   UNL A   1      42.171  19.626  25.308  1.00  0.00    -0.237 OA
ATOM     84  O   UNL A   1      42.474  19.994  27.727  1.00  0.00    -0.744 OA
ENDBRANCH  77  81
ENDBRANCH  50  74
BRANCH  62  85
ATOM     85  C   UNL A   1      47.869  26.211  31.623  1.00  0.00     0.023 A 
ATOM     86  C   UNL A   1      48.064  25.278  32.656  1.00  0.00     0.031 A 
ATOM     87  C   UNL A   1      49.000  26.649  30.910  1.00  0.00     0.131 A 
ATOM     88  C   UNL A   1      49.362  24.860  32.987  1.00  0.00     0.055 A 
ATOM     89  C   UNL A   1      50.280  26.176  31.196  1.00  0.00     0.041 A 
ATOM     90  F   UNL A   1      48.877  27.544  29.917  1.00  0.00    -0.206 F 
ATOM     91  C   UNL A   1      50.470  25.287  32.250  1.00  0.00     0.022 A 
BRANCH  88  92
ATOM     92  S   UNL A   1      49.598  23.831  34.462  1.00  0.00     0.124 S 
ATOM     93  O   UNL A   1      50.745  23.012  34.080  1.00  0.00    -0.237 OA
ATOM     94  O   UNL A   1      49.844  24.826  35.501  1.00  0.00    -0.237 OA
ATOM     95  O   UNL A   1      48.333  23.108  34.583  1.00  0.00    -0.744 OA
ENDBRANCH  88  92
ENDBRANCH  62  85
ENDBRANCH  36  37
ENDBRANCH  28  31
ENDBRANCH  26  27
ENDBRANCH  25  26
ENDBRANCH   1  25
TORSDOF 17
ENDMDL
