MODEL 1
REMARK VINA RESULT:     -12.5      0.000      0.000
REMARK SMILES N#CC1=C(N)N2C(=O)[C@@H](CC(=O)NCCCCNC(=O)c3ccc(-c4c5nc(c(-c6cc(S(=O)(=O)[O-])ccc6F)c6ccc([nH]6)c(-c6cc(S(=O)(=O)[O-])ccc6F)c6nc(c(-c7cc(S(=O)(=O)[O-])ccc7F)c7ccc4[nH]7)C=C6)C=C5)cc3)SC2=C(C#N)[C@H]1c1ccc(Cl)cc1
REMARK SMILES IDX 16 1 15 2 14 3 13 4 11 5 12 6 10 8 9 9 3 10 4 11 89 12 6 13
REMARK SMILES IDX 86 14 7 15 85 16 8 17 84 18 2 19 1 20 5 21 90 24 91 25 96 26
REMARK SMILES IDX 92 27 95 28 93 29 94 30 87 31 88 32 17 33 18 34 19 35 20 37
REMARK SMILES IDX 21 38 22 39 83 40 23 41 82 42 24 43 25 44 26 45 76 46 27 47
REMARK SMILES IDX 81 48 75 49 77 50 28 51 80 52 74 53 73 54 29 56 61 57 41 58
REMARK SMILES IDX 60 59 42 60 45 61 59 62 78 63 43 64 44 65 58 67 79 68 46 69
REMARK SMILES IDX 30 70 31 71 39 72 32 73 38 74 40 75 37 76 33 77 34 78 35 79
REMARK SMILES IDX 36 80 62 81 63 82 71 83 64 84 70 85 72 86 69 87 65 88 66 89
REMARK SMILES IDX 67 90 68 91 47 92 48 93 56 94 49 95 55 96 57 97 54 98 50 99
REMARK SMILES IDX 51 100 52 101 53 102
REMARK H PARENT 13 7 5 22 5 23 18 36 77 55 45 66
REMARK Flexibility Score: inf
ROOT
ATOM      1  C   UNL A   1      32.132  32.024  27.220  1.00  0.00     0.023 C 
ENDROOT
BRANCH   1   2
ATOM      2  C   UNL A   1      32.678  30.598  27.321  1.00  0.00     0.023 C 
BRANCH   2   3
ATOM      3  C   UNL A   1      33.080  29.982  25.980  1.00  0.00     0.116 C 
BRANCH   3   4
ATOM      4  N   UNL A   1      32.035  30.041  24.974  1.00  0.00    -0.356 N 
ATOM      5  C   UNL A   1      31.158  29.082  24.581  1.00  0.00     0.221 C 
ATOM      6  O   UNL A   1      30.331  29.322  23.702  1.00  0.00    -0.275 OA
ATOM      7  H   UNL A   1      31.951  30.903  24.506  1.00  0.00     0.163 HD
BRANCH   5   8
ATOM      8  C   UNL A   1      31.204  27.726  25.232  1.00  0.00     0.125 C 
BRANCH   8   9
ATOM      9  C   UNL A   1      30.191  26.748  24.653  1.00  0.00     0.152 C 
ATOM     10  C   UNL A   1      31.928  22.357  24.439  1.00  0.00     0.083 C 
ATOM     11  C   UNL A   1      31.010  23.127  25.059  1.00  0.00     0.126 C 
ATOM     12  C   UNL A   1      32.903  22.923  23.402  1.00  0.00     0.107 C 
ATOM     13  N   UNL A   1      30.873  24.450  24.652  1.00  0.00    -0.258 N 
ATOM     14  C   UNL A   1      32.306  24.166  22.770  1.00  0.00     0.073 C 
ATOM     15  C   UNL A   1      30.154  25.397  25.361  1.00  0.00     0.247 C 
ATOM     16  C   UNL A   1      31.374  24.852  23.438  1.00  0.00     0.099 C 
ATOM     17  O   UNL A   1      29.613  25.190  26.442  1.00  0.00    -0.273 OA
ATOM     18  S   UNL A   1      30.683  26.355  22.934  1.00  0.00    -0.093 SA
BRANCH  10  19
ATOM     19  C   UNL A   1      32.046  20.890  24.820  1.00  0.00     0.100 C 
ATOM     20  N   UNL A   1      32.145  19.674  25.136  1.00  0.00    -0.193 NA
ENDBRANCH  10  19
BRANCH  11  21
ATOM     21  N   UNL A   1      30.221  22.639  26.068  1.00  0.00    -0.384 N 
ATOM     22  H   UNL A   1      29.861  23.251  26.751  1.00  0.00     0.158 HD
ATOM     23  H   UNL A   1      30.013  21.678  26.110  1.00  0.00     0.158 HD
ENDBRANCH  11  21
BRANCH  12  24
ATOM     24  C   UNL A   1      34.300  23.192  24.013  1.00  0.00    -0.034 A 
ATOM     25  C   UNL A   1      35.501  22.881  23.338  1.00  0.00     0.006 A 
ATOM     26  C   UNL A   1      34.414  23.780  25.287  1.00  0.00     0.006 A 
ATOM     27  C   UNL A   1      36.752  23.142  23.910  1.00  0.00     0.021 A 
ATOM     28  C   UNL A   1      35.666  24.067  25.847  1.00  0.00     0.021 A 
ATOM     29  C   UNL A   1      36.830  23.741  25.159  1.00  0.00     0.041 A 
ATOM     30  Cl  UNL A   1      38.366  24.071  25.857  1.00  0.00    -0.084 Cl
ENDBRANCH  12  24
BRANCH  14  31
ATOM     31  C   UNL A   1      32.765  24.624  21.395  1.00  0.00     0.098 C 
ATOM     32  N   UNL A   1      33.146  25.004  20.255  1.00  0.00    -0.193 NA
ENDBRANCH  14  31
ENDBRANCH   8   9
ENDBRANCH   5   8
ENDBRANCH   3   4
ENDBRANCH   2   3
ENDBRANCH   1   2
BRANCH   1  33
ATOM     33  C   UNL A   1      33.231  33.073  27.186  1.00  0.00     0.116 C 
BRANCH  33  34
ATOM     34  N   UNL A   1      32.842  34.259  27.938  1.00  0.00    -0.352 N 
ATOM     35  C   UNL A   1      33.245  34.657  29.185  1.00  0.00     0.251 C 
ATOM     36  H   UNL A   1      32.203  34.856  27.487  1.00  0.00     0.163 HD
ATOM     37  O   UNL A   1      32.618  35.519  29.785  1.00  0.00    -0.269 OA
BRANCH  35  38
ATOM     38  C   UNL A   1      34.433  34.021  29.778  1.00  0.00     0.039 A 
ATOM     39  C   UNL A   1      35.700  34.474  29.412  1.00  0.00     0.014 A 
ATOM     40  C   UNL A   1      34.280  32.989  30.709  1.00  0.00     0.014 A 
ATOM     41  C   UNL A   1      36.822  33.920  30.023  1.00  0.00     0.010 A 
ATOM     42  C   UNL A   1      35.391  32.500  31.376  1.00  0.00     0.010 A 
ATOM     43  C   UNL A   1      36.673  32.953  31.031  1.00  0.00    -0.014 A 
BRANCH  43  44
ATOM     44  C   UNL A   1      37.847  32.392  31.736  1.00  0.00     0.031 A 
ATOM     45  C   UNL A   1      38.634  31.282  31.102  1.00  0.00     0.074 A 
ATOM     46  C   UNL A   1      38.147  32.833  32.972  1.00  0.00     0.049 A 
ATOM     47  N   UNL A   1      39.632  30.592  31.589  1.00  0.00    -0.248 NA
ATOM     48  C   UNL A   1      38.219  30.872  29.752  1.00  0.00     0.031 C 
ATOM     49  C   UNL A   1      37.416  33.874  33.696  1.00  0.00     0.029 A 
ATOM     50  N   UNL A   1      39.136  32.454  33.840  1.00  0.00    -0.354 N 
ATOM     51  C   UNL A   1      39.959  29.661  30.609  1.00  0.00     0.074 A 
ATOM     52  C   UNL A   1      39.001  29.826  29.538  1.00  0.00     0.031 C 
ATOM     53  C   UNL A   1      37.994  34.063  34.892  1.00  0.00     0.029 A 
ATOM     54  C   UNL A   1      39.100  33.124  35.040  1.00  0.00     0.049 A 
ATOM     55  H   UNL A   1      39.809  31.768  33.627  1.00  0.00     0.167 HD
ATOM     56  C   UNL A   1      40.983  28.773  30.596  1.00  0.00     0.034 A 
ATOM     57  C   UNL A   1      39.858  32.979  36.144  1.00  0.00     0.034 A 
ATOM     58  C   UNL A   1      41.920  28.628  31.683  1.00  0.00     0.049 A 
ATOM     59  C   UNL A   1      40.962  31.953  36.130  1.00  0.00     0.074 A 
ATOM     60  C   UNL A   1      43.027  27.802  31.765  1.00  0.00     0.029 A 
ATOM     61  N   UNL A   1      41.850  29.316  32.890  1.00  0.00    -0.354 N 
ATOM     62  N   UNL A   1      41.302  31.121  35.172  1.00  0.00    -0.248 NA
ATOM     63  C   UNL A   1      41.784  31.852  37.340  1.00  0.00     0.031 C 
ATOM     64  C   UNL A   1      43.577  27.932  33.046  1.00  0.00     0.029 A 
ATOM     65  C   UNL A   1      42.867  28.901  33.737  1.00  0.00     0.049 A 
ATOM     66  H   UNL A   1      41.176  29.999  33.110  1.00  0.00     0.167 HD
ATOM     67  C   UNL A   1      42.391  30.405  35.661  1.00  0.00     0.074 A 
ATOM     68  C   UNL A   1      42.663  30.925  36.987  1.00  0.00     0.031 C 
ATOM     69  C   UNL A   1      43.104  29.411  35.069  1.00  0.00     0.034 A 
BRANCH  56  70
ATOM     70  C   UNL A   1      41.109  27.883  29.381  1.00  0.00     0.023 A 
ATOM     71  C   UNL A   1      42.080  28.120  28.391  1.00  0.00     0.031 A 
ATOM     72  C   UNL A   1      40.211  26.821  29.174  1.00  0.00     0.131 A 
ATOM     73  C   UNL A   1      42.067  27.377  27.201  1.00  0.00     0.055 A 
ATOM     74  C   UNL A   1      40.266  26.021  28.031  1.00  0.00     0.041 A 
ATOM     75  F   UNL A   1      39.246  26.556  30.070  1.00  0.00    -0.206 F 
ATOM     76  C   UNL A   1      41.184  26.311  27.026  1.00  0.00     0.022 A 
BRANCH  73  77
ATOM     77  S   UNL A   1      43.094  27.946  25.818  1.00  0.00     0.124 S 
ATOM     78  O   UNL A   1      42.313  27.498  24.667  1.00  0.00    -0.237 OA
ATOM     79  O   UNL A   1      43.143  29.387  26.035  1.00  0.00    -0.237 OA
ATOM     80  O   UNL A   1      44.357  27.240  26.017  1.00  0.00    -0.744 OA
ENDBRANCH  73  77
ENDBRANCH  56  70
BRANCH  57  81
ATOM     81  C   UNL A   1      39.583  33.804  37.353  1.00  0.00     0.023 A 
ATOM     82  C   UNL A   1      38.833  33.295  38.424  1.00  0.00     0.031 A 
ATOM     83  C   UNL A   1      40.064  35.122  37.451  1.00  0.00     0.131 A 
ATOM     84  C   UNL A   1      38.555  34.111  39.533  1.00  0.00     0.055 A 
ATOM     85  C   UNL A   1      39.830  35.912  38.578  1.00  0.00     0.041 A 
ATOM     86  F   UNL A   1      40.792  35.654  36.457  1.00  0.00    -0.206 F 
ATOM     87  C   UNL A   1      39.061  35.410  39.622  1.00  0.00     0.022 A 
BRANCH  84  88
ATOM     88  S   UNL A   1      37.464  33.471  40.831  1.00  0.00     0.124 S 
ATOM     89  O   UNL A   1      37.119  34.688  41.556  1.00  0.00    -0.237 OA
ATOM     90  O   UNL A   1      36.391  32.861  40.053  1.00  0.00    -0.237 OA
ATOM     91  O   UNL A   1      38.315  32.531  41.558  1.00  0.00    -0.744 OA
ENDBRANCH  84  88
ENDBRANCH  57  81
BRANCH  69  92
ATOM     92  C   UNL A   1      44.256  28.837  35.857  1.00  0.00     0.023 A 
ATOM     93  C   UNL A   1      44.093  27.715  36.688  1.00  0.00     0.031 A 
ATOM     94  C   UNL A   1      45.532  29.423  35.780  1.00  0.00     0.131 A 
ATOM     95  C   UNL A   1      45.173  27.248  37.450  1.00  0.00     0.055 A 
ATOM     96  C   UNL A   1      46.619  28.913  36.490  1.00  0.00     0.041 A 
ATOM     97  F   UNL A   1      45.743  30.499  35.006  1.00  0.00    -0.206 F 
ATOM     98  C   UNL A   1      46.440  27.826  37.341  1.00  0.00     0.022 A 
BRANCH  95  99
ATOM     99  S   UNL A   1      44.878  25.930  38.661  1.00  0.00     0.124 S 
ATOM    100  O   UNL A   1      44.101  26.625  39.681  1.00  0.00    -0.237 OA
ATOM    101  O   UNL A   1      44.154  24.938  37.873  1.00  0.00    -0.237 OA
ATOM    102  O   UNL A   1      46.225  25.533  39.070  1.00  0.00    -0.744 OA
ENDBRANCH  95  99
ENDBRANCH  69  92
ENDBRANCH  43  44
ENDBRANCH  35  38
ENDBRANCH  33  34
ENDBRANCH   1  33
TORSDOF 19
ENDMDL
MODEL 2
REMARK VINA RESULT:     -12.4      5.672     11.638
REMARK SMILES N#CC1=C(N)N2C(=O)[C@@H](CC(=O)NCCCCNC(=O)c3ccc(-c4c5nc(c(-c6cc(S(=O)(=O)[O-])ccc6F)c6ccc([nH]6)c(-c6cc(S(=O)(=O)[O-])ccc6F)c6nc(c(-c7cc(S(=O)(=O)[O-])ccc7F)c7ccc4[nH]7)C=C6)C=C5)cc3)SC2=C(C#N)[C@H]1c1ccc(Cl)cc1
REMARK SMILES IDX 16 1 15 2 14 3 13 4 11 5 12 6 10 8 9 9 3 10 4 11 89 12 6 13
REMARK SMILES IDX 86 14 7 15 85 16 8 17 84 18 2 19 1 20 5 21 90 24 91 25 96 26
REMARK SMILES IDX 92 27 95 28 93 29 94 30 87 31 88 32 17 33 18 34 19 35 20 37
REMARK SMILES IDX 21 38 22 39 83 40 23 41 82 42 24 43 25 44 26 45 76 46 27 47
REMARK SMILES IDX 81 48 75 49 77 50 28 51 80 52 74 53 73 54 29 56 61 57 41 58
REMARK SMILES IDX 60 59 42 60 45 61 59 62 78 63 43 64 44 65 58 67 79 68 46 69
REMARK SMILES IDX 30 70 31 71 39 72 32 73 38 74 40 75 37 76 33 77 34 78 35 79
REMARK SMILES IDX 36 80 62 81 63 82 71 83 64 84 70 85 72 86 69 87 65 88 66 89
REMARK SMILES IDX 67 90 68 91 47 92 48 93 56 94 49 95 55 96 57 97 54 98 50 99
REMARK SMILES IDX 51 100 52 101 53 102
REMARK H PARENT 13 7 5 22 5 23 18 36 77 55 45 66
REMARK Flexibility Score: inf
ROOT
ATOM      1  C   UNL A   1      38.670  20.203  25.281  1.00  0.00     0.023 C 
ENDROOT
BRANCH   1   2
ATOM      2  C   UNL A   1      38.166  21.642  25.144  1.00  0.00     0.023 C 
BRANCH   2   3
ATOM      3  C   UNL A   1      36.812  21.899  25.808  1.00  0.00     0.116 C 
BRANCH   3   4
ATOM      4  N   UNL A   1      35.816  20.884  25.516  1.00  0.00    -0.356 N 
ATOM      5  C   UNL A   1      34.694  20.967  24.757  1.00  0.00     0.221 C 
ATOM      6  O   UNL A   1      33.964  19.985  24.623  1.00  0.00    -0.275 OA
ATOM      7  H   UNL A   1      35.978  20.006  25.932  1.00  0.00     0.163 HD
BRANCH   5   8
ATOM      8  C   UNL A   1      34.353  22.266  24.079  1.00  0.00     0.125 C 
BRANCH   8   9
ATOM      9  C   UNL A   1      33.058  22.204  23.281  1.00  0.00     0.152 C 
ATOM     10  C   UNL A   1      30.895  26.404  23.137  1.00  0.00     0.083 C 
ATOM     11  C   UNL A   1      31.546  25.498  22.379  1.00  0.00     0.126 C 
ATOM     12  C   UNL A   1      30.701  26.221  24.645  1.00  0.00     0.107 C 
ATOM     13  N   UNL A   1      31.946  24.306  22.973  1.00  0.00    -0.258 N 
ATOM     14  C   UNL A   1      30.749  24.744  24.986  1.00  0.00     0.073 C 
ATOM     15  C   UNL A   1      32.824  23.413  22.381  1.00  0.00     0.247 C 
ATOM     16  C   UNL A   1      31.385  23.906  24.162  1.00  0.00     0.099 C 
ATOM     17  O   UNL A   1      33.382  23.602  21.305  1.00  0.00    -0.273 OA
ATOM     18  S   UNL A   1      31.654  22.223  24.454  1.00  0.00    -0.093 SA
BRANCH  10  19
ATOM     19  C   UNL A   1      30.387  27.684  22.492  1.00  0.00     0.100 C 
ATOM     20  N   UNL A   1      29.966  28.745  21.957  1.00  0.00    -0.193 NA
ENDBRANCH  10  19
BRANCH  11  21
ATOM     21  N   UNL A   1      31.816  25.724  21.055  1.00  0.00    -0.384 N 
ATOM     22  H   UNL A   1      32.614  26.242  20.796  1.00  0.00     0.158 HD
ATOM     23  H   UNL A   1      31.215  25.370  20.362  1.00  0.00     0.158 HD
ENDBRANCH  11  21
BRANCH  12  24
ATOM     24  C   UNL A   1      31.727  27.043  25.462  1.00  0.00    -0.034 A 
ATOM     25  C   UNL A   1      31.419  27.623  26.712  1.00  0.00     0.006 A 
ATOM     26  C   UNL A   1      33.034  27.229  24.973  1.00  0.00     0.006 A 
ATOM     27  C   UNL A   1      32.369  28.356  27.434  1.00  0.00     0.021 A 
ATOM     28  C   UNL A   1      33.993  27.938  25.709  1.00  0.00     0.021 A 
ATOM     29  C   UNL A   1      33.654  28.504  26.933  1.00  0.00     0.041 A 
ATOM     30  Cl  UNL A   1      34.823  29.395  27.826  1.00  0.00    -0.084 Cl
ENDBRANCH  12  24
BRANCH  14  31
ATOM     31  C   UNL A   1      30.085  24.226  26.251  1.00  0.00     0.098 C 
ATOM     32  N   UNL A   1      29.533  23.796  27.301  1.00  0.00    -0.193 NA
ENDBRANCH  14  31
ENDBRANCH   8   9
ENDBRANCH   5   8
ENDBRANCH   3   4
ENDBRANCH   2   3
ENDBRANCH   1   2
BRANCH   1  33
ATOM     33  C   UNL A   1      39.578  20.011  26.484  1.00  0.00     0.116 C 
BRANCH  33  34
ATOM     34  N   UNL A   1      40.742  19.207  26.135  1.00  0.00    -0.352 N 
ATOM     35  C   UNL A   1      42.019  19.616  25.857  1.00  0.00     0.251 C 
ATOM     36  H   UNL A   1      40.588  18.235  26.095  1.00  0.00     0.163 HD
ATOM     37  O   UNL A   1      42.802  18.852  25.312  1.00  0.00    -0.269 OA
BRANCH  35  38
ATOM     38  C   UNL A   1      42.413  20.988  26.222  1.00  0.00     0.039 A 
ATOM     39  C   UNL A   1      42.692  21.281  27.556  1.00  0.00     0.014 A 
ATOM     40  C   UNL A   1      42.521  21.969  25.232  1.00  0.00     0.014 A 
ATOM     41  C   UNL A   1      43.131  22.560  27.891  1.00  0.00     0.010 A 
ATOM     42  C   UNL A   1      43.039  23.212  25.555  1.00  0.00     0.010 A 
ATOM     43  C   UNL A   1      43.338  23.522  26.890  1.00  0.00    -0.014 A 
BRANCH  43  44
ATOM     44  C   UNL A   1      43.860  24.868  27.215  1.00  0.00     0.031 A 
ATOM     45  C   UNL A   1      42.935  25.908  27.778  1.00  0.00     0.074 A 
ATOM     46  C   UNL A   1      45.141  25.166  26.928  1.00  0.00     0.049 A 
ATOM     47  N   UNL A   1      43.167  27.167  28.041  1.00  0.00    -0.248 NA
ATOM     48  C   UNL A   1      41.554  25.480  28.049  1.00  0.00     0.031 C 
ATOM     49  C   UNL A   1      46.109  24.242  26.334  1.00  0.00     0.029 A 
ATOM     50  N   UNL A   1      45.845  26.331  27.086  1.00  0.00    -0.354 N 
ATOM     51  C   UNL A   1      41.961  27.684  28.501  1.00  0.00     0.074 A 
ATOM     52  C   UNL A   1      40.985  26.620  28.403  1.00  0.00     0.031 C 
ATOM     53  C   UNL A   1      47.286  24.871  26.195  1.00  0.00     0.029 A 
ATOM     54  C   UNL A   1      47.143  26.253  26.639  1.00  0.00     0.049 A 
ATOM     55  H   UNL A   1      45.459  27.146  27.480  1.00  0.00     0.167 HD
ATOM     56  C   UNL A   1      41.703  28.923  28.987  1.00  0.00     0.034 A 
ATOM     57  C   UNL A   1      48.101  27.196  26.573  1.00  0.00     0.034 A 
ATOM     58  C   UNL A   1      42.697  29.965  29.067  1.00  0.00     0.049 A 
ATOM     59  C   UNL A   1      47.783  28.582  27.073  1.00  0.00     0.074 A 
ATOM     60  C   UNL A   1      42.571  31.242  29.586  1.00  0.00     0.029 A 
ATOM     61  N   UNL A   1      44.003  29.857  28.597  1.00  0.00    -0.354 N 
ATOM     62  N   UNL A   1      46.654  29.043  27.565  1.00  0.00    -0.248 NA
ATOM     63  C   UNL A   1      48.865  29.570  27.013  1.00  0.00     0.031 C 
ATOM     64  C   UNL A   1      43.770  31.927  29.359  1.00  0.00     0.029 A 
ATOM     65  C   UNL A   1      44.676  31.056  28.775  1.00  0.00     0.049 A 
ATOM     66  H   UNL A   1      44.391  29.046  28.197  1.00  0.00     0.167 HD
ATOM     67  C   UNL A   1      46.898  30.375  27.888  1.00  0.00     0.074 A 
ATOM     68  C   UNL A   1      48.286  30.631  27.558  1.00  0.00     0.031 C 
ATOM     69  C   UNL A   1      46.053  31.302  28.411  1.00  0.00     0.034 A 
BRANCH  56  70
ATOM     70  C   UNL A   1      40.288  29.208  29.434  1.00  0.00     0.023 A 
ATOM     71  C   UNL A   1      39.911  29.124  30.787  1.00  0.00     0.031 A 
ATOM     72  C   UNL A   1      39.286  29.507  28.494  1.00  0.00     0.131 A 
ATOM     73  C   UNL A   1      38.560  29.237  31.148  1.00  0.00     0.055 A 
ATOM     74  C   UNL A   1      37.957  29.715  28.873  1.00  0.00     0.041 A 
ATOM     75  F   UNL A   1      39.575  29.579  27.184  1.00  0.00    -0.206 F 
ATOM     76  C   UNL A   1      37.585  29.558  30.205  1.00  0.00     0.022 A 
BRANCH  73  77
ATOM     77  S   UNL A   1      38.079  28.771  32.835  1.00  0.00     0.124 S 
ATOM     78  O   UNL A   1      39.083  29.471  33.632  1.00  0.00    -0.237 OA
ATOM     79  O   UNL A   1      36.718  29.285  32.927  1.00  0.00    -0.237 OA
ATOM     80  O   UNL A   1      38.199  27.315  32.835  1.00  0.00    -0.744 OA
ENDBRANCH  73  77
ENDBRANCH  56  70
BRANCH  57  81
ATOM     81  C   UNL A   1      49.433  26.870  25.992  1.00  0.00     0.023 A 
ATOM     82  C   UNL A   1      49.792  27.307  24.708  1.00  0.00     0.031 A 
ATOM     83  C   UNL A   1      50.367  26.107  26.715  1.00  0.00     0.131 A 
ATOM     84  C   UNL A   1      51.039  26.947  24.171  1.00  0.00     0.055 A 
ATOM     85  C   UNL A   1      51.626  25.796  26.199  1.00  0.00     0.041 A 
ATOM     86  F   UNL A   1      50.075  25.670  27.951  1.00  0.00    -0.206 F 
ATOM     87  C   UNL A   1      51.963  26.208  24.914  1.00  0.00     0.022 A 
BRANCH  84  88
ATOM     88  S   UNL A   1      51.412  27.406  22.457  1.00  0.00     0.124 S 
ATOM     89  O   UNL A   1      51.354  28.862  22.521  1.00  0.00    -0.237 OA
ATOM     90  O   UNL A   1      52.736  26.824  22.268  1.00  0.00    -0.237 OA
ATOM     91  O   UNL A   1      50.340  26.772  21.694  1.00  0.00    -0.744 OA
ENDBRANCH  84  88
ENDBRANCH  57  81
BRANCH  69  92
ATOM     92  C   UNL A   1      46.625  32.674  28.670  1.00  0.00     0.023 A 
ATOM     93  C   UNL A   1      46.641  33.665  27.672  1.00  0.00     0.031 A 
ATOM     94  C   UNL A   1      47.165  32.994  29.928  1.00  0.00     0.131 A 
ATOM     95  C   UNL A   1      47.235  34.908  27.933  1.00  0.00     0.055 A 
ATOM     96  C   UNL A   1      47.694  34.255  30.202  1.00  0.00     0.041 A 
ATOM     97  F   UNL A   1      47.180  32.085  30.916  1.00  0.00    -0.206 F 
ATOM     98  C   UNL A   1      47.743  35.217  29.197  1.00  0.00     0.022 A 
BRANCH  95  99
ATOM     99  S   UNL A   1      47.421  36.087  26.567  1.00  0.00     0.124 S 
ATOM    100  O   UNL A   1      48.278  37.106  27.161  1.00  0.00    -0.237 OA
ATOM    101  O   UNL A   1      48.032  35.266  25.527  1.00  0.00    -0.237 OA
ATOM    102  O   UNL A   1      46.049  36.513  26.293  1.00  0.00    -0.744 OA
ENDBRANCH  95  99
ENDBRANCH  69  92
ENDBRANCH  43  44
ENDBRANCH  35  38
ENDBRANCH  33  34
ENDBRANCH   1  33
TORSDOF 19
ENDMDL
MODEL 3
REMARK VINA RESULT:     -12.2      3.056      8.059
REMARK SMILES N#CC1=C(N)N2C(=O)[C@@H](CC(=O)NCCCCNC(=O)c3ccc(-c4c5nc(c(-c6cc(S(=O)(=O)[O-])ccc6F)c6ccc([nH]6)c(-c6cc(S(=O)(=O)[O-])ccc6F)c6nc(c(-c7cc(S(=O)(=O)[O-])ccc7F)c7ccc4[nH]7)C=C6)C=C5)cc3)SC2=C(C#N)[C@H]1c1ccc(Cl)cc1
REMARK SMILES IDX 16 1 15 2 14 3 13 4 11 5 12 6 10 8 9 9 3 10 4 11 89 12 6 13
REMARK SMILES IDX 86 14 7 15 85 16 8 17 84 18 2 19 1 20 5 21 90 24 91 25 96 26
REMARK SMILES IDX 92 27 95 28 93 29 94 30 87 31 88 32 17 33 18 34 19 35 20 37
REMARK SMILES IDX 21 38 22 39 83 40 23 41 82 42 24 43 25 44 26 45 76 46 27 47
REMARK SMILES IDX 81 48 75 49 77 50 28 51 80 52 74 53 73 54 29 56 61 57 41 58
REMARK SMILES IDX 60 59 42 60 45 61 59 62 78 63 43 64 44 65 58 67 79 68 46 69
REMARK SMILES IDX 30 70 31 71 39 72 32 73 38 74 40 75 37 76 33 77 34 78 35 79
REMARK SMILES IDX 36 80 62 81 63 82 71 83 64 84 70 85 72 86 69 87 65 88 66 89
REMARK SMILES IDX 67 90 68 91 47 92 48 93 56 94 49 95 55 96 57 97 54 98 50 99
REMARK SMILES IDX 51 100 52 101 53 102
REMARK H PARENT 13 7 5 22 5 23 18 36 77 55 45 66
REMARK Flexibility Score: inf
ROOT
ATOM      1  C   UNL A   1      33.756  30.261  27.273  1.00  0.00     0.023 C 
ENDROOT
BRANCH   1   2
ATOM      2  C   UNL A   1      34.422  28.964  26.809  1.00  0.00     0.023 C 
BRANCH   2   3
ATOM      3  C   UNL A   1      34.056  28.545  25.383  1.00  0.00     0.116 C 
BRANCH   3   4
ATOM      4  N   UNL A   1      32.834  29.153  24.892  1.00  0.00    -0.356 N 
ATOM      5  C   UNL A   1      31.545  28.763  25.063  1.00  0.00     0.221 C 
ATOM      6  O   UNL A   1      30.629  29.418  24.565  1.00  0.00    -0.275 OA
ATOM      7  H   UNL A   1      32.958  29.968  24.354  1.00  0.00     0.163 HD
BRANCH   5   8
ATOM      8  C   UNL A   1      31.245  27.528  25.868  1.00  0.00     0.125 C 
BRANCH   8   9
ATOM      9  C   UNL A   1      30.237  26.605  25.198  1.00  0.00     0.152 C 
ATOM     10  C   UNL A   1      32.005  22.272  24.535  1.00  0.00     0.083 C 
ATOM     11  C   UNL A   1      31.085  22.968  25.234  1.00  0.00     0.126 C 
ATOM     12  C   UNL A   1      32.970  22.947  23.556  1.00  0.00     0.107 C 
ATOM     13  N   UNL A   1      30.935  24.324  24.963  1.00  0.00    -0.258 N 
ATOM     14  C   UNL A   1      32.361  24.242  23.055  1.00  0.00     0.073 C 
ATOM     15  C   UNL A   1      30.214  25.190  25.767  1.00  0.00     0.247 C 
ATOM     16  C   UNL A   1      31.427  24.851  23.793  1.00  0.00     0.099 C 
ATOM     17  O   UNL A   1      29.680  24.871  26.824  1.00  0.00    -0.273 OA
ATOM     18  S   UNL A   1      30.722  26.391  23.446  1.00  0.00    -0.093 SA
BRANCH  10  19
ATOM     19  C   UNL A   1      32.136  20.775  24.766  1.00  0.00     0.100 C 
ATOM     20  N   UNL A   1      32.246  19.534  24.958  1.00  0.00    -0.193 NA
ENDBRANCH  10  19
BRANCH  11  21
ATOM     21  N   UNL A   1      30.305  22.375  26.192  1.00  0.00    -0.384 N 
ATOM     22  H   UNL A   1      30.414  21.417  26.393  1.00  0.00     0.158 HD
ATOM     23  H   UNL A   1      29.635  22.906  26.680  1.00  0.00     0.158 HD
ENDBRANCH  11  21
BRANCH  12  24
ATOM     24  C   UNL A   1      34.368  23.164  24.184  1.00  0.00    -0.034 A 
ATOM     25  C   UNL A   1      35.568  22.910  23.483  1.00  0.00     0.006 A 
ATOM     26  C   UNL A   1      34.485  23.646  25.502  1.00  0.00     0.006 A 
ATOM     27  C   UNL A   1      36.820  23.122  24.073  1.00  0.00     0.021 A 
ATOM     28  C   UNL A   1      35.738  23.886  26.081  1.00  0.00     0.021 A 
ATOM     29  C   UNL A   1      36.901  23.616  25.366  1.00  0.00     0.041 A 
ATOM     30  Cl  UNL A   1      38.439  23.887  26.086  1.00  0.00    -0.084 Cl
ENDBRANCH  12  24
BRANCH  14  31
ATOM     31  C   UNL A   1      32.809  24.840  21.731  1.00  0.00     0.098 C 
ATOM     32  N   UNL A   1      33.181  25.336  20.633  1.00  0.00    -0.193 NA
ENDBRANCH  14  31
ENDBRANCH   8   9
ENDBRANCH   5   8
ENDBRANCH   3   4
ENDBRANCH   2   3
ENDBRANCH   1   2
BRANCH   1  33
ATOM     33  C   UNL A   1      34.738  31.414  27.397  1.00  0.00     0.116 C 
BRANCH  33  34
ATOM     34  N   UNL A   1      34.412  32.254  28.542  1.00  0.00    -0.352 N 
ATOM     35  C   UNL A   1      34.956  32.244  29.799  1.00  0.00     0.251 C 
ATOM     36  H   UNL A   1      33.704  32.921  28.390  1.00  0.00     0.163 HD
ATOM     37  O   UNL A   1      34.385  32.814  30.718  1.00  0.00    -0.269 OA
BRANCH  35  38
ATOM     38  C   UNL A   1      36.228  31.532  30.010  1.00  0.00     0.039 A 
ATOM     39  C   UNL A   1      37.410  32.100  29.540  1.00  0.00     0.014 A 
ATOM     40  C   UNL A   1      36.238  30.311  30.692  1.00  0.00     0.014 A 
ATOM     41  C   UNL A   1      38.620  31.461  29.799  1.00  0.00     0.010 A 
ATOM     42  C   UNL A   1      37.447  29.722  31.022  1.00  0.00     0.010 A 
ATOM     43  C   UNL A   1      38.649  30.286  30.569  1.00  0.00    -0.014 A 
BRANCH  43  44
ATOM     44  C   UNL A   1      39.927  29.621  30.907  1.00  0.00     0.031 A 
ATOM     45  C   UNL A   1      40.763  30.148  32.037  1.00  0.00     0.074 A 
ATOM     46  C   UNL A   1      40.359  28.599  30.146  1.00  0.00     0.049 A 
ATOM     47  N   UNL A   1      41.951  29.772  32.433  1.00  0.00    -0.248 NA
ATOM     48  C   UNL A   1      40.200  31.271  32.802  1.00  0.00     0.031 C 
ATOM     49  C   UNL A   1      39.645  28.044  28.994  1.00  0.00     0.029 A 
ATOM     50  N   UNL A   1      41.507  27.855  30.216  1.00  0.00    -0.354 N 
ATOM     51  C   UNL A   1      42.281  30.616  33.487  1.00  0.00     0.074 A 
ATOM     52  C   UNL A   1      41.202  31.571  33.612  1.00  0.00     0.031 C 
ATOM     53  C   UNL A   1      40.363  27.034  28.479  1.00  0.00     0.029 A 
ATOM     54  C   UNL A   1      41.608  26.905  29.228  1.00  0.00     0.049 A 
ATOM     55  H   UNL A   1      42.195  27.987  30.908  1.00  0.00     0.167 HD
ATOM     56  C   UNL A   1      43.371  30.576  34.292  1.00  0.00     0.034 A 
ATOM     57  C   UNL A   1      42.604  26.045  28.943  1.00  0.00     0.034 A 
ATOM     58  C   UNL A   1      44.434  29.613  34.139  1.00  0.00     0.049 A 
ATOM     59  C   UNL A   1      43.830  26.046  29.818  1.00  0.00     0.074 A 
ATOM     60  C   UNL A   1      45.562  29.440  34.921  1.00  0.00     0.029 A 
ATOM     61  N   UNL A   1      44.511  28.669  33.120  1.00  0.00    -0.354 N 
ATOM     62  N   UNL A   1      44.104  26.809  30.853  1.00  0.00    -0.248 NA
ATOM     63  C   UNL A   1      44.875  25.071  29.493  1.00  0.00     0.031 C 
ATOM     64  C   UNL A   1      46.355  28.448  34.333  1.00  0.00     0.029 A 
ATOM     65  C   UNL A   1      45.686  27.941  33.230  1.00  0.00     0.049 A 
ATOM     66  H   UNL A   1      43.829  28.537  32.422  1.00  0.00     0.167 HD
ATOM     67  C   UNL A   1      45.350  26.393  31.312  1.00  0.00     0.074 A 
ATOM     68  C   UNL A   1      45.759  25.296  30.455  1.00  0.00     0.031 C 
ATOM     69  C   UNL A   1      46.090  26.870  32.346  1.00  0.00     0.034 A 
BRANCH  56  70
ATOM     70  C   UNL A   1      43.465  31.622  35.379  1.00  0.00     0.023 A 
ATOM     71  C   UNL A   1      42.624  31.589  36.507  1.00  0.00     0.031 A 
ATOM     72  C   UNL A   1      44.359  32.700  35.262  1.00  0.00     0.131 A 
ATOM     73  C   UNL A   1      42.625  32.659  37.415  1.00  0.00     0.055 A 
ATOM     74  C   UNL A   1      44.423  33.713  36.221  1.00  0.00     0.041 A 
ATOM     75  F   UNL A   1      45.172  32.803  34.197  1.00  0.00    -0.206 F 
ATOM     76  C   UNL A   1      43.537  33.707  37.295  1.00  0.00     0.022 A 
BRANCH  73  77
ATOM     77  S   UNL A   1      41.292  32.747  38.643  1.00  0.00     0.124 S 
ATOM     78  O   UNL A   1      40.163  32.200  37.892  1.00  0.00    -0.237 OA
ATOM     79  O   UNL A   1      41.804  31.915  39.725  1.00  0.00    -0.237 OA
ATOM     80  O   UNL A   1      41.197  34.174  38.942  1.00  0.00    -0.744 OA
ENDBRANCH  73  77
ENDBRANCH  56  70
BRANCH  57  81
ATOM     81  C   UNL A   1      42.493  25.136  27.768  1.00  0.00     0.023 A 
ATOM     82  C   UNL A   1      41.957  23.845  27.895  1.00  0.00     0.031 A 
ATOM     83  C   UNL A   1      42.932  25.546  26.496  1.00  0.00     0.131 A 
ATOM     84  C   UNL A   1      41.905  22.997  26.778  1.00  0.00     0.055 A 
ATOM     85  C   UNL A   1      42.830  24.717  25.377  1.00  0.00     0.041 A 
ATOM     86  F   UNL A   1      43.446  26.773  26.318  1.00  0.00    -0.206 F 
ATOM     87  C   UNL A   1      42.323  23.430  25.517  1.00  0.00     0.022 A 
BRANCH  84  88
ATOM     88  S   UNL A   1      41.340  21.289  27.009  1.00  0.00     0.124 S 
ATOM     89  O   UNL A   1      40.792  21.339  28.360  1.00  0.00    -0.237 OA
ATOM     90  O   UNL A   1      40.372  21.141  25.929  1.00  0.00    -0.237 OA
ATOM     91  O   UNL A   1      42.563  20.503  26.860  1.00  0.00    -0.744 OA
ENDBRANCH  84  88
ENDBRANCH  57  81
BRANCH  69  92
ATOM     92  C   UNL A   1      47.411  26.189  32.609  1.00  0.00     0.023 A 
ATOM     93  C   UNL A   1      47.516  25.104  33.497  1.00  0.00     0.031 A 
ATOM     94  C   UNL A   1      48.581  26.635  31.969  1.00  0.00     0.131 A 
ATOM     95  C   UNL A   1      48.771  24.536  33.760  1.00  0.00     0.055 A 
ATOM     96  C   UNL A   1      49.816  26.023  32.184  1.00  0.00     0.041 A 
ATOM     97  F   UNL A   1      48.540  27.671  31.115  1.00  0.00    -0.206 F 
ATOM     98  C   UNL A   1      49.918  24.975  33.094  1.00  0.00     0.022 A 
BRANCH  95  99
ATOM     99  S   UNL A   1      48.900  23.275  35.058  1.00  0.00     0.124 S 
ATOM    100  O   UNL A   1      47.669  23.490  35.811  1.00  0.00    -0.237 OA
ATOM    101  O   UNL A   1      48.969  22.038  34.287  1.00  0.00    -0.237 OA
ATOM    102  O   UNL A   1      50.130  23.635  35.763  1.00  0.00    -0.744 OA
ENDBRANCH  95  99
ENDBRANCH  69  92
ENDBRANCH  43  44
ENDBRANCH  35  38
ENDBRANCH  33  34
ENDBRANCH   1  33
TORSDOF 19
ENDMDL
