MODEL 1
REMARK VINA RESULT:     -12.8      0.000      0.000
REMARK SMILES C[C@@H]1CN(C(=O)Nc2ccc(O)c(C(=O)NCCCCNC(=O)c3ccc(-c4c5nc(c(-c6cc(S(=O)(=O)[O-])ccc6F)c6ccc([nH]6)c(-c6cc(S(=O)(=O)[O-])ccc6F)c6nc(c(-c7cc(S(=O)(=O)[O-])ccc7F)c7ccc4[nH]7)C=C6)C=C5)cc3)c2)C[C@@H]1C
REMARK SMILES IDX 19 1 18 2 17 3 16 4 14 5 15 6 13 8 8 9 9 10 87 11 10 12
REMARK SMILES IDX 11 13 7 14 5 15 6 16 4 18 1 19 2 20 3 21 89 22 88 23 90 24
REMARK SMILES IDX 12 25 20 27 21 28 22 29 23 31 24 32 25 33 86 34 26 35 85 36
REMARK SMILES IDX 27 37 28 38 29 39 79 40 30 41 84 42 78 43 80 44 31 45 83 46
REMARK SMILES IDX 77 47 76 48 32 50 64 51 44 52 63 53 45 54 48 55 62 56 81 57
REMARK SMILES IDX 46 58 47 59 61 61 82 62 49 63 33 64 34 65 42 66 35 67 41 68
REMARK SMILES IDX 43 69 40 70 36 71 37 72 38 73 39 74 65 75 66 76 74 77 67 78
REMARK SMILES IDX 73 79 75 80 72 81 68 82 69 83 70 84 71 85 50 86 51 87 59 88
REMARK SMILES IDX 52 89 58 90 60 91 57 92 53 93 54 94 55 95 56 96
REMARK H PARENT 16 7 7 17 12 26 21 30 80 49 48 60
REMARK Flexibility Score: inf
ROOT
ATOM      1  C   UNL A   1      31.403  32.225  26.592  1.00  0.00     0.023 C 
ENDROOT
BRANCH   1   2
ATOM      2  C   UNL A   1      31.447  30.803  26.046  1.00  0.00     0.023 C 
BRANCH   2   3
ATOM      3  C   UNL A   1      32.795  30.088  26.167  1.00  0.00     0.116 C 
BRANCH   3   4
ATOM      4  N   UNL A   1      33.329  29.788  24.858  1.00  0.00    -0.352 N 
ATOM      5  C   UNL A   1      32.943  28.896  23.894  1.00  0.00     0.255 C 
ATOM      6  O   UNL A   1      33.633  28.866  22.869  1.00  0.00    -0.269 OA
ATOM      7  H   UNL A   1      34.118  30.324  24.614  1.00  0.00     0.163 HD
BRANCH   5   8
ATOM      8  C   UNL A   1      31.725  28.028  23.937  1.00  0.00     0.083 A 
ATOM      9  C   UNL A   1      30.584  26.344  25.291  1.00  0.00     0.043 A 
ATOM     10  C   UNL A   1      29.495  26.365  24.429  1.00  0.00     0.030 A 
ATOM     11  C   UNL A   1      31.648  27.223  25.091  1.00  0.00     0.044 A 
ATOM     12  C   UNL A   1      29.542  27.150  23.287  1.00  0.00     0.049 A 
ATOM     13  C   UNL A   1      30.662  27.950  23.026  1.00  0.00     0.128 A 
BRANCH   9  14
ATOM     14  N   UNL A   1      30.646  25.464  26.371  1.00  0.00    -0.308 N 
ATOM     15  C   UNL A   1      30.908  24.128  26.400  1.00  0.00     0.321 C 
ATOM     16  O   UNL A   1      30.449  23.473  27.340  1.00  0.00    -0.248 OA
ATOM     17  H   UNL A   1      30.473  25.872  27.249  1.00  0.00     0.171 HD
BRANCH  15  18
ATOM     18  N   UNL A   1      31.782  23.577  25.491  1.00  0.00    -0.324 N 
ATOM     19  C   UNL A   1      33.232  23.296  22.064  1.00  0.00     0.010 C 
ATOM     20  C   UNL A   1      33.012  22.991  23.537  1.00  0.00     0.010 C 
ATOM     21  C   UNL A   1      31.629  23.412  24.042  1.00  0.00     0.125 C 
ATOM     22  C   UNL A   1      33.950  23.671  24.544  1.00  0.00     0.010 C 
ATOM     23  C   UNL A   1      33.184  23.435  25.853  1.00  0.00     0.125 C 
ATOM     24  C   UNL A   1      34.177  25.162  24.271  1.00  0.00     0.010 C 
ENDBRANCH  15  18
ENDBRANCH   9  14
BRANCH  13  25
ATOM     25  O   UNL A   1      30.622  28.653  21.865  1.00  0.00    -0.507 OA
ATOM     26  H   UNL A   1      29.872  29.175  21.659  1.00  0.00     0.293 HD
ENDBRANCH  13  25
ENDBRANCH   5   8
ENDBRANCH   3   4
ENDBRANCH   2   3
ENDBRANCH   1   2
BRANCH   1  27
ATOM     27  C   UNL A   1      32.696  32.703  27.234  1.00  0.00     0.116 C 
BRANCH  27  28
ATOM     28  N   UNL A   1      32.634  34.074  27.718  1.00  0.00    -0.352 N 
ATOM     29  C   UNL A   1      33.456  34.694  28.635  1.00  0.00     0.251 C 
ATOM     30  H   UNL A   1      31.915  34.630  27.341  1.00  0.00     0.163 HD
ATOM     31  O   UNL A   1      33.222  35.828  29.006  1.00  0.00    -0.269 OA
BRANCH  29  32
ATOM     32  C   UNL A   1      34.591  33.924  29.192  1.00  0.00     0.039 A 
ATOM     33  C   UNL A   1      35.887  34.265  28.803  1.00  0.00     0.014 A 
ATOM     34  C   UNL A   1      34.372  32.932  30.150  1.00  0.00     0.014 A 
ATOM     35  C   UNL A   1      36.973  33.660  29.438  1.00  0.00     0.010 A 
ATOM     36  C   UNL A   1      35.452  32.392  30.837  1.00  0.00     0.010 A 
ATOM     37  C   UNL A   1      36.762  32.751  30.488  1.00  0.00    -0.014 A 
BRANCH  37  38
ATOM     38  C   UNL A   1      37.899  32.155  31.231  1.00  0.00     0.031 A 
ATOM     39  C   UNL A   1      38.677  31.023  30.624  1.00  0.00     0.074 A 
ATOM     40  C   UNL A   1      38.174  32.577  32.481  1.00  0.00     0.049 A 
ATOM     41  N   UNL A   1      39.643  30.308  31.140  1.00  0.00    -0.248 NA
ATOM     42  C   UNL A   1      38.284  30.615  29.267  1.00  0.00     0.031 C 
ATOM     43  C   UNL A   1      37.443  33.623  33.201  1.00  0.00     0.029 A 
ATOM     44  N   UNL A   1      39.129  32.165  33.376  1.00  0.00    -0.354 N 
ATOM     45  C   UNL A   1      39.965  29.359  30.177  1.00  0.00     0.074 A 
ATOM     46  C   UNL A   1      39.034  29.542  29.083  1.00  0.00     0.031 C 
ATOM     47  C   UNL A   1      37.983  33.778  34.420  1.00  0.00     0.029 A 
ATOM     48  C   UNL A   1      39.073  32.820  34.584  1.00  0.00     0.049 A 
ATOM     49  H   UNL A   1      39.791  31.467  33.172  1.00  0.00     0.167 HD
ATOM     50  C   UNL A   1      40.965  28.441  30.189  1.00  0.00     0.034 A 
ATOM     51  C   UNL A   1      39.807  32.657  35.701  1.00  0.00     0.034 A 
ATOM     52  C   UNL A   1      41.881  28.277  31.291  1.00  0.00     0.049 A 
ATOM     53  C   UNL A   1      40.911  31.634  35.701  1.00  0.00     0.074 A 
ATOM     54  C   UNL A   1      42.962  27.420  31.397  1.00  0.00     0.029 A 
ATOM     55  N   UNL A   1      41.817  28.982  32.489  1.00  0.00    -0.354 N 
ATOM     56  N   UNL A   1      41.251  30.786  34.757  1.00  0.00    -0.248 NA
ATOM     57  C   UNL A   1      41.742  31.557  36.909  1.00  0.00     0.031 C 
ATOM     58  C   UNL A   1      43.512  27.563  32.677  1.00  0.00     0.029 A 
ATOM     59  C   UNL A   1      42.820  28.560  33.347  1.00  0.00     0.049 A 
ATOM     60  H   UNL A   1      41.154  29.679  32.697  1.00  0.00     0.167 HD
ATOM     61  C   UNL A   1      42.348  30.087  35.251  1.00  0.00     0.074 A 
ATOM     62  C   UNL A   1      42.623  30.627  36.568  1.00  0.00     0.031 C 
ATOM     63  C   UNL A   1      43.067  29.094  34.667  1.00  0.00     0.034 A 
BRANCH  50  64
ATOM     64  C   UNL A   1      41.083  27.542  28.979  1.00  0.00     0.023 A 
ATOM     65  C   UNL A   1      42.099  27.729  28.023  1.00  0.00     0.031 A 
ATOM     66  C   UNL A   1      40.135  26.533  28.737  1.00  0.00     0.131 A 
ATOM     67  C   UNL A   1      42.079  27.001  26.825  1.00  0.00     0.055 A 
ATOM     68  C   UNL A   1      40.178  25.744  27.585  1.00  0.00     0.041 A 
ATOM     69  F   UNL A   1      39.131  26.317  29.600  1.00  0.00    -0.206 F 
ATOM     70  C   UNL A   1      41.140  25.991  26.609  1.00  0.00     0.022 A 
BRANCH  67  71
ATOM     71  S   UNL A   1      43.177  27.527  25.478  1.00  0.00     0.124 S 
ATOM     72  O   UNL A   1      42.242  28.206  24.585  1.00  0.00    -0.237 OA
ATOM     73  O   UNL A   1      44.135  28.381  26.169  1.00  0.00    -0.237 OA
ATOM     74  O   UNL A   1      43.715  26.269  24.965  1.00  0.00    -0.744 OA
ENDBRANCH  67  71
ENDBRANCH  50  64
BRANCH  51  75
ATOM     75  C   UNL A   1      39.514  33.475  36.912  1.00  0.00     0.023 A 
ATOM     76  C   UNL A   1      38.801  32.942  37.996  1.00  0.00     0.031 A 
ATOM     77  C   UNL A   1      39.943  34.812  36.995  1.00  0.00     0.131 A 
ATOM     78  C   UNL A   1      38.508  33.751  39.105  1.00  0.00     0.055 A 
ATOM     79  C   UNL A   1      39.688  35.599  38.118  1.00  0.00     0.041 A 
ATOM     80  F   UNL A   1      40.640  35.364  35.989  1.00  0.00    -0.206 F 
ATOM     81  C   UNL A   1      38.958  35.073  39.179  1.00  0.00     0.022 A 
BRANCH  78  82
ATOM     82  S   UNL A   1      37.486  33.067  40.438  1.00  0.00     0.124 S 
ATOM     83  O   UNL A   1      38.298  31.940  40.885  1.00  0.00    -0.237 OA
ATOM     84  O   UNL A   1      37.393  34.195  41.358  1.00  0.00    -0.237 OA
ATOM     85  O   UNL A   1      36.240  32.711  39.764  1.00  0.00    -0.744 OA
ENDBRANCH  78  82
ENDBRANCH  51  75
BRANCH  63  86
ATOM     86  C   UNL A   1      44.242  28.555  35.445  1.00  0.00     0.023 A 
ATOM     87  C   UNL A   1      44.098  27.505  36.369  1.00  0.00     0.031 A 
ATOM     88  C   UNL A   1      45.523  29.107  35.265  1.00  0.00     0.131 A 
ATOM     89  C   UNL A   1      45.206  27.075  37.116  1.00  0.00     0.055 A 
ATOM     90  C   UNL A   1      46.631  28.637  35.968  1.00  0.00     0.041 A 
ATOM     91  F   UNL A   1      45.716  30.113  34.396  1.00  0.00    -0.206 F 
ATOM     92  C   UNL A   1      46.474  27.623  36.909  1.00  0.00     0.022 A 
BRANCH  89  93
ATOM     93  S   UNL A   1      44.950  25.847  38.426  1.00  0.00     0.124 S 
ATOM     94  O   UNL A   1      44.253  26.627  39.442  1.00  0.00    -0.237 OA
ATOM     95  O   UNL A   1      44.155  24.828  37.748  1.00  0.00    -0.237 OA
ATOM     96  O   UNL A   1      46.308  25.437  38.781  1.00  0.00    -0.744 OA
ENDBRANCH  89  93
ENDBRANCH  63  86
ENDBRANCH  37  38
ENDBRANCH  29  32
ENDBRANCH  27  28
ENDBRANCH   1  27
TORSDOF 17
ENDMDL
MODEL 2
REMARK VINA RESULT:     -12.7      1.331      1.732
REMARK SMILES C[C@@H]1CN(C(=O)Nc2ccc(O)c(C(=O)NCCCCNC(=O)c3ccc(-c4c5nc(c(-c6cc(S(=O)(=O)[O-])ccc6F)c6ccc([nH]6)c(-c6cc(S(=O)(=O)[O-])ccc6F)c6nc(c(-c7cc(S(=O)(=O)[O-])ccc7F)c7ccc4[nH]7)C=C6)C=C5)cc3)c2)C[C@@H]1C
REMARK SMILES IDX 19 1 18 2 17 3 16 4 14 5 15 6 13 8 8 9 9 10 87 11 10 12
REMARK SMILES IDX 11 13 7 14 5 15 6 16 4 18 1 19 2 20 3 21 89 22 88 23 90 24
REMARK SMILES IDX 12 25 20 27 21 28 22 29 23 31 24 32 25 33 86 34 26 35 85 36
REMARK SMILES IDX 27 37 28 38 29 39 79 40 30 41 84 42 78 43 80 44 31 45 83 46
REMARK SMILES IDX 77 47 76 48 32 50 64 51 44 52 63 53 45 54 48 55 62 56 81 57
REMARK SMILES IDX 46 58 47 59 61 61 82 62 49 63 33 64 34 65 42 66 35 67 41 68
REMARK SMILES IDX 43 69 40 70 36 71 37 72 38 73 39 74 65 75 66 76 74 77 67 78
REMARK SMILES IDX 73 79 75 80 72 81 68 82 69 83 70 84 71 85 50 86 51 87 59 88
REMARK SMILES IDX 52 89 58 90 60 91 57 92 53 93 54 94 55 95 56 96
REMARK H PARENT 16 7 7 17 12 26 21 30 80 49 48 60
REMARK Flexibility Score: inf
ROOT
ATOM      1  C   UNL A   1      31.417  32.213  26.477  1.00  0.00     0.023 C 
ENDROOT
BRANCH   1   2
ATOM      2  C   UNL A   1      31.430  30.765  26.001  1.00  0.00     0.023 C 
BRANCH   2   3
ATOM      3  C   UNL A   1      32.802  30.087  25.982  1.00  0.00     0.116 C 
BRANCH   3   4
ATOM      4  N   UNL A   1      33.181  29.746  24.629  1.00  0.00    -0.352 N 
ATOM      5  C   UNL A   1      32.730  28.785  23.766  1.00  0.00     0.255 C 
ATOM      6  O   UNL A   1      33.283  28.738  22.662  1.00  0.00    -0.269 OA
ATOM      7  H   UNL A   1      33.898  30.311  24.260  1.00  0.00     0.163 HD
BRANCH   5   8
ATOM      8  C   UNL A   1      31.582  27.856  24.007  1.00  0.00     0.083 A 
ATOM      9  C   UNL A   1      30.766  26.128  25.532  1.00  0.00     0.043 A 
ATOM     10  C   UNL A   1      29.552  26.084  24.858  1.00  0.00     0.030 A 
ATOM     11  C   UNL A   1      31.735  27.059  25.159  1.00  0.00     0.044 A 
ATOM     12  C   UNL A   1      29.372  26.860  23.722  1.00  0.00     0.049 A 
ATOM     13  C   UNL A   1      30.391  27.714  23.281  1.00  0.00     0.128 A 
BRANCH   9  14
ATOM     14  N   UNL A   1      31.049  25.263  26.587  1.00  0.00    -0.308 N 
ATOM     15  C   UNL A   1      31.404  23.949  26.575  1.00  0.00     0.321 C 
ATOM     16  O   UNL A   1      31.136  23.272  27.571  1.00  0.00    -0.248 OA
ATOM     17  H   UNL A   1      30.981  25.665  27.483  1.00  0.00     0.171 HD
BRANCH  15  18
ATOM     18  N   UNL A   1      32.168  23.452  25.544  1.00  0.00    -0.324 N 
ATOM     19  C   UNL A   1      35.447  22.547  24.010  1.00  0.00     0.010 C 
ATOM     20  C   UNL A   1      33.943  22.737  24.126  1.00  0.00     0.010 C 
ATOM     21  C   UNL A   1      33.545  23.787  25.167  1.00  0.00     0.125 C 
ATOM     22  C   UNL A   1      33.112  21.520  24.551  1.00  0.00     0.010 C 
ATOM     23  C   UNL A   1      31.783  22.196  24.919  1.00  0.00     0.125 C 
ATOM     24  C   UNL A   1      33.707  20.743  25.732  1.00  0.00     0.010 C 
ENDBRANCH  15  18
ENDBRANCH   9  14
BRANCH  13  25
ATOM     25  O   UNL A   1      30.126  28.403  22.141  1.00  0.00    -0.507 OA
ATOM     26  H   UNL A   1      29.707  27.974  21.422  1.00  0.00     0.293 HD
ENDBRANCH  13  25
ENDBRANCH   5   8
ENDBRANCH   3   4
ENDBRANCH   2   3
ENDBRANCH   1   2
BRANCH   1  27
ATOM     27  C   UNL A   1      32.645  32.637  27.266  1.00  0.00     0.116 C 
BRANCH  27  28
ATOM     28  N   UNL A   1      32.579  34.005  27.756  1.00  0.00    -0.352 N 
ATOM     29  C   UNL A   1      33.400  34.624  28.675  1.00  0.00     0.251 C 
ATOM     30  H   UNL A   1      31.856  34.560  27.385  1.00  0.00     0.163 HD
ATOM     31  O   UNL A   1      33.162  35.756  29.052  1.00  0.00    -0.269 OA
BRANCH  29  32
ATOM     32  C   UNL A   1      34.540  33.857  29.224  1.00  0.00     0.039 A 
ATOM     33  C   UNL A   1      35.836  34.227  28.860  1.00  0.00     0.014 A 
ATOM     34  C   UNL A   1      34.325  32.837  30.154  1.00  0.00     0.014 A 
ATOM     35  C   UNL A   1      36.923  33.621  29.492  1.00  0.00     0.010 A 
ATOM     36  C   UNL A   1      35.404  32.295  30.839  1.00  0.00     0.010 A 
ATOM     37  C   UNL A   1      36.714  32.682  30.515  1.00  0.00    -0.014 A 
BRANCH  37  38
ATOM     38  C   UNL A   1      37.851  32.083  31.257  1.00  0.00     0.031 A 
ATOM     39  C   UNL A   1      38.644  30.970  30.635  1.00  0.00     0.074 A 
ATOM     40  C   UNL A   1      38.112  32.485  32.516  1.00  0.00     0.049 A 
ATOM     41  N   UNL A   1      39.613  30.254  31.145  1.00  0.00    -0.248 NA
ATOM     42  C   UNL A   1      38.265  30.583  29.267  1.00  0.00     0.031 C 
ATOM     43  C   UNL A   1      37.365  33.511  33.249  1.00  0.00     0.029 A 
ATOM     44  N   UNL A   1      39.064  32.066  33.410  1.00  0.00    -0.354 N 
ATOM     45  C   UNL A   1      39.952  29.326  30.167  1.00  0.00     0.074 A 
ATOM     46  C   UNL A   1      39.027  29.520  29.069  1.00  0.00     0.031 C 
ATOM     47  C   UNL A   1      37.895  33.648  34.474  1.00  0.00     0.029 A 
ATOM     48  C   UNL A   1      38.993  32.698  34.629  1.00  0.00     0.049 A 
ATOM     49  H   UNL A   1      39.735  31.378  33.199  1.00  0.00     0.167 HD
ATOM     50  C   UNL A   1      40.960  28.418  30.170  1.00  0.00     0.034 A 
ATOM     51  C   UNL A   1      39.720  32.522  35.749  1.00  0.00     0.034 A 
ATOM     52  C   UNL A   1      41.870  28.243  31.276  1.00  0.00     0.049 A 
ATOM     53  C   UNL A   1      40.834  31.509  35.739  1.00  0.00     0.074 A 
ATOM     54  C   UNL A   1      42.958  27.395  31.374  1.00  0.00     0.029 A 
ATOM     55  N   UNL A   1      41.790  28.925  32.485  1.00  0.00    -0.354 N 
ATOM     56  N   UNL A   1      41.189  30.681  34.782  1.00  0.00    -0.248 NA
ATOM     57  C   UNL A   1      41.657  31.418  36.952  1.00  0.00     0.031 C 
ATOM     58  C   UNL A   1      43.497  27.519  32.660  1.00  0.00     0.029 A 
ATOM     59  C   UNL A   1      42.791  28.497  33.344  1.00  0.00     0.049 A 
ATOM     60  H   UNL A   1      41.118  29.612  32.701  1.00  0.00     0.167 HD
ATOM     61  C   UNL A   1      42.290  29.985  35.271  1.00  0.00     0.074 A 
ATOM     62  C   UNL A   1      42.549  30.503  36.600  1.00  0.00     0.031 C 
ATOM     63  C   UNL A   1      43.023  29.010  34.675  1.00  0.00     0.034 A 
BRANCH  50  64
ATOM     64  C   UNL A   1      41.096  27.542  28.945  1.00  0.00     0.023 A 
ATOM     65  C   UNL A   1      42.112  27.762  27.995  1.00  0.00     0.031 A 
ATOM     66  C   UNL A   1      40.164  26.523  28.682  1.00  0.00     0.131 A 
ATOM     67  C   UNL A   1      42.106  27.055  26.785  1.00  0.00     0.055 A 
ATOM     68  C   UNL A   1      40.223  25.756  27.517  1.00  0.00     0.041 A 
ATOM     69  F   UNL A   1      39.161  26.276  29.538  1.00  0.00    -0.206 F 
ATOM     70  C   UNL A   1      41.184  26.034  26.548  1.00  0.00     0.022 A 
BRANCH  67  71
ATOM     71  S   UNL A   1      43.200  27.622  25.451  1.00  0.00     0.124 S 
ATOM     72  O   UNL A   1      43.726  26.356  24.945  1.00  0.00    -0.237 OA
ATOM     73  O   UNL A   1      42.280  28.330  24.569  1.00  0.00    -0.237 OA
ATOM     74  O   UNL A   1      44.175  28.461  26.142  1.00  0.00    -0.744 OA
ENDBRANCH  67  71
ENDBRANCH  50  64
BRANCH  51  75
ATOM     75  C   UNL A   1      39.410  33.315  36.972  1.00  0.00     0.023 A 
ATOM     76  C   UNL A   1      40.055  34.533  37.232  1.00  0.00     0.031 A 
ATOM     77  C   UNL A   1      38.461  32.855  37.903  1.00  0.00     0.131 A 
ATOM     78  C   UNL A   1      39.767  35.237  38.412  1.00  0.00     0.055 A 
ATOM     79  C   UNL A   1      38.147  33.580  39.053  1.00  0.00     0.041 A 
ATOM     80  F   UNL A   1      37.808  31.702  37.692  1.00  0.00    -0.206 F 
ATOM     81  C   UNL A   1      38.809  34.775  39.318  1.00  0.00     0.022 A 
BRANCH  78  82
ATOM     82  S   UNL A   1      40.701  36.749  38.774  1.00  0.00     0.124 S 
ATOM     83  O   UNL A   1      41.549  36.865  37.592  1.00  0.00    -0.237 OA
ATOM     84  O   UNL A   1      39.637  37.740  38.900  1.00  0.00    -0.237 OA
ATOM     85  O   UNL A   1      41.400  36.429  40.017  1.00  0.00    -0.744 OA
ENDBRANCH  78  82
ENDBRANCH  51  75
BRANCH  63  86
ATOM     86  C   UNL A   1      44.197  28.467  35.452  1.00  0.00     0.023 A 
ATOM     87  C   UNL A   1      44.050  27.417  36.376  1.00  0.00     0.031 A 
ATOM     88  C   UNL A   1      45.478  29.016  35.271  1.00  0.00     0.131 A 
ATOM     89  C   UNL A   1      45.158  26.985  37.122  1.00  0.00     0.055 A 
ATOM     90  C   UNL A   1      46.586  28.543  35.973  1.00  0.00     0.041 A 
ATOM     91  F   UNL A   1      45.674  30.022  34.402  1.00  0.00    -0.206 F 
ATOM     92  C   UNL A   1      46.427  27.530  36.914  1.00  0.00     0.022 A 
BRANCH  89  93
ATOM     93  S   UNL A   1      44.900  25.756  38.431  1.00  0.00     0.124 S 
ATOM     94  O   UNL A   1      46.264  25.507  38.886  1.00  0.00    -0.237 OA
ATOM     95  O   UNL A   1      44.038  26.472  39.366  1.00  0.00    -0.237 OA
ATOM     96  O   UNL A   1      44.265  24.640  37.733  1.00  0.00    -0.744 OA
ENDBRANCH  89  93
ENDBRANCH  63  86
ENDBRANCH  37  38
ENDBRANCH  29  32
ENDBRANCH  27  28
ENDBRANCH   1  27
TORSDOF 17
ENDMDL
MODEL 3
REMARK VINA RESULT:     -12.6      1.464      1.880
REMARK SMILES C[C@@H]1CN(C(=O)Nc2ccc(O)c(C(=O)NCCCCNC(=O)c3ccc(-c4c5nc(c(-c6cc(S(=O)(=O)[O-])ccc6F)c6ccc([nH]6)c(-c6cc(S(=O)(=O)[O-])ccc6F)c6nc(c(-c7cc(S(=O)(=O)[O-])ccc7F)c7ccc4[nH]7)C=C6)C=C5)cc3)c2)C[C@@H]1C
REMARK SMILES IDX 19 1 18 2 17 3 16 4 14 5 15 6 13 8 8 9 9 10 87 11 10 12
REMARK SMILES IDX 11 13 7 14 5 15 6 16 4 18 1 19 2 20 3 21 89 22 88 23 90 24
REMARK SMILES IDX 12 25 20 27 21 28 22 29 23 31 24 32 25 33 86 34 26 35 85 36
REMARK SMILES IDX 27 37 28 38 29 39 79 40 30 41 84 42 78 43 80 44 31 45 83 46
REMARK SMILES IDX 77 47 76 48 32 50 64 51 44 52 63 53 45 54 48 55 62 56 81 57
REMARK SMILES IDX 46 58 47 59 61 61 82 62 49 63 33 64 34 65 42 66 35 67 41 68
REMARK SMILES IDX 43 69 40 70 36 71 37 72 38 73 39 74 65 75 66 76 74 77 67 78
REMARK SMILES IDX 73 79 75 80 72 81 68 82 69 83 70 84 71 85 50 86 51 87 59 88
REMARK SMILES IDX 52 89 58 90 60 91 57 92 53 93 54 94 55 95 56 96
REMARK H PARENT 16 7 7 17 12 26 21 30 80 49 48 60
REMARK Flexibility Score: inf
ROOT
ATOM      1  C   UNL A   1      31.280  32.089  26.520  1.00  0.00     0.023 C 
ENDROOT
BRANCH   1   2
ATOM      2  C   UNL A   1      31.363  30.740  25.816  1.00  0.00     0.023 C 
BRANCH   2   3
ATOM      3  C   UNL A   1      32.740  30.072  25.826  1.00  0.00     0.116 C 
BRANCH   3   4
ATOM      4  N   UNL A   1      33.131  29.694  24.487  1.00  0.00    -0.352 N 
ATOM      5  C   UNL A   1      32.631  28.765  23.615  1.00  0.00     0.255 C 
ATOM      6  O   UNL A   1      33.211  28.668  22.528  1.00  0.00    -0.269 OA
ATOM      7  H   UNL A   1      33.900  30.199  24.136  1.00  0.00     0.163 HD
BRANCH   5   8
ATOM      8  C   UNL A   1      31.408  27.929  23.827  1.00  0.00     0.083 A 
ATOM      9  C   UNL A   1      30.421  26.274  25.330  1.00  0.00     0.043 A 
ATOM     10  C   UNL A   1      29.225  26.323  24.625  1.00  0.00     0.030 A 
ATOM     11  C   UNL A   1      31.469  27.125  24.983  1.00  0.00     0.044 A 
ATOM     12  C   UNL A   1      29.136  27.109  23.484  1.00  0.00     0.049 A 
ATOM     13  C   UNL A   1      30.230  27.879  23.070  1.00  0.00     0.128 A 
BRANCH   9  14
ATOM     14  N   UNL A   1      30.608  25.391  26.393  1.00  0.00    -0.308 N 
ATOM     15  C   UNL A   1      31.323  24.235  26.459  1.00  0.00     0.321 C 
ATOM     16  O   UNL A   1      30.974  23.391  27.288  1.00  0.00    -0.248 OA
ATOM     17  H   UNL A   1      30.151  25.644  27.227  1.00  0.00     0.171 HD
BRANCH  15  18
ATOM     18  N   UNL A   1      32.479  24.097  25.725  1.00  0.00    -0.324 N 
ATOM     19  C   UNL A   1      36.150  23.491  25.441  1.00  0.00     0.010 C 
ATOM     20  C   UNL A   1      34.728  23.795  24.999  1.00  0.00     0.010 C 
ATOM     21  C   UNL A   1      33.863  24.389  26.115  1.00  0.00     0.125 C 
ATOM     22  C   UNL A   1      33.875  22.616  24.514  1.00  0.00     0.010 C 
ATOM     23  C   UNL A   1      32.474  23.245  24.547  1.00  0.00     0.125 C 
ATOM     24  C   UNL A   1      33.968  21.373  25.407  1.00  0.00     0.010 C 
ENDBRANCH  15  18
ENDBRANCH   9  14
BRANCH  13  25
ATOM     25  O   UNL A   1      30.049  28.584  21.923  1.00  0.00    -0.507 OA
ATOM     26  H   UNL A   1      30.548  29.361  21.768  1.00  0.00     0.293 HD
ENDBRANCH  13  25
ENDBRANCH   5   8
ENDBRANCH   3   4
ENDBRANCH   2   3
ENDBRANCH   1   2
BRANCH   1  27
ATOM     27  C   UNL A   1      32.615  32.655  26.976  1.00  0.00     0.116 C 
BRANCH  27  28
ATOM     28  N   UNL A   1      32.507  33.953  27.624  1.00  0.00    -0.352 N 
ATOM     29  C   UNL A   1      33.316  34.489  28.605  1.00  0.00     0.251 C 
ATOM     30  H   UNL A   1      31.762  34.523  27.325  1.00  0.00     0.163 HD
ATOM     31  O   UNL A   1      33.042  35.559  29.114  1.00  0.00    -0.269 OA
BRANCH  29  32
ATOM     32  C   UNL A   1      34.486  33.703  29.054  1.00  0.00     0.039 A 
ATOM     33  C   UNL A   1      35.765  34.174  28.754  1.00  0.00     0.014 A 
ATOM     34  C   UNL A   1      34.313  32.557  29.833  1.00  0.00     0.014 A 
ATOM     35  C   UNL A   1      36.877  33.534  29.306  1.00  0.00     0.010 A 
ATOM     36  C   UNL A   1      35.414  31.973  30.447  1.00  0.00     0.010 A 
ATOM     37  C   UNL A   1      36.706  32.456  30.190  1.00  0.00    -0.014 A 
BRANCH  37  38
ATOM     38  C   UNL A   1      37.866  31.810  30.852  1.00  0.00     0.031 A 
ATOM     39  C   UNL A   1      38.639  30.744  30.130  1.00  0.00     0.074 A 
ATOM     40  C   UNL A   1      38.167  32.125  32.127  1.00  0.00     0.049 A 
ATOM     41  N   UNL A   1      39.624  29.997  30.559  1.00  0.00    -0.248 NA
ATOM     42  C   UNL A   1      38.216  30.451  28.752  1.00  0.00     0.031 C 
ATOM     43  C   UNL A   1      37.444  33.097  32.952  1.00  0.00     0.029 A 
ATOM     44  N   UNL A   1      39.147  31.648  32.959  1.00  0.00    -0.354 N 
ATOM     45  C   UNL A   1      39.931  29.139  29.509  1.00  0.00     0.074 A 
ATOM     46  C   UNL A   1      38.971  29.406  28.458  1.00  0.00     0.031 C 
ATOM     47  C   UNL A   1      38.013  33.151  34.166  1.00  0.00     0.029 A 
ATOM     48  C   UNL A   1      39.115  32.195  34.220  1.00  0.00     0.049 A 
ATOM     49  H   UNL A   1      39.811  30.977  32.680  1.00  0.00     0.167 HD
ATOM     50  C   UNL A   1      40.939  28.235  29.418  1.00  0.00     0.034 A 
ATOM     51  C   UNL A   1      39.878  31.944  35.302  1.00  0.00     0.034 A 
ATOM     52  C   UNL A   1      41.883  27.986  30.480  1.00  0.00     0.049 A 
ATOM     53  C   UNL A   1      40.991  30.937  35.187  1.00  0.00     0.074 A 
ATOM     54  C   UNL A   1      42.974  27.136  30.485  1.00  0.00     0.029 A 
ATOM     55  N   UNL A   1      41.842  28.584  31.735  1.00  0.00    -0.354 N 
ATOM     56  N   UNL A   1      41.315  30.178  34.165  1.00  0.00    -0.248 NA
ATOM     57  C   UNL A   1      41.852  30.765  36.364  1.00  0.00     0.031 C 
ATOM     58  C   UNL A   1      43.554  27.173  31.759  1.00  0.00     0.029 A 
ATOM     59  C   UNL A   1      42.870  28.101  32.530  1.00  0.00     0.049 A 
ATOM     60  H   UNL A   1      41.178  29.253  32.019  1.00  0.00     0.167 HD
ATOM     61  C   UNL A   1      42.431  29.452  34.570  1.00  0.00     0.074 A 
ATOM     62  C   UNL A   1      42.733  29.878  35.922  1.00  0.00     0.031 C 
ATOM     63  C   UNL A   1      43.144  28.521  33.885  1.00  0.00     0.034 A 
BRANCH  50  64
ATOM     64  C   UNL A   1      41.036  27.446  28.132  1.00  0.00     0.023 A 
ATOM     65  C   UNL A   1      40.685  26.084  28.079  1.00  0.00     0.031 A 
ATOM     66  C   UNL A   1      41.548  28.036  26.964  1.00  0.00     0.131 A 
ATOM     67  C   UNL A   1      40.954  25.334  26.925  1.00  0.00     0.055 A 
ATOM     68  C   UNL A   1      41.723  27.305  25.787  1.00  0.00     0.041 A 
ATOM     69  F   UNL A   1      41.919  29.325  26.954  1.00  0.00    -0.206 F 
ATOM     70  C   UNL A   1      41.446  25.940  25.768  1.00  0.00     0.022 A 
BRANCH  67  71
ATOM     71  S   UNL A   1      40.830  23.526  27.024  1.00  0.00     0.124 S 
ATOM     72  O   UNL A   1      41.669  23.111  25.902  1.00  0.00    -0.237 OA
ATOM     73  O   UNL A   1      41.358  23.247  28.354  1.00  0.00    -0.237 OA
ATOM     74  O   UNL A   1      39.402  23.270  26.851  1.00  0.00    -0.744 OA
ENDBRANCH  67  71
ENDBRANCH  50  64
BRANCH  51  75
ATOM     75  C   UNL A   1      39.607  32.651  36.585  1.00  0.00     0.023 A 
ATOM     76  C   UNL A   1      38.619  32.197  37.472  1.00  0.00     0.031 A 
ATOM     77  C   UNL A   1      40.336  33.800  36.939  1.00  0.00     0.131 A 
ATOM     78  C   UNL A   1      38.363  32.908  38.655  1.00  0.00     0.055 A 
ATOM     79  C   UNL A   1      40.108  34.478  38.137  1.00  0.00     0.041 A 
ATOM     80  F   UNL A   1      41.301  34.266  36.130  1.00  0.00    -0.206 F 
ATOM     81  C   UNL A   1      39.109  34.038  38.999  1.00  0.00     0.022 A 
BRANCH  78  82
ATOM     82  S   UNL A   1      37.002  32.362  39.723  1.00  0.00     0.124 S 
ATOM     83  O   UNL A   1      35.850  32.524  38.842  1.00  0.00    -0.237 OA
ATOM     84  O   UNL A   1      37.389  30.988  40.028  1.00  0.00    -0.237 OA
ATOM     85  O   UNL A   1      37.061  33.288  40.852  1.00  0.00    -0.744 OA
ENDBRANCH  78  82
ENDBRANCH  51  75
BRANCH  63  86
ATOM     86  C   UNL A   1      44.343  27.929  34.586  1.00  0.00     0.023 A 
ATOM     87  C   UNL A   1      44.253  26.737  35.325  1.00  0.00     0.031 A 
ATOM     88  C   UNL A   1      45.590  28.574  34.518  1.00  0.00     0.131 A 
ATOM     89  C   UNL A   1      45.378  26.255  36.011  1.00  0.00     0.055 A 
ATOM     90  C   UNL A   1      46.719  28.059  35.155  1.00  0.00     0.041 A 
ATOM     91  F   UNL A   1      45.731  29.717  33.827  1.00  0.00    -0.206 F 
ATOM     92  C   UNL A   1      46.614  26.899  35.917  1.00  0.00     0.022 A 
BRANCH  89  93
ATOM     93  S   UNL A   1      45.184  24.817  37.101  1.00  0.00     0.124 S 
ATOM     94  O   UNL A   1      46.569  24.503  37.438  1.00  0.00    -0.237 OA
ATOM     95  O   UNL A   1      44.370  25.355  38.185  1.00  0.00    -0.237 OA
ATOM     96  O   UNL A   1      44.514  23.833  36.253  1.00  0.00    -0.744 OA
ENDBRANCH  89  93
ENDBRANCH  63  86
ENDBRANCH  37  38
ENDBRANCH  29  32
ENDBRANCH  27  28
ENDBRANCH   1  27
TORSDOF 17
ENDMDL
