MODEL 1
REMARK VINA RESULT:     -12.8      0.000      0.000
REMARK SMILES C[C@@H]1CCc2nc(NC(=O)[C@H]3CC=CC[C@@H]3C(=O)NCCCCNC(=O)c3ccc(-c4c5nc(c(-c6cc(S(=O)(=O)[O-])ccc6F)c6ccc([nH]6)c(-c6cc(S(=O)(=O)[O-])ccc6F)c6nc(c(-c7cc(S(=O)(=O)[O-])ccc7F)c7ccc4[nH]7)C=C6)C=C5)cc3)sc2C1
REMARK SMILES IDX 22 1 21 2 20 3 19 4 17 5 18 6 16 8 11 9 12 10 13 11 15 12
REMARK SMILES IDX 14 13 9 14 8 15 10 17 7 18 1 19 2 20 3 21 92 22 4 23 91 24
REMARK SMILES IDX 5 25 90 26 6 27 23 28 24 29 25 30 26 32 27 33 28 34 89 35
REMARK SMILES IDX 29 36 88 37 30 38 31 39 32 40 82 41 33 42 87 43 81 44 83 45
REMARK SMILES IDX 34 46 86 47 80 48 79 49 35 51 67 52 47 53 66 54 48 55 51 56
REMARK SMILES IDX 65 57 84 58 49 59 50 60 64 62 85 63 52 64 36 65 37 66 45 67
REMARK SMILES IDX 38 68 44 69 46 70 43 71 39 72 40 73 41 74 42 75 68 76 69 77
REMARK SMILES IDX 77 78 70 79 76 80 78 81 75 82 71 83 72 84 73 85 74 86 53 87
REMARK SMILES IDX 54 88 62 89 55 90 61 91 63 92 60 93 56 94 57 95 58 96 59 97
REMARK H PARENT 19 7 8 16 24 31 83 50 51 61
REMARK Flexibility Score: inf
ROOT
ATOM      1  C   UNL A   1      34.187  30.680  27.309  1.00  0.00     0.023 C 
ENDROOT
BRANCH   1   2
ATOM      2  C   UNL A   1      34.785  29.266  27.340  1.00  0.00     0.023 C 
BRANCH   2   3
ATOM      3  C   UNL A   1      33.990  28.168  26.628  1.00  0.00     0.116 C 
BRANCH   3   4
ATOM      4  N   UNL A   1      34.086  28.262  25.185  1.00  0.00    -0.356 N 
ATOM      5  C   UNL A   1      33.140  28.080  24.222  1.00  0.00     0.224 C 
ATOM      6  O   UNL A   1      33.528  28.136  23.053  1.00  0.00    -0.275 OA
ATOM      7  H   UNL A   1      34.980  28.496  24.846  1.00  0.00     0.163 HD
BRANCH   5   8
ATOM      8  C   UNL A   1      31.688  27.751  24.593  1.00  0.00     0.095 C 
ATOM      9  C   UNL A   1      31.095  26.773  23.539  1.00  0.00     0.095 C 
ATOM     10  C   UNL A   1      30.746  27.490  22.213  1.00  0.00     0.041 C 
ATOM     11  C   UNL A   1      30.229  28.886  22.357  1.00  0.00    -0.030 C 
ATOM     12  C   UNL A   1      30.824  29.011  24.775  1.00  0.00     0.041 C 
ATOM     13  C   UNL A   1      30.242  29.559  23.510  1.00  0.00    -0.030 C 
BRANCH   9  14
ATOM     14  C   UNL A   1      29.907  25.971  24.081  1.00  0.00     0.230 C 
ATOM     15  N   UNL A   1      30.039  24.747  24.669  1.00  0.00    -0.302 N 
ATOM     16  H   UNL A   1      29.178  24.301  24.841  1.00  0.00     0.172 HD
ATOM     17  O   UNL A   1      28.754  26.410  23.982  1.00  0.00    -0.274 OA
BRANCH  15  18
ATOM     18  C   UNL A   1      31.121  24.009  25.070  1.00  0.00     0.189 A 
ATOM     19  C   UNL A   1      36.048  23.966  25.518  1.00  0.00     0.008 C 
ATOM     20  C   UNL A   1      35.497  22.672  26.133  1.00  0.00    -0.009 C 
ATOM     21  C   UNL A   1      35.150  21.625  25.044  1.00  0.00     0.010 C 
ATOM     22  C   UNL A   1      34.263  22.945  27.026  1.00  0.00     0.052 C 
ATOM     23  C   UNL A   1      34.006  22.063  24.103  1.00  0.00     0.058 C 
ATOM     24  C   UNL A   1      33.066  23.159  26.170  1.00  0.00     0.030 A 
ATOM     25  C   UNL A   1      32.934  22.784  24.850  1.00  0.00     0.057 A 
ATOM     26  S   UNL A   1      31.660  23.939  26.688  1.00  0.00    -0.101 S 
ATOM     27  N   UNL A   1      31.788  23.246  24.228  1.00  0.00    -0.225 NA
ENDBRANCH  15  18
ENDBRANCH   9  14
ENDBRANCH   5   8
ENDBRANCH   3   4
ENDBRANCH   2   3
ENDBRANCH   1   2
BRANCH   1  28
ATOM     28  C   UNL A   1      35.157  31.795  27.673  1.00  0.00     0.116 C 
BRANCH  28  29
ATOM     29  N   UNL A   1      35.004  32.260  29.049  1.00  0.00    -0.352 N 
ATOM     30  C   UNL A   1      35.661  31.796  30.175  1.00  0.00     0.251 C 
ATOM     31  H   UNL A   1      34.356  32.988  29.192  1.00  0.00     0.163 HD
ATOM     32  O   UNL A   1      35.190  31.981  31.288  1.00  0.00    -0.269 OA
BRANCH  30  33
ATOM     33  C   UNL A   1      36.937  31.071  30.001  1.00  0.00     0.039 A 
ATOM     34  C   UNL A   1      38.151  31.750  29.868  1.00  0.00     0.014 A 
ATOM     35  C   UNL A   1      36.900  29.679  30.007  1.00  0.00     0.014 A 
ATOM     36  C   UNL A   1      39.336  31.014  29.831  1.00  0.00     0.010 A 
ATOM     37  C   UNL A   1      38.068  28.966  30.112  1.00  0.00     0.010 A 
ATOM     38  C   UNL A   1      39.290  29.618  29.977  1.00  0.00    -0.014 A 
BRANCH  38  39
ATOM     39  C   UNL A   1      40.513  28.829  30.127  1.00  0.00     0.031 A 
ATOM     40  C   UNL A   1      40.918  28.582  31.539  1.00  0.00     0.074 A 
ATOM     41  C   UNL A   1      41.081  28.152  29.103  1.00  0.00     0.049 A 
ATOM     42  N   UNL A   1      41.964  29.022  32.157  1.00  0.00    -0.248 NA
ATOM     43  C   UNL A   1      39.967  27.883  32.419  1.00  0.00     0.031 C 
ATOM     44  C   UNL A   1      40.590  28.039  27.724  1.00  0.00     0.029 A 
ATOM     45  N   UNL A   1      42.149  27.306  29.105  1.00  0.00    -0.354 N 
ATOM     46  C   UNL A   1      41.932  28.444  33.426  1.00  0.00     0.074 A 
ATOM     47  C   UNL A   1      40.590  27.959  33.597  1.00  0.00     0.031 C 
ATOM     48  C   UNL A   1      41.199  27.005  27.106  1.00  0.00     0.029 A 
ATOM     49  C   UNL A   1      42.247  26.498  27.973  1.00  0.00     0.049 A 
ATOM     50  H   UNL A   1      42.798  27.269  29.844  1.00  0.00     0.167 HD
ATOM     51  C   UNL A   1      43.081  28.186  34.112  1.00  0.00     0.034 A 
ATOM     52  C   UNL A   1      43.108  25.468  27.756  1.00  0.00     0.034 A 
ATOM     53  C   UNL A   1      44.196  28.900  33.524  1.00  0.00     0.049 A 
ATOM     54  C   UNL A   1      44.241  25.654  28.691  1.00  0.00     0.074 A 
ATOM     55  C   UNL A   1      44.478  30.230  33.280  1.00  0.00     0.029 A 
ATOM     56  N   UNL A   1      45.062  28.185  32.725  1.00  0.00    -0.354 N 
ATOM     57  N   UNL A   1      45.062  26.667  28.627  1.00  0.00    -0.248 NA
ATOM     58  C   UNL A   1      44.183  24.989  29.984  1.00  0.00     0.031 C 
ATOM     59  C   UNL A   1      45.123  30.241  32.008  1.00  0.00     0.029 A 
ATOM     60  C   UNL A   1      45.284  28.918  31.586  1.00  0.00     0.049 A 
ATOM     61  H   UNL A   1      45.452  27.306  32.934  1.00  0.00     0.167 HD
ATOM     62  C   UNL A   1      45.273  27.040  29.946  1.00  0.00     0.074 A 
ATOM     63  C   UNL A   1      44.804  25.903  30.736  1.00  0.00     0.031 C 
ATOM     64  C   UNL A   1      45.537  28.339  30.278  1.00  0.00     0.034 A 
BRANCH  51  65
ATOM     65  C   UNL A   1      43.301  27.010  35.050  1.00  0.00     0.023 A 
ATOM     66  C   UNL A   1      44.028  25.915  34.539  1.00  0.00     0.031 A 
ATOM     67  C   UNL A   1      42.621  26.772  36.264  1.00  0.00     0.131 A 
ATOM     68  C   UNL A   1      43.950  24.645  35.140  1.00  0.00     0.055 A 
ATOM     69  C   UNL A   1      42.604  25.524  36.898  1.00  0.00     0.041 A 
ATOM     70  F   UNL A   1      41.864  27.692  36.870  1.00  0.00    -0.206 F 
ATOM     71  C   UNL A   1      43.238  24.442  36.316  1.00  0.00     0.022 A 
BRANCH  68  72
ATOM     72  S   UNL A   1      44.637  23.228  34.246  1.00  0.00     0.124 S 
ATOM     73  O   UNL A   1      44.544  22.176  35.253  1.00  0.00    -0.237 OA
ATOM     74  O   UNL A   1      43.726  23.120  33.112  1.00  0.00    -0.237 OA
ATOM     75  O   UNL A   1      45.993  23.661  33.918  1.00  0.00    -0.744 OA
ENDBRANCH  68  72
ENDBRANCH  51  65
BRANCH  52  76
ATOM     76  C   UNL A   1      42.831  24.200  27.025  1.00  0.00     0.023 A 
ATOM     77  C   UNL A   1      43.745  23.597  26.135  1.00  0.00     0.031 A 
ATOM     78  C   UNL A   1      41.706  23.427  27.395  1.00  0.00     0.131 A 
ATOM     79  C   UNL A   1      43.514  22.282  25.657  1.00  0.00     0.055 A 
ATOM     80  C   UNL A   1      41.481  22.133  26.919  1.00  0.00     0.041 A 
ATOM     81  F   UNL A   1      40.824  23.880  28.302  1.00  0.00    -0.206 F 
ATOM     82  C   UNL A   1      42.391  21.552  26.053  1.00  0.00     0.022 A 
BRANCH  79  83
ATOM     83  S   UNL A   1      44.720  21.465  24.558  1.00  0.00     0.124 S 
ATOM     84  O   UNL A   1      45.971  21.625  25.289  1.00  0.00    -0.237 OA
ATOM     85  O   UNL A   1      44.189  20.110  24.466  1.00  0.00    -0.237 OA
ATOM     86  O   UNL A   1      44.633  22.240  23.319  1.00  0.00    -0.744 OA
ENDBRANCH  79  83
ENDBRANCH  52  76
BRANCH  64  87
ATOM     87  C   UNL A   1      45.936  29.300  29.174  1.00  0.00     0.023 A 
ATOM     88  C   UNL A   1      45.042  30.081  28.406  1.00  0.00     0.031 A 
ATOM     89  C   UNL A   1      47.314  29.513  28.988  1.00  0.00     0.131 A 
ATOM     90  C   UNL A   1      45.545  31.028  27.489  1.00  0.00     0.055 A 
ATOM     91  C   UNL A   1      47.805  30.466  28.099  1.00  0.00     0.041 A 
ATOM     92  F   UNL A   1      48.213  28.820  29.707  1.00  0.00    -0.206 F 
ATOM     93  C   UNL A   1      46.922  31.224  27.342  1.00  0.00     0.022 A 
BRANCH  90  94
ATOM     94  S   UNL A   1      44.418  32.019  26.453  1.00  0.00     0.124 S 
ATOM     95  O   UNL A   1      43.406  31.057  26.032  1.00  0.00    -0.237 OA
ATOM     96  O   UNL A   1      43.970  33.057  27.376  1.00  0.00    -0.237 OA
ATOM     97  O   UNL A   1      45.284  32.500  25.373  1.00  0.00    -0.744 OA
ENDBRANCH  90  94
ENDBRANCH  64  87
ENDBRANCH  38  39
ENDBRANCH  30  33
ENDBRANCH  28  29
ENDBRANCH   1  28
TORSDOF 16
ENDMDL
MODEL 2
REMARK VINA RESULT:     -12.8      2.704      7.609
REMARK SMILES C[C@@H]1CCc2nc(NC(=O)[C@H]3CC=CC[C@@H]3C(=O)NCCCCNC(=O)c3ccc(-c4c5nc(c(-c6cc(S(=O)(=O)[O-])ccc6F)c6ccc([nH]6)c(-c6cc(S(=O)(=O)[O-])ccc6F)c6nc(c(-c7cc(S(=O)(=O)[O-])ccc7F)c7ccc4[nH]7)C=C6)C=C5)cc3)sc2C1
REMARK SMILES IDX 22 1 21 2 20 3 19 4 17 5 18 6 16 8 11 9 12 10 13 11 15 12
REMARK SMILES IDX 14 13 9 14 8 15 10 17 7 18 1 19 2 20 3 21 92 22 4 23 91 24
REMARK SMILES IDX 5 25 90 26 6 27 23 28 24 29 25 30 26 32 27 33 28 34 89 35
REMARK SMILES IDX 29 36 88 37 30 38 31 39 32 40 82 41 33 42 87 43 81 44 83 45
REMARK SMILES IDX 34 46 86 47 80 48 79 49 35 51 67 52 47 53 66 54 48 55 51 56
REMARK SMILES IDX 65 57 84 58 49 59 50 60 64 62 85 63 52 64 36 65 37 66 45 67
REMARK SMILES IDX 38 68 44 69 46 70 43 71 39 72 40 73 41 74 42 75 68 76 69 77
REMARK SMILES IDX 77 78 70 79 76 80 78 81 75 82 71 83 72 84 73 85 74 86 53 87
REMARK SMILES IDX 54 88 62 89 55 90 61 91 63 92 60 93 56 94 57 95 58 96 59 97
REMARK H PARENT 19 7 8 16 24 31 83 50 51 61
REMARK Flexibility Score: inf
ROOT
ATOM      1  C   UNL A   1      33.709  29.027  26.655  1.00  0.00     0.023 C 
ENDROOT
BRANCH   1   2
ATOM      2  C   UNL A   1      32.579  28.498  27.551  1.00  0.00     0.023 C 
BRANCH   2   3
ATOM      3  C   UNL A   1      31.443  27.745  26.853  1.00  0.00     0.116 C 
BRANCH   3   4
ATOM      4  N   UNL A   1      31.570  26.307  26.983  1.00  0.00    -0.356 N 
ATOM      5  C   UNL A   1      32.257  25.408  26.224  1.00  0.00     0.224 C 
ATOM      6  O   UNL A   1      32.113  24.218  26.518  1.00  0.00    -0.275 OA
ATOM      7  H   UNL A   1      31.082  25.918  27.744  1.00  0.00     0.163 HD
BRANCH   5   8
ATOM      8  C   UNL A   1      33.099  25.865  25.027  1.00  0.00     0.095 C 
ATOM      9  C   UNL A   1      32.616  25.129  23.745  1.00  0.00     0.095 C 
ATOM     10  C   UNL A   1      33.094  23.658  23.704  1.00  0.00     0.041 C 
ATOM     11  C   UNL A   1      34.451  23.409  24.279  1.00  0.00    -0.030 C 
ATOM     12  C   UNL A   1      34.609  25.692  25.267  1.00  0.00     0.041 C 
ATOM     13  C   UNL A   1      35.142  24.329  24.959  1.00  0.00    -0.030 C 
BRANCH   9  14
ATOM     14  C   UNL A   1      32.982  25.881  22.460  1.00  0.00     0.230 C 
ATOM     15  N   UNL A   1      32.274  26.950  21.993  1.00  0.00    -0.302 N 
ATOM     16  H   UNL A   1      32.548  27.237  21.092  1.00  0.00     0.172 HD
ATOM     17  O   UNL A   1      33.946  25.520  21.773  1.00  0.00    -0.274 OA
BRANCH  15  18
ATOM     18  C   UNL A   1      31.260  27.706  22.518  1.00  0.00     0.189 A 
ATOM     19  C   UNL A   1      27.768  31.059  21.494  1.00  0.00     0.008 C 
ATOM     20  C   UNL A   1      27.619  30.641  22.965  1.00  0.00    -0.009 C 
ATOM     21  C   UNL A   1      28.657  31.355  23.868  1.00  0.00     0.010 C 
ATOM     22  C   UNL A   1      27.726  29.107  23.135  1.00  0.00     0.052 C 
ATOM     23  C   UNL A   1      30.120  30.971  23.557  1.00  0.00     0.058 C 
ATOM     24  C   UNL A   1      29.153  28.696  23.065  1.00  0.00     0.030 A 
ATOM     25  C   UNL A   1      30.245  29.519  23.236  1.00  0.00     0.057 A 
ATOM     26  S   UNL A   1      29.669  27.123  22.727  1.00  0.00    -0.101 S 
ATOM     27  N   UNL A   1      31.465  28.931  22.956  1.00  0.00    -0.225 NA
ENDBRANCH  15  18
ENDBRANCH   9  14
ENDBRANCH   5   8
ENDBRANCH   3   4
ENDBRANCH   2   3
ENDBRANCH   1   2
BRANCH   1  28
ATOM     28  C   UNL A   1      35.099  28.966  27.272  1.00  0.00     0.116 C 
BRANCH  28  29
ATOM     29  N   UNL A   1      35.249  29.844  28.429  1.00  0.00    -0.352 N 
ATOM     30  C   UNL A   1      36.281  29.856  29.351  1.00  0.00     0.251 C 
ATOM     31  H   UNL A   1      34.532  30.504  28.570  1.00  0.00     0.163 HD
ATOM     32  O   UNL A   1      36.118  30.350  30.458  1.00  0.00    -0.269 OA
BRANCH  30  33
ATOM     33  C   UNL A   1      37.577  29.256  28.971  1.00  0.00     0.039 A 
ATOM     34  C   UNL A   1      38.252  29.649  27.812  1.00  0.00     0.014 A 
ATOM     35  C   UNL A   1      38.127  28.303  29.824  1.00  0.00     0.014 A 
ATOM     36  C   UNL A   1      39.529  29.139  27.569  1.00  0.00     0.010 A 
ATOM     37  C   UNL A   1      39.433  27.912  29.659  1.00  0.00     0.010 A 
ATOM     38  C   UNL A   1      40.125  28.284  28.510  1.00  0.00    -0.014 A 
BRANCH  38  39
ATOM     39  C   UNL A   1      41.524  27.875  28.385  1.00  0.00     0.031 A 
ATOM     40  C   UNL A   1      41.726  26.576  27.683  1.00  0.00     0.074 A 
ATOM     41  C   UNL A   1      42.559  28.710  28.631  1.00  0.00     0.049 A 
ATOM     42  N   UNL A   1      42.178  25.469  28.170  1.00  0.00    -0.248 NA
ATOM     43  C   UNL A   1      41.222  26.450  26.305  1.00  0.00     0.031 C 
ATOM     44  C   UNL A   1      42.493  30.128  29.009  1.00  0.00     0.029 A 
ATOM     45  N   UNL A   1      43.896  28.511  28.467  1.00  0.00    -0.354 N 
ATOM     46  C   UNL A   1      42.256  24.581  27.097  1.00  0.00     0.074 A 
ATOM     47  C   UNL A   1      41.451  25.159  26.057  1.00  0.00     0.031 C 
ATOM     48  C   UNL A   1      43.695  30.710  28.806  1.00  0.00     0.029 A 
ATOM     49  C   UNL A   1      44.657  29.679  28.462  1.00  0.00     0.049 A 
ATOM     50  H   UNL A   1      44.293  27.616  28.361  1.00  0.00     0.167 HD
ATOM     51  C   UNL A   1      43.187  23.586  27.072  1.00  0.00     0.034 A 
ATOM     52  C   UNL A   1      45.980  29.812  28.175  1.00  0.00     0.034 A 
ATOM     53  C   UNL A   1      43.757  23.390  28.389  1.00  0.00     0.049 A 
ATOM     54  C   UNL A   1      46.592  28.475  28.355  1.00  0.00     0.074 A 
ATOM     55  C   UNL A   1      43.246  23.068  29.632  1.00  0.00     0.029 A 
ATOM     56  N   UNL A   1      45.008  23.917  28.629  1.00  0.00    -0.354 N 
ATOM     57  N   UNL A   1      46.658  27.867  29.508  1.00  0.00    -0.248 NA
ATOM     58  C   UNL A   1      46.695  27.604  27.193  1.00  0.00     0.031 C 
ATOM     59  C   UNL A   1      43.985  23.871  30.551  1.00  0.00     0.029 A 
ATOM     60  C   UNL A   1      44.965  24.566  29.837  1.00  0.00     0.049 A 
ATOM     61  H   UNL A   1      45.792  23.843  28.038  1.00  0.00     0.167 HD
ATOM     62  C   UNL A   1      46.361  26.541  29.231  1.00  0.00     0.074 A 
ATOM     63  C   UNL A   1      46.510  26.419  27.782  1.00  0.00     0.031 C 
ATOM     64  C   UNL A   1      45.747  25.748  30.159  1.00  0.00     0.034 A 
BRANCH  51  65
ATOM     65  C   UNL A   1      43.875  23.054  25.826  1.00  0.00     0.023 A 
ATOM     66  C   UNL A   1      43.840  21.659  25.624  1.00  0.00     0.031 A 
ATOM     67  C   UNL A   1      44.784  23.762  25.008  1.00  0.00     0.131 A 
ATOM     68  C   UNL A   1      44.755  21.024  24.763  1.00  0.00     0.055 A 
ATOM     69  C   UNL A   1      45.644  23.132  24.100  1.00  0.00     0.041 A 
ATOM     70  F   UNL A   1      44.963  25.083  25.089  1.00  0.00    -0.206 F 
ATOM     71  C   UNL A   1      45.660  21.753  24.002  1.00  0.00     0.022 A 
BRANCH  68  72
ATOM     72  S   UNL A   1      44.864  19.217  24.810  1.00  0.00     0.124 S 
ATOM     73  O   UNL A   1      46.043  19.019  25.648  1.00  0.00    -0.237 OA
ATOM     74  O   UNL A   1      43.582  18.855  25.402  1.00  0.00    -0.237 OA
ATOM     75  O   UNL A   1      45.028  18.853  23.405  1.00  0.00    -0.744 OA
ENDBRANCH  68  72
ENDBRANCH  51  65
BRANCH  52  76
ATOM     76  C   UNL A   1      46.640  30.940  27.462  1.00  0.00     0.023 A 
ATOM     77  C   UNL A   1      45.935  32.020  26.889  1.00  0.00     0.031 A 
ATOM     78  C   UNL A   1      48.046  31.076  27.545  1.00  0.00     0.131 A 
ATOM     79  C   UNL A   1      46.633  33.167  26.433  1.00  0.00     0.055 A 
ATOM     80  C   UNL A   1      48.729  32.206  27.091  1.00  0.00     0.041 A 
ATOM     81  F   UNL A   1      48.795  30.140  28.149  1.00  0.00    -0.206 F 
ATOM     82  C   UNL A   1      48.023  33.262  26.539  1.00  0.00     0.022 A 
BRANCH  79  83
ATOM     83  S   UNL A   1      45.729  34.598  25.751  1.00  0.00     0.124 S 
ATOM     84  O   UNL A   1      44.740  34.869  26.787  1.00  0.00    -0.237 OA
ATOM     85  O   UNL A   1      46.789  35.586  25.588  1.00  0.00    -0.237 OA
ATOM     86  O   UNL A   1      45.175  34.086  24.496  1.00  0.00    -0.744 OA
ENDBRANCH  79  83
ENDBRANCH  52  76
BRANCH  64  87
ATOM     87  C   UNL A   1      45.704  26.221  31.599  1.00  0.00     0.023 A 
ATOM     88  C   UNL A   1      44.601  26.852  32.221  1.00  0.00     0.031 A 
ATOM     89  C   UNL A   1      46.808  25.895  32.406  1.00  0.00     0.131 A 
ATOM     90  C   UNL A   1      44.642  27.136  33.602  1.00  0.00     0.055 A 
ATOM     91  C   UNL A   1      46.834  26.157  33.774  1.00  0.00     0.041 A 
ATOM     92  F   UNL A   1      47.876  25.273  31.878  1.00  0.00    -0.206 F 
ATOM     93  C   UNL A   1      45.752  26.784  34.377  1.00  0.00     0.022 A 
BRANCH  90  94
ATOM     94  S   UNL A   1      43.254  27.988  34.424  1.00  0.00     0.124 S 
ATOM     95  O   UNL A   1      43.337  27.525  35.805  1.00  0.00    -0.237 OA
ATOM     96  O   UNL A   1      43.569  29.396  34.202  1.00  0.00    -0.237 OA
ATOM     97  O   UNL A   1      42.079  27.508  33.693  1.00  0.00    -0.744 OA
ENDBRANCH  90  94
ENDBRANCH  64  87
ENDBRANCH  38  39
ENDBRANCH  30  33
ENDBRANCH  28  29
ENDBRANCH   1  28
TORSDOF 16
ENDMDL
MODEL 3
REMARK VINA RESULT:     -12.7      1.421      1.623
REMARK SMILES C[C@@H]1CCc2nc(NC(=O)[C@H]3CC=CC[C@@H]3C(=O)NCCCCNC(=O)c3ccc(-c4c5nc(c(-c6cc(S(=O)(=O)[O-])ccc6F)c6ccc([nH]6)c(-c6cc(S(=O)(=O)[O-])ccc6F)c6nc(c(-c7cc(S(=O)(=O)[O-])ccc7F)c7ccc4[nH]7)C=C6)C=C5)cc3)sc2C1
REMARK SMILES IDX 22 1 21 2 20 3 19 4 17 5 18 6 16 8 11 9 12 10 13 11 15 12
REMARK SMILES IDX 14 13 9 14 8 15 10 17 7 18 1 19 2 20 3 21 92 22 4 23 91 24
REMARK SMILES IDX 5 25 90 26 6 27 23 28 24 29 25 30 26 32 27 33 28 34 89 35
REMARK SMILES IDX 29 36 88 37 30 38 31 39 32 40 82 41 33 42 87 43 81 44 83 45
REMARK SMILES IDX 34 46 86 47 80 48 79 49 35 51 67 52 47 53 66 54 48 55 51 56
REMARK SMILES IDX 65 57 84 58 49 59 50 60 64 62 85 63 52 64 36 65 37 66 45 67
REMARK SMILES IDX 38 68 44 69 46 70 43 71 39 72 40 73 41 74 42 75 68 76 69 77
REMARK SMILES IDX 77 78 70 79 76 80 78 81 75 82 71 83 72 84 73 85 74 86 53 87
REMARK SMILES IDX 54 88 62 89 55 90 61 91 63 92 60 93 56 94 57 95 58 96 59 97
REMARK H PARENT 19 7 8 16 24 31 83 50 51 61
REMARK Flexibility Score: inf
ROOT
ATOM      1  C   UNL A   1      34.195  30.592  27.481  1.00  0.00     0.023 C 
ENDROOT
BRANCH   1   2
ATOM      2  C   UNL A   1      34.823  29.209  27.257  1.00  0.00     0.023 C 
BRANCH   2   3
ATOM      3  C   UNL A   1      33.973  28.181  26.506  1.00  0.00     0.116 C 
BRANCH   3   4
ATOM      4  N   UNL A   1      34.046  28.348  25.068  1.00  0.00    -0.356 N 
ATOM      5  C   UNL A   1      33.078  28.245  24.115  1.00  0.00     0.224 C 
ATOM      6  O   UNL A   1      33.447  28.351  22.942  1.00  0.00    -0.275 OA
ATOM      7  H   UNL A   1      34.941  28.573  24.724  1.00  0.00     0.163 HD
BRANCH   5   8
ATOM      8  C   UNL A   1      31.624  27.940  24.497  1.00  0.00     0.095 C 
ATOM      9  C   UNL A   1      30.993  27.008  23.423  1.00  0.00     0.095 C 
ATOM     10  C   UNL A   1      30.644  27.772  22.124  1.00  0.00     0.041 C 
ATOM     11  C   UNL A   1      30.164  29.175  22.315  1.00  0.00    -0.030 C 
ATOM     12  C   UNL A   1      30.793  29.215  24.727  1.00  0.00     0.041 C 
ATOM     13  C   UNL A   1      30.208  29.814  23.487  1.00  0.00    -0.030 C 
BRANCH   9  14
ATOM     14  C   UNL A   1      29.793  26.220  23.958  1.00  0.00     0.230 C 
ATOM     15  N   UNL A   1      29.904  24.981  24.520  1.00  0.00    -0.302 N 
ATOM     16  H   UNL A   1      29.035  24.549  24.689  1.00  0.00     0.172 HD
ATOM     17  O   UNL A   1      28.649  26.684  23.877  1.00  0.00    -0.274 OA
BRANCH  15  18
ATOM     18  C   UNL A   1      30.973  24.213  24.896  1.00  0.00     0.189 A 
ATOM     19  C   UNL A   1      35.898  24.078  25.348  1.00  0.00     0.008 C 
ATOM     20  C   UNL A   1      35.327  22.772  25.918  1.00  0.00    -0.009 C 
ATOM     21  C   UNL A   1      34.965  21.769  24.794  1.00  0.00     0.010 C 
ATOM     22  C   UNL A   1      34.096  23.034  26.818  1.00  0.00     0.052 C 
ATOM     23  C   UNL A   1      33.829  22.256  23.867  1.00  0.00     0.058 C 
ATOM     24  C   UNL A   1      32.903  23.296  25.969  1.00  0.00     0.030 A 
ATOM     25  C   UNL A   1      32.768  22.968  24.637  1.00  0.00     0.057 A 
ATOM     26  S   UNL A   1      31.509  24.081  26.512  1.00  0.00    -0.101 S 
ATOM     27  N   UNL A   1      31.630  23.468  24.030  1.00  0.00    -0.225 NA
ENDBRANCH  15  18
ENDBRANCH   9  14
ENDBRANCH   5   8
ENDBRANCH   3   4
ENDBRANCH   2   3
ENDBRANCH   1   2
BRANCH   1  28
ATOM     28  C   UNL A   1      35.185  31.701  27.811  1.00  0.00     0.116 C 
BRANCH  28  29
ATOM     29  N   UNL A   1      35.058  32.192  29.180  1.00  0.00    -0.352 N 
ATOM     30  C   UNL A   1      35.731  31.743  30.303  1.00  0.00     0.251 C 
ATOM     31  H   UNL A   1      34.418  32.927  29.321  1.00  0.00     0.163 HD
ATOM     32  O   UNL A   1      35.279  31.952  31.421  1.00  0.00    -0.269 OA
BRANCH  30  33
ATOM     33  C   UNL A   1      36.997  31.005  30.122  1.00  0.00     0.039 A 
ATOM     34  C   UNL A   1      38.214  31.673  29.950  1.00  0.00     0.014 A 
ATOM     35  C   UNL A   1      36.951  29.614  30.159  1.00  0.00     0.014 A 
ATOM     36  C   UNL A   1      39.393  30.926  29.908  1.00  0.00     0.010 A 
ATOM     37  C   UNL A   1      38.116  28.895  30.259  1.00  0.00     0.010 A 
ATOM     38  C   UNL A   1      39.339  29.534  30.085  1.00  0.00    -0.014 A 
BRANCH  38  39
ATOM     39  C   UNL A   1      40.560  28.741  30.230  1.00  0.00     0.031 A 
ATOM     40  C   UNL A   1      40.984  28.513  31.640  1.00  0.00     0.074 A 
ATOM     41  C   UNL A   1      41.108  28.044  29.209  1.00  0.00     0.049 A 
ATOM     42  N   UNL A   1      42.042  28.956  32.235  1.00  0.00    -0.248 NA
ATOM     43  C   UNL A   1      40.042  27.833  32.544  1.00  0.00     0.031 C 
ATOM     44  C   UNL A   1      40.596  27.913  27.838  1.00  0.00     0.029 A 
ATOM     45  N   UNL A   1      42.171  27.192  29.208  1.00  0.00    -0.354 N 
ATOM     46  C   UNL A   1      42.025  28.398  33.513  1.00  0.00     0.074 A 
ATOM     47  C   UNL A   1      40.683  27.924  33.711  1.00  0.00     0.031 C 
ATOM     48  C   UNL A   1      41.190  26.865  27.228  1.00  0.00     0.029 A 
ATOM     49  C   UNL A   1      42.248  26.365  28.087  1.00  0.00     0.049 A 
ATOM     50  H   UNL A   1      42.831  27.161  29.938  1.00  0.00     0.167 HD
ATOM     51  C   UNL A   1      43.182  28.143  34.186  1.00  0.00     0.034 A 
ATOM     52  C   UNL A   1      43.099  25.326  27.874  1.00  0.00     0.034 A 
ATOM     53  C   UNL A   1      44.292  28.840  33.571  1.00  0.00     0.049 A 
ATOM     54  C   UNL A   1      44.247  25.520  28.789  1.00  0.00     0.074 A 
ATOM     55  C   UNL A   1      44.580  30.165  33.302  1.00  0.00     0.029 A 
ATOM     56  N   UNL A   1      45.143  28.108  32.771  1.00  0.00    -0.354 N 
ATOM     57  N   UNL A   1      45.073  26.526  28.697  1.00  0.00    -0.248 NA
ATOM     58  C   UNL A   1      44.203  24.875  30.093  1.00  0.00     0.031 C 
ATOM     59  C   UNL A   1      45.205  30.151  32.020  1.00  0.00     0.029 A 
ATOM     60  C   UNL A   1      45.353  28.821  31.618  1.00  0.00     0.049 A 
ATOM     61  H   UNL A   1      45.530  27.229  32.988  1.00  0.00     0.167 HD
ATOM     62  C   UNL A   1      45.305  26.918  30.007  1.00  0.00     0.074 A 
ATOM     63  C   UNL A   1      44.841  25.796  30.821  1.00  0.00     0.031 C 
ATOM     64  C   UNL A   1      45.582  28.220  30.315  1.00  0.00     0.034 A 
BRANCH  51  65
ATOM     65  C   UNL A   1      43.409  26.981  35.139  1.00  0.00     0.023 A 
ATOM     66  C   UNL A   1      43.728  27.304  36.474  1.00  0.00     0.031 A 
ATOM     67  C   UNL A   1      43.619  25.632  34.776  1.00  0.00     0.131 A 
ATOM     68  C   UNL A   1      44.342  26.366  37.324  1.00  0.00     0.055 A 
ATOM     69  C   UNL A   1      44.166  24.683  35.648  1.00  0.00     0.041 A 
ATOM     70  F   UNL A   1      43.395  25.164  33.545  1.00  0.00    -0.206 F 
ATOM     71  C   UNL A   1      44.567  25.056  36.918  1.00  0.00     0.022 A 
BRANCH  68  72
ATOM     72  S   UNL A   1      45.016  26.949  38.901  1.00  0.00     0.124 S 
ATOM     73  O   UNL A   1      44.902  28.396  38.747  1.00  0.00    -0.237 OA
ATOM     74  O   UNL A   1      44.111  26.328  39.861  1.00  0.00    -0.237 OA
ATOM     75  O   UNL A   1      46.380  26.426  38.898  1.00  0.00    -0.744 OA
ENDBRANCH  68  72
ENDBRANCH  51  65
BRANCH  52  76
ATOM     76  C   UNL A   1      42.803  24.048  27.167  1.00  0.00     0.023 A 
ATOM     77  C   UNL A   1      43.699  23.427  26.271  1.00  0.00     0.031 A 
ATOM     78  C   UNL A   1      41.680  23.287  27.568  1.00  0.00     0.131 A 
ATOM     79  C   UNL A   1      43.453  22.107  25.817  1.00  0.00     0.055 A 
ATOM     80  C   UNL A   1      41.442  21.988  27.115  1.00  0.00     0.041 A 
ATOM     81  F   UNL A   1      40.817  23.759  28.482  1.00  0.00    -0.206 F 
ATOM     82  C   UNL A   1      42.333  21.389  26.242  1.00  0.00     0.022 A 
BRANCH  79  83
ATOM     83  S   UNL A   1      44.636  21.268  24.710  1.00  0.00     0.124 S 
ATOM     84  O   UNL A   1      44.528  22.047  23.483  1.00  0.00    -0.237 OA
ATOM     85  O   UNL A   1      45.889  21.385  25.447  1.00  0.00    -0.237 OA
ATOM     86  O   UNL A   1      44.110  19.905  24.617  1.00  0.00    -0.744 OA
ENDBRANCH  79  83
ENDBRANCH  52  76
BRANCH  64  87
ATOM     87  C   UNL A   1      45.971  29.161  29.190  1.00  0.00     0.023 A 
ATOM     88  C   UNL A   1      45.074  29.960  28.444  1.00  0.00     0.031 A 
ATOM     89  C   UNL A   1      47.347  29.336  28.958  1.00  0.00     0.131 A 
ATOM     90  C   UNL A   1      45.572  30.886  27.504  1.00  0.00     0.055 A 
ATOM     91  C   UNL A   1      47.835  30.268  28.045  1.00  0.00     0.041 A 
ATOM     92  F   UNL A   1      48.250  28.624  29.654  1.00  0.00    -0.206 F 
ATOM     93  C   UNL A   1      46.949  31.043  27.310  1.00  0.00     0.022 A 
BRANCH  90  94
ATOM     94  S   UNL A   1      44.439  31.899  26.495  1.00  0.00     0.124 S 
ATOM     95  O   UNL A   1      43.380  30.966  26.128  1.00  0.00    -0.237 OA
ATOM     96  O   UNL A   1      44.061  32.965  27.418  1.00  0.00    -0.237 OA
ATOM     97  O   UNL A   1      45.278  32.336  25.377  1.00  0.00    -0.744 OA
ENDBRANCH  90  94
ENDBRANCH  64  87
ENDBRANCH  38  39
ENDBRANCH  30  33
ENDBRANCH  28  29
ENDBRANCH   1  28
TORSDOF 16
ENDMDL
