MODEL 1
REMARK VINA RESULT:     -12.8      0.000      0.000
REMARK SMILES Cc1ncccc1OC1(C(=O)NCCCCNC(=O)c2ccc(-c3c4nc(c(-c5cc(S(=O)(=O)[O-])ccc5F)c5ccc([nH]5)c(-c5cc(S(=O)(=O)[O-])ccc5F)c5nc(c(-c6cc(S(=O)(=O)[O-])ccc6F)c6ccc3[nH]6)C=C5)C=C4)cc2)CCN(C(=O)c2ccc(O)nn2)CC1
REMARK SMILES IDX 15 1 14 2 13 3 12 4 10 5 11 6 9 8 83 9 96 10 84 11 95 12
REMARK SMILES IDX 85 13 86 14 87 15 8 16 7 17 1 18 2 19 3 20 4 21 6 22 5 23
REMARK SMILES IDX 88 24 89 25 94 26 90 27 93 28 91 29 92 30 16 32 17 33 18 34
REMARK SMILES IDX 19 36 20 37 21 38 82 39 22 40 81 41 23 42 24 43 25 44 75 45
REMARK SMILES IDX 26 46 80 47 74 48 76 49 27 50 79 51 73 52 72 53 28 55 60 56
REMARK SMILES IDX 40 57 59 58 41 59 44 60 58 61 77 62 42 63 43 64 57 66 78 67
REMARK SMILES IDX 45 68 29 69 30 70 38 71 31 72 37 73 39 74 36 75 32 76 33 77
REMARK SMILES IDX 34 78 35 79 61 80 62 81 70 82 63 83 69 84 71 85 68 86 64 87
REMARK SMILES IDX 65 88 66 89 67 90 46 91 47 92 55 93 48 94 54 95 56 96 53 97
REMARK SMILES IDX 49 98 50 99 51 100 52 101
REMARK H PARENT 12 7 92 31 17 35 76 54 44 65
REMARK Flexibility Score: inf
ROOT
ATOM      1  C   UNL A   1      32.174  31.216  26.680  1.00  0.00     0.023 C 
ENDROOT
BRANCH   1   2
ATOM      2  C   UNL A   1      32.154  29.789  27.223  1.00  0.00     0.023 C 
BRANCH   2   3
ATOM      3  C   UNL A   1      33.368  28.944  26.851  1.00  0.00     0.116 C 
BRANCH   3   4
ATOM      4  N   UNL A   1      33.863  29.218  25.518  1.00  0.00    -0.353 N 
ATOM      5  C   UNL A   1      33.495  28.733  24.290  1.00  0.00     0.264 C 
ATOM      6  O   UNL A   1      34.072  29.254  23.327  1.00  0.00    -0.270 OA
ATOM      7  H   UNL A   1      34.599  29.872  25.489  1.00  0.00     0.163 HD
BRANCH   5   8
ATOM      8  C   UNL A   1      32.417  27.590  24.110  1.00  0.00     0.190 C 
ATOM      9  C   UNL A   1      32.359  27.258  22.623  1.00  0.00     0.080 C 
ATOM     10  C   UNL A   1      32.725  26.506  25.136  1.00  0.00     0.080 C 
ATOM     11  C   UNL A   1      32.852  25.891  22.192  1.00  0.00     0.124 C 
ATOM     12  C   UNL A   1      33.042  25.112  24.624  1.00  0.00     0.124 C 
ATOM     13  N   UNL A   1      32.960  24.838  23.189  1.00  0.00    -0.337 N 
ATOM     14  C   UNL A   1      33.151  23.535  22.681  1.00  0.00     0.274 C 
ATOM     15  O   UNL A   1      33.280  23.292  21.483  1.00  0.00    -0.267 OA
BRANCH   8  16
ATOM     16  O   UNL A   1      31.202  28.280  24.510  1.00  0.00    -0.475 OA
BRANCH  16  17
ATOM     17  C   UNL A   1      30.024  28.526  23.878  1.00  0.00     0.142 A 
ATOM     18  C   UNL A   1      28.662  26.328  23.876  1.00  0.00     0.071 C 
ATOM     19  C   UNL A   1      28.900  27.758  23.561  1.00  0.00     0.079 A 
ATOM     20  N   UNL A   1      27.822  28.268  22.885  1.00  0.00    -0.258 NA
ATOM     21  C   UNL A   1      27.834  29.558  22.516  1.00  0.00     0.111 A 
ATOM     22  C   UNL A   1      29.975  29.872  23.474  1.00  0.00     0.050 A 
ATOM     23  C   UNL A   1      28.884  30.400  22.791  1.00  0.00     0.024 A 
ENDBRANCH  16  17
ENDBRANCH   8  16
BRANCH  14  24
ATOM     24  C   UNL A   1      33.261  22.412  23.639  1.00  0.00     0.151 A 
ATOM     25  C   UNL A   1      34.493  22.090  24.182  1.00  0.00     0.042 A 
ATOM     26  N   UNL A   1      32.103  21.803  24.003  1.00  0.00    -0.142 NA
ATOM     27  C   UNL A   1      34.521  21.115  25.169  1.00  0.00     0.072 A 
ATOM     28  N   UNL A   1      32.137  20.847  24.966  1.00  0.00    -0.112 NA
ATOM     29  C   UNL A   1      33.323  20.532  25.522  1.00  0.00     0.230 A 
BRANCH  29  30
ATOM     30  O   UNL A   1      33.275  19.591  26.500  1.00  0.00    -0.492 OA
ATOM     31  H   UNL A   1      34.069  19.250  26.862  1.00  0.00     0.295 HD
ENDBRANCH  29  30
ENDBRANCH  14  24
ENDBRANCH   5   8
ENDBRANCH   3   4
ENDBRANCH   2   3
ENDBRANCH   1   2
BRANCH   1  32
ATOM     32  C   UNL A   1      33.247  32.132  27.266  1.00  0.00     0.116 C 
BRANCH  32  33
ATOM     33  N   UNL A   1      32.768  33.469  27.589  1.00  0.00    -0.352 N 
ATOM     34  C   UNL A   1      33.224  34.333  28.560  1.00  0.00     0.251 C 
ATOM     35  H   UNL A   1      32.022  33.799  27.040  1.00  0.00     0.163 HD
ATOM     36  O   UNL A   1      32.649  35.403  28.745  1.00  0.00    -0.269 OA
BRANCH  34  37
ATOM     37  C   UNL A   1      34.375  33.940  29.403  1.00  0.00     0.039 A 
ATOM     38  C   UNL A   1      34.150  33.139  30.527  1.00  0.00     0.014 A 
ATOM     39  C   UNL A   1      35.674  34.311  29.052  1.00  0.00     0.014 A 
ATOM     40  C   UNL A   1      35.238  32.639  31.247  1.00  0.00     0.010 A 
ATOM     41  C   UNL A   1      36.757  33.751  29.726  1.00  0.00     0.010 A 
ATOM     42  C   UNL A   1      36.551  32.901  30.824  1.00  0.00    -0.014 A 
BRANCH  42  43
ATOM     43  C   UNL A   1      37.725  32.291  31.506  1.00  0.00     0.031 A 
ATOM     44  C   UNL A   1      38.471  31.160  30.852  1.00  0.00     0.074 A 
ATOM     45  C   UNL A   1      38.065  32.698  32.746  1.00  0.00     0.049 A 
ATOM     46  N   UNL A   1      39.443  30.425  31.325  1.00  0.00    -0.248 NA
ATOM     47  C   UNL A   1      38.037  30.784  29.498  1.00  0.00     0.031 C 
ATOM     48  C   UNL A   1      37.392  33.754  33.505  1.00  0.00     0.029 A 
ATOM     49  N   UNL A   1      39.054  32.263  33.593  1.00  0.00    -0.354 N 
ATOM     50  C   UNL A   1      39.727  29.489  30.336  1.00  0.00     0.074 A 
ATOM     51  C   UNL A   1      38.779  29.714  29.265  1.00  0.00     0.031 C 
ATOM     52  C   UNL A   1      37.999  33.897  34.694  1.00  0.00     0.029 A 
ATOM     53  C   UNL A   1      39.074  32.917  34.804  1.00  0.00     0.049 A 
ATOM     54  H   UNL A   1      39.689  31.549  33.357  1.00  0.00     0.167 HD
ATOM     55  C   UNL A   1      40.702  28.546  30.313  1.00  0.00     0.034 A 
ATOM     56  C   UNL A   1      39.859  32.739  35.886  1.00  0.00     0.034 A 
ATOM     57  C   UNL A   1      41.652  28.347  31.381  1.00  0.00     0.049 A 
ATOM     58  C   UNL A   1      40.929  31.677  35.842  1.00  0.00     0.074 A 
ATOM     59  C   UNL A   1      42.713  27.462  31.438  1.00  0.00     0.029 A 
ATOM     60  N   UNL A   1      41.652  29.042  32.584  1.00  0.00    -0.354 N 
ATOM     61  N   UNL A   1      41.216  30.831  34.879  1.00  0.00    -0.248 NA
ATOM     62  C   UNL A   1      41.790  31.554  37.026  1.00  0.00     0.031 C 
ATOM     63  C   UNL A   1      43.316  27.576  32.695  1.00  0.00     0.029 A 
ATOM     64  C   UNL A   1      42.678  28.586  33.398  1.00  0.00     0.049 A 
ATOM     65  H   UNL A   1      41.016  29.754  32.825  1.00  0.00     0.167 HD
ATOM     66  C   UNL A   1      42.312  30.101  35.330  1.00  0.00     0.074 A 
ATOM     67  C   UNL A   1      42.640  30.612  36.645  1.00  0.00     0.031 C 
ATOM     68  C   UNL A   1      42.991  29.102  34.710  1.00  0.00     0.034 A 
BRANCH  55  69
ATOM     69  C   UNL A   1      40.769  27.648  29.100  1.00  0.00     0.023 A 
ATOM     70  C   UNL A   1      41.696  27.873  28.067  1.00  0.00     0.031 A 
ATOM     71  C   UNL A   1      39.876  26.572  28.958  1.00  0.00     0.131 A 
ATOM     72  C   UNL A   1      41.652  27.090  26.904  1.00  0.00     0.055 A 
ATOM     73  C   UNL A   1      39.896  25.742  27.835  1.00  0.00     0.041 A 
ATOM     74  F   UNL A   1      38.956  26.318  29.901  1.00  0.00    -0.206 F 
ATOM     75  C   UNL A   1      40.776  26.010  26.791  1.00  0.00     0.022 A 
BRANCH  72  76
ATOM     76  S   UNL A   1      42.653  27.603  25.480  1.00  0.00     0.124 S 
ATOM     77  O   UNL A   1      42.579  26.419  24.627  1.00  0.00    -0.237 OA
ATOM     78  O   UNL A   1      41.940  28.782  25.001  1.00  0.00    -0.237 OA
ATOM     79  O   UNL A   1      43.968  27.861  26.061  1.00  0.00    -0.744 OA
ENDBRANCH  72  76
ENDBRANCH  55  69
BRANCH  56  80
ATOM     80  C   UNL A   1      39.667  33.573  37.107  1.00  0.00     0.023 A 
ATOM     81  C   UNL A   1      40.473  34.697  37.347  1.00  0.00     0.031 A 
ATOM     82  C   UNL A   1      38.703  33.234  38.073  1.00  0.00     0.131 A 
ATOM     83  C   UNL A   1      40.334  35.414  38.546  1.00  0.00     0.055 A 
ATOM     84  C   UNL A   1      38.535  33.980  39.240  1.00  0.00     0.041 A 
ATOM     85  F   UNL A   1      37.902  32.172  37.889  1.00  0.00    -0.206 F 
ATOM     86  C   UNL A   1      39.363  35.071  39.488  1.00  0.00     0.022 A 
BRANCH  83  87
ATOM     87  S   UNL A   1      41.504  36.757  38.894  1.00  0.00     0.124 S 
ATOM     88  O   UNL A   1      42.391  36.133  39.870  1.00  0.00    -0.237 OA
ATOM     89  O   UNL A   1      42.075  37.008  37.576  1.00  0.00    -0.237 OA
ATOM     90  O   UNL A   1      40.651  37.822  39.415  1.00  0.00    -0.744 OA
ENDBRANCH  83  87
ENDBRANCH  56  80
BRANCH  68  91
ATOM     91  C   UNL A   1      44.190  28.537  35.430  1.00  0.00     0.023 A 
ATOM     92  C   UNL A   1      44.066  27.524  36.397  1.00  0.00     0.031 A 
ATOM     93  C   UNL A   1      45.476  29.028  35.146  1.00  0.00     0.131 A 
ATOM     94  C   UNL A   1      45.205  27.070  37.082  1.00  0.00     0.055 A 
ATOM     95  C   UNL A   1      46.611  28.533  35.789  1.00  0.00     0.041 A 
ATOM     96  F   UNL A   1      45.652  29.997  34.232  1.00  0.00    -0.206 F 
ATOM     97  C   UNL A   1      46.477  27.557  36.772  1.00  0.00     0.022 A 
BRANCH  94  98
ATOM     98  S   UNL A   1      44.990  25.892  38.444  1.00  0.00     0.124 S 
ATOM     99  O   UNL A   1      44.163  26.652  39.376  1.00  0.00    -0.237 OA
ATOM    100  O   UNL A   1      44.336  24.766  37.783  1.00  0.00    -0.237 OA
ATOM    101  O   UNL A   1      46.356  25.636  38.894  1.00  0.00    -0.744 OA
ENDBRANCH  94  98
ENDBRANCH  68  91
ENDBRANCH  42  43
ENDBRANCH  34  37
ENDBRANCH  32  33
ENDBRANCH   1  32
TORSDOF 18
ENDMDL
MODEL 2
REMARK VINA RESULT:     -12.8      5.890     11.116
REMARK SMILES Cc1ncccc1OC1(C(=O)NCCCCNC(=O)c2ccc(-c3c4nc(c(-c5cc(S(=O)(=O)[O-])ccc5F)c5ccc([nH]5)c(-c5cc(S(=O)(=O)[O-])ccc5F)c5nc(c(-c6cc(S(=O)(=O)[O-])ccc6F)c6ccc3[nH]6)C=C5)C=C4)cc2)CCN(C(=O)c2ccc(O)nn2)CC1
REMARK SMILES IDX 15 1 14 2 13 3 12 4 10 5 11 6 9 8 83 9 96 10 84 11 95 12
REMARK SMILES IDX 85 13 86 14 87 15 8 16 7 17 1 18 2 19 3 20 4 21 6 22 5 23
REMARK SMILES IDX 88 24 89 25 94 26 90 27 93 28 91 29 92 30 16 32 17 33 18 34
REMARK SMILES IDX 19 36 20 37 21 38 82 39 22 40 81 41 23 42 24 43 25 44 75 45
REMARK SMILES IDX 26 46 80 47 74 48 76 49 27 50 79 51 73 52 72 53 28 55 60 56
REMARK SMILES IDX 40 57 59 58 41 59 44 60 58 61 77 62 42 63 43 64 57 66 78 67
REMARK SMILES IDX 45 68 29 69 30 70 38 71 31 72 37 73 39 74 36 75 32 76 33 77
REMARK SMILES IDX 34 78 35 79 61 80 62 81 70 82 63 83 69 84 71 85 68 86 64 87
REMARK SMILES IDX 65 88 66 89 67 90 46 91 47 92 55 93 48 94 54 95 56 96 53 97
REMARK SMILES IDX 49 98 50 99 51 100 52 101
REMARK H PARENT 12 7 92 31 17 35 76 54 44 65
REMARK Flexibility Score: inf
ROOT
ATOM      1  C   UNL A   1      39.255  21.550  25.878  1.00  0.00     0.023 C 
ENDROOT
BRANCH   1   2
ATOM      2  C   UNL A   1      39.005  22.970  26.383  1.00  0.00     0.023 C 
BRANCH   2   3
ATOM      3  C   UNL A   1      37.614  23.520  26.084  1.00  0.00     0.116 C 
BRANCH   3   4
ATOM      4  N   UNL A   1      37.301  23.532  24.670  1.00  0.00    -0.353 N 
ATOM      5  C   UNL A   1      36.159  23.207  23.985  1.00  0.00     0.264 C 
ATOM      6  O   UNL A   1      36.200  23.420  22.767  1.00  0.00    -0.270 OA
ATOM      7  H   UNL A   1      38.045  23.826  24.095  1.00  0.00     0.163 HD
BRANCH   5   8
ATOM      8  C   UNL A   1      34.880  22.602  24.693  1.00  0.00     0.190 C 
ATOM      9  C   UNL A   1      33.732  22.688  23.694  1.00  0.00     0.080 C 
ATOM     10  C   UNL A   1      35.285  21.263  25.298  1.00  0.00     0.080 C 
ATOM     11  C   UNL A   1      33.180  21.385  23.150  1.00  0.00     0.124 C 
ATOM     12  C   UNL A   1      34.558  20.018  24.820  1.00  0.00     0.124 C 
ATOM     13  N   UNL A   1      33.453  20.152  23.871  1.00  0.00    -0.337 N 
ATOM     14  C   UNL A   1      32.689  19.033  23.476  1.00  0.00     0.274 C 
ATOM     15  O   UNL A   1      31.884  19.062  22.547  1.00  0.00    -0.267 OA
BRANCH   8  16
ATOM     16  O   UNL A   1      34.673  23.557  25.769  1.00  0.00    -0.475 OA
BRANCH  16  17
ATOM     17  C   UNL A   1      33.662  24.418  26.063  1.00  0.00     0.142 A 
ATOM     18  C   UNL A   1      31.671  23.020  26.940  1.00  0.00     0.071 C 
ATOM     19  C   UNL A   1      32.361  24.275  26.554  1.00  0.00     0.079 A 
ATOM     20  N   UNL A   1      31.523  25.342  26.749  1.00  0.00    -0.258 NA
ATOM     21  C   UNL A   1      31.964  26.578  26.469  1.00  0.00     0.111 A 
ATOM     22  C   UNL A   1      34.070  25.736  25.796  1.00  0.00     0.050 A 
ATOM     23  C   UNL A   1      33.229  26.827  25.995  1.00  0.00     0.024 A 
ENDBRANCH  16  17
ENDBRANCH   8  16
BRANCH  14  24
ATOM     24  C   UNL A   1      32.908  17.746  24.173  1.00  0.00     0.151 A 
ATOM     25  C   UNL A   1      32.219  17.471  25.342  1.00  0.00     0.042 A 
ATOM     26  N   UNL A   1      33.729  16.853  23.564  1.00  0.00    -0.142 NA
ATOM     27  C   UNL A   1      32.363  16.203  25.886  1.00  0.00     0.072 A 
ATOM     28  N   UNL A   1      33.869  15.614  24.102  1.00  0.00    -0.112 NA
ATOM     29  C   UNL A   1      33.192  15.319  25.229  1.00  0.00     0.230 A 
BRANCH  29  30
ATOM     30  O   UNL A   1      33.356  14.053  25.691  1.00  0.00    -0.492 OA
ATOM     31  H   UNL A   1      33.939  13.886  26.406  1.00  0.00     0.295 HD
ENDBRANCH  29  30
ENDBRANCH  14  24
ENDBRANCH   5   8
ENDBRANCH   3   4
ENDBRANCH   2   3
ENDBRANCH   1   2
BRANCH   1  32
ATOM     32  C   UNL A   1      40.001  20.628  26.841  1.00  0.00     0.116 C 
BRANCH  32  33
ATOM     33  N   UNL A   1      40.906  19.697  26.183  1.00  0.00    -0.352 N 
ATOM     34  C   UNL A   1      42.216  19.895  25.804  1.00  0.00     0.251 C 
ATOM     35  H   UNL A   1      40.534  18.808  25.984  1.00  0.00     0.163 HD
ATOM     36  O   UNL A   1      42.812  19.016  25.186  1.00  0.00    -0.269 OA
BRANCH  34  37
ATOM     37  C   UNL A   1      42.875  21.185  26.106  1.00  0.00     0.039 A 
ATOM     38  C   UNL A   1      43.000  22.136  25.090  1.00  0.00     0.014 A 
ATOM     39  C   UNL A   1      43.313  21.475  27.400  1.00  0.00     0.014 A 
ATOM     40  C   UNL A   1      43.485  23.411  25.394  1.00  0.00     0.010 A 
ATOM     41  C   UNL A   1      43.724  22.767  27.714  1.00  0.00     0.010 A 
ATOM     42  C   UNL A   1      43.805  23.752  26.718  1.00  0.00    -0.014 A 
BRANCH  42  43
ATOM     43  C   UNL A   1      44.218  25.134  27.087  1.00  0.00     0.031 A 
ATOM     44  C   UNL A   1      43.210  26.091  27.662  1.00  0.00     0.074 A 
ATOM     45  C   UNL A   1      45.474  25.550  26.827  1.00  0.00     0.049 A 
ATOM     46  N   UNL A   1      43.340  27.361  27.944  1.00  0.00    -0.248 NA
ATOM     47  C   UNL A   1      41.866  25.553  27.918  1.00  0.00     0.031 C 
ATOM     48  C   UNL A   1      46.531  24.731  26.229  1.00  0.00     0.029 A 
ATOM     49  N   UNL A   1      46.073  26.770  27.018  1.00  0.00    -0.354 N 
ATOM     50  C   UNL A   1      42.092  27.780  28.394  1.00  0.00     0.074 A 
ATOM     51  C   UNL A   1      41.207  26.640  28.287  1.00  0.00     0.031 C 
ATOM     52  C   UNL A   1      47.651  25.464  26.123  1.00  0.00     0.029 A 
ATOM     53  C   UNL A   1      47.383  26.817  26.600  1.00  0.00     0.049 A 
ATOM     54  H   UNL A   1      45.608  27.541  27.417  1.00  0.00     0.167 HD
ATOM     55  C   UNL A   1      41.726  28.994  28.876  1.00  0.00     0.034 A 
ATOM     56  C   UNL A   1      48.266  27.836  26.589  1.00  0.00     0.034 A 
ATOM     57  C   UNL A   1      42.626  30.115  28.994  1.00  0.00     0.049 A 
ATOM     58  C   UNL A   1      47.834  29.181  27.117  1.00  0.00     0.074 A 
ATOM     59  C   UNL A   1      42.376  31.371  29.519  1.00  0.00     0.029 A 
ATOM     60  N   UNL A   1      43.952  30.119  28.577  1.00  0.00    -0.354 N 
ATOM     61  N   UNL A   1      46.662  29.547  27.586  1.00  0.00    -0.248 NA
ATOM     62  C   UNL A   1      48.845  30.245  27.129  1.00  0.00     0.031 C 
ATOM     63  C   UNL A   1      43.527  32.151  29.364  1.00  0.00     0.029 A 
ATOM     64  C   UNL A   1      44.521  31.362  28.809  1.00  0.00     0.049 A 
ATOM     65  H   UNL A   1      44.419  29.351  28.175  1.00  0.00     0.167 HD
ATOM     66  C   UNL A   1      46.809  30.874  27.978  1.00  0.00     0.074 A 
ATOM     67  C   UNL A   1      48.183  31.240  27.701  1.00  0.00     0.031 C 
ATOM     68  C   UNL A   1      45.892  31.714  28.524  1.00  0.00     0.034 A 
BRANCH  55  69
ATOM     69  C   UNL A   1      40.283  29.170  29.286  1.00  0.00     0.023 A 
ATOM     70  C   UNL A   1      39.887  29.103  30.633  1.00  0.00     0.031 A 
ATOM     71  C   UNL A   1      39.285  29.376  28.318  1.00  0.00     0.131 A 
ATOM     72  C   UNL A   1      38.525  29.155  30.967  1.00  0.00     0.055 A 
ATOM     73  C   UNL A   1      37.939  29.514  28.665  1.00  0.00     0.041 A 
ATOM     74  F   UNL A   1      39.598  29.430  27.014  1.00  0.00    -0.206 F 
ATOM     75  C   UNL A   1      37.550  29.386  29.995  1.00  0.00     0.022 A 
BRANCH  72  76
ATOM     76  S   UNL A   1      38.038  28.761  32.669  1.00  0.00     0.124 S 
ATOM     77  O   UNL A   1      39.055  29.474  33.438  1.00  0.00    -0.237 OA
ATOM     78  O   UNL A   1      36.685  29.302  32.743  1.00  0.00    -0.237 OA
ATOM     79  O   UNL A   1      38.133  27.304  32.724  1.00  0.00    -0.744 OA
ENDBRANCH  72  76
ENDBRANCH  55  69
BRANCH  56  80
ATOM     80  C   UNL A   1      49.645  27.639  26.055  1.00  0.00     0.023 A 
ATOM     81  C   UNL A   1      49.908  27.746  24.680  1.00  0.00     0.031 A 
ATOM     82  C   UNL A   1      50.710  27.297  26.906  1.00  0.00     0.131 A 
ATOM     83  C   UNL A   1      51.194  27.469  24.190  1.00  0.00     0.055 A 
ATOM     84  C   UNL A   1      51.999  27.071  26.419  1.00  0.00     0.041 A 
ATOM     85  F   UNL A   1      50.514  27.188  28.229  1.00  0.00    -0.206 F 
ATOM     86  C   UNL A   1      52.244  27.143  25.052  1.00  0.00     0.022 A 
BRANCH  83  87
ATOM     87  S   UNL A   1      51.454  27.456  22.394  1.00  0.00     0.124 S 
ATOM     88  O   UNL A   1      50.172  26.953  21.912  1.00  0.00    -0.237 OA
ATOM     89  O   UNL A   1      51.736  28.860  22.121  1.00  0.00    -0.237 OA
ATOM     90  O   UNL A   1      52.587  26.549  22.223  1.00  0.00    -0.744 OA
ENDBRANCH  83  87
ENDBRANCH  56  80
BRANCH  68  91
ATOM     91  C   UNL A   1      46.368  33.093  28.907  1.00  0.00     0.023 A 
ATOM     92  C   UNL A   1      46.274  34.184  28.024  1.00  0.00     0.031 A 
ATOM     93  C   UNL A   1      46.930  33.316  30.176  1.00  0.00     0.131 A 
ATOM     94  C   UNL A   1      46.781  35.435  28.405  1.00  0.00     0.055 A 
ATOM     95  C   UNL A   1      47.381  34.575  30.570  1.00  0.00     0.041 A 
ATOM     96  F   UNL A   1      47.046  32.310  31.059  1.00  0.00    -0.206 F 
ATOM     97  C   UNL A   1      47.320  35.642  29.678  1.00  0.00     0.022 A 
BRANCH  94  98
ATOM     98  S   UNL A   1      46.805  36.774  27.181  1.00  0.00     0.124 S 
ATOM     99  O   UNL A   1      45.536  37.446  27.440  1.00  0.00    -0.237 OA
ATOM    100  O   UNL A   1      48.006  37.516  27.553  1.00  0.00    -0.237 OA
ATOM    101  O   UNL A   1      46.885  36.069  25.903  1.00  0.00    -0.744 OA
ENDBRANCH  94  98
ENDBRANCH  68  91
ENDBRANCH  42  43
ENDBRANCH  34  37
ENDBRANCH  32  33
ENDBRANCH   1  32
TORSDOF 18
ENDMDL
MODEL 3
REMARK VINA RESULT:     -12.8      5.577     11.366
REMARK SMILES Cc1ncccc1OC1(C(=O)NCCCCNC(=O)c2ccc(-c3c4nc(c(-c5cc(S(=O)(=O)[O-])ccc5F)c5ccc([nH]5)c(-c5cc(S(=O)(=O)[O-])ccc5F)c5nc(c(-c6cc(S(=O)(=O)[O-])ccc6F)c6ccc3[nH]6)C=C5)C=C4)cc2)CCN(C(=O)c2ccc(O)nn2)CC1
REMARK SMILES IDX 15 1 14 2 13 3 12 4 10 5 11 6 9 8 83 9 96 10 84 11 95 12
REMARK SMILES IDX 85 13 86 14 87 15 8 16 7 17 1 18 2 19 3 20 4 21 6 22 5 23
REMARK SMILES IDX 88 24 89 25 94 26 90 27 93 28 91 29 92 30 16 32 17 33 18 34
REMARK SMILES IDX 19 36 20 37 21 38 82 39 22 40 81 41 23 42 24 43 25 44 75 45
REMARK SMILES IDX 26 46 80 47 74 48 76 49 27 50 79 51 73 52 72 53 28 55 60 56
REMARK SMILES IDX 40 57 59 58 41 59 44 60 58 61 77 62 42 63 43 64 57 66 78 67
REMARK SMILES IDX 45 68 29 69 30 70 38 71 31 72 37 73 39 74 36 75 32 76 33 77
REMARK SMILES IDX 34 78 35 79 61 80 62 81 70 82 63 83 69 84 71 85 68 86 64 87
REMARK SMILES IDX 65 88 66 89 67 90 46 91 47 92 55 93 48 94 54 95 56 96 53 97
REMARK SMILES IDX 49 98 50 99 51 100 52 101
REMARK H PARENT 12 7 92 31 17 35 76 54 44 65
REMARK Flexibility Score: inf
ROOT
ATOM      1  C   UNL A   1      37.738  21.028  25.360  1.00  0.00     0.023 C 
ENDROOT
BRANCH   1   2
ATOM      2  C   UNL A   1      37.413  22.159  24.387  1.00  0.00     0.023 C 
BRANCH   2   3
ATOM      3  C   UNL A   1      36.854  23.422  25.035  1.00  0.00     0.116 C 
BRANCH   3   4
ATOM      4  N   UNL A   1      36.122  23.157  26.256  1.00  0.00    -0.353 N 
ATOM      5  C   UNL A   1      34.791  22.927  26.491  1.00  0.00     0.264 C 
ATOM      6  O   UNL A   1      34.508  22.640  27.661  1.00  0.00    -0.270 OA
ATOM      7  H   UNL A   1      36.683  23.138  27.066  1.00  0.00     0.163 HD
BRANCH   5   8
ATOM      8  C   UNL A   1      33.693  23.024  25.357  1.00  0.00     0.190 C 
ATOM      9  C   UNL A   1      32.349  22.713  26.006  1.00  0.00     0.080 C 
ATOM     10  C   UNL A   1      33.913  24.340  24.620  1.00  0.00     0.080 C 
ATOM     11  C   UNL A   1      31.341  23.842  26.101  1.00  0.00     0.124 C 
ATOM     12  C   UNL A   1      32.781  25.352  24.618  1.00  0.00     0.124 C 
ATOM     13  N   UNL A   1      31.504  25.003  25.241  1.00  0.00    -0.337 N 
ATOM     14  C   UNL A   1      30.397  25.874  25.177  1.00  0.00     0.274 C 
ATOM     15  O   UNL A   1      29.374  25.713  25.841  1.00  0.00    -0.267 OA
BRANCH   8  16
ATOM     16  O   UNL A   1      34.087  21.929  24.486  1.00  0.00    -0.475 OA
BRANCH  16  17
ATOM     17  C   UNL A   1      33.499  20.749  24.156  1.00  0.00     0.142 A 
ATOM     18  C   UNL A   1      31.823  21.216  22.243  1.00  0.00     0.071 C 
ATOM     19  C   UNL A   1      32.529  20.360  23.228  1.00  0.00     0.079 A 
ATOM     20  N   UNL A   1      32.095  19.066  23.110  1.00  0.00    -0.258 NA
ATOM     21  C   UNL A   1      32.622  18.126  23.909  1.00  0.00     0.111 A 
ATOM     22  C   UNL A   1      34.021  19.720  24.958  1.00  0.00     0.050 A 
ATOM     23  C   UNL A   1      33.589  18.401  24.844  1.00  0.00     0.024 A 
ENDBRANCH  16  17
ENDBRANCH   8  16
BRANCH  14  24
ATOM     24  C   UNL A   1      30.490  27.073  24.315  1.00  0.00     0.151 A 
ATOM     25  C   UNL A   1      31.030  28.244  24.820  1.00  0.00     0.042 A 
ATOM     26  N   UNL A   1      30.109  26.926  23.020  1.00  0.00    -0.142 NA
ATOM     27  C   UNL A   1      31.211  29.298  23.936  1.00  0.00     0.072 A 
ATOM     28  N   UNL A   1      30.285  27.962  22.160  1.00  0.00    -0.112 NA
ATOM     29  C   UNL A   1      30.828  29.104  22.627  1.00  0.00     0.230 A 
BRANCH  29  30
ATOM     30  O   UNL A   1      31.004  30.084  21.703  1.00  0.00    -0.492 OA
ATOM     31  H   UNL A   1      31.422  30.887  21.946  1.00  0.00     0.295 HD
ENDBRANCH  29  30
ENDBRANCH  14  24
ENDBRANCH   5   8
ENDBRANCH   3   4
ENDBRANCH   2   3
ENDBRANCH   1   2
BRANCH   1  32
ATOM     32  C   UNL A   1      39.051  21.172  26.127  1.00  0.00     0.116 C 
BRANCH  32  33
ATOM     33  N   UNL A   1      39.918  20.007  26.036  1.00  0.00    -0.352 N 
ATOM     34  C   UNL A   1      41.291  19.948  26.138  1.00  0.00     0.251 C 
ATOM     35  H   UNL A   1      39.465  19.148  25.881  1.00  0.00     0.163 HD
ATOM     36  O   UNL A   1      41.871  18.880  25.959  1.00  0.00    -0.269 OA
BRANCH  34  37
ATOM     37  C   UNL A   1      42.055  21.184  26.418  1.00  0.00     0.039 A 
ATOM     38  C   UNL A   1      42.359  22.046  25.360  1.00  0.00     0.014 A 
ATOM     39  C   UNL A   1      42.417  21.518  27.724  1.00  0.00     0.014 A 
ATOM     40  C   UNL A   1      42.948  23.285  25.628  1.00  0.00     0.010 A 
ATOM     41  C   UNL A   1      42.934  22.781  27.995  1.00  0.00     0.010 A 
ATOM     42  C   UNL A   1      43.197  23.683  26.952  1.00  0.00    -0.014 A 
BRANCH  42  43
ATOM     43  C   UNL A   1      43.721  25.039  27.271  1.00  0.00     0.031 A 
ATOM     44  C   UNL A   1      42.806  26.079  27.858  1.00  0.00     0.074 A 
ATOM     45  C   UNL A   1      44.993  25.357  26.956  1.00  0.00     0.049 A 
ATOM     46  N   UNL A   1      43.037  27.342  28.103  1.00  0.00    -0.248 NA
ATOM     47  C   UNL A   1      41.438  25.645  28.176  1.00  0.00     0.031 C 
ATOM     48  C   UNL A   1      45.965  24.450  26.341  1.00  0.00     0.029 A 
ATOM     49  N   UNL A   1      45.684  26.535  27.095  1.00  0.00    -0.354 N 
ATOM     50  C   UNL A   1      41.840  27.860  28.587  1.00  0.00     0.074 A 
ATOM     51  C   UNL A   1      40.872  26.785  28.540  1.00  0.00     0.031 C 
ATOM     52  C   UNL A   1      47.130  25.099  26.177  1.00  0.00     0.029 A 
ATOM     53  C   UNL A   1      46.978  26.477  26.629  1.00  0.00     0.049 A 
ATOM     54  H   UNL A   1      45.291  27.346  27.491  1.00  0.00     0.167 HD
ATOM     55  C   UNL A   1      41.580  29.108  29.051  1.00  0.00     0.034 A 
ATOM     56  C   UNL A   1      47.930  27.429  26.561  1.00  0.00     0.034 A 
ATOM     57  C   UNL A   1      42.561  30.164  29.110  1.00  0.00     0.049 A 
ATOM     58  C   UNL A   1      47.615  28.813  27.071  1.00  0.00     0.074 A 
ATOM     59  C   UNL A   1      42.422  31.445  29.611  1.00  0.00     0.029 A 
ATOM     60  N   UNL A   1      43.867  30.062  28.645  1.00  0.00    -0.354 N 
ATOM     61  N   UNL A   1      46.491  29.273  27.572  1.00  0.00    -0.248 NA
ATOM     62  C   UNL A   1      48.699  29.802  27.019  1.00  0.00     0.031 C 
ATOM     63  C   UNL A   1      43.619  32.137  29.396  1.00  0.00     0.029 A 
ATOM     64  C   UNL A   1      44.533  31.265  28.825  1.00  0.00     0.049 A 
ATOM     65  H   UNL A   1      44.263  29.254  28.246  1.00  0.00     0.167 HD
ATOM     66  C   UNL A   1      46.747  30.595  27.926  1.00  0.00     0.074 A 
ATOM     67  C   UNL A   1      48.132  30.854  27.591  1.00  0.00     0.031 C 
ATOM     68  C   UNL A   1      45.914  31.511  28.483  1.00  0.00     0.034 A 
BRANCH  55  69
ATOM     69  C   UNL A   1      40.169  29.397  29.508  1.00  0.00     0.023 A 
ATOM     70  C   UNL A   1      39.844  29.503  30.872  1.00  0.00     0.031 A 
ATOM     71  C   UNL A   1      39.130  29.537  28.573  1.00  0.00     0.131 A 
ATOM     72  C   UNL A   1      38.506  29.657  31.264  1.00  0.00     0.055 A 
ATOM     73  C   UNL A   1      37.812  29.777  28.967  1.00  0.00     0.041 A 
ATOM     74  F   UNL A   1      39.373  29.427  27.258  1.00  0.00    -0.206 F 
ATOM     75  C   UNL A   1      37.490  29.820  30.320  1.00  0.00     0.022 A 
BRANCH  72  76
ATOM     76  S   UNL A   1      38.096  29.484  33.022  1.00  0.00     0.124 S 
ATOM     77  O   UNL A   1      37.315  30.695  33.262  1.00  0.00    -0.237 OA
ATOM     78  O   UNL A   1      37.354  28.228  33.052  1.00  0.00    -0.237 OA
ATOM     79  O   UNL A   1      39.402  29.454  33.677  1.00  0.00    -0.744 OA
ENDBRANCH  72  76
ENDBRANCH  55  69
BRANCH  56  80
ATOM     80  C   UNL A   1      49.270  27.121  25.983  1.00  0.00     0.023 A 
ATOM     81  C   UNL A   1      49.600  27.516  24.677  1.00  0.00     0.031 A 
ATOM     82  C   UNL A   1      50.223  26.389  26.712  1.00  0.00     0.131 A 
ATOM     83  C   UNL A   1      50.834  27.137  24.122  1.00  0.00     0.055 A 
ATOM     84  C   UNL A   1      51.468  26.058  26.174  1.00  0.00     0.041 A 
ATOM     85  F   UNL A   1      49.960  25.992  27.967  1.00  0.00    -0.206 F 
ATOM     86  C   UNL A   1      51.774  26.421  24.866  1.00  0.00     0.022 A 
BRANCH  83  87
ATOM     87  S   UNL A   1      51.156  27.524  22.379  1.00  0.00     0.124 S 
ATOM     88  O   UNL A   1      52.501  26.988  22.200  1.00  0.00    -0.237 OA
ATOM     89  O   UNL A   1      50.082  26.800  21.707  1.00  0.00    -0.237 OA
ATOM     90  O   UNL A   1      51.050  28.980  22.330  1.00  0.00    -0.744 OA
ENDBRANCH  83  87
ENDBRANCH  56  80
BRANCH  68  91
ATOM     91  C   UNL A   1      46.501  32.860  28.814  1.00  0.00     0.023 A 
ATOM     92  C   UNL A   1      46.490  33.922  27.892  1.00  0.00     0.031 A 
ATOM     93  C   UNL A   1      47.085  33.083  30.073  1.00  0.00     0.131 A 
ATOM     94  C   UNL A   1      47.099  35.142  28.226  1.00  0.00     0.055 A 
ATOM     95  C   UNL A   1      47.638  34.315  30.420  1.00  0.00     0.041 A 
ATOM     96  F   UNL A   1      47.124  32.103  30.992  1.00  0.00    -0.206 F 
ATOM     97  C   UNL A   1      47.658  35.350  29.489  1.00  0.00     0.022 A 
BRANCH  94  98
ATOM     98  S   UNL A   1      47.224  36.429  26.954  1.00  0.00     0.124 S 
ATOM     99  O   UNL A   1      45.823  36.752  26.708  1.00  0.00    -0.237 OA
ATOM    100  O   UNL A   1      48.007  37.460  27.629  1.00  0.00    -0.237 OA
ATOM    101  O   UNL A   1      47.909  35.755  25.852  1.00  0.00    -0.744 OA
ENDBRANCH  94  98
ENDBRANCH  68  91
ENDBRANCH  42  43
ENDBRANCH  34  37
ENDBRANCH  32  33
ENDBRANCH   1  32
TORSDOF 18
ENDMDL
