MODEL 1
REMARK VINA RESULT:     -11.5      0.000      0.000
REMARK SMILES C[NH2+][C@@]1(C(=O)NCCCCNC(=O)c2ccc(-c3c4nc(c(-c5cc(S(=O)(=O)[O-])ccc5F)c5ccc([nH]5)c(-c5cc(S(=O)(=O)[O-])ccc5F)c5nc(c(-c6cc(S(=O)(=O)[O-])ccc6F)c6ccc3[nH]6)C=C5)C=C4)cc2)CC[C@H](SC2CCOCC2)C1
REMARK SMILES IDX 9 1 8 2 7 3 6 4 4 5 5 6 3 8 77 9 87 10 78 11 79 12 2 13 1 14
REMARK SMILES IDX 80 17 81 18 82 19 86 20 83 21 85 22 84 23 10 24 11 25 12 26
REMARK SMILES IDX 13 28 14 29 15 30 76 31 16 32 75 33 17 34 18 35 19 36 69 37
REMARK SMILES IDX 20 38 74 39 68 40 70 41 21 42 73 43 67 44 66 45 22 47 54 48
REMARK SMILES IDX 34 49 53 50 35 51 38 52 52 53 71 54 36 55 37 56 51 58 72 59
REMARK SMILES IDX 39 60 23 61 24 62 32 63 25 64 31 65 33 66 30 67 26 68 27 69
REMARK SMILES IDX 28 70 29 71 55 72 56 73 64 74 57 75 63 76 65 77 62 78 58 79
REMARK SMILES IDX 59 80 60 81 61 82 40 83 41 84 49 85 42 86 48 87 50 88 47 89
REMARK SMILES IDX 43 90 44 91 45 92 46 93
REMARK H PARENT 6 7 2 15 2 16 11 27 70 46 38 57
REMARK Flexibility Score: inf
ROOT
ATOM      1  C   UNL A   1      31.256  31.604  26.620  1.00  0.00     0.023 C 
ENDROOT
BRANCH   1   2
ATOM      2  C   UNL A   1      31.750  30.198  26.940  1.00  0.00     0.023 C 
BRANCH   2   3
ATOM      3  C   UNL A   1      31.978  29.294  25.733  1.00  0.00     0.116 C 
BRANCH   3   4
ATOM      4  N   UNL A   1      32.448  27.968  26.064  1.00  0.00    -0.351 N 
ATOM      5  C   UNL A   1      32.580  26.826  25.338  1.00  0.00     0.281 C 
ATOM      6  O   UNL A   1      33.064  25.871  25.968  1.00  0.00    -0.268 OA
ATOM      7  H   UNL A   1      32.729  27.873  27.002  1.00  0.00     0.163 HD
BRANCH   5   8
ATOM      8  C   UNL A   1      32.156  26.631  23.811  1.00  0.00     0.176 C 
ATOM      9  C   UNL A   1      32.873  27.574  22.834  1.00  0.00     0.080 C 
ATOM     10  C   UNL A   1      30.655  26.874  23.569  1.00  0.00     0.093 C 
ATOM     11  C   UNL A   1      31.900  28.697  22.505  1.00  0.00     0.022 C 
ATOM     12  C   UNL A   1      30.510  28.076  22.595  1.00  0.00     0.054 C 
BRANCH   8  13
ATOM     13  N   UNL A   1      32.390  25.180  23.491  1.00  0.00    -0.336 N 
ATOM     14  C   UNL A   1      33.609  24.899  22.738  1.00  0.00     0.331 C 
ATOM     15  H   UNL A   1      32.436  24.666  24.370  1.00  0.00     0.346 HD
ATOM     16  H   UNL A   1      31.616  24.894  22.892  1.00  0.00     0.346 HD
ENDBRANCH   8  13
BRANCH  12  17
ATOM     17  S   UNL A   1      29.011  28.988  23.159  1.00  0.00    -0.155 SA
BRANCH  17  18
ATOM     18  C   UNL A   1      28.911  30.646  22.372  1.00  0.00     0.051 C 
ATOM     19  C   UNL A   1      28.692  31.718  23.442  1.00  0.00     0.043 C 
ATOM     20  C   UNL A   1      28.012  30.886  21.167  1.00  0.00     0.043 C 
ATOM     21  C   UNL A   1      28.808  33.100  22.806  1.00  0.00     0.161 C 
ATOM     22  C   UNL A   1      28.162  32.321  20.674  1.00  0.00     0.161 C 
ATOM     23  O   UNL A   1      27.876  33.233  21.734  1.00  0.00    -0.381 OA
ENDBRANCH  17  18
ENDBRANCH  12  17
ENDBRANCH   5   8
ENDBRANCH   3   4
ENDBRANCH   2   3
ENDBRANCH   1   2
BRANCH   1  24
ATOM     24  C   UNL A   1      32.328  32.685  26.482  1.00  0.00     0.116 C 
BRANCH  24  25
ATOM     25  N   UNL A   1      32.187  33.816  27.390  1.00  0.00    -0.352 N 
ATOM     26  C   UNL A   1      33.049  34.237  28.382  1.00  0.00     0.251 C 
ATOM     27  H   UNL A   1      31.367  34.351  27.281  1.00  0.00     0.163 HD
ATOM     28  O   UNL A   1      32.759  35.204  29.076  1.00  0.00    -0.269 OA
BRANCH  26  29
ATOM     29  C   UNL A   1      34.285  33.462  28.644  1.00  0.00     0.039 A 
ATOM     30  C   UNL A   1      35.521  34.096  28.488  1.00  0.00     0.014 A 
ATOM     31  C   UNL A   1      34.221  32.164  29.152  1.00  0.00     0.014 A 
ATOM     32  C   UNL A   1      36.678  33.479  28.970  1.00  0.00     0.010 A 
ATOM     33  C   UNL A   1      35.360  31.591  29.711  1.00  0.00     0.010 A 
ATOM     34  C   UNL A   1      36.594  32.257  29.656  1.00  0.00    -0.014 A 
BRANCH  34  35
ATOM     35  C   UNL A   1      37.765  31.681  30.374  1.00  0.00     0.031 A 
ATOM     36  C   UNL A   1      38.623  30.640  29.710  1.00  0.00     0.074 A 
ATOM     37  C   UNL A   1      37.982  32.015  31.664  1.00  0.00     0.049 A 
ATOM     38  N   UNL A   1      39.593  29.921  30.215  1.00  0.00    -0.248 NA
ATOM     39  C   UNL A   1      38.315  30.337  28.305  1.00  0.00     0.031 C 
ATOM     40  C   UNL A   1      37.177  32.959  32.443  1.00  0.00     0.029 A 
ATOM     41  N   UNL A   1      38.934  31.584  32.554  1.00  0.00    -0.354 N 
ATOM     42  C   UNL A   1      39.990  29.057  29.200  1.00  0.00     0.074 A 
ATOM     43  C   UNL A   1      39.115  29.308  28.073  1.00  0.00     0.031 C 
ATOM     44  C   UNL A   1      37.682  33.053  33.683  1.00  0.00     0.029 A 
ATOM     45  C   UNL A   1      38.819  32.147  33.806  1.00  0.00     0.049 A 
ATOM     46  H   UNL A   1      39.635  30.933  32.320  1.00  0.00     0.167 HD
ATOM     47  C   UNL A   1      41.003  28.153  29.200  1.00  0.00     0.034 A 
ATOM     48  C   UNL A   1      39.537  31.948  34.928  1.00  0.00     0.034 A 
ATOM     49  C   UNL A   1      41.885  27.940  30.320  1.00  0.00     0.049 A 
ATOM     50  C   UNL A   1      40.681  30.969  34.894  1.00  0.00     0.074 A 
ATOM     51  C   UNL A   1      42.987  27.106  30.406  1.00  0.00     0.029 A 
ATOM     52  N   UNL A   1      41.769  28.568  31.555  1.00  0.00    -0.354 N 
ATOM     53  N   UNL A   1      41.078  30.198  33.908  1.00  0.00    -0.248 NA
ATOM     54  C   UNL A   1      41.482  30.843  36.119  1.00  0.00     0.031 C 
ATOM     55  C   UNL A   1      43.505  27.193  31.703  1.00  0.00     0.029 A 
ATOM     56  C   UNL A   1      42.766  28.127  32.411  1.00  0.00     0.049 A 
ATOM     57  H   UNL A   1      41.080  29.231  31.786  1.00  0.00     0.167 HD
ATOM     58  C   UNL A   1      42.190  29.513  34.388  1.00  0.00     0.074 A 
ATOM     59  C   UNL A   1      42.408  29.973  35.746  1.00  0.00     0.031 C 
ATOM     60  C   UNL A   1      42.963  28.590  33.764  1.00  0.00     0.034 A 
BRANCH  47  61
ATOM     61  C   UNL A   1      41.185  27.322  27.953  1.00  0.00     0.023 A 
ATOM     62  C   UNL A   1      40.801  25.970  27.906  1.00  0.00     0.031 A 
ATOM     63  C   UNL A   1      41.795  27.871  26.811  1.00  0.00     0.131 A 
ATOM     64  C   UNL A   1      41.113  25.191  26.783  1.00  0.00     0.055 A 
ATOM     65  C   UNL A   1      42.023  27.112  25.662  1.00  0.00     0.041 A 
ATOM     66  F   UNL A   1      42.200  29.151  26.801  1.00  0.00    -0.206 F 
ATOM     67  C   UNL A   1      41.700  25.758  25.650  1.00  0.00     0.022 A 
BRANCH  64  68
ATOM     68  S   UNL A   1      40.887  23.395  26.890  1.00  0.00     0.124 S 
ATOM     69  O   UNL A   1      39.460  23.263  26.607  1.00  0.00    -0.237 OA
ATOM     70  O   UNL A   1      41.790  22.900  25.858  1.00  0.00    -0.237 OA
ATOM     71  O   UNL A   1      41.275  23.082  28.263  1.00  0.00    -0.744 OA
ENDBRANCH  64  68
ENDBRANCH  47  61
BRANCH  48  72
ATOM     72  C   UNL A   1      39.202  32.683  36.180  1.00  0.00     0.023 A 
ATOM     73  C   UNL A   1      38.366  32.109  37.151  1.00  0.00     0.031 A 
ATOM     74  C   UNL A   1      39.689  33.981  36.410  1.00  0.00     0.131 A 
ATOM     75  C   UNL A   1      38.006  32.846  38.289  1.00  0.00     0.055 A 
ATOM     76  C   UNL A   1      39.363  34.695  37.566  1.00  0.00     0.041 A 
ATOM     77  F   UNL A   1      40.501  34.570  35.519  1.00  0.00    -0.206 F 
ATOM     78  C   UNL A   1      38.508  34.131  38.508  1.00  0.00     0.022 A 
BRANCH  75  79
ATOM     79  S   UNL A   1      36.817  32.123  39.452  1.00  0.00     0.124 S 
ATOM     80  O   UNL A   1      37.082  30.697  39.301  1.00  0.00    -0.237 OA
ATOM     81  O   UNL A   1      37.229  32.722  40.716  1.00  0.00    -0.237 OA
ATOM     82  O   UNL A   1      35.524  32.575  38.941  1.00  0.00    -0.744 OA
ENDBRANCH  75  79
ENDBRANCH  48  72
BRANCH  60  83
ATOM     83  C   UNL A   1      44.142  28.055  34.535  1.00  0.00     0.023 A 
ATOM     84  C   UNL A   1      44.060  26.863  35.276  1.00  0.00     0.031 A 
ATOM     85  C   UNL A   1      45.359  28.757  34.537  1.00  0.00     0.131 A 
ATOM     86  C   UNL A   1      45.163  26.434  36.028  1.00  0.00     0.055 A 
ATOM     87  C   UNL A   1      46.469  28.298  35.247  1.00  0.00     0.041 A 
ATOM     88  F   UNL A   1      45.489  29.901  33.846  1.00  0.00    -0.206 F 
ATOM     89  C   UNL A   1      46.371  27.136  36.007  1.00  0.00     0.022 A 
BRANCH  86  90
ATOM     90  S   UNL A   1      44.974  24.981  37.100  1.00  0.00     0.124 S 
ATOM     91  O   UNL A   1      44.121  24.116  36.291  1.00  0.00    -0.237 OA
ATOM     92  O   UNL A   1      46.353  24.538  37.270  1.00  0.00    -0.237 OA
ATOM     93  O   UNL A   1      44.346  25.522  38.303  1.00  0.00    -0.744 OA
ENDBRANCH  86  90
ENDBRANCH  60  83
ENDBRANCH  34  35
ENDBRANCH  26  29
ENDBRANCH  24  25
ENDBRANCH   1  24
TORSDOF 17
ENDMDL
MODEL 2
REMARK VINA RESULT:     -11.4      5.880      9.278
REMARK SMILES C[NH2+][C@@]1(C(=O)NCCCCNC(=O)c2ccc(-c3c4nc(c(-c5cc(S(=O)(=O)[O-])ccc5F)c5ccc([nH]5)c(-c5cc(S(=O)(=O)[O-])ccc5F)c5nc(c(-c6cc(S(=O)(=O)[O-])ccc6F)c6ccc3[nH]6)C=C5)C=C4)cc2)CC[C@H](SC2CCOCC2)C1
REMARK SMILES IDX 9 1 8 2 7 3 6 4 4 5 5 6 3 8 77 9 87 10 78 11 79 12 2 13 1 14
REMARK SMILES IDX 80 17 81 18 82 19 86 20 83 21 85 22 84 23 10 24 11 25 12 26
REMARK SMILES IDX 13 28 14 29 15 30 76 31 16 32 75 33 17 34 18 35 19 36 69 37
REMARK SMILES IDX 20 38 74 39 68 40 70 41 21 42 73 43 67 44 66 45 22 47 54 48
REMARK SMILES IDX 34 49 53 50 35 51 38 52 52 53 71 54 36 55 37 56 51 58 72 59
REMARK SMILES IDX 39 60 23 61 24 62 32 63 25 64 31 65 33 66 30 67 26 68 27 69
REMARK SMILES IDX 28 70 29 71 55 72 56 73 64 74 57 75 63 76 65 77 62 78 58 79
REMARK SMILES IDX 59 80 60 81 61 82 40 83 41 84 49 85 42 86 48 87 50 88 47 89
REMARK SMILES IDX 43 90 44 91 45 92 46 93
REMARK H PARENT 6 7 2 15 2 16 11 27 70 46 38 57
REMARK Flexibility Score: inf
ROOT
ATOM      1  C   UNL A   1      36.357  21.670  24.084  1.00  0.00     0.023 C 
ENDROOT
BRANCH   1   2
ATOM      2  C   UNL A   1      35.905  22.961  23.409  1.00  0.00     0.023 C 
BRANCH   2   3
ATOM      3  C   UNL A   1      34.430  23.309  23.586  1.00  0.00     0.116 C 
BRANCH   3   4
ATOM      4  N   UNL A   1      34.190  24.486  24.390  1.00  0.00    -0.351 N 
ATOM      5  C   UNL A   1      33.507  24.692  25.547  1.00  0.00     0.281 C 
ATOM      6  O   UNL A   1      33.551  25.860  25.968  1.00  0.00    -0.268 OA
ATOM      7  H   UNL A   1      34.604  25.302  24.026  1.00  0.00     0.163 HD
BRANCH   5   8
ATOM      8  C   UNL A   1      32.674  23.593  26.352  1.00  0.00     0.176 C 
ATOM      9  C   UNL A   1      33.502  22.801  27.374  1.00  0.00     0.080 C 
ATOM     10  C   UNL A   1      32.044  22.526  25.437  1.00  0.00     0.093 C 
ATOM     11  C   UNL A   1      33.825  21.456  26.738  1.00  0.00     0.022 C 
ATOM     12  C   UNL A   1      32.651  21.147  25.814  1.00  0.00     0.054 C 
BRANCH   8  13
ATOM     13  N   UNL A   1      31.518  24.319  26.984  1.00  0.00    -0.336 N 
ATOM     14  C   UNL A   1      30.198  23.785  26.660  1.00  0.00     0.331 C 
ATOM     15  H   UNL A   1      31.635  24.280  27.996  1.00  0.00     0.346 HD
ATOM     16  H   UNL A   1      31.539  25.267  26.608  1.00  0.00     0.346 HD
ENDBRANCH   8  13
BRANCH  12  17
ATOM     17  S   UNL A   1      32.810  20.228  24.223  1.00  0.00    -0.155 SA
BRANCH  17  18
ATOM     18  C   UNL A   1      33.360  18.498  24.511  1.00  0.00     0.051 C 
ATOM     19  C   UNL A   1      33.426  17.744  23.182  1.00  0.00     0.043 C 
ATOM     20  C   UNL A   1      32.713  17.643  25.592  1.00  0.00     0.043 C 
ATOM     21  C   UNL A   1      34.069  16.379  23.404  1.00  0.00     0.161 C 
ATOM     22  C   UNL A   1      33.392  16.279  25.663  1.00  0.00     0.161 C 
ATOM     23  O   UNL A   1      33.342  15.643  24.387  1.00  0.00    -0.381 OA
ENDBRANCH  17  18
ENDBRANCH  12  17
ENDBRANCH   5   8
ENDBRANCH   3   4
ENDBRANCH   2   3
ENDBRANCH   1   2
BRANCH   1  24
ATOM     24  C   UNL A   1      37.191  21.826  25.356  1.00  0.00     0.116 C 
BRANCH  24  25
ATOM     25  N   UNL A   1      38.290  20.880  25.495  1.00  0.00    -0.352 N 
ATOM     26  C   UNL A   1      39.488  21.042  26.162  1.00  0.00     0.251 C 
ATOM     27  H   UNL A   1      38.162  20.008  25.053  1.00  0.00     0.163 HD
ATOM     28  O   UNL A   1      40.319  20.142  26.156  1.00  0.00    -0.269 OA
BRANCH  26  29
ATOM     29  C   UNL A   1      39.782  22.339  26.815  1.00  0.00     0.039 A 
ATOM     30  C   UNL A   1      40.889  22.428  27.665  1.00  0.00     0.014 A 
ATOM     31  C   UNL A   1      39.047  23.483  26.499  1.00  0.00     0.014 A 
ATOM     32  C   UNL A   1      41.337  23.683  28.085  1.00  0.00     0.010 A 
ATOM     33  C   UNL A   1      39.546  24.735  26.845  1.00  0.00     0.010 A 
ATOM     34  C   UNL A   1      40.714  24.850  27.614  1.00  0.00    -0.014 A 
BRANCH  34  35
ATOM     35  C   UNL A   1      41.296  26.199  27.858  1.00  0.00     0.031 A 
ATOM     36  C   UNL A   1      42.685  26.521  27.383  1.00  0.00     0.074 A 
ATOM     37  C   UNL A   1      40.614  27.090  28.609  1.00  0.00     0.049 A 
ATOM     38  N   UNL A   1      43.417  27.580  27.619  1.00  0.00    -0.248 NA
ATOM     39  C   UNL A   1      43.355  25.494  26.573  1.00  0.00     0.031 C 
ATOM     40  C   UNL A   1      39.287  26.869  29.190  1.00  0.00     0.029 A 
ATOM     41  N   UNL A   1      40.949  28.353  29.029  1.00  0.00    -0.354 N 
ATOM     42  C   UNL A   1      44.645  27.333  27.016  1.00  0.00     0.074 A 
ATOM     43  C   UNL A   1      44.572  26.001  26.453  1.00  0.00     0.031 C 
ATOM     44  C   UNL A   1      38.913  27.966  29.869  1.00  0.00     0.029 A 
ATOM     45  C   UNL A   1      39.986  28.952  29.811  1.00  0.00     0.049 A 
ATOM     46  H   UNL A   1      41.799  28.790  28.794  1.00  0.00     0.167 HD
ATOM     47  C   UNL A   1      45.726  28.149  26.921  1.00  0.00     0.034 A 
ATOM     48  C   UNL A   1      39.973  30.153  30.421  1.00  0.00     0.034 A 
ATOM     49  C   UNL A   1      45.769  29.487  27.458  1.00  0.00     0.049 A 
ATOM     50  C   UNL A   1      41.167  31.058  30.270  1.00  0.00     0.074 A 
ATOM     51  C   UNL A   1      46.780  30.426  27.358  1.00  0.00     0.029 A 
ATOM     52  N   UNL A   1      44.752  30.079  28.199  1.00  0.00    -0.354 N 
ATOM     53  N   UNL A   1      42.302  30.830  29.649  1.00  0.00    -0.248 NA
ATOM     54  C   UNL A   1      41.074  32.386  30.890  1.00  0.00     0.031 C 
ATOM     55  C   UNL A   1      46.397  31.565  28.076  1.00  0.00     0.029 A 
ATOM     56  C   UNL A   1      45.120  31.362  28.575  1.00  0.00     0.049 A 
ATOM     57  H   UNL A   1      43.895  29.650  28.422  1.00  0.00     0.167 HD
ATOM     58  C   UNL A   1      43.048  31.997  29.785  1.00  0.00     0.074 A 
ATOM     59  C   UNL A   1      42.229  32.930  30.533  1.00  0.00     0.031 C 
ATOM     60  C   UNL A   1      44.295  32.274  29.329  1.00  0.00     0.034 A 
BRANCH  47  61
ATOM     61  C   UNL A   1      46.947  27.598  26.226  1.00  0.00     0.023 A 
ATOM     62  C   UNL A   1      47.262  27.948  24.901  1.00  0.00     0.031 A 
ATOM     63  C   UNL A   1      47.782  26.672  26.877  1.00  0.00     0.131 A 
ATOM     64  C   UNL A   1      48.322  27.310  24.240  1.00  0.00     0.055 A 
ATOM     65  C   UNL A   1      48.889  26.106  26.241  1.00  0.00     0.041 A 
ATOM     66  F   UNL A   1      47.523  26.285  28.136  1.00  0.00    -0.206 F 
ATOM     67  C   UNL A   1      49.153  26.410  24.909  1.00  0.00     0.022 A 
BRANCH  64  68
ATOM     68  S   UNL A   1      48.495  27.556  22.452  1.00  0.00     0.124 S 
ATOM     69  O   UNL A   1      47.197  28.132  22.109  1.00  0.00    -0.237 OA
ATOM     70  O   UNL A   1      49.637  28.458  22.366  1.00  0.00    -0.237 OA
ATOM     71  O   UNL A   1      48.724  26.206  21.941  1.00  0.00    -0.744 OA
ENDBRANCH  64  68
ENDBRANCH  47  61
BRANCH  48  72
ATOM     72  C   UNL A   1      38.798  30.574  31.233  1.00  0.00     0.023 A 
ATOM     73  C   UNL A   1      37.703  31.219  30.635  1.00  0.00     0.031 A 
ATOM     74  C   UNL A   1      38.763  30.365  32.623  1.00  0.00     0.131 A 
ATOM     75  C   UNL A   1      36.638  31.671  31.430  1.00  0.00     0.055 A 
ATOM     76  C   UNL A   1      37.681  30.777  33.403  1.00  0.00     0.041 A 
ATOM     77  F   UNL A   1      39.779  29.742  33.241  1.00  0.00    -0.206 F 
ATOM     78  C   UNL A   1      36.615  31.445  32.807  1.00  0.00     0.022 A 
BRANCH  75  79
ATOM     79  S   UNL A   1      35.309  32.619  30.641  1.00  0.00     0.124 S 
ATOM     80  O   UNL A   1      34.908  31.728  29.558  1.00  0.00    -0.237 OA
ATOM     81  O   UNL A   1      34.355  32.771  31.734  1.00  0.00    -0.237 OA
ATOM     82  O   UNL A   1      35.973  33.852  30.220  1.00  0.00    -0.744 OA
ENDBRANCH  75  79
ENDBRANCH  48  72
BRANCH  60  83
ATOM     83  C   UNL A   1      44.824  33.660  29.594  1.00  0.00     0.023 A 
ATOM     84  C   UNL A   1      44.452  34.757  28.797  1.00  0.00     0.031 A 
ATOM     85  C   UNL A   1      45.721  33.881  30.653  1.00  0.00     0.131 A 
ATOM     86  C   UNL A   1      45.015  36.018  29.042  1.00  0.00     0.055 A 
ATOM     87  C   UNL A   1      46.239  35.148  30.923  1.00  0.00     0.041 A 
ATOM     88  F   UNL A   1      46.108  32.866  31.443  1.00  0.00    -0.206 F 
ATOM     89  C   UNL A   1      45.895  36.223  30.109  1.00  0.00     0.022 A 
BRANCH  86  90
ATOM     90  S   UNL A   1      44.641  37.376  27.898  1.00  0.00     0.124 S 
ATOM     91  O   UNL A   1      43.776  38.227  28.709  1.00  0.00    -0.237 OA
ATOM     92  O   UNL A   1      45.966  37.910  27.604  1.00  0.00    -0.237 OA
ATOM     93  O   UNL A   1      43.980  36.708  26.778  1.00  0.00    -0.744 OA
ENDBRANCH  86  90
ENDBRANCH  60  83
ENDBRANCH  34  35
ENDBRANCH  26  29
ENDBRANCH  24  25
ENDBRANCH   1  24
TORSDOF 17
ENDMDL
MODEL 3
REMARK VINA RESULT:     -11.4      5.944      9.461
REMARK SMILES C[NH2+][C@@]1(C(=O)NCCCCNC(=O)c2ccc(-c3c4nc(c(-c5cc(S(=O)(=O)[O-])ccc5F)c5ccc([nH]5)c(-c5cc(S(=O)(=O)[O-])ccc5F)c5nc(c(-c6cc(S(=O)(=O)[O-])ccc6F)c6ccc3[nH]6)C=C5)C=C4)cc2)CC[C@H](SC2CCOCC2)C1
REMARK SMILES IDX 9 1 8 2 7 3 6 4 4 5 5 6 3 8 77 9 87 10 78 11 79 12 2 13 1 14
REMARK SMILES IDX 80 17 81 18 82 19 86 20 83 21 85 22 84 23 10 24 11 25 12 26
REMARK SMILES IDX 13 28 14 29 15 30 76 31 16 32 75 33 17 34 18 35 19 36 69 37
REMARK SMILES IDX 20 38 74 39 68 40 70 41 21 42 73 43 67 44 66 45 22 47 54 48
REMARK SMILES IDX 34 49 53 50 35 51 38 52 52 53 71 54 36 55 37 56 51 58 72 59
REMARK SMILES IDX 39 60 23 61 24 62 32 63 25 64 31 65 33 66 30 67 26 68 27 69
REMARK SMILES IDX 28 70 29 71 55 72 56 73 64 74 57 75 63 76 65 77 62 78 58 79
REMARK SMILES IDX 59 80 60 81 61 82 40 83 41 84 49 85 42 86 48 87 50 88 47 89
REMARK SMILES IDX 43 90 44 91 45 92 46 93
REMARK H PARENT 6 7 2 15 2 16 11 27 70 46 38 57
REMARK Flexibility Score: inf
ROOT
ATOM      1  C   UNL A   1      36.666  21.663  24.008  1.00  0.00     0.023 C 
ENDROOT
BRANCH   1   2
ATOM      2  C   UNL A   1      36.033  23.004  23.655  1.00  0.00     0.023 C 
BRANCH   2   3
ATOM      3  C   UNL A   1      34.509  23.010  23.586  1.00  0.00     0.116 C 
BRANCH   3   4
ATOM      4  N   UNL A   1      33.896  24.213  24.100  1.00  0.00    -0.351 N 
ATOM      5  C   UNL A   1      33.107  24.460  25.179  1.00  0.00     0.281 C 
ATOM      6  O   UNL A   1      32.793  25.654  25.323  1.00  0.00    -0.268 OA
ATOM      7  H   UNL A   1      34.086  25.014  23.560  1.00  0.00     0.163 HD
BRANCH   5   8
ATOM      8  C   UNL A   1      32.564  23.371  26.213  1.00  0.00     0.176 C 
ATOM      9  C   UNL A   1      33.605  22.907  27.241  1.00  0.00     0.080 C 
ATOM     10  C   UNL A   1      32.079  22.081  25.527  1.00  0.00     0.093 C 
ATOM     11  C   UNL A   1      34.127  21.558  26.767  1.00  0.00     0.022 C 
ATOM     12  C   UNL A   1      32.965  20.906  26.025  1.00  0.00     0.054 C 
BRANCH   8  13
ATOM     13  N   UNL A   1      31.345  23.972  26.857  1.00  0.00    -0.336 N 
ATOM     14  C   UNL A   1      30.152  23.130  26.832  1.00  0.00     0.331 C 
ATOM     15  H   UNL A   1      31.568  24.174  27.831  1.00  0.00     0.346 HD
ATOM     16  H   UNL A   1      31.116  24.802  26.311  1.00  0.00     0.346 HD
ENDBRANCH   8  13
BRANCH  12  17
ATOM     17  S   UNL A   1      33.169  19.792  24.570  1.00  0.00    -0.155 SA
BRANCH  17  18
ATOM     18  C   UNL A   1      33.460  18.057  25.101  1.00  0.00     0.051 C 
ATOM     19  C   UNL A   1      34.645  17.469  24.333  1.00  0.00     0.043 C 
ATOM     20  C   UNL A   1      32.311  17.061  25.178  1.00  0.00     0.043 C 
ATOM     21  C   UNL A   1      35.003  16.106  24.918  1.00  0.00     0.161 C 
ATOM     22  C   UNL A   1      32.810  15.719  25.702  1.00  0.00     0.161 C 
ATOM     23  O   UNL A   1      33.871  15.238  24.878  1.00  0.00    -0.381 OA
ENDBRANCH  17  18
ENDBRANCH  12  17
ENDBRANCH   5   8
ENDBRANCH   3   4
ENDBRANCH   2   3
ENDBRANCH   1   2
BRANCH   1  24
ATOM     24  C   UNL A   1      37.245  21.536  25.417  1.00  0.00     0.116 C 
BRANCH  24  25
ATOM     25  N   UNL A   1      38.356  20.602  25.547  1.00  0.00    -0.352 N 
ATOM     26  C   UNL A   1      39.569  20.789  26.179  1.00  0.00     0.251 C 
ATOM     27  H   UNL A   1      38.224  19.720  25.129  1.00  0.00     0.163 HD
ATOM     28  O   UNL A   1      40.407  19.896  26.172  1.00  0.00    -0.269 OA
BRANCH  26  29
ATOM     29  C   UNL A   1      39.869  22.103  26.796  1.00  0.00     0.039 A 
ATOM     30  C   UNL A   1      40.944  22.197  27.686  1.00  0.00     0.014 A 
ATOM     31  C   UNL A   1      39.175  23.250  26.409  1.00  0.00     0.014 A 
ATOM     32  C   UNL A   1      41.405  23.457  28.077  1.00  0.00     0.010 A 
ATOM     33  C   UNL A   1      39.691  24.502  26.728  1.00  0.00     0.010 A 
ATOM     34  C   UNL A   1      40.831  24.619  27.538  1.00  0.00    -0.014 A 
BRANCH  34  35
ATOM     35  C   UNL A   1      41.435  25.963  27.756  1.00  0.00     0.031 A 
ATOM     36  C   UNL A   1      42.827  26.255  27.269  1.00  0.00     0.074 A 
ATOM     37  C   UNL A   1      40.772  26.877  28.496  1.00  0.00     0.049 A 
ATOM     38  N   UNL A   1      43.577  27.306  27.482  1.00  0.00    -0.248 NA
ATOM     39  C   UNL A   1      43.475  25.203  26.473  1.00  0.00     0.031 C 
ATOM     40  C   UNL A   1      39.445  26.688  29.087  1.00  0.00     0.029 A 
ATOM     41  N   UNL A   1      41.130  28.142  28.892  1.00  0.00    -0.354 N 
ATOM     42  C   UNL A   1      44.798  27.028  26.877  1.00  0.00     0.074 A 
ATOM     43  C   UNL A   1      44.700  25.688  26.337  1.00  0.00     0.031 C 
ATOM     44  C   UNL A   1      39.092  27.803  29.749  1.00  0.00     0.029 A 
ATOM     45  C   UNL A   1      40.181  28.770  29.668  1.00  0.00     0.049 A 
ATOM     46  H   UNL A   1      41.985  28.562  28.645  1.00  0.00     0.167 HD
ATOM     47  C   UNL A   1      45.890  27.825  26.762  1.00  0.00     0.034 A 
ATOM     48  C   UNL A   1      40.191  29.981  30.258  1.00  0.00     0.034 A 
ATOM     49  C   UNL A   1      45.958  29.171  27.276  1.00  0.00     0.049 A 
ATOM     50  C   UNL A   1      41.398  30.864  30.084  1.00  0.00     0.074 A 
ATOM     51  C   UNL A   1      46.983  30.092  27.154  1.00  0.00     0.029 A 
ATOM     52  N   UNL A   1      44.955  29.792  28.011  1.00  0.00    -0.354 N 
ATOM     53  N   UNL A   1      42.525  30.608  29.462  1.00  0.00    -0.248 NA
ATOM     54  C   UNL A   1      41.330  32.204  30.682  1.00  0.00     0.031 C 
ATOM     55  C   UNL A   1      46.623  31.249  27.855  1.00  0.00     0.029 A 
ATOM     56  C   UNL A   1      45.346  31.075  28.364  1.00  0.00     0.049 A 
ATOM     57  H   UNL A   1      44.092  29.381  28.247  1.00  0.00     0.167 HD
ATOM     58  C   UNL A   1      43.290  31.764  29.573  1.00  0.00     0.074 A 
ATOM     59  C   UNL A   1      42.491  32.723  30.310  1.00  0.00     0.031 C 
ATOM     60  C   UNL A   1      44.539  32.013  29.106  1.00  0.00     0.034 A 
BRANCH  47  61
ATOM     61  C   UNL A   1      47.099  27.242  26.070  1.00  0.00     0.023 A 
ATOM     62  C   UNL A   1      48.055  26.486  26.770  1.00  0.00     0.031 A 
ATOM     63  C   UNL A   1      47.326  27.485  24.703  1.00  0.00     0.131 A 
ATOM     64  C   UNL A   1      49.235  26.081  26.128  1.00  0.00     0.055 A 
ATOM     65  C   UNL A   1      48.461  27.002  24.049  1.00  0.00     0.041 A 
ATOM     66  F   UNL A   1      46.458  28.215  23.985  1.00  0.00    -0.206 F 
ATOM     67  C   UNL A   1      49.433  26.312  24.766  1.00  0.00     0.022 A 
BRANCH  64  68
ATOM     68  S   UNL A   1      50.571  25.389  27.140  1.00  0.00     0.124 S 
ATOM     69  O   UNL A   1      50.918  26.529  27.986  1.00  0.00    -0.237 OA
ATOM     70  O   UNL A   1      49.916  24.272  27.810  1.00  0.00    -0.237 OA
ATOM     71  O   UNL A   1      51.589  25.020  26.158  1.00  0.00    -0.744 OA
ENDBRANCH  64  68
ENDBRANCH  47  61
BRANCH  48  72
ATOM     72  C   UNL A   1      39.026  30.436  31.069  1.00  0.00     0.023 A 
ATOM     73  C   UNL A   1      38.032  31.252  30.507  1.00  0.00     0.031 A 
ATOM     74  C   UNL A   1      38.905  30.084  32.424  1.00  0.00     0.131 A 
ATOM     75  C   UNL A   1      36.981  31.726  31.307  1.00  0.00     0.055 A 
ATOM     76  C   UNL A   1      37.835  30.523  33.206  1.00  0.00     0.041 A 
ATOM     77  F   UNL A   1      39.823  29.296  33.005  1.00  0.00    -0.206 F 
ATOM     78  C   UNL A   1      36.871  31.359  32.650  1.00  0.00     0.022 A 
BRANCH  75  79
ATOM     79  S   UNL A   1      35.793  32.888  30.581  1.00  0.00     0.124 S 
ATOM     80  O   UNL A   1      36.200  34.150  31.187  1.00  0.00    -0.237 OA
ATOM     81  O   UNL A   1      36.063  32.744  29.154  1.00  0.00    -0.237 OA
ATOM     82  O   UNL A   1      34.499  32.372  31.023  1.00  0.00    -0.744 OA
ENDBRANCH  75  79
ENDBRANCH  48  72
BRANCH  60  83
ATOM     83  C   UNL A   1      45.092  33.395  29.344  1.00  0.00     0.023 A 
ATOM     84  C   UNL A   1      44.910  34.433  28.414  1.00  0.00     0.031 A 
ATOM     85  C   UNL A   1      45.820  33.670  30.515  1.00  0.00     0.131 A 
ATOM     86  C   UNL A   1      45.493  35.687  28.648  1.00  0.00     0.055 A 
ATOM     87  C   UNL A   1      46.354  34.935  30.765  1.00  0.00     0.041 A 
ATOM     88  F   UNL A   1      46.022  32.713  31.434  1.00  0.00    -0.206 F 
ATOM     89  C   UNL A   1      46.202  35.948  29.824  1.00  0.00     0.022 A 
BRANCH  86  90
ATOM     90  S   UNL A   1      45.378  36.955  27.355  1.00  0.00     0.124 S 
ATOM     91  O   UNL A   1      43.973  36.869  26.968  1.00  0.00    -0.237 OA
ATOM     92  O   UNL A   1      45.769  38.166  28.069  1.00  0.00    -0.237 OA
ATOM     93  O   UNL A   1      46.329  36.500  26.342  1.00  0.00    -0.744 OA
ENDBRANCH  86  90
ENDBRANCH  60  83
ENDBRANCH  34  35
ENDBRANCH  26  29
ENDBRANCH  24  25
ENDBRANCH   1  24
TORSDOF 17
ENDMDL
