MODEL 1
REMARK VINA RESULT:     -10.7      0.000      0.000
REMARK SMILES C[C@](NC(=O)NCCC[NH3+])(C(=O)NCCCCNC(=O)c1ccc(-c2c3nc(c(-c4cc(S(=O)(=O)[O-])ccc4F)c4ccc([nH]4)c(-c4cc(S(=O)(=O)[O-])ccc4F)c4nc(c(-c5cc(S(=O)(=O)[O-])ccc5F)c5ccc2[nH]5)C=C4)C=C3)cc1)C(F)(F)F
REMARK SMILES IDX 14 1 13 2 11 3 12 4 2 6 1 7 84 8 85 9 86 10 87 11 3 12 4 13
REMARK SMILES IDX 5 15 6 16 7 18 8 19 9 20 10 21 15 25 16 26 17 27 18 28 19 29
REMARK SMILES IDX 20 31 21 32 22 33 83 34 23 35 82 36 24 37 25 38 26 39 76 40
REMARK SMILES IDX 27 41 81 42 75 43 77 44 28 45 80 46 74 47 73 48 29 50 61 51
REMARK SMILES IDX 41 52 60 53 42 54 45 55 59 56 78 57 43 58 44 59 58 61 79 62
REMARK SMILES IDX 46 63 30 64 31 65 39 66 32 67 38 68 40 69 37 70 33 71 34 72
REMARK SMILES IDX 35 73 36 74 62 75 63 76 71 77 64 78 70 79 72 80 69 81 65 82
REMARK SMILES IDX 66 83 67 84 68 85 47 86 48 87 56 88 49 89 55 90 57 91 54 92
REMARK SMILES IDX 50 93 51 94 52 95 53 96
REMARK H PARENT 13 5 3 14 6 17 10 22 10 23 10 24 18 30 77 49 45 60
REMARK Flexibility Score: inf
ROOT
ATOM      1  C   UNL A   1      35.318  24.033  25.245  1.00  0.00     0.116 C 
ENDROOT
BRANCH   1   2
ATOM      2  N   UNL A   1      34.630  23.521  24.064  1.00  0.00    -0.354 N 
ATOM      3  C   UNL A   1      33.414  23.877  23.515  1.00  0.00     0.255 C 
ATOM      4  O   UNL A   1      33.204  23.510  22.357  1.00  0.00    -0.272 OA
ATOM      5  H   UNL A   1      35.111  22.810  23.582  1.00  0.00     0.163 HD
BRANCH   3   6
ATOM      6  C   UNL A   1      32.409  24.750  24.290  1.00  0.00     0.213 C 
ATOM      7  C   UNL A   1      32.909  26.221  24.186  1.00  0.00     0.056 C 
BRANCH   6   8
ATOM      8  C   UNL A   1      30.998  24.790  23.644  1.00  0.00     0.420 C 
ATOM      9  F   UNL A   1      30.000  25.208  24.444  1.00  0.00    -0.168 F 
ATOM     10  F   UNL A   1      31.011  25.673  22.600  1.00  0.00    -0.168 F 
ATOM     11  F   UNL A   1      30.629  23.602  23.111  1.00  0.00    -0.168 F 
ENDBRANCH   6   8
BRANCH   6  12
ATOM     12  N   UNL A   1      32.389  24.324  25.720  1.00  0.00    -0.316 N 
ATOM     13  C   UNL A   1      31.855  23.281  26.364  1.00  0.00     0.315 C 
ATOM     14  H   UNL A   1      32.870  24.942  26.317  1.00  0.00     0.166 HD
ATOM     15  O   UNL A   1      31.680  23.409  27.579  1.00  0.00    -0.249 OA
ATOM     16  N   UNL A   1      31.497  22.120  25.810  1.00  0.00    -0.338 N 
ATOM     17  H   UNL A   1      30.888  21.601  26.384  1.00  0.00     0.165 HD
BRANCH  16  18
ATOM     18  C   UNL A   1      31.797  21.440  24.556  1.00  0.00     0.123 C 
BRANCH  18  19
ATOM     19  C   UNL A   1      32.704  20.216  24.717  1.00  0.00     0.082 C 
BRANCH  19  20
ATOM     20  C   UNL A   1      33.009  19.772  26.151  1.00  0.00     0.260 C 
BRANCH  20  21
ATOM     21  N   UNL A   1      32.872  18.336  26.356  1.00  0.00    -0.358 N 
ATOM     22  H   UNL A   1      32.012  18.147  26.869  1.00  0.00     0.344 HD
ATOM     23  H   UNL A   1      33.669  17.991  26.889  1.00  0.00     0.344 HD
ATOM     24  H   UNL A   1      32.839  17.866  25.451  1.00  0.00     0.344 HD
ENDBRANCH  20  21
ENDBRANCH  19  20
ENDBRANCH  18  19
ENDBRANCH  16  18
ENDBRANCH   6  12
ENDBRANCH   3   6
ENDBRANCH   1   2
BRANCH   1  25
ATOM     25  C   UNL A   1      35.687  22.981  26.284  1.00  0.00     0.023 C 
BRANCH  25  26
ATOM     26  C   UNL A   1      36.087  21.608  25.748  1.00  0.00     0.023 C 
BRANCH  26  27
ATOM     27  C   UNL A   1      37.392  21.538  24.957  1.00  0.00     0.116 C 
BRANCH  27  28
ATOM     28  N   UNL A   1      38.308  20.508  25.424  1.00  0.00    -0.352 N 
ATOM     29  C   UNL A   1      39.479  20.627  26.141  1.00  0.00     0.251 C 
ATOM     30  H   UNL A   1      38.052  19.586  25.194  1.00  0.00     0.163 HD
ATOM     31  O   UNL A   1      40.158  19.624  26.350  1.00  0.00    -0.269 OA
BRANCH  29  32
ATOM     32  C   UNL A   1      39.941  21.951  26.621  1.00  0.00     0.039 A 
ATOM     33  C   UNL A   1      40.967  22.004  27.570  1.00  0.00     0.014 A 
ATOM     34  C   UNL A   1      39.382  23.138  26.139  1.00  0.00     0.014 A 
ATOM     35  C   UNL A   1      41.490  23.240  27.965  1.00  0.00     0.010 A 
ATOM     36  C   UNL A   1      39.958  24.364  26.473  1.00  0.00     0.010 A 
ATOM     37  C   UNL A   1      41.024  24.431  27.383  1.00  0.00    -0.014 A 
BRANCH  37  38
ATOM     38  C   UNL A   1      41.647  25.745  27.701  1.00  0.00     0.031 A 
ATOM     39  C   UNL A   1      40.868  26.794  28.449  1.00  0.00     0.074 A 
ATOM     40  C   UNL A   1      42.892  26.021  27.262  1.00  0.00     0.049 A 
ATOM     41  N   UNL A   1      41.204  28.025  28.741  1.00  0.00    -0.248 NA
ATOM     42  C   UNL A   1      39.521  26.416  28.901  1.00  0.00     0.031 C 
ATOM     43  C   UNL A   1      43.739  25.104  26.495  1.00  0.00     0.029 A 
ATOM     44  N   UNL A   1      43.662  27.153  27.385  1.00  0.00    -0.354 N 
ATOM     45  C   UNL A   1      40.109  28.572  29.404  1.00  0.00     0.074 A 
ATOM     46  C   UNL A   1      39.076  27.556  29.408  1.00  0.00     0.031 C 
ATOM     47  C   UNL A   1      44.913  25.701  26.236  1.00  0.00     0.029 A 
ATOM     48  C   UNL A   1      44.889  27.059  26.770  1.00  0.00     0.049 A 
ATOM     49  H   UNL A   1      43.362  27.957  27.867  1.00  0.00     0.167 HD
ATOM     50  C   UNL A   1      39.985  29.795  29.978  1.00  0.00     0.034 A 
ATOM     51  C   UNL A   1      45.878  27.967  26.632  1.00  0.00     0.034 A 
ATOM     52  C   UNL A   1      41.024  30.797  29.969  1.00  0.00     0.049 A 
ATOM     53  C   UNL A   1      45.702  29.336  27.243  1.00  0.00     0.074 A 
ATOM     54  C   UNL A   1      41.017  32.051  30.555  1.00  0.00     0.029 A 
ATOM     55  N   UNL A   1      42.253  30.665  29.333  1.00  0.00    -0.354 N 
ATOM     56  N   UNL A   1      44.676  29.819  27.906  1.00  0.00    -0.248 NA
ATOM     57  C   UNL A   1      46.821  30.275  27.097  1.00  0.00     0.031 C 
ATOM     58  C   UNL A   1      42.207  32.704  30.214  1.00  0.00     0.029 A 
ATOM     59  C   UNL A   1      42.996  31.827  29.487  1.00  0.00     0.049 A 
ATOM     60  H   UNL A   1      42.553  29.865  28.844  1.00  0.00     0.167 HD
ATOM     61  C   UNL A   1      45.043  31.108  28.283  1.00  0.00     0.074 A 
ATOM     62  C   UNL A   1      46.387  31.319  27.788  1.00  0.00     0.031 C 
ATOM     63  C   UNL A   1      44.333  32.032  28.980  1.00  0.00     0.034 A 
BRANCH  50  64
ATOM     64  C   UNL A   1      38.667  30.121  30.642  1.00  0.00     0.023 A 
ATOM     65  C   UNL A   1      37.648  30.812  29.961  1.00  0.00     0.031 A 
ATOM     66  C   UNL A   1      38.431  29.758  31.981  1.00  0.00     0.131 A 
ATOM     67  C   UNL A   1      36.480  31.187  30.640  1.00  0.00     0.055 A 
ATOM     68  C   UNL A   1      37.228  30.058  32.624  1.00  0.00     0.041 A 
ATOM     69  F   UNL A   1      39.372  29.116  32.690  1.00  0.00    -0.206 F 
ATOM     70  C   UNL A   1      36.250  30.790  31.959  1.00  0.00     0.022 A 
BRANCH  67  71
ATOM     71  S   UNL A   1      35.334  32.332  29.823  1.00  0.00     0.124 S 
ATOM     72  O   UNL A   1      34.386  32.615  30.897  1.00  0.00    -0.237 OA
ATOM     73  O   UNL A   1      36.210  33.431  29.436  1.00  0.00    -0.237 OA
ATOM     74  O   UNL A   1      34.793  31.544  28.717  1.00  0.00    -0.744 OA
ENDBRANCH  67  71
ENDBRANCH  50  64
BRANCH  51  75
ATOM     75  C   UNL A   1      47.116  27.629  25.869  1.00  0.00     0.023 A 
ATOM     76  C   UNL A   1      47.222  27.908  24.498  1.00  0.00     0.031 A 
ATOM     77  C   UNL A   1      48.194  26.975  26.493  1.00  0.00     0.131 A 
ATOM     78  C   UNL A   1      48.357  27.491  23.784  1.00  0.00     0.055 A 
ATOM     79  C   UNL A   1      49.345  26.614  25.791  1.00  0.00     0.041 A 
ATOM     80  F   UNL A   1      48.147  26.684  27.802  1.00  0.00    -0.206 F 
ATOM     81  C   UNL A   1      49.426  26.859  24.424  1.00  0.00     0.022 A 
BRANCH  78  82
ATOM     82  S   UNL A   1      48.375  27.699  21.981  1.00  0.00     0.124 S 
ATOM     83  O   UNL A   1      49.498  28.610  21.800  1.00  0.00    -0.237 OA
ATOM     84  O   UNL A   1      48.577  26.330  21.520  1.00  0.00    -0.237 OA
ATOM     85  O   UNL A   1      47.058  28.263  21.692  1.00  0.00    -0.744 OA
ENDBRANCH  78  82
ENDBRANCH  51  75
BRANCH  63  86
ATOM     86  C   UNL A   1      45.023  33.340  29.291  1.00  0.00     0.023 A 
ATOM     87  C   UNL A   1      44.894  34.466  28.459  1.00  0.00     0.031 A 
ATOM     88  C   UNL A   1      45.832  33.457  30.437  1.00  0.00     0.131 A 
ATOM     89  C   UNL A   1      45.606  35.639  28.753  1.00  0.00     0.055 A 
ATOM     90  C   UNL A   1      46.486  34.646  30.759  1.00  0.00     0.041 A 
ATOM     91  F   UNL A   1      45.997  32.413  31.266  1.00  0.00    -0.206 F 
ATOM     92  C   UNL A   1      46.386  35.742  29.908  1.00  0.00     0.022 A 
BRANCH  89  93
ATOM     93  S   UNL A   1      45.580  36.999  27.553  1.00  0.00     0.124 S 
ATOM     94  O   UNL A   1      45.825  38.158  28.404  1.00  0.00    -0.237 OA
ATOM     95  O   UNL A   1      46.662  36.635  26.645  1.00  0.00    -0.237 OA
ATOM     96  O   UNL A   1      44.237  36.924  26.978  1.00  0.00    -0.744 OA
ENDBRANCH  89  93
ENDBRANCH  63  86
ENDBRANCH  37  38
ENDBRANCH  29  32
ENDBRANCH  27  28
ENDBRANCH  26  27
ENDBRANCH  25  26
ENDBRANCH   1  25
TORSDOF 20
ENDMDL
MODEL 2
REMARK VINA RESULT:     -10.5      4.986      7.418
REMARK SMILES C[C@](NC(=O)NCCC[NH3+])(C(=O)NCCCCNC(=O)c1ccc(-c2c3nc(c(-c4cc(S(=O)(=O)[O-])ccc4F)c4ccc([nH]4)c(-c4cc(S(=O)(=O)[O-])ccc4F)c4nc(c(-c5cc(S(=O)(=O)[O-])ccc5F)c5ccc2[nH]5)C=C4)C=C3)cc1)C(F)(F)F
REMARK SMILES IDX 14 1 13 2 11 3 12 4 2 6 1 7 84 8 85 9 86 10 87 11 3 12 4 13
REMARK SMILES IDX 5 15 6 16 7 18 8 19 9 20 10 21 15 25 16 26 17 27 18 28 19 29
REMARK SMILES IDX 20 31 21 32 22 33 83 34 23 35 82 36 24 37 25 38 26 39 76 40
REMARK SMILES IDX 27 41 81 42 75 43 77 44 28 45 80 46 74 47 73 48 29 50 61 51
REMARK SMILES IDX 41 52 60 53 42 54 45 55 59 56 78 57 43 58 44 59 58 61 79 62
REMARK SMILES IDX 46 63 30 64 31 65 39 66 32 67 38 68 40 69 37 70 33 71 34 72
REMARK SMILES IDX 35 73 36 74 62 75 63 76 71 77 64 78 70 79 72 80 69 81 65 82
REMARK SMILES IDX 66 83 67 84 68 85 47 86 48 87 56 88 49 89 55 90 57 91 54 92
REMARK SMILES IDX 50 93 51 94 52 95 53 96
REMARK H PARENT 13 5 3 14 6 17 10 22 10 23 10 24 18 30 77 49 45 60
REMARK Flexibility Score: inf
ROOT
ATOM      1  C   UNL A   1      31.819  27.132  26.175  1.00  0.00     0.116 C 
ENDROOT
BRANCH   1   2
ATOM      2  N   UNL A   1      32.898  27.073  25.194  1.00  0.00    -0.354 N 
ATOM      3  C   UNL A   1      32.857  27.159  23.816  1.00  0.00     0.255 C 
ATOM      4  O   UNL A   1      33.928  27.383  23.246  1.00  0.00    -0.272 OA
ATOM      5  H   UNL A   1      33.798  26.953  25.575  1.00  0.00     0.163 HD
BRANCH   3   6
ATOM      6  C   UNL A   1      31.528  27.052  23.045  1.00  0.00     0.213 C 
ATOM      7  C   UNL A   1      30.617  26.073  23.842  1.00  0.00     0.056 C 
BRANCH   6   8
ATOM      8  C   UNL A   1      30.720  28.378  23.021  1.00  0.00     0.420 C 
ATOM      9  F   UNL A   1      30.463  28.885  21.802  1.00  0.00    -0.168 F 
ATOM     10  F   UNL A   1      29.492  28.160  23.582  1.00  0.00    -0.168 F 
ATOM     11  F   UNL A   1      31.290  29.355  23.762  1.00  0.00    -0.168 F 
ENDBRANCH   6   8
BRANCH   6  12
ATOM     12  N   UNL A   1      31.792  26.500  21.684  1.00  0.00    -0.316 N 
ATOM     13  C   UNL A   1      32.588  25.531  21.221  1.00  0.00     0.315 C 
ATOM     14  H   UNL A   1      31.270  26.943  20.976  1.00  0.00     0.166 HD
ATOM     15  O   UNL A   1      32.871  25.572  20.021  1.00  0.00    -0.249 OA
ATOM     16  N   UNL A   1      33.101  24.529  21.940  1.00  0.00    -0.338 N 
ATOM     17  H   UNL A   1      33.860  24.093  21.491  1.00  0.00     0.165 HD
BRANCH  16  18
ATOM     18  C   UNL A   1      32.798  23.930  23.234  1.00  0.00     0.123 C 
BRANCH  18  19
ATOM     19  C   UNL A   1      31.695  22.868  23.182  1.00  0.00     0.082 C 
BRANCH  19  20
ATOM     20  C   UNL A   1      32.129  21.445  22.816  1.00  0.00     0.260 C 
BRANCH  20  21
ATOM     21  N   UNL A   1      31.745  21.049  21.468  1.00  0.00    -0.358 N 
ATOM     22  H   UNL A   1      31.611  21.882  20.895  1.00  0.00     0.344 HD
ATOM     23  H   UNL A   1      30.876  20.518  21.504  1.00  0.00     0.344 HD
ATOM     24  H   UNL A   1      32.481  20.471  21.062  1.00  0.00     0.344 HD
ENDBRANCH  20  21
ENDBRANCH  19  20
ENDBRANCH  18  19
ENDBRANCH  16  18
ENDBRANCH   6  12
ENDBRANCH   3   6
ENDBRANCH   1   2
BRANCH   1  25
ATOM     25  C   UNL A   1      32.056  28.090  27.337  1.00  0.00     0.023 C 
BRANCH  25  26
ATOM     26  C   UNL A   1      31.631  29.541  27.118  1.00  0.00     0.023 C 
BRANCH  26  27
ATOM     27  C   UNL A   1      32.624  30.439  26.384  1.00  0.00     0.116 C 
BRANCH  27  28
ATOM     28  N   UNL A   1      32.575  31.833  26.802  1.00  0.00    -0.352 N 
ATOM     29  C   UNL A   1      33.462  32.556  27.569  1.00  0.00     0.251 C 
ATOM     30  H   UNL A   1      31.790  32.336  26.487  1.00  0.00     0.163 HD
ATOM     31  O   UNL A   1      33.177  33.708  27.888  1.00  0.00    -0.269 OA
BRANCH  29  32
ATOM     32  C   UNL A   1      34.725  31.945  28.045  1.00  0.00     0.039 A 
ATOM     33  C   UNL A   1      35.844  32.764  28.230  1.00  0.00     0.014 A 
ATOM     34  C   UNL A   1      34.816  30.577  28.319  1.00  0.00     0.014 A 
ATOM     35  C   UNL A   1      37.018  32.231  28.772  1.00  0.00     0.010 A 
ATOM     36  C   UNL A   1      35.959  30.065  28.933  1.00  0.00     0.010 A 
ATOM     37  C   UNL A   1      37.071  30.886  29.176  1.00  0.00    -0.014 A 
BRANCH  37  38
ATOM     38  C   UNL A   1      38.269  30.330  29.862  1.00  0.00     0.031 A 
ATOM     39  C   UNL A   1      38.628  30.781  31.252  1.00  0.00     0.074 A 
ATOM     40  C   UNL A   1      39.074  29.466  29.209  1.00  0.00     0.049 A 
ATOM     41  N   UNL A   1      39.675  30.480  31.978  1.00  0.00    -0.248 NA
ATOM     42  C   UNL A   1      37.698  31.718  31.900  1.00  0.00     0.031 C 
ATOM     43  C   UNL A   1      38.859  28.977  27.845  1.00  0.00     0.029 A 
ATOM     44  N   UNL A   1      40.241  28.851  29.598  1.00  0.00    -0.354 N 
ATOM     45  C   UNL A   1      39.535  31.196  33.164  1.00  0.00     0.074 A 
ATOM     46  C   UNL A   1      38.335  31.996  33.028  1.00  0.00     0.031 C 
ATOM     47  C   UNL A   1      39.845  28.127  27.521  1.00  0.00     0.029 A 
ATOM     48  C   UNL A   1      40.792  28.044  28.628  1.00  0.00     0.049 A 
ATOM     49  H   UNL A   1      40.644  28.976  30.486  1.00  0.00     0.167 HD
ATOM     50  C   UNL A   1      40.319  31.169  34.271  1.00  0.00     0.034 A 
ATOM     51  C   UNL A   1      41.939  27.333  28.621  1.00  0.00     0.034 A 
ATOM     52  C   UNL A   1      41.510  30.364  34.395  1.00  0.00     0.049 A 
ATOM     53  C   UNL A   1      42.816  27.351  29.849  1.00  0.00     0.074 A 
ATOM     54  C   UNL A   1      42.352  30.231  35.486  1.00  0.00     0.029 A 
ATOM     55  N   UNL A   1      42.038  29.561  33.390  1.00  0.00    -0.354 N 
ATOM     56  N   UNL A   1      42.643  27.998  30.979  1.00  0.00    -0.248 NA
ATOM     57  C   UNL A   1      44.034  26.532  29.804  1.00  0.00     0.031 C 
ATOM     58  C   UNL A   1      43.424  29.411  35.119  1.00  0.00     0.029 A 
ATOM     59  C   UNL A   1      43.209  28.959  33.827  1.00  0.00     0.049 A 
ATOM     60  H   UNL A   1      41.640  29.439  32.498  1.00  0.00     0.167 HD
ATOM     61  C   UNL A   1      43.716  27.637  31.789  1.00  0.00     0.074 A 
ATOM     62  C   UNL A   1      44.519  26.705  31.025  1.00  0.00     0.031 C 
ATOM     63  C   UNL A   1      44.009  28.038  33.053  1.00  0.00     0.034 A 
BRANCH  50  64
ATOM     64  C   UNL A   1      39.918  32.057  35.428  1.00  0.00     0.023 A 
ATOM     65  C   UNL A   1      39.106  31.583  36.474  1.00  0.00     0.031 A 
ATOM     66  C   UNL A   1      40.332  33.400  35.476  1.00  0.00     0.131 A 
ATOM     67  C   UNL A   1      38.669  32.461  37.476  1.00  0.00     0.055 A 
ATOM     68  C   UNL A   1      39.966  34.246  36.525  1.00  0.00     0.041 A 
ATOM     69  F   UNL A   1      41.091  33.917  34.497  1.00  0.00    -0.206 F 
ATOM     70  C   UNL A   1      39.117  33.783  37.525  1.00  0.00     0.022 A 
BRANCH  67  71
ATOM     71  S   UNL A   1      37.387  31.892  38.627  1.00  0.00     0.124 S 
ATOM     72  O   UNL A   1      36.312  32.845  38.362  1.00  0.00    -0.237 OA
ATOM     73  O   UNL A   1      37.152  30.523  38.184  1.00  0.00    -0.237 OA
ATOM     74  O   UNL A   1      38.019  32.026  39.938  1.00  0.00    -0.744 OA
ENDBRANCH  67  71
ENDBRANCH  50  64
BRANCH  51  75
ATOM     75  C   UNL A   1      42.342  26.560  27.410  1.00  0.00     0.023 A 
ATOM     76  C   UNL A   1      42.051  25.192  27.292  1.00  0.00     0.031 A 
ATOM     77  C   UNL A   1      43.069  27.170  26.372  1.00  0.00     0.131 A 
ATOM     78  C   UNL A   1      42.529  24.467  26.188  1.00  0.00     0.055 A 
ATOM     79  C   UNL A   1      43.491  26.458  25.247  1.00  0.00     0.041 A 
ATOM     80  F   UNL A   1      43.375  28.476  26.431  1.00  0.00    -0.206 F 
ATOM     81  C   UNL A   1      43.233  25.093  25.157  1.00  0.00     0.022 A 
BRANCH  78  82
ATOM     82  S   UNL A   1      42.298  22.667  26.164  1.00  0.00     0.124 S 
ATOM     83  O   UNL A   1      42.841  22.316  24.858  1.00  0.00    -0.237 OA
ATOM     84  O   UNL A   1      43.082  22.247  27.321  1.00  0.00    -0.237 OA
ATOM     85  O   UNL A   1      40.852  22.509  26.303  1.00  0.00    -0.744 OA
ENDBRANCH  78  82
ENDBRANCH  51  75
BRANCH  63  86
ATOM     86  C   UNL A   1      45.226  27.424  33.706  1.00  0.00     0.023 A 
ATOM     87  C   UNL A   1      46.495  28.025  33.627  1.00  0.00     0.031 A 
ATOM     88  C   UNL A   1      45.113  26.212  34.412  1.00  0.00     0.131 A 
ATOM     89  C   UNL A   1      47.608  27.385  34.193  1.00  0.00     0.055 A 
ATOM     90  C   UNL A   1      46.212  25.614  35.029  1.00  0.00     0.041 A 
ATOM     91  F   UNL A   1      43.927  25.591  34.517  1.00  0.00    -0.206 F 
ATOM     92  C   UNL A   1      47.471  26.193  34.910  1.00  0.00     0.022 A 
BRANCH  89  93
ATOM     93  S   UNL A   1      49.257  28.080  33.897  1.00  0.00     0.124 S 
ATOM     94  O   UNL A   1      49.169  28.483  32.497  1.00  0.00    -0.237 OA
ATOM     95  O   UNL A   1      49.318  29.166  34.869  1.00  0.00    -0.237 OA
ATOM     96  O   UNL A   1      50.156  26.958  34.164  1.00  0.00    -0.744 OA
ENDBRANCH  89  93
ENDBRANCH  63  86
ENDBRANCH  37  38
ENDBRANCH  29  32
ENDBRANCH  27  28
ENDBRANCH  26  27
ENDBRANCH  25  26
ENDBRANCH   1  25
TORSDOF 20
ENDMDL
MODEL 3
REMARK VINA RESULT:     -10.5      2.465      7.908
REMARK SMILES C[C@](NC(=O)NCCC[NH3+])(C(=O)NCCCCNC(=O)c1ccc(-c2c3nc(c(-c4cc(S(=O)(=O)[O-])ccc4F)c4ccc([nH]4)c(-c4cc(S(=O)(=O)[O-])ccc4F)c4nc(c(-c5cc(S(=O)(=O)[O-])ccc5F)c5ccc2[nH]5)C=C4)C=C3)cc1)C(F)(F)F
REMARK SMILES IDX 14 1 13 2 11 3 12 4 2 6 1 7 84 8 85 9 86 10 87 11 3 12 4 13
REMARK SMILES IDX 5 15 6 16 7 18 8 19 9 20 10 21 15 25 16 26 17 27 18 28 19 29
REMARK SMILES IDX 20 31 21 32 22 33 83 34 23 35 82 36 24 37 25 38 26 39 76 40
REMARK SMILES IDX 27 41 81 42 75 43 77 44 28 45 80 46 74 47 73 48 29 50 61 51
REMARK SMILES IDX 41 52 60 53 42 54 45 55 59 56 78 57 43 58 44 59 58 61 79 62
REMARK SMILES IDX 46 63 30 64 31 65 39 66 32 67 38 68 40 69 37 70 33 71 34 72
REMARK SMILES IDX 35 73 36 74 62 75 63 76 71 77 64 78 70 79 72 80 69 81 65 82
REMARK SMILES IDX 66 83 67 84 68 85 47 86 48 87 56 88 49 89 55 90 57 91 54 92
REMARK SMILES IDX 50 93 51 94 52 95 53 96
REMARK H PARENT 13 5 3 14 6 17 10 22 10 23 10 24 18 30 77 49 45 60
REMARK Flexibility Score: inf
ROOT
ATOM      1  C   UNL A   1      35.380  23.794  23.680  1.00  0.00     0.116 C 
ENDROOT
BRANCH   1   2
ATOM      2  N   UNL A   1      33.991  23.480  23.365  1.00  0.00    -0.354 N 
ATOM      3  C   UNL A   1      32.828  23.799  24.039  1.00  0.00     0.255 C 
ATOM      4  O   UNL A   1      31.775  23.679  23.410  1.00  0.00    -0.272 OA
ATOM      5  H   UNL A   1      33.861  22.959  22.539  1.00  0.00     0.163 HD
BRANCH   3   6
ATOM      6  C   UNL A   1      32.861  24.347  25.479  1.00  0.00     0.213 C 
ATOM      7  C   UNL A   1      34.170  23.818  26.137  1.00  0.00     0.056 C 
BRANCH   6   8
ATOM      8  C   UNL A   1      33.007  25.891  25.549  1.00  0.00     0.420 C 
ATOM      9  F   UNL A   1      34.239  26.374  25.307  1.00  0.00    -0.168 F 
ATOM     10  F   UNL A   1      32.208  26.457  24.595  1.00  0.00    -0.168 F 
ATOM     11  F   UNL A   1      32.587  26.406  26.728  1.00  0.00    -0.168 F 
ENDBRANCH   6   8
BRANCH   6  12
ATOM     12  N   UNL A   1      31.678  23.832  26.228  1.00  0.00    -0.316 N 
ATOM     13  C   UNL A   1      31.026  22.665  26.233  1.00  0.00     0.315 C 
ATOM     14  H   UNL A   1      31.293  24.492  26.849  1.00  0.00     0.166 HD
ATOM     15  O   UNL A   1      29.871  22.676  26.665  1.00  0.00    -0.249 OA
ATOM     16  N   UNL A   1      31.515  21.494  25.814  1.00  0.00    -0.338 N 
ATOM     17  H   UNL A   1      30.810  20.829  25.647  1.00  0.00     0.165 HD
BRANCH  16  18
ATOM     18  C   UNL A   1      32.849  20.971  25.547  1.00  0.00     0.123 C 
BRANCH  18  19
ATOM     19  C   UNL A   1      32.873  19.823  24.533  1.00  0.00     0.082 C 
BRANCH  19  20
ATOM     20  C   UNL A   1      32.645  18.413  25.087  1.00  0.00     0.260 C 
BRANCH  20  21
ATOM     21  N   UNL A   1      32.748  18.335  26.537  1.00  0.00    -0.358 N 
ATOM     22  H   UNL A   1      33.331  19.100  26.878  1.00  0.00     0.344 HD
ATOM     23  H   UNL A   1      33.166  17.445  26.801  1.00  0.00     0.344 HD
ATOM     24  H   UNL A   1      31.817  18.409  26.948  1.00  0.00     0.344 HD
ENDBRANCH  20  21
ENDBRANCH  19  20
ENDBRANCH  18  19
ENDBRANCH  16  18
ENDBRANCH   6  12
ENDBRANCH   3   6
ENDBRANCH   1   2
BRANCH   1  25
ATOM     25  C   UNL A   1      36.387  22.712  23.306  1.00  0.00     0.023 C 
BRANCH  25  26
ATOM     26  C   UNL A   1      36.766  21.726  24.410  1.00  0.00     0.023 C 
BRANCH  26  27
ATOM     27  C   UNL A   1      37.631  22.272  25.544  1.00  0.00     0.116 C 
BRANCH  27  28
ATOM     28  N   UNL A   1      38.844  21.503  25.781  1.00  0.00    -0.352 N 
ATOM     29  C   UNL A   1      40.048  21.897  26.322  1.00  0.00     0.251 C 
ATOM     30  H   UNL A   1      38.796  20.556  25.515  1.00  0.00     0.163 HD
ATOM     31  O   UNL A   1      40.985  21.102  26.342  1.00  0.00    -0.269 OA
BRANCH  29  32
ATOM     32  C   UNL A   1      40.232  23.275  26.836  1.00  0.00     0.039 A 
ATOM     33  C   UNL A   1      40.864  23.455  28.071  1.00  0.00     0.014 A 
ATOM     34  C   UNL A   1      39.796  24.388  26.112  1.00  0.00     0.014 A 
ATOM     35  C   UNL A   1      41.139  24.747  28.532  1.00  0.00     0.010 A 
ATOM     36  C   UNL A   1      40.142  25.671  26.535  1.00  0.00     0.010 A 
ATOM     37  C   UNL A   1      40.825  25.868  27.745  1.00  0.00    -0.014 A 
BRANCH  37  38
ATOM     38  C   UNL A   1      41.214  27.243  28.163  1.00  0.00     0.031 A 
ATOM     39  C   UNL A   1      42.665  27.640  28.213  1.00  0.00     0.074 A 
ATOM     40  C   UNL A   1      40.266  28.116  28.561  1.00  0.00     0.049 A 
ATOM     41  N   UNL A   1      43.206  28.756  28.632  1.00  0.00    -0.248 NA
ATOM     42  C   UNL A   1      43.639  26.637  27.756  1.00  0.00     0.031 C 
ATOM     43  C   UNL A   1      38.827  27.842  28.596  1.00  0.00     0.029 A 
ATOM     44  N   UNL A   1      40.366  29.406  29.024  1.00  0.00    -0.354 N 
ATOM     45  C   UNL A   1      44.581  28.587  28.499  1.00  0.00     0.074 A 
ATOM     46  C   UNL A   1      44.790  27.235  28.022  1.00  0.00     0.031 C 
ATOM     47  C   UNL A   1      38.181  28.934  29.033  1.00  0.00     0.029 A 
ATOM     48  C   UNL A   1      39.156  29.970  29.360  1.00  0.00     0.049 A 
ATOM     49  H   UNL A   1      41.223  29.883  29.107  1.00  0.00     0.167 HD
ATOM     50  C   UNL A   1      45.575  29.483  28.727  1.00  0.00     0.034 A 
ATOM     51  C   UNL A   1      38.863  31.176  29.890  1.00  0.00     0.034 A 
ATOM     52  C   UNL A   1      45.352  30.829  29.199  1.00  0.00     0.049 A 
ATOM     53  C   UNL A   1      39.988  32.141  30.174  1.00  0.00     0.074 A 
ATOM     54  C   UNL A   1      46.283  31.829  29.423  1.00  0.00     0.029 A 
ATOM     55  N   UNL A   1      44.112  31.362  29.531  1.00  0.00    -0.354 N 
ATOM     56  N   UNL A   1      41.279  31.980  29.998  1.00  0.00    -0.248 NA
ATOM     57  C   UNL A   1      39.613  33.453  30.716  1.00  0.00     0.031 C 
ATOM     58  C   UNL A   1      45.619  32.938  29.958  1.00  0.00     0.029 A 
ATOM     59  C   UNL A   1      44.260  32.664  29.987  1.00  0.00     0.049 A 
ATOM     60  H   UNL A   1      43.254  30.886  29.454  1.00  0.00     0.167 HD
ATOM     61  C   UNL A   1      41.866  33.184  30.378  1.00  0.00     0.074 A 
ATOM     62  C   UNL A   1      40.787  34.064  30.776  1.00  0.00     0.031 C 
ATOM     63  C   UNL A   1      43.179  33.532  30.392  1.00  0.00     0.034 A 
BRANCH  50  64
ATOM     64  C   UNL A   1      46.994  29.022  28.489  1.00  0.00     0.023 A 
ATOM     65  C   UNL A   1      47.516  28.880  27.190  1.00  0.00     0.031 A 
ATOM     66  C   UNL A   1      47.832  28.696  29.571  1.00  0.00     0.131 A 
ATOM     67  C   UNL A   1      48.801  28.352  27.003  1.00  0.00     0.055 A 
ATOM     68  C   UNL A   1      49.144  28.255  29.379  1.00  0.00     0.041 A 
ATOM     69  F   UNL A   1      47.387  28.790  30.833  1.00  0.00    -0.206 F 
ATOM     70  C   UNL A   1      49.631  28.065  28.090  1.00  0.00     0.022 A 
BRANCH  67  71
ATOM     71  S   UNL A   1      49.316  27.903  25.323  1.00  0.00     0.124 S 
ATOM     72  O   UNL A   1      50.398  28.855  25.083  1.00  0.00    -0.237 OA
ATOM     73  O   UNL A   1      49.714  26.509  25.477  1.00  0.00    -0.237 OA
ATOM     74  O   UNL A   1      48.113  28.125  24.525  1.00  0.00    -0.744 OA
ENDBRANCH  67  71
ENDBRANCH  50  64
BRANCH  51  75
ATOM     75  C   UNL A   1      37.451  31.539  30.209  1.00  0.00     0.023 A 
ATOM     76  C   UNL A   1      36.590  32.042  29.220  1.00  0.00     0.031 A 
ATOM     77  C   UNL A   1      36.956  31.434  31.521  1.00  0.00     0.131 A 
ATOM     78  C   UNL A   1      35.297  32.468  29.568  1.00  0.00     0.055 A 
ATOM     79  C   UNL A   1      35.651  31.804  31.851  1.00  0.00     0.041 A 
ATOM     80  F   UNL A   1      37.735  30.959  32.505  1.00  0.00    -0.206 F 
ATOM     81  C   UNL A   1      34.816  32.339  30.873  1.00  0.00     0.022 A 
BRANCH  78  82
ATOM     82  S   UNL A   1      34.284  33.287  28.305  1.00  0.00     0.124 S 
ATOM     83  O   UNL A   1      35.299  33.935  27.485  1.00  0.00    -0.237 OA
ATOM     84  O   UNL A   1      33.589  32.158  27.697  1.00  0.00    -0.237 OA
ATOM     85  O   UNL A   1      33.438  34.191  29.083  1.00  0.00    -0.744 OA
ENDBRANCH  78  82
ENDBRANCH  51  75
BRANCH  63  86
ATOM     86  C   UNL A   1      43.512  34.946  30.806  1.00  0.00     0.023 A 
ATOM     87  C   UNL A   1      43.630  35.317  32.158  1.00  0.00     0.031 A 
ATOM     88  C   UNL A   1      43.707  35.940  29.830  1.00  0.00     0.131 A 
ATOM     89  C   UNL A   1      43.877  36.656  32.497  1.00  0.00     0.055 A 
ATOM     90  C   UNL A   1      44.016  37.257  30.172  1.00  0.00     0.041 A 
ATOM     91  F   UNL A   1      43.602  35.645  28.524  1.00  0.00    -0.206 F 
ATOM     92  C   UNL A   1      44.090  37.625  31.511  1.00  0.00     0.022 A 
BRANCH  89  93
ATOM     93  S   UNL A   1      43.818  37.139  34.244  1.00  0.00     0.124 S 
ATOM     94  O   UNL A   1      45.096  37.822  34.413  1.00  0.00    -0.237 OA
ATOM     95  O   UNL A   1      42.631  37.987  34.294  1.00  0.00    -0.237 OA
ATOM     96  O   UNL A   1      43.698  35.864  34.949  1.00  0.00    -0.744 OA
ENDBRANCH  89  93
ENDBRANCH  63  86
ENDBRANCH  37  38
ENDBRANCH  29  32
ENDBRANCH  27  28
ENDBRANCH  26  27
ENDBRANCH  25  26
ENDBRANCH   1  25
TORSDOF 20
ENDMDL
