MODEL 1
REMARK VINA RESULT:     -12.6      0.000      0.000
REMARK SMILES O=C(NCCCCNC(=O)[C@H](c1ccccc1)C(c1ccccc1)c1ccccc1)c1ccc(-c2c3nc(c(-c4cc(S(=O)(=O)[O-])ccc4F)c4ccc([nH]4)c(-c4cc(S(=O)(=O)[O-])ccc4F)c4nc(c(-c5cc(S(=O)(=O)[O-])ccc5F)c5ccc2[nH]5)C=C4)C=C3)cc1
REMARK SMILES IDX 5 1 4 2 3 3 1 4 2 5 31 7 32 8 93 9 33 10 92 11 34 12 35 13
REMARK SMILES IDX 36 14 86 15 37 16 91 17 85 18 87 19 38 20 90 21 84 22 83 23
REMARK SMILES IDX 39 25 71 26 51 27 70 28 52 29 55 30 69 31 88 32 53 33 54 34
REMARK SMILES IDX 68 36 89 37 56 38 40 39 41 40 49 41 42 42 48 43 50 44 47 45
REMARK SMILES IDX 43 46 44 47 45 48 46 49 72 50 73 51 81 52 74 53 80 54 82 55
REMARK SMILES IDX 79 56 75 57 76 58 77 59 78 60 57 61 58 62 66 63 59 64 65 65
REMARK SMILES IDX 67 66 64 67 60 68 61 69 62 70 63 71 6 72 7 73 8 74 9 75
REMARK SMILES IDX 10 77 11 78 18 79 19 80 20 81 24 82 21 83 23 84 22 85 25 86
REMARK SMILES IDX 26 87 30 88 27 89 29 90 28 91 12 92 13 93 17 94 14 95 16 96
REMARK SMILES IDX 15 97
REMARK H PARENT 3 6 87 24 55 35 8 76
REMARK Flexibility Score: inf
ROOT
ATOM      1  C   UNL A   1      31.489  28.848  26.911  1.00  0.00     0.023 C 
ENDROOT
BRANCH   1   2
ATOM      2  C   UNL A   1      32.499  29.813  26.288  1.00  0.00     0.116 C 
BRANCH   2   3
ATOM      3  N   UNL A   1      32.308  31.208  26.653  1.00  0.00    -0.352 N 
ATOM      4  O   UNL A   1      32.790  33.222  27.540  1.00  0.00    -0.269 OA
ATOM      5  C   UNL A   1      33.142  32.066  27.334  1.00  0.00     0.251 C 
ATOM      6  H   UNL A   1      31.449  31.598  26.370  1.00  0.00     0.163 HD
BRANCH   5   7
ATOM      7  C   UNL A   1      34.445  31.588  27.854  1.00  0.00     0.039 A 
ATOM      8  C   UNL A   1      34.645  30.250  28.205  1.00  0.00     0.014 A 
ATOM      9  C   UNL A   1      35.484  32.512  27.998  1.00  0.00     0.014 A 
ATOM     10  C   UNL A   1      35.831  29.867  28.835  1.00  0.00     0.010 A 
ATOM     11  C   UNL A   1      36.693  32.114  28.580  1.00  0.00     0.010 A 
ATOM     12  C   UNL A   1      36.859  30.799  29.045  1.00  0.00    -0.014 A 
BRANCH  12  13
ATOM     13  C   UNL A   1      38.097  30.415  29.773  1.00  0.00     0.031 A 
ATOM     14  C   UNL A   1      39.053  29.421  29.168  1.00  0.00     0.074 A 
ATOM     15  C   UNL A   1      38.351  30.936  30.987  1.00  0.00     0.049 A 
ATOM     16  N   UNL A   1      40.130  28.883  29.683  1.00  0.00    -0.248 NA
ATOM     17  C   UNL A   1      38.743  28.962  27.807  1.00  0.00     0.031 C 
ATOM     18  C   UNL A   1      37.505  31.911  31.676  1.00  0.00     0.029 A 
ATOM     19  N   UNL A   1      39.379  30.703  31.866  1.00  0.00    -0.354 N 
ATOM     20  C   UNL A   1      40.618  28.007  28.719  1.00  0.00     0.074 A 
ATOM     21  C   UNL A   1      39.694  28.062  27.604  1.00  0.00     0.031 C 
ATOM     22  C   UNL A   1      38.040  32.183  32.876  1.00  0.00     0.029 A 
ATOM     23  C   UNL A   1      39.236  31.364  33.062  1.00  0.00     0.049 A 
ATOM     24  H   UNL A   1      40.145  30.120  31.660  1.00  0.00     0.167 HD
ATOM     25  C   UNL A   1      41.735  27.236  28.757  1.00  0.00     0.034 A 
ATOM     26  C   UNL A   1      39.955  31.289  34.199  1.00  0.00     0.034 A 
ATOM     27  C   UNL A   1      42.643  27.194  29.880  1.00  0.00     0.049 A 
ATOM     28  C   UNL A   1      41.157  30.387  34.251  1.00  0.00     0.074 A 
ATOM     29  C   UNL A   1      43.828  26.488  30.009  1.00  0.00     0.029 A 
ATOM     30  N   UNL A   1      42.456  27.870  31.081  1.00  0.00    -0.354 N 
ATOM     31  N   UNL A   1      41.623  29.584  33.323  1.00  0.00    -0.248 NA
ATOM     32  C   UNL A   1      41.935  30.386  35.496  1.00  0.00     0.031 C 
ATOM     33  C   UNL A   1      44.318  26.682  31.306  1.00  0.00     0.029 A 
ATOM     34  C   UNL A   1      43.481  27.569  31.965  1.00  0.00     0.049 A 
ATOM     35  H   UNL A   1      41.704  28.476  31.275  1.00  0.00     0.167 HD
ATOM     36  C   UNL A   1      42.763  28.997  33.865  1.00  0.00     0.074 A 
ATOM     37  C   UNL A   1      42.913  29.541  35.201  1.00  0.00     0.031 C 
ATOM     38  C   UNL A   1      43.614  28.104  33.301  1.00  0.00     0.034 A 
BRANCH  25  39
ATOM     39  C   UNL A   1      41.999  26.338  27.569  1.00  0.00     0.023 A 
ATOM     40  C   UNL A   1      41.585  24.994  27.548  1.00  0.00     0.031 A 
ATOM     41  C   UNL A   1      42.718  26.820  26.460  1.00  0.00     0.131 A 
ATOM     42  C   UNL A   1      41.974  24.157  26.490  1.00  0.00     0.055 A 
ATOM     43  C   UNL A   1      43.026  26.004  25.370  1.00  0.00     0.041 A 
ATOM     44  F   UNL A   1      43.156  28.088  26.428  1.00  0.00    -0.206 F 
ATOM     45  C   UNL A   1      42.672  24.658  25.389  1.00  0.00     0.022 A 
BRANCH  42  46
ATOM     46  S   UNL A   1      41.711  22.370  26.660  1.00  0.00     0.124 S 
ATOM     47  O   UNL A   1      42.269  21.865  25.406  1.00  0.00    -0.237 OA
ATOM     48  O   UNL A   1      42.465  22.054  27.867  1.00  0.00    -0.237 OA
ATOM     49  O   UNL A   1      40.260  22.246  26.778  1.00  0.00    -0.744 OA
ENDBRANCH  42  46
ENDBRANCH  25  39
BRANCH  26  50
ATOM     50  C   UNL A   1      39.508  32.055  35.395  1.00  0.00     0.023 A 
ATOM     51  C   UNL A   1      39.937  33.370  35.623  1.00  0.00     0.031 A 
ATOM     52  C   UNL A   1      38.610  31.479  36.312  1.00  0.00     0.131 A 
ATOM     53  C   UNL A   1      39.476  34.064  36.754  1.00  0.00     0.055 A 
ATOM     54  C   UNL A   1      38.124  32.187  37.411  1.00  0.00     0.041 A 
ATOM     55  F   UNL A   1      38.163  30.226  36.127  1.00  0.00    -0.206 F 
ATOM     56  C   UNL A   1      38.561  33.487  37.639  1.00  0.00     0.022 A 
BRANCH  53  57
ATOM     57  S   UNL A   1      40.108  35.735  37.066  1.00  0.00     0.124 S 
ATOM     58  O   UNL A   1      39.653  36.452  35.880  1.00  0.00    -0.237 OA
ATOM     59  O   UNL A   1      39.446  36.082  38.319  1.00  0.00    -0.237 OA
ATOM     60  O   UNL A   1      41.553  35.541  37.161  1.00  0.00    -0.744 OA
ENDBRANCH  53  57
ENDBRANCH  26  50
BRANCH  38  61
ATOM     61  C   UNL A   1      44.815  27.690  34.112  1.00  0.00     0.023 A 
ATOM     62  C   UNL A   1      44.811  26.536  34.914  1.00  0.00     0.031 A 
ATOM     63  C   UNL A   1      45.992  28.460  34.061  1.00  0.00     0.131 A 
ATOM     64  C   UNL A   1      45.953  26.202  35.660  1.00  0.00     0.055 A 
ATOM     65  C   UNL A   1      47.138  28.098  34.769  1.00  0.00     0.041 A 
ATOM     66  F   UNL A   1      46.046  29.572  33.312  1.00  0.00    -0.206 F 
ATOM     67  C   UNL A   1      47.120  26.967  35.579  1.00  0.00     0.022 A 
BRANCH  64  68
ATOM     68  S   UNL A   1      45.883  24.775  36.778  1.00  0.00     0.124 S 
ATOM     69  O   UNL A   1      46.188  25.387  38.067  1.00  0.00    -0.237 OA
ATOM     70  O   UNL A   1      44.514  24.304  36.603  1.00  0.00    -0.237 OA
ATOM     71  O   UNL A   1      46.916  23.880  36.257  1.00  0.00    -0.744 OA
ENDBRANCH  64  68
ENDBRANCH  38  61
ENDBRANCH  12  13
ENDBRANCH   5   7
ENDBRANCH   2   3
ENDBRANCH   1   2
BRANCH   1  72
ATOM     72  C   UNL A   1      31.821  27.354  26.892  1.00  0.00     0.023 C 
BRANCH  72  73
ATOM     73  C   UNL A   1      30.786  26.429  26.266  1.00  0.00     0.116 C 
BRANCH  73  74
ATOM     74  N   UNL A   1      30.744  25.072  26.771  1.00  0.00    -0.356 N 
ATOM     75  C   UNL A   1      31.580  24.035  26.420  1.00  0.00     0.228 C 
ATOM     76  H   UNL A   1      30.045  24.870  27.433  1.00  0.00     0.163 HD
ATOM     77  O   UNL A   1      31.753  23.143  27.255  1.00  0.00    -0.274 OA
BRANCH  75  78
ATOM     78  C   UNL A   1      32.226  23.977  25.013  1.00  0.00     0.120 C 
BRANCH  78  79
ATOM     79  C   UNL A   1      33.602  24.747  24.947  1.00  0.00     0.066 C 
BRANCH  79  80
ATOM     80  C   UNL A   1      34.882  23.888  24.765  1.00  0.00    -0.039 A 
ATOM     81  C   UNL A   1      35.672  23.614  25.901  1.00  0.00     0.004 A 
ATOM     82  C   UNL A   1      35.340  23.406  23.529  1.00  0.00     0.004 A 
ATOM     83  C   UNL A   1      36.878  22.918  25.798  1.00  0.00     0.000 A 
ATOM     84  C   UNL A   1      36.527  22.671  23.433  1.00  0.00     0.000 A 
ATOM     85  C   UNL A   1      37.302  22.440  24.564  1.00  0.00     0.000 A 
ENDBRANCH  79  80
BRANCH  79  86
ATOM     86  C   UNL A   1      33.598  25.875  23.901  1.00  0.00    -0.039 A 
ATOM     87  C   UNL A   1      34.026  27.165  24.261  1.00  0.00     0.004 A 
ATOM     88  C   UNL A   1      33.199  25.647  22.569  1.00  0.00     0.004 A 
ATOM     89  C   UNL A   1      34.049  28.194  23.318  1.00  0.00     0.000 A 
ATOM     90  C   UNL A   1      33.233  26.676  21.627  1.00  0.00     0.000 A 
ATOM     91  C   UNL A   1      33.657  27.949  22.002  1.00  0.00     0.000 A 
ENDBRANCH  79  86
ENDBRANCH  78  79
BRANCH  78  92
ATOM     92  C   UNL A   1      32.308  22.493  24.582  1.00  0.00    -0.035 A 
ATOM     93  C   UNL A   1      32.698  21.467  25.461  1.00  0.00     0.004 A 
ATOM     94  C   UNL A   1      32.005  22.143  23.254  1.00  0.00     0.004 A 
ATOM     95  C   UNL A   1      32.856  20.154  25.011  1.00  0.00     0.000 A 
ATOM     96  C   UNL A   1      32.154  20.826  22.808  1.00  0.00     0.000 A 
ATOM     97  C   UNL A   1      32.594  19.835  23.682  1.00  0.00     0.000 A 
ENDBRANCH  78  92
ENDBRANCH  75  78
ENDBRANCH  73  74
ENDBRANCH  72  73
ENDBRANCH   1  72
TORSDOF 18
ENDMDL
MODEL 2
REMARK VINA RESULT:     -12.4      5.004      9.958
REMARK SMILES O=C(NCCCCNC(=O)[C@H](c1ccccc1)C(c1ccccc1)c1ccccc1)c1ccc(-c2c3nc(c(-c4cc(S(=O)(=O)[O-])ccc4F)c4ccc([nH]4)c(-c4cc(S(=O)(=O)[O-])ccc4F)c4nc(c(-c5cc(S(=O)(=O)[O-])ccc5F)c5ccc2[nH]5)C=C4)C=C3)cc1
REMARK SMILES IDX 5 1 4 2 3 3 1 4 2 5 31 7 32 8 93 9 33 10 92 11 34 12 35 13
REMARK SMILES IDX 36 14 86 15 37 16 91 17 85 18 87 19 38 20 90 21 84 22 83 23
REMARK SMILES IDX 39 25 71 26 51 27 70 28 52 29 55 30 69 31 88 32 53 33 54 34
REMARK SMILES IDX 68 36 89 37 56 38 40 39 41 40 49 41 42 42 48 43 50 44 47 45
REMARK SMILES IDX 43 46 44 47 45 48 46 49 72 50 73 51 81 52 74 53 80 54 82 55
REMARK SMILES IDX 79 56 75 57 76 58 77 59 78 60 57 61 58 62 66 63 59 64 65 65
REMARK SMILES IDX 67 66 64 67 60 68 61 69 62 70 63 71 6 72 7 73 8 74 9 75
REMARK SMILES IDX 10 77 11 78 18 79 19 80 20 81 24 82 21 83 23 84 22 85 25 86
REMARK SMILES IDX 26 87 30 88 27 89 29 90 28 91 12 92 13 93 17 94 14 95 16 96
REMARK SMILES IDX 15 97
REMARK H PARENT 3 6 87 24 55 35 8 76
REMARK Flexibility Score: inf
ROOT
ATOM      1  C   UNL A   1      35.342  21.708  24.250  1.00  0.00     0.023 C 
ENDROOT
BRANCH   1   2
ATOM      2  C   UNL A   1      36.430  21.915  25.304  1.00  0.00     0.116 C 
BRANCH   2   3
ATOM      3  N   UNL A   1      37.441  20.870  25.344  1.00  0.00    -0.352 N 
ATOM      4  O   UNL A   1      39.436  19.905  25.751  1.00  0.00    -0.269 OA
ATOM      5  C   UNL A   1      38.738  20.912  25.805  1.00  0.00     0.251 C 
ATOM      6  H   UNL A   1      37.153  19.999  24.986  1.00  0.00     0.163 HD
BRANCH   5   7
ATOM      7  C   UNL A   1      39.307  22.177  26.325  1.00  0.00     0.039 A 
ATOM      8  C   UNL A   1      38.762  23.418  25.986  1.00  0.00     0.014 A 
ATOM      9  C   UNL A   1      40.421  22.109  27.168  1.00  0.00     0.014 A 
ATOM     10  C   UNL A   1      39.414  24.592  26.369  1.00  0.00     0.010 A 
ATOM     11  C   UNL A   1      41.042  23.287  27.596  1.00  0.00     0.010 A 
ATOM     12  C   UNL A   1      40.571  24.538  27.161  1.00  0.00    -0.014 A 
BRANCH  12  13
ATOM     13  C   UNL A   1      41.308  25.779  27.518  1.00  0.00     0.031 A 
ATOM     14  C   UNL A   1      40.623  26.868  28.300  1.00  0.00     0.074 A 
ATOM     15  C   UNL A   1      42.583  25.941  27.118  1.00  0.00     0.049 A 
ATOM     16  N   UNL A   1      41.058  28.060  28.622  1.00  0.00    -0.248 NA
ATOM     17  C   UNL A   1      39.260  26.579  28.766  1.00  0.00     0.031 C 
ATOM     18  C   UNL A   1      43.356  24.957  26.360  1.00  0.00     0.029 A 
ATOM     19  N   UNL A   1      43.443  26.999  27.271  1.00  0.00    -0.354 N 
ATOM     20  C   UNL A   1      40.017  28.672  29.313  1.00  0.00     0.074 A 
ATOM     21  C   UNL A   1      38.918  27.728  29.327  1.00  0.00     0.031 C 
ATOM     22  C   UNL A   1      44.572  25.462  26.103  1.00  0.00     0.029 A 
ATOM     23  C   UNL A   1      44.646  26.822  26.630  1.00  0.00     0.049 A 
ATOM     24  H   UNL A   1      43.221  27.805  27.791  1.00  0.00     0.167 HD
ATOM     25  C   UNL A   1      39.984  29.903  29.887  1.00  0.00     0.034 A 
ATOM     26  C   UNL A   1      45.676  27.671  26.445  1.00  0.00     0.034 A 
ATOM     27  C   UNL A   1      41.091  30.831  29.859  1.00  0.00     0.049 A 
ATOM     28  C   UNL A   1      45.605  29.053  27.036  1.00  0.00     0.074 A 
ATOM     29  C   UNL A   1      41.187  32.081  30.447  1.00  0.00     0.029 A 
ATOM     30  N   UNL A   1      42.291  30.619  29.188  1.00  0.00    -0.354 N 
ATOM     31  N   UNL A   1      44.626  29.610  27.709  1.00  0.00    -0.248 NA
ATOM     32  C   UNL A   1      46.779  29.916  26.850  1.00  0.00     0.031 C 
ATOM     33  C   UNL A   1      42.411  32.651  30.074  1.00  0.00     0.029 A 
ATOM     34  C   UNL A   1      43.113  31.728  29.316  1.00  0.00     0.049 A 
ATOM     35  H   UNL A   1      42.522  29.800  28.693  1.00  0.00     0.167 HD
ATOM     36  C   UNL A   1      45.074  30.883  28.047  1.00  0.00     0.074 A 
ATOM     37  C   UNL A   1      46.412  31.010  27.503  1.00  0.00     0.031 C 
ATOM     38  C   UNL A   1      44.440  31.851  28.756  1.00  0.00     0.034 A 
BRANCH  25  39
ATOM     39  C   UNL A   1      38.690  30.328  30.543  1.00  0.00     0.023 A 
ATOM     40  C   UNL A   1      37.675  30.986  29.824  1.00  0.00     0.031 A 
ATOM     41  C   UNL A   1      38.486  30.116  31.918  1.00  0.00     0.131 A 
ATOM     42  C   UNL A   1      36.552  31.491  30.499  1.00  0.00     0.055 A 
ATOM     43  C   UNL A   1      37.326  30.544  32.567  1.00  0.00     0.041 A 
ATOM     44  F   UNL A   1      39.425  29.510  32.663  1.00  0.00    -0.206 F 
ATOM     45  C   UNL A   1      36.359  31.254  31.862  1.00  0.00     0.022 A 
BRANCH  42  46
ATOM     46  S   UNL A   1      35.440  32.613  29.607  1.00  0.00     0.124 S 
ATOM     47  O   UNL A   1      36.252  33.826  29.514  1.00  0.00    -0.237 OA
ATOM     48  O   UNL A   1      35.211  31.902  28.356  1.00  0.00    -0.237 OA
ATOM     49  O   UNL A   1      34.280  32.720  30.489  1.00  0.00    -0.744 OA
ENDBRANCH  42  46
ENDBRANCH  25  39
BRANCH  26  50
ATOM     50  C   UNL A   1      46.832  27.242  25.612  1.00  0.00     0.023 A 
ATOM     51  C   UNL A   1      46.990  27.691  24.293  1.00  0.00     0.031 A 
ATOM     52  C   UNL A   1      47.817  26.393  26.149  1.00  0.00     0.131 A 
ATOM     53  C   UNL A   1      48.106  27.277  23.548  1.00  0.00     0.055 A 
ATOM     54  C   UNL A   1      48.944  26.018  25.418  1.00  0.00     0.041 A 
ATOM     55  F   UNL A   1      47.713  25.947  27.411  1.00  0.00    -0.206 F 
ATOM     56  C   UNL A   1      49.090  26.457  24.107  1.00  0.00     0.022 A 
BRANCH  53  57
ATOM     57  S   UNL A   1      48.245  27.810  21.820  1.00  0.00     0.124 S 
ATOM     58  O   UNL A   1      49.485  28.576  21.844  1.00  0.00    -0.237 OA
ATOM     59  O   UNL A   1      48.290  26.537  21.110  1.00  0.00    -0.237 OA
ATOM     60  O   UNL A   1      47.031  28.596  21.608  1.00  0.00    -0.744 OA
ENDBRANCH  53  57
ENDBRANCH  26  50
BRANCH  38  61
ATOM     61  C   UNL A   1      45.207  33.121  29.026  1.00  0.00     0.023 A 
ATOM     62  C   UNL A   1      45.191  34.205  28.132  1.00  0.00     0.031 A 
ATOM     63  C   UNL A   1      45.949  33.251  30.214  1.00  0.00     0.131 A 
ATOM     64  C   UNL A   1      45.933  35.361  28.424  1.00  0.00     0.055 A 
ATOM     65  C   UNL A   1      46.647  34.419  30.521  1.00  0.00     0.041 A 
ATOM     66  F   UNL A   1      45.997  32.243  31.100  1.00  0.00    -0.206 F 
ATOM     67  C   UNL A   1      46.646  35.480  29.620  1.00  0.00     0.022 A 
BRANCH  64  68
ATOM     68  S   UNL A   1      45.992  36.698  27.200  1.00  0.00     0.124 S 
ATOM     69  O   UNL A   1      44.613  37.175  27.207  1.00  0.00    -0.237 OA
ATOM     70  O   UNL A   1      46.984  37.603  27.770  1.00  0.00    -0.237 OA
ATOM     71  O   UNL A   1      46.407  36.021  25.972  1.00  0.00    -0.744 OA
ENDBRANCH  64  68
ENDBRANCH  38  61
ENDBRANCH  12  13
ENDBRANCH   5   7
ENDBRANCH   2   3
ENDBRANCH   1   2
BRANCH   1  72
ATOM     72  C   UNL A   1      35.046  22.862  23.290  1.00  0.00     0.023 C 
BRANCH  72  73
ATOM     73  C   UNL A   1      33.624  22.962  22.754  1.00  0.00     0.116 C 
BRANCH  73  74
ATOM     74  N   UNL A   1      33.338  24.088  21.889  1.00  0.00    -0.356 N 
ATOM     75  C   UNL A   1      32.894  25.333  22.274  1.00  0.00     0.228 C 
ATOM     76  H   UNL A   1      33.475  23.948  20.924  1.00  0.00     0.163 HD
ATOM     77  O   UNL A   1      33.177  26.285  21.542  1.00  0.00    -0.274 OA
BRANCH  75  78
ATOM     78  C   UNL A   1      32.030  25.509  23.549  1.00  0.00     0.120 C 
BRANCH  78  79
ATOM     79  C   UNL A   1      32.903  25.681  24.852  1.00  0.00     0.066 C 
BRANCH  79  80
ATOM     80  C   UNL A   1      32.678  26.971  25.685  1.00  0.00    -0.039 A 
ATOM     81  C   UNL A   1      33.585  28.040  25.524  1.00  0.00     0.004 A 
ATOM     82  C   UNL A   1      31.658  27.129  26.636  1.00  0.00     0.004 A 
ATOM     83  C   UNL A   1      33.492  29.197  26.299  1.00  0.00     0.000 A 
ATOM     84  C   UNL A   1      31.538  28.306  27.382  1.00  0.00     0.000 A 
ATOM     85  C   UNL A   1      32.462  29.334  27.224  1.00  0.00     0.000 A 
ENDBRANCH  79  80
BRANCH  79  86
ATOM     86  C   UNL A   1      32.824  24.459  25.783  1.00  0.00    -0.039 A 
ATOM     87  C   UNL A   1      33.944  24.086  26.547  1.00  0.00     0.004 A 
ATOM     88  C   UNL A   1      31.640  23.706  25.915  1.00  0.00     0.004 A 
ATOM     89  C   UNL A   1      33.881  22.993  27.413  1.00  0.00     0.000 A 
ATOM     90  C   UNL A   1      31.578  22.620  26.789  1.00  0.00     0.000 A 
ATOM     91  C   UNL A   1      32.699  22.263  27.536  1.00  0.00     0.000 A 
ENDBRANCH  79  86
ENDBRANCH  78  79
BRANCH  78  92
ATOM     92  C   UNL A   1      31.030  26.663  23.298  1.00  0.00    -0.035 A 
ATOM     93  C   UNL A   1      31.419  27.899  22.754  1.00  0.00     0.004 A 
ATOM     94  C   UNL A   1      29.678  26.490  23.644  1.00  0.00     0.004 A 
ATOM     95  C   UNL A   1      30.508  28.951  22.633  1.00  0.00     0.000 A 
ATOM     96  C   UNL A   1      28.765  27.541  23.513  1.00  0.00     0.000 A 
ATOM     97  C   UNL A   1      29.183  28.776  23.023  1.00  0.00     0.000 A 
ENDBRANCH  78  92
ENDBRANCH  75  78
ENDBRANCH  73  74
ENDBRANCH  72  73
ENDBRANCH   1  72
TORSDOF 18
ENDMDL
MODEL 3
REMARK VINA RESULT:     -12.4      0.505      7.591
REMARK SMILES O=C(NCCCCNC(=O)[C@H](c1ccccc1)C(c1ccccc1)c1ccccc1)c1ccc(-c2c3nc(c(-c4cc(S(=O)(=O)[O-])ccc4F)c4ccc([nH]4)c(-c4cc(S(=O)(=O)[O-])ccc4F)c4nc(c(-c5cc(S(=O)(=O)[O-])ccc5F)c5ccc2[nH]5)C=C4)C=C3)cc1
REMARK SMILES IDX 5 1 4 2 3 3 1 4 2 5 31 7 32 8 93 9 33 10 92 11 34 12 35 13
REMARK SMILES IDX 36 14 86 15 37 16 91 17 85 18 87 19 38 20 90 21 84 22 83 23
REMARK SMILES IDX 39 25 71 26 51 27 70 28 52 29 55 30 69 31 88 32 53 33 54 34
REMARK SMILES IDX 68 36 89 37 56 38 40 39 41 40 49 41 42 42 48 43 50 44 47 45
REMARK SMILES IDX 43 46 44 47 45 48 46 49 72 50 73 51 81 52 74 53 80 54 82 55
REMARK SMILES IDX 79 56 75 57 76 58 77 59 78 60 57 61 58 62 66 63 59 64 65 65
REMARK SMILES IDX 67 66 64 67 60 68 61 69 62 70 63 71 6 72 7 73 8 74 9 75
REMARK SMILES IDX 10 77 11 78 18 79 19 80 20 81 24 82 21 83 23 84 22 85 25 86
REMARK SMILES IDX 26 87 30 88 27 89 29 90 28 91 12 92 13 93 17 94 14 95 16 96
REMARK SMILES IDX 15 97
REMARK H PARENT 3 6 87 24 55 35 8 76
REMARK Flexibility Score: inf
ROOT
ATOM      1  C   UNL A   1      31.410  28.764  25.837  1.00  0.00     0.023 C 
ENDROOT
BRANCH   1   2
ATOM      2  C   UNL A   1      32.646  29.664  25.840  1.00  0.00     0.116 C 
BRANCH   2   3
ATOM      3  N   UNL A   1      32.422  30.998  26.376  1.00  0.00    -0.352 N 
ATOM      4  O   UNL A   1      32.826  32.868  27.566  1.00  0.00    -0.269 OA
ATOM      5  C   UNL A   1      33.196  31.748  27.232  1.00  0.00     0.251 C 
ATOM      6  H   UNL A   1      31.588  31.431  26.080  1.00  0.00     0.163 HD
BRANCH   5   7
ATOM      7  C   UNL A   1      34.453  31.192  27.787  1.00  0.00     0.039 A 
ATOM      8  C   UNL A   1      34.542  29.862  28.206  1.00  0.00     0.014 A 
ATOM      9  C   UNL A   1      35.564  32.034  27.893  1.00  0.00     0.014 A 
ATOM     10  C   UNL A   1      35.689  29.415  28.863  1.00  0.00     0.010 A 
ATOM     11  C   UNL A   1      36.734  31.568  28.503  1.00  0.00     0.010 A 
ATOM     12  C   UNL A   1      36.790  30.269  29.035  1.00  0.00    -0.014 A 
BRANCH  12  13
ATOM     13  C   UNL A   1      37.990  29.822  29.790  1.00  0.00     0.031 A 
ATOM     14  C   UNL A   1      38.273  30.379  31.160  1.00  0.00     0.074 A 
ATOM     15  C   UNL A   1      38.839  28.937  29.237  1.00  0.00     0.049 A 
ATOM     16  N   UNL A   1      39.312  30.193  31.935  1.00  0.00    -0.248 NA
ATOM     17  C   UNL A   1      37.256  31.277  31.723  1.00  0.00     0.031 C 
ATOM     18  C   UNL A   1      38.672  28.322  27.920  1.00  0.00     0.029 A 
ATOM     19  N   UNL A   1      40.022  28.419  29.701  1.00  0.00    -0.354 N 
ATOM     20  C   UNL A   1      39.085  30.965  33.070  1.00  0.00     0.074 A 
ATOM     21  C   UNL A   1      37.825  31.649  32.860  1.00  0.00     0.031 C 
ATOM     22  C   UNL A   1      39.719  27.520  27.676  1.00  0.00     0.029 A 
ATOM     23  C   UNL A   1      40.656  27.605  28.793  1.00  0.00     0.049 A 
ATOM     24  H   UNL A   1      40.381  28.610  30.598  1.00  0.00     0.167 HD
ATOM     25  C   UNL A   1      39.852  31.086  34.184  1.00  0.00     0.034 A 
ATOM     26  C   UNL A   1      41.873  27.028  28.830  1.00  0.00     0.034 A 
ATOM     27  C   UNL A   1      41.108  30.397  34.372  1.00  0.00     0.049 A 
ATOM     28  C   UNL A   1      42.740  27.216  30.045  1.00  0.00     0.074 A 
ATOM     29  C   UNL A   1      41.943  30.407  35.478  1.00  0.00     0.029 A 
ATOM     30  N   UNL A   1      41.723  29.590  33.422  1.00  0.00    -0.354 N 
ATOM     31  N   UNL A   1      42.502  27.927  31.122  1.00  0.00    -0.248 NA
ATOM     32  C   UNL A   1      44.032  26.519  30.054  1.00  0.00     0.031 C 
ATOM     33  C   UNL A   1      43.090  29.666  35.170  1.00  0.00     0.029 A 
ATOM     34  C   UNL A   1      42.941  29.129  33.901  1.00  0.00     0.049 A 
ATOM     35  H   UNL A   1      41.349  29.376  32.537  1.00  0.00     0.167 HD
ATOM     36  C   UNL A   1      43.607  27.746  31.949  1.00  0.00     0.074 A 
ATOM     37  C   UNL A   1      44.510  26.857  31.244  1.00  0.00     0.031 C 
ATOM     38  C   UNL A   1      43.842  28.256  33.184  1.00  0.00     0.034 A 
BRANCH  25  39
ATOM     39  C   UNL A   1      39.373  32.041  35.254  1.00  0.00     0.023 A 
ATOM     40  C   UNL A   1      39.833  33.369  35.324  1.00  0.00     0.031 A 
ATOM     41  C   UNL A   1      38.481  31.604  36.250  1.00  0.00     0.131 A 
ATOM     42  C   UNL A   1      39.477  34.178  36.415  1.00  0.00     0.055 A 
ATOM     43  C   UNL A   1      38.060  32.442  37.284  1.00  0.00     0.041 A 
ATOM     44  F   UNL A   1      38.020  30.343  36.249  1.00  0.00    -0.206 F 
ATOM     45  C   UNL A   1      38.574  33.732  37.383  1.00  0.00     0.022 A 
BRANCH  42  46
ATOM     46  S   UNL A   1      40.347  35.753  36.643  1.00  0.00     0.124 S 
ATOM     47  O   UNL A   1      40.083  36.038  38.053  1.00  0.00    -0.237 OA
ATOM     48  O   UNL A   1      41.723  35.404  36.311  1.00  0.00    -0.237 OA
ATOM     49  O   UNL A   1      39.683  36.652  35.702  1.00  0.00    -0.744 OA
ENDBRANCH  42  46
ENDBRANCH  25  39
BRANCH  26  50
ATOM     50  C   UNL A   1      42.354  26.267  27.645  1.00  0.00     0.023 A 
ATOM     51  C   UNL A   1      42.076  24.901  27.490  1.00  0.00     0.031 A 
ATOM     52  C   UNL A   1      43.077  26.919  26.629  1.00  0.00     0.131 A 
ATOM     53  C   UNL A   1      42.532  24.225  26.347  1.00  0.00     0.055 A 
ATOM     54  C   UNL A   1      43.492  26.252  25.476  1.00  0.00     0.041 A 
ATOM     55  F   UNL A   1      43.356  28.228  26.729  1.00  0.00    -0.206 F 
ATOM     56  C   UNL A   1      43.224  24.895  25.333  1.00  0.00     0.022 A 
BRANCH  53  57
ATOM     57  S   UNL A   1      42.226  22.443  26.209  1.00  0.00     0.124 S 
ATOM     58  O   UNL A   1      40.772  22.397  26.121  1.00  0.00    -0.237 OA
ATOM     59  O   UNL A   1      42.955  22.101  24.993  1.00  0.00    -0.237 OA
ATOM     60  O   UNL A   1      42.794  21.904  27.443  1.00  0.00    -0.744 OA
ENDBRANCH  53  57
ENDBRANCH  26  50
BRANCH  38  61
ATOM     61  C   UNL A   1      45.112  27.828  33.876  1.00  0.00     0.023 A 
ATOM     62  C   UNL A   1      45.168  26.678  34.682  1.00  0.00     0.031 A 
ATOM     63  C   UNL A   1      46.290  28.578  33.704  1.00  0.00     0.131 A 
ATOM     64  C   UNL A   1      46.372  26.329  35.315  1.00  0.00     0.055 A 
ATOM     65  C   UNL A   1      47.493  28.201  34.298  1.00  0.00     0.041 A 
ATOM     66  F   UNL A   1      46.287  29.685  32.945  1.00  0.00    -0.206 F 
ATOM     67  C   UNL A   1      47.538  27.074  35.114  1.00  0.00     0.022 A 
BRANCH  64  68
ATOM     68  S   UNL A   1      46.390  24.910  36.444  1.00  0.00     0.124 S 
ATOM     69  O   UNL A   1      45.820  25.484  37.659  1.00  0.00    -0.237 OA
ATOM     70  O   UNL A   1      45.556  23.940  35.744  1.00  0.00    -0.237 OA
ATOM     71  O   UNL A   1      47.806  24.558  36.530  1.00  0.00    -0.744 OA
ENDBRANCH  64  68
ENDBRANCH  38  61
ENDBRANCH  12  13
ENDBRANCH   5   7
ENDBRANCH   2   3
ENDBRANCH   1   2
BRANCH   1  72
ATOM     72  C   UNL A   1      31.512  27.407  26.537  1.00  0.00     0.023 C 
BRANCH  72  73
ATOM     73  C   UNL A   1      30.667  26.275  25.968  1.00  0.00     0.116 C 
BRANCH  73  74
ATOM     74  N   UNL A   1      30.700  25.019  26.688  1.00  0.00    -0.356 N 
ATOM     75  C   UNL A   1      31.610  23.999  26.525  1.00  0.00     0.228 C 
ATOM     76  H   UNL A   1      29.999  24.880  27.364  1.00  0.00     0.163 HD
ATOM     77  O   UNL A   1      31.820  23.269  27.497  1.00  0.00    -0.274 OA
BRANCH  75  78
ATOM     78  C   UNL A   1      32.295  23.756  25.156  1.00  0.00     0.120 C 
BRANCH  78  79
ATOM     79  C   UNL A   1      33.616  24.602  24.982  1.00  0.00     0.066 C 
BRANCH  79  80
ATOM     80  C   UNL A   1      34.939  23.812  24.796  1.00  0.00    -0.039 A 
ATOM     81  C   UNL A   1      35.782  23.644  25.914  1.00  0.00     0.004 A 
ATOM     82  C   UNL A   1      35.383  23.294  23.570  1.00  0.00     0.004 A 
ATOM     83  C   UNL A   1      37.024  23.017  25.802  1.00  0.00     0.000 A 
ATOM     84  C   UNL A   1      36.608  22.627  23.466  1.00  0.00     0.000 A 
ATOM     85  C   UNL A   1      37.434  22.500  24.577  1.00  0.00     0.000 A 
ENDBRANCH  79  80
BRANCH  79  86
ATOM     86  C   UNL A   1      33.499  25.659  23.870  1.00  0.00    -0.039 A 
ATOM     87  C   UNL A   1      34.084  26.926  24.044  1.00  0.00     0.004 A 
ATOM     88  C   UNL A   1      32.837  25.386  22.657  1.00  0.00     0.004 A 
ATOM     89  C   UNL A   1      34.005  27.888  23.036  1.00  0.00     0.000 A 
ATOM     90  C   UNL A   1      32.769  26.347  21.648  1.00  0.00     0.000 A 
ATOM     91  C   UNL A   1      33.352  27.598  21.839  1.00  0.00     0.000 A 
ENDBRANCH  79  86
ENDBRANCH  78  79
BRANCH  78  92
ATOM     92  C   UNL A   1      32.490  22.232  24.979  1.00  0.00    -0.035 A 
ATOM     93  C   UNL A   1      33.026  21.412  25.987  1.00  0.00     0.004 A 
ATOM     94  C   UNL A   1      32.142  21.630  23.756  1.00  0.00     0.004 A 
ATOM     95  C   UNL A   1      33.279  20.057  25.757  1.00  0.00     0.000 A 
ATOM     96  C   UNL A   1      32.386  20.272  23.530  1.00  0.00     0.000 A 
ATOM     97  C   UNL A   1      32.969  19.489  24.524  1.00  0.00     0.000 A 
ENDBRANCH  78  92
ENDBRANCH  75  78
ENDBRANCH  73  74
ENDBRANCH  72  73
ENDBRANCH   1  72
TORSDOF 18
ENDMDL
