MODEL 1
REMARK VINA RESULT:     -12.9      0.000      0.000
REMARK SMILES O=C(NCCCCNC(=O)[C@H]1C[C@@H](C(=O)N2CCCC2)C[N@@H+](Cc2cccnc2)C1)c1ccc(-c2c3nc(c(-c4cc(S(=O)(=O)[O-])ccc4F)c4ccc([nH]4)c(-c4cc(S(=O)(=O)[O-])ccc4F)c4nc(c(-c5cc(S(=O)(=O)[O-])ccc5F)c5ccc2[nH]5)C=C4)C=C3)cc1
REMARK SMILES IDX 5 1 4 2 3 3 1 4 2 5 31 7 32 8 93 9 33 10 92 11 34 12 35 13
REMARK SMILES IDX 36 14 86 15 37 16 91 17 85 18 87 19 38 20 90 21 84 22 83 23
REMARK SMILES IDX 39 25 71 26 51 27 70 28 52 29 55 30 69 31 88 32 53 33 54 34
REMARK SMILES IDX 68 36 89 37 56 38 40 39 41 40 49 41 42 42 48 43 50 44 47 45
REMARK SMILES IDX 43 46 44 47 45 48 46 49 72 50 73 51 81 52 74 53 80 54 82 55
REMARK SMILES IDX 79 56 75 57 76 58 77 59 78 60 57 61 58 62 66 63 59 64 65 65
REMARK SMILES IDX 67 66 64 67 60 68 61 69 62 70 63 71 6 72 7 73 8 74 9 75
REMARK SMILES IDX 10 77 11 78 12 79 30 80 13 81 22 82 21 83 14 85 15 86 16 87
REMARK SMILES IDX 17 88 20 89 18 90 19 91 23 92 24 93 25 94 29 95 26 96 28 97
REMARK SMILES IDX 27 98
REMARK H PARENT 3 6 87 24 55 35 8 76 22 84
REMARK Flexibility Score: inf
ROOT
ATOM      1  C   UNL A   1      31.714  32.419  26.580  1.00  0.00     0.023 C 
ENDROOT
BRANCH   1   2
ATOM      2  C   UNL A   1      32.719  33.001  27.560  1.00  0.00     0.116 C 
BRANCH   2   3
ATOM      3  N   UNL A   1      32.417  34.371  27.945  1.00  0.00    -0.352 N 
ATOM      4  O   UNL A   1      32.589  36.244  29.195  1.00  0.00    -0.269 OA
ATOM      5  C   UNL A   1      33.032  35.135  28.910  1.00  0.00     0.251 C 
ATOM      6  H   UNL A   1      31.682  34.805  27.455  1.00  0.00     0.163 HD
BRANCH   5   7
ATOM      7  C   UNL A   1      34.210  34.588  29.617  1.00  0.00     0.039 A 
ATOM      8  C   UNL A   1      35.481  34.699  29.050  1.00  0.00     0.014 A 
ATOM      9  C   UNL A   1      34.033  33.923  30.833  1.00  0.00     0.014 A 
ATOM     10  C   UNL A   1      36.548  34.022  29.623  1.00  0.00     0.010 A 
ATOM     11  C   UNL A   1      35.130  33.319  31.456  1.00  0.00     0.010 A 
ATOM     12  C   UNL A   1      36.390  33.339  30.841  1.00  0.00    -0.014 A 
BRANCH  12  13
ATOM     13  C   UNL A   1      37.586  32.718  31.465  1.00  0.00     0.031 A 
ATOM     14  C   UNL A   1      38.088  33.160  32.810  1.00  0.00     0.074 A 
ATOM     15  C   UNL A   1      38.173  31.690  30.819  1.00  0.00     0.049 A 
ATOM     16  N   UNL A   1      39.076  32.676  33.519  1.00  0.00    -0.248 NA
ATOM     17  C   UNL A   1      37.400  34.297  33.440  1.00  0.00     0.031 C 
ATOM     18  C   UNL A   1      37.773  31.193  29.498  1.00  0.00     0.029 A 
ATOM     19  N   UNL A   1      39.198  30.860  31.188  1.00  0.00    -0.354 N 
ATOM     20  C   UNL A   1      39.137  33.449  34.673  1.00  0.00     0.074 A 
ATOM     21  C   UNL A   1      38.105  34.457  34.553  1.00  0.00     0.031 C 
ATOM     22  C   UNL A   1      38.500  30.109  29.198  1.00  0.00     0.029 A 
ATOM     23  C   UNL A   1      39.462  29.873  30.267  1.00  0.00     0.049 A 
ATOM     24  H   UNL A   1      39.698  30.960  32.030  1.00  0.00     0.167 HD
ATOM     25  C   UNL A   1      39.974  33.321  35.734  1.00  0.00     0.034 A 
ATOM     26  C   UNL A   1      40.384  28.892  30.275  1.00  0.00     0.034 A 
ATOM     27  C   UNL A   1      41.001  32.309  35.832  1.00  0.00     0.049 A 
ATOM     28  C   UNL A   1      41.296  28.776  31.463  1.00  0.00     0.074 A 
ATOM     29  C   UNL A   1      41.905  32.091  36.858  1.00  0.00     0.029 A 
ATOM     30  N   UNL A   1      41.261  31.342  34.867  1.00  0.00    -0.354 N 
ATOM     31  N   UNL A   1      41.340  29.521  32.545  1.00  0.00    -0.248 NA
ATOM     32  C   UNL A   1      42.280  27.688  31.436  1.00  0.00     0.031 C 
ATOM     33  C   UNL A   1      42.743  31.030  36.492  1.00  0.00     0.029 A 
ATOM     34  C   UNL A   1      42.322  30.541  35.266  1.00  0.00     0.049 A 
ATOM     35  H   UNL A   1      40.766  31.242  34.023  1.00  0.00     0.167 HD
ATOM     36  C   UNL A   1      42.358  28.988  33.327  1.00  0.00     0.074 A 
ATOM     37  C   UNL A   1      42.870  27.835  32.611  1.00  0.00     0.031 C 
ATOM     38  C   UNL A   1      42.839  29.417  34.521  1.00  0.00     0.034 A 
BRANCH  25  39
ATOM     39  C   UNL A   1      39.840  34.325  36.853  1.00  0.00     0.023 A 
ATOM     40  C   UNL A   1      39.362  33.957  38.123  1.00  0.00     0.031 A 
ATOM     41  C   UNL A   1      40.191  35.672  36.646  1.00  0.00     0.131 A 
ATOM     42  C   UNL A   1      39.201  34.933  39.121  1.00  0.00     0.055 A 
ATOM     43  C   UNL A   1      40.092  36.624  37.663  1.00  0.00     0.041 A 
ATOM     44  F   UNL A   1      40.634  36.085  35.448  1.00  0.00    -0.206 F 
ATOM     45  C   UNL A   1      39.585  36.258  38.907  1.00  0.00     0.022 A 
BRANCH  42  46
ATOM     46  S   UNL A   1      38.383  34.465  40.671  1.00  0.00     0.124 S 
ATOM     47  O   UNL A   1      37.446  33.440  40.214  1.00  0.00    -0.237 OA
ATOM     48  O   UNL A   1      39.495  33.994  41.488  1.00  0.00    -0.237 OA
ATOM     49  O   UNL A   1      37.761  35.709  41.121  1.00  0.00    -0.744 OA
ENDBRANCH  42  46
ENDBRANCH  25  39
BRANCH  26  50
ATOM     50  C   UNL A   1      40.511  27.973  29.110  1.00  0.00     0.023 A 
ATOM     51  C   UNL A   1      41.437  28.218  28.085  1.00  0.00     0.031 A 
ATOM     52  C   UNL A   1      39.681  26.843  28.995  1.00  0.00     0.131 A 
ATOM     53  C   UNL A   1      41.482  27.368  26.968  1.00  0.00     0.055 A 
ATOM     54  C   UNL A   1      39.768  25.970  27.910  1.00  0.00     0.041 A 
ATOM     55  F   UNL A   1      38.782  26.559  29.952  1.00  0.00    -0.206 F 
ATOM     56  C   UNL A   1      40.665  26.239  26.881  1.00  0.00     0.022 A 
BRANCH  53  57
ATOM     57  S   UNL A   1      42.568  27.810  25.585  1.00  0.00     0.124 S 
ATOM     58  O   UNL A   1      42.523  26.600  24.772  1.00  0.00    -0.237 OA
ATOM     59  O   UNL A   1      41.893  28.980  25.034  1.00  0.00    -0.237 OA
ATOM     60  O   UNL A   1      43.851  28.079  26.233  1.00  0.00    -0.744 OA
ENDBRANCH  53  57
ENDBRANCH  26  50
BRANCH  38  61
ATOM     61  C   UNL A   1      43.972  28.616  35.110  1.00  0.00     0.023 A 
ATOM     62  C   UNL A   1      43.728  27.570  36.017  1.00  0.00     0.031 A 
ATOM     63  C   UNL A   1      45.305  28.940  34.811  1.00  0.00     0.131 A 
ATOM     64  C   UNL A   1      44.805  26.932  36.651  1.00  0.00     0.055 A 
ATOM     65  C   UNL A   1      46.373  28.261  35.399  1.00  0.00     0.041 A 
ATOM     66  F   UNL A   1      45.592  29.932  33.954  1.00  0.00    -0.206 F 
ATOM     67  C   UNL A   1      46.125  27.262  36.337  1.00  0.00     0.022 A 
BRANCH  64  68
ATOM     68  S   UNL A   1      44.451  25.742  37.974  1.00  0.00     0.124 S 
ATOM     69  O   UNL A   1      44.063  26.619  39.075  1.00  0.00    -0.237 OA
ATOM     70  O   UNL A   1      43.382  24.937  37.392  1.00  0.00    -0.237 OA
ATOM     71  O   UNL A   1      45.723  25.044  38.156  1.00  0.00    -0.744 OA
ENDBRANCH  64  68
ENDBRANCH  38  61
ENDBRANCH  12  13
ENDBRANCH   5   7
ENDBRANCH   2   3
ENDBRANCH   1   2
BRANCH   1  72
ATOM     72  C   UNL A   1      31.666  30.893  26.535  1.00  0.00     0.023 C 
BRANCH  72  73
ATOM     73  C   UNL A   1      33.006  30.190  26.760  1.00  0.00     0.116 C 
BRANCH  73  74
ATOM     74  N   UNL A   1      32.840  28.792  27.102  1.00  0.00    -0.356 N 
ATOM     75  C   UNL A   1      32.496  27.733  26.320  1.00  0.00     0.228 C 
ATOM     76  H   UNL A   1      33.003  28.575  28.049  1.00  0.00     0.163 HD
ATOM     77  O   UNL A   1      32.428  26.627  26.858  1.00  0.00    -0.275 OA
BRANCH  75  78
ATOM     78  C   UNL A   1      32.193  27.942  24.837  1.00  0.00     0.134 C 
ATOM     79  C   UNL A   1      32.759  26.779  24.018  1.00  0.00     0.038 C 
ATOM     80  C   UNL A   1      30.682  28.041  24.630  1.00  0.00     0.276 C 
ATOM     81  C   UNL A   1      32.220  26.733  22.580  1.00  0.00     0.134 C 
ATOM     82  N   UNL A   1      30.344  28.190  23.212  1.00  0.00    -0.330 N 
ATOM     83  C   UNL A   1      30.716  26.987  22.451  1.00  0.00     0.276 C 
ATOM     84  H   UNL A   1      30.914  28.949  22.838  1.00  0.00     0.348 HD
BRANCH  81  85
ATOM     85  C   UNL A   1      32.694  25.464  21.876  1.00  0.00     0.231 C 
ATOM     86  O   UNL A   1      33.428  25.564  20.888  1.00  0.00    -0.274 OA
ATOM     87  N   UNL A   1      32.406  24.231  22.414  1.00  0.00    -0.342 N 
ATOM     88  C   UNL A   1      31.335  23.810  23.306  1.00  0.00     0.119 C 
ATOM     89  C   UNL A   1      33.360  23.150  22.238  1.00  0.00     0.119 C 
ATOM     90  C   UNL A   1      32.028  22.828  24.232  1.00  0.00     0.023 C 
ATOM     91  C   UNL A   1      33.006  22.113  23.304  1.00  0.00     0.023 C 
ENDBRANCH  81  85
BRANCH  82  92
ATOM     92  C   UNL A   1      28.966  28.652  22.987  1.00  0.00     0.300 C 
BRANCH  92  93
ATOM     93  C   UNL A   1      28.783  30.112  22.663  1.00  0.00     0.025 A 
ATOM     94  C   UNL A   1      28.954  31.118  23.618  1.00  0.00     0.013 A 
ATOM     95  C   UNL A   1      28.428  30.511  21.377  1.00  0.00     0.120 A 
ATOM     96  C   UNL A   1      28.735  32.447  23.271  1.00  0.00     0.021 A 
ATOM     97  N   UNL A   1      28.220  31.794  21.006  1.00  0.00    -0.264 NA
ATOM     98  C   UNL A   1      28.372  32.732  21.966  1.00  0.00     0.111 A 
ENDBRANCH  92  93
ENDBRANCH  82  92
ENDBRANCH  75  78
ENDBRANCH  73  74
ENDBRANCH  72  73
ENDBRANCH   1  72
TORSDOF 17
ENDMDL
MODEL 2
REMARK VINA RESULT:     -12.9      0.606      7.596
REMARK SMILES O=C(NCCCCNC(=O)[C@H]1C[C@@H](C(=O)N2CCCC2)C[N@@H+](Cc2cccnc2)C1)c1ccc(-c2c3nc(c(-c4cc(S(=O)(=O)[O-])ccc4F)c4ccc([nH]4)c(-c4cc(S(=O)(=O)[O-])ccc4F)c4nc(c(-c5cc(S(=O)(=O)[O-])ccc5F)c5ccc2[nH]5)C=C4)C=C3)cc1
REMARK SMILES IDX 5 1 4 2 3 3 1 4 2 5 31 7 32 8 93 9 33 10 92 11 34 12 35 13
REMARK SMILES IDX 36 14 86 15 37 16 91 17 85 18 87 19 38 20 90 21 84 22 83 23
REMARK SMILES IDX 39 25 71 26 51 27 70 28 52 29 55 30 69 31 88 32 53 33 54 34
REMARK SMILES IDX 68 36 89 37 56 38 40 39 41 40 49 41 42 42 48 43 50 44 47 45
REMARK SMILES IDX 43 46 44 47 45 48 46 49 72 50 73 51 81 52 74 53 80 54 82 55
REMARK SMILES IDX 79 56 75 57 76 58 77 59 78 60 57 61 58 62 66 63 59 64 65 65
REMARK SMILES IDX 67 66 64 67 60 68 61 69 62 70 63 71 6 72 7 73 8 74 9 75
REMARK SMILES IDX 10 77 11 78 12 79 30 80 13 81 22 82 21 83 14 85 15 86 16 87
REMARK SMILES IDX 17 88 20 89 18 90 19 91 23 92 24 93 25 94 29 95 26 96 28 97
REMARK SMILES IDX 27 98
REMARK H PARENT 3 6 87 24 55 35 8 76 22 84
REMARK Flexibility Score: inf
ROOT
ATOM      1  C   UNL A   1      31.697  32.323  26.623  1.00  0.00     0.023 C 
ENDROOT
BRANCH   1   2
ATOM      2  C   UNL A   1      32.771  32.831  27.571  1.00  0.00     0.116 C 
BRANCH   2   3
ATOM      3  N   UNL A   1      32.718  34.271  27.778  1.00  0.00    -0.352 N 
ATOM      4  O   UNL A   1      33.227  36.226  28.788  1.00  0.00    -0.269 OA
ATOM      5  C   UNL A   1      33.464  35.028  28.651  1.00  0.00     0.251 C 
ATOM      6  H   UNL A   1      32.070  34.763  27.225  1.00  0.00     0.163 HD
BRANCH   5   7
ATOM      7  C   UNL A   1      34.529  34.375  29.441  1.00  0.00     0.039 A 
ATOM      8  C   UNL A   1      35.869  34.551  29.092  1.00  0.00     0.014 A 
ATOM      9  C   UNL A   1      34.180  33.547  30.511  1.00  0.00     0.014 A 
ATOM     10  C   UNL A   1      36.847  33.788  29.715  1.00  0.00     0.010 A 
ATOM     11  C   UNL A   1      35.179  32.849  31.199  1.00  0.00     0.010 A 
ATOM     12  C   UNL A   1      36.516  32.942  30.787  1.00  0.00    -0.014 A 
BRANCH  12  13
ATOM     13  C   UNL A   1      37.612  32.227  31.488  1.00  0.00     0.031 A 
ATOM     14  C   UNL A   1      38.397  31.138  30.813  1.00  0.00     0.074 A 
ATOM     15  C   UNL A   1      37.935  32.632  32.733  1.00  0.00     0.049 A 
ATOM     16  N   UNL A   1      39.424  30.464  31.264  1.00  0.00    -0.248 NA
ATOM     17  C   UNL A   1      37.971  30.746  29.461  1.00  0.00     0.031 C 
ATOM     18  C   UNL A   1      37.225  33.672  33.486  1.00  0.00     0.029 A 
ATOM     19  N   UNL A   1      38.951  32.253  33.571  1.00  0.00    -0.354 N 
ATOM     20  C   UNL A   1      39.766  29.564  30.261  1.00  0.00     0.074 A 
ATOM     21  C   UNL A   1      38.812  29.757  29.188  1.00  0.00     0.031 C 
ATOM     22  C   UNL A   1      37.864  33.889  34.643  1.00  0.00     0.029 A 
ATOM     23  C   UNL A   1      38.984  32.963  34.748  1.00  0.00     0.049 A 
ATOM     24  H   UNL A   1      39.594  31.541  33.352  1.00  0.00     0.167 HD
ATOM     25  C   UNL A   1      40.784  28.667  30.238  1.00  0.00     0.034 A 
ATOM     26  C   UNL A   1      39.816  32.873  35.802  1.00  0.00     0.034 A 
ATOM     27  C   UNL A   1      41.723  28.488  31.322  1.00  0.00     0.049 A 
ATOM     28  C   UNL A   1      40.934  31.870  35.748  1.00  0.00     0.074 A 
ATOM     29  C   UNL A   1      42.789  27.608  31.406  1.00  0.00     0.029 A 
ATOM     30  N   UNL A   1      41.709  29.204  32.514  1.00  0.00    -0.354 N 
ATOM     31  N   UNL A   1      41.237  31.026  34.789  1.00  0.00    -0.248 NA
ATOM     32  C   UNL A   1      41.823  31.811  36.913  1.00  0.00     0.031 C 
ATOM     33  C   UNL A   1      43.385  27.754  32.665  1.00  0.00     0.029 A 
ATOM     34  C   UNL A   1      42.734  28.772  33.344  1.00  0.00     0.049 A 
ATOM     35  H   UNL A   1      41.065  29.913  32.737  1.00  0.00     0.167 HD
ATOM     36  C   UNL A   1      42.356  30.333  35.239  1.00  0.00     0.074 A 
ATOM     37  C   UNL A   1      42.695  30.891  36.534  1.00  0.00     0.031 C 
ATOM     38  C   UNL A   1      43.035  29.319  34.646  1.00  0.00     0.034 A 
BRANCH  25  39
ATOM     39  C   UNL A   1      40.909  27.785  29.020  1.00  0.00     0.023 A 
ATOM     40  C   UNL A   1      41.894  28.010  28.042  1.00  0.00     0.031 A 
ATOM     41  C   UNL A   1      40.029  26.703  28.832  1.00  0.00     0.131 A 
ATOM     42  C   UNL A   1      41.942  27.199  26.896  1.00  0.00     0.055 A 
ATOM     43  C   UNL A   1      40.125  25.859  27.723  1.00  0.00     0.041 A 
ATOM     44  F   UNL A   1      39.056  26.452  29.722  1.00  0.00    -0.206 F 
ATOM     45  C   UNL A   1      41.080  26.111  26.743  1.00  0.00     0.022 A 
BRANCH  42  46
ATOM     46  S   UNL A   1      43.081  27.649  25.558  1.00  0.00     0.124 S 
ATOM     47  O   UNL A   1      42.188  28.335  24.627  1.00  0.00    -0.237 OA
ATOM     48  O   UNL A   1      44.058  28.489  26.241  1.00  0.00    -0.237 OA
ATOM     49  O   UNL A   1      43.587  26.360  25.088  1.00  0.00    -0.744 OA
ENDBRANCH  42  46
ENDBRANCH  25  39
BRANCH  26  50
ATOM     50  C   UNL A   1      39.599  33.726  37.004  1.00  0.00     0.023 A 
ATOM     51  C   UNL A   1      38.957  33.227  38.147  1.00  0.00     0.031 A 
ATOM     52  C   UNL A   1      40.013  35.071  37.012  1.00  0.00     0.131 A 
ATOM     53  C   UNL A   1      38.710  34.079  39.235  1.00  0.00     0.055 A 
ATOM     54  C   UNL A   1      39.814  35.898  38.117  1.00  0.00     0.041 A 
ATOM     55  F   UNL A   1      40.638  35.596  35.945  1.00  0.00    -0.206 F 
ATOM     56  C   UNL A   1      39.147  35.406  39.233  1.00  0.00     0.022 A 
BRANCH  53  57
ATOM     57  S   UNL A   1      37.728  33.450  40.624  1.00  0.00     0.124 S 
ATOM     58  O   UNL A   1      38.617  32.438  41.184  1.00  0.00    -0.237 OA
ATOM     59  O   UNL A   1      37.538  34.653  41.427  1.00  0.00    -0.237 OA
ATOM     60  O   UNL A   1      36.521  32.934  39.981  1.00  0.00    -0.744 OA
ENDBRANCH  53  57
ENDBRANCH  26  50
BRANCH  38  61
ATOM     61  C   UNL A   1      44.212  28.768  35.409  1.00  0.00     0.023 A 
ATOM     62  C   UNL A   1      44.045  27.766  36.381  1.00  0.00     0.031 A 
ATOM     63  C   UNL A   1      45.500  29.291  35.208  1.00  0.00     0.131 A 
ATOM     64  C   UNL A   1      45.136  27.369  37.168  1.00  0.00     0.055 A 
ATOM     65  C   UNL A   1      46.594  28.849  35.953  1.00  0.00     0.041 A 
ATOM     66  F   UNL A   1      45.713  30.251  34.295  1.00  0.00    -0.206 F 
ATOM     67  C   UNL A   1      46.412  27.895  36.951  1.00  0.00     0.022 A 
BRANCH  64  68
ATOM     68  S   UNL A   1      44.839  26.238  38.555  1.00  0.00     0.124 S 
ATOM     69  O   UNL A   1      45.703  26.796  39.591  1.00  0.00    -0.237 OA
ATOM     70  O   UNL A   1      43.405  26.384  38.775  1.00  0.00    -0.237 OA
ATOM     71  O   UNL A   1      45.257  24.939  38.033  1.00  0.00    -0.744 OA
ENDBRANCH  64  68
ENDBRANCH  38  61
ENDBRANCH  12  13
ENDBRANCH   5   7
ENDBRANCH   2   3
ENDBRANCH   1   2
BRANCH   1  72
ATOM     72  C   UNL A   1      31.638  30.805  26.469  1.00  0.00     0.023 C 
BRANCH  72  73
ATOM     73  C   UNL A   1      32.757  30.033  27.171  1.00  0.00     0.116 C 
BRANCH  73  74
ATOM     74  N   UNL A   1      32.374  28.669  27.474  1.00  0.00    -0.356 N 
ATOM     75  C   UNL A   1      31.989  27.662  26.644  1.00  0.00     0.228 C 
ATOM     76  H   UNL A   1      32.396  28.435  28.430  1.00  0.00     0.163 HD
ATOM     77  O   UNL A   1      31.717  26.575  27.156  1.00  0.00    -0.275 OA
BRANCH  75  78
ATOM     78  C   UNL A   1      31.890  27.905  25.139  1.00  0.00     0.134 C 
ATOM     79  C   UNL A   1      32.583  26.771  24.378  1.00  0.00     0.038 C 
ATOM     80  C   UNL A   1      30.420  27.988  24.727  1.00  0.00     0.276 C 
ATOM     81  C   UNL A   1      32.248  26.755  22.879  1.00  0.00     0.134 C 
ATOM     82  N   UNL A   1      30.279  28.170  23.280  1.00  0.00    -0.330 N 
ATOM     83  C   UNL A   1      30.772  26.992  22.549  1.00  0.00     0.276 C 
ATOM     84  H   UNL A   1      30.882  28.946  23.006  1.00  0.00     0.348 HD
BRANCH  81  85
ATOM     85  C   UNL A   1      32.836  25.511  22.217  1.00  0.00     0.231 C 
ATOM     86  O   UNL A   1      33.726  25.645  21.371  1.00  0.00    -0.274 OA
ATOM     87  N   UNL A   1      32.465  24.260  22.653  1.00  0.00    -0.342 N 
ATOM     88  C   UNL A   1      31.260  23.811  23.336  1.00  0.00     0.119 C 
ATOM     89  C   UNL A   1      33.437  23.182  22.599  1.00  0.00     0.119 C 
ATOM     90  C   UNL A   1      31.790  22.792  24.327  1.00  0.00     0.023 C 
ATOM     91  C   UNL A   1      32.911  22.108  23.550  1.00  0.00     0.023 C 
ENDBRANCH  81  85
BRANCH  82  92
ATOM     92  C   UNL A   1      28.937  28.619  22.877  1.00  0.00     0.300 C 
BRANCH  92  93
ATOM     93  C   UNL A   1      28.768  30.089  22.596  1.00  0.00     0.025 A 
ATOM     94  C   UNL A   1      28.966  31.066  23.575  1.00  0.00     0.013 A 
ATOM     95  C   UNL A   1      28.401  30.528  21.327  1.00  0.00     0.120 A 
ATOM     96  C   UNL A   1      28.759  32.407  23.268  1.00  0.00     0.021 A 
ATOM     97  N   UNL A   1      28.204  31.823  20.994  1.00  0.00    -0.264 NA
ATOM     98  C   UNL A   1      28.381  32.732  21.977  1.00  0.00     0.111 A 
ENDBRANCH  92  93
ENDBRANCH  82  92
ENDBRANCH  75  78
ENDBRANCH  73  74
ENDBRANCH  72  73
ENDBRANCH   1  72
TORSDOF 17
ENDMDL
MODEL 3
REMARK VINA RESULT:     -12.7      6.011     10.764
REMARK SMILES O=C(NCCCCNC(=O)[C@H]1C[C@@H](C(=O)N2CCCC2)C[N@@H+](Cc2cccnc2)C1)c1ccc(-c2c3nc(c(-c4cc(S(=O)(=O)[O-])ccc4F)c4ccc([nH]4)c(-c4cc(S(=O)(=O)[O-])ccc4F)c4nc(c(-c5cc(S(=O)(=O)[O-])ccc5F)c5ccc2[nH]5)C=C4)C=C3)cc1
REMARK SMILES IDX 5 1 4 2 3 3 1 4 2 5 31 7 32 8 93 9 33 10 92 11 34 12 35 13
REMARK SMILES IDX 36 14 86 15 37 16 91 17 85 18 87 19 38 20 90 21 84 22 83 23
REMARK SMILES IDX 39 25 71 26 51 27 70 28 52 29 55 30 69 31 88 32 53 33 54 34
REMARK SMILES IDX 68 36 89 37 56 38 40 39 41 40 49 41 42 42 48 43 50 44 47 45
REMARK SMILES IDX 43 46 44 47 45 48 46 49 72 50 73 51 81 52 74 53 80 54 82 55
REMARK SMILES IDX 79 56 75 57 76 58 77 59 78 60 57 61 58 62 66 63 59 64 65 65
REMARK SMILES IDX 67 66 64 67 60 68 61 69 62 70 63 71 6 72 7 73 8 74 9 75
REMARK SMILES IDX 10 77 11 78 12 79 30 80 13 81 22 82 21 83 14 85 15 86 16 87
REMARK SMILES IDX 17 88 20 89 18 90 19 91 23 92 24 93 25 94 29 95 26 96 28 97
REMARK SMILES IDX 27 98
REMARK H PARENT 3 6 87 24 55 35 8 76 22 84
REMARK Flexibility Score: inf
ROOT
ATOM      1  C   UNL A   1      38.490  19.553  25.121  1.00  0.00     0.023 C 
ENDROOT
BRANCH   1   2
ATOM      2  C   UNL A   1      39.573  20.058  26.060  1.00  0.00     0.116 C 
BRANCH   2   3
ATOM      3  N   UNL A   1      40.733  19.182  26.121  1.00  0.00    -0.352 N 
ATOM      4  O   UNL A   1      42.934  18.681  26.200  1.00  0.00    -0.269 OA
ATOM      5  C   UNL A   1      42.054  19.534  26.277  1.00  0.00     0.251 C 
ATOM      6  H   UNL A   1      40.551  18.218  26.042  1.00  0.00     0.163 HD
BRANCH   5   7
ATOM      7  C   UNL A   1      42.396  20.954  26.505  1.00  0.00     0.039 A 
ATOM      8  C   UNL A   1      42.515  21.829  25.424  1.00  0.00     0.014 A 
ATOM      9  C   UNL A   1      42.643  21.401  27.806  1.00  0.00     0.014 A 
ATOM     10  C   UNL A   1      43.020  23.106  25.626  1.00  0.00     0.010 A 
ATOM     11  C   UNL A   1      43.064  22.718  28.017  1.00  0.00     0.010 A 
ATOM     12  C   UNL A   1      43.283  23.571  26.926  1.00  0.00    -0.014 A 
BRANCH  12  13
ATOM     13  C   UNL A   1      43.723  24.979  27.097  1.00  0.00     0.031 A 
ATOM     14  C   UNL A   1      42.822  26.014  27.710  1.00  0.00     0.074 A 
ATOM     15  C   UNL A   1      44.988  25.292  26.751  1.00  0.00     0.049 A 
ATOM     16  N   UNL A   1      43.079  27.267  27.990  1.00  0.00    -0.248 NA
ATOM     17  C   UNL A   1      41.453  25.594  28.047  1.00  0.00     0.031 C 
ATOM     18  C   UNL A   1      45.941  24.364  26.132  1.00  0.00     0.029 A 
ATOM     19  N   UNL A   1      45.703  26.451  26.896  1.00  0.00    -0.354 N 
ATOM     20  C   UNL A   1      41.908  27.790  28.526  1.00  0.00     0.074 A 
ATOM     21  C   UNL A   1      40.927  26.724  28.501  1.00  0.00     0.031 C 
ATOM     22  C   UNL A   1      47.128  24.971  26.010  1.00  0.00     0.029 A 
ATOM     23  C   UNL A   1      47.008  26.346  26.475  1.00  0.00     0.049 A 
ATOM     24  H   UNL A   1      45.320  27.280  27.265  1.00  0.00     0.167 HD
ATOM     25  C   UNL A   1      41.678  29.041  28.999  1.00  0.00     0.034 A 
ATOM     26  C   UNL A   1      47.997  27.259  26.453  1.00  0.00     0.034 A 
ATOM     27  C   UNL A   1      42.671  30.092  29.010  1.00  0.00     0.049 A 
ATOM     28  C   UNL A   1      47.713  28.636  26.983  1.00  0.00     0.074 A 
ATOM     29  C   UNL A   1      42.545  31.395  29.462  1.00  0.00     0.029 A 
ATOM     30  N   UNL A   1      43.975  29.960  28.548  1.00  0.00    -0.354 N 
ATOM     31  N   UNL A   1      46.596  29.112  27.484  1.00  0.00    -0.248 NA
ATOM     32  C   UNL A   1      48.821  29.597  26.950  1.00  0.00     0.031 C 
ATOM     33  C   UNL A   1      43.753  32.064  29.225  1.00  0.00     0.029 A 
ATOM     34  C   UNL A   1      44.656  31.162  28.686  1.00  0.00     0.049 A 
ATOM     35  H   UNL A   1      44.360  29.135  28.175  1.00  0.00     0.167 HD
ATOM     36  C   UNL A   1      46.869  30.432  27.826  1.00  0.00     0.074 A 
ATOM     37  C   UNL A   1      48.267  30.658  27.514  1.00  0.00     0.031 C 
ATOM     38  C   UNL A   1      46.041  31.376  28.337  1.00  0.00     0.034 A 
BRANCH  25  39
ATOM     39  C   UNL A   1      40.290  29.352  29.504  1.00  0.00     0.023 A 
ATOM     40  C   UNL A   1      39.994  29.383  30.878  1.00  0.00     0.031 A 
ATOM     41  C   UNL A   1      39.247  29.619  28.598  1.00  0.00     0.131 A 
ATOM     42  C   UNL A   1      38.677  29.623  31.305  1.00  0.00     0.055 A 
ATOM     43  C   UNL A   1      37.955  29.924  29.032  1.00  0.00     0.041 A 
ATOM     44  F   UNL A   1      39.467  29.584  27.274  1.00  0.00    -0.206 F 
ATOM     45  C   UNL A   1      37.662  29.917  30.392  1.00  0.00     0.022 A 
BRANCH  42  46
ATOM     46  S   UNL A   1      38.288  29.442  33.068  1.00  0.00     0.124 S 
ATOM     47  O   UNL A   1      39.536  28.890  33.591  1.00  0.00    -0.237 OA
ATOM     48  O   UNL A   1      37.979  30.810  33.467  1.00  0.00    -0.237 OA
ATOM     49  O   UNL A   1      37.155  28.518  33.077  1.00  0.00    -0.744 OA
ENDBRANCH  42  46
ENDBRANCH  25  39
BRANCH  26  50
ATOM     50  C   UNL A   1      49.327  26.910  25.880  1.00  0.00     0.023 A 
ATOM     51  C   UNL A   1      49.687  27.301  24.582  1.00  0.00     0.031 A 
ATOM     52  C   UNL A   1      50.251  26.152  26.623  1.00  0.00     0.131 A 
ATOM     53  C   UNL A   1      50.921  26.897  24.049  1.00  0.00     0.055 A 
ATOM     54  C   UNL A   1      51.499  25.800  26.109  1.00  0.00     0.041 A 
ATOM     55  F   UNL A   1      49.958  25.758  27.873  1.00  0.00    -0.206 F 
ATOM     56  C   UNL A   1      51.835  26.162  24.809  1.00  0.00     0.022 A 
BRANCH  53  57
ATOM     57  S   UNL A   1      51.282  27.272  22.312  1.00  0.00     0.124 S 
ATOM     58  O   UNL A   1      51.468  28.718  22.351  1.00  0.00    -0.237 OA
ATOM     59  O   UNL A   1      52.482  26.476  22.075  1.00  0.00    -0.237 OA
ATOM     60  O   UNL A   1      50.084  26.816  21.610  1.00  0.00    -0.744 OA
ENDBRANCH  53  57
ENDBRANCH  26  50
BRANCH  38  61
ATOM     61  C   UNL A   1      46.650  32.732  28.588  1.00  0.00     0.023 A 
ATOM     62  C   UNL A   1      46.760  33.682  27.558  1.00  0.00     0.031 A 
ATOM     63  C   UNL A   1      47.178  33.054  29.849  1.00  0.00     0.131 A 
ATOM     64  C   UNL A   1      47.450  34.882  27.786  1.00  0.00     0.055 A 
ATOM     65  C   UNL A   1      47.811  34.274  30.087  1.00  0.00     0.041 A 
ATOM     66  F   UNL A   1      47.101  32.181  30.866  1.00  0.00    -0.206 F 
ATOM     67  C   UNL A   1      47.965  35.189  29.048  1.00  0.00     0.022 A 
BRANCH  64  68
ATOM     68  S   UNL A   1      47.765  35.984  26.380  1.00  0.00     0.124 S 
ATOM     69  O   UNL A   1      48.849  36.819  26.886  1.00  0.00    -0.237 OA
ATOM     70  O   UNL A   1      48.124  35.045  25.323  1.00  0.00    -0.237 OA
ATOM     71  O   UNL A   1      46.489  36.671  26.191  1.00  0.00    -0.744 OA
ENDBRANCH  64  68
ENDBRANCH  38  61
ENDBRANCH  12  13
ENDBRANCH   5   7
ENDBRANCH   2   3
ENDBRANCH   1   2
BRANCH   1  72
ATOM     72  C   UNL A   1      37.332  20.521  24.891  1.00  0.00     0.023 C 
BRANCH  72  73
ATOM     73  C   UNL A   1      37.640  21.990  25.189  1.00  0.00     0.116 C 
BRANCH  73  74
ATOM     74  N   UNL A   1      37.025  22.884  24.229  1.00  0.00    -0.356 N 
ATOM     75  C   UNL A   1      35.711  23.162  24.008  1.00  0.00     0.228 C 
ATOM     76  H   UNL A   1      37.655  23.365  23.646  1.00  0.00     0.163 HD
ATOM     77  O   UNL A   1      35.443  23.977  23.123  1.00  0.00    -0.275 OA
BRANCH  75  78
ATOM     78  C   UNL A   1      34.630  22.462  24.830  1.00  0.00     0.134 C 
ATOM     79  C   UNL A   1      33.594  23.482  25.311  1.00  0.00     0.038 C 
ATOM     80  C   UNL A   1      33.951  21.389  23.978  1.00  0.00     0.276 C 
ATOM     81  C   UNL A   1      32.311  22.832  25.852  1.00  0.00     0.134 C 
ATOM     82  N   UNL A   1      32.870  20.726  24.714  1.00  0.00    -0.330 N 
ATOM     83  C   UNL A   1      31.780  21.667  25.012  1.00  0.00     0.276 C 
ATOM     84  H   UNL A   1      33.246  20.433  25.616  1.00  0.00     0.348 HD
BRANCH  81  85
ATOM     85  C   UNL A   1      31.264  23.900  26.158  1.00  0.00     0.231 C 
ATOM     86  O   UNL A   1      30.929  24.092  27.331  1.00  0.00    -0.274 OA
ATOM     87  N   UNL A   1      30.800  24.716  25.152  1.00  0.00    -0.342 N 
ATOM     88  C   UNL A   1      30.745  24.511  23.712  1.00  0.00     0.119 C 
ATOM     89  C   UNL A   1      30.428  26.083  25.475  1.00  0.00     0.119 C 
ATOM     90  C   UNL A   1      31.096  25.879  23.159  1.00  0.00     0.023 C 
ATOM     91  C   UNL A   1      30.422  26.832  24.143  1.00  0.00     0.023 C 
ENDBRANCH  81  85
BRANCH  82  92
ATOM     92  C   UNL A   1      32.435  19.464  24.097  1.00  0.00     0.300 C 
BRANCH  92  93
ATOM     93  C   UNL A   1      33.112  18.206  24.573  1.00  0.00     0.025 A 
ATOM     94  C   UNL A   1      34.445  17.911  24.270  1.00  0.00     0.013 A 
ATOM     95  C   UNL A   1      32.417  17.277  25.344  1.00  0.00     0.120 A 
ATOM     96  C   UNL A   1      35.007  16.716  24.705  1.00  0.00     0.021 A 
ATOM     97  N   UNL A   1      32.939  16.113  25.792  1.00  0.00    -0.264 NA
ATOM     98  C   UNL A   1      34.222  15.857  25.454  1.00  0.00     0.111 A 
ENDBRANCH  92  93
ENDBRANCH  82  92
ENDBRANCH  75  78
ENDBRANCH  73  74
ENDBRANCH  72  73
ENDBRANCH   1  72
TORSDOF 17
ENDMDL
