MODEL 1
REMARK VINA RESULT:     -13.0      0.000      0.000
REMARK SMILES CCc1cc(C(=O)c2[nH]c3cc(Cl)ccc3c2CC(=O)NCCCCNC(=O)c2ccc(-c3c4nc(c(-c5cc(S(=O)(=O)[O-])ccc5F)c5ccc([nH]5)c(-c5cc(S(=O)(=O)[O-])ccc5F)c5nc(c(-c6cc(S(=O)(=O)[O-])ccc6F)c6ccc3[nH]6)C=C5)C=C4)cc2)ncc1Cl
REMARK SMILES IDX 23 1 22 2 21 3 19 4 20 5 18 7 17 8 8 9 9 10 10 11 16 13
REMARK SMILES IDX 11 14 15 15 12 16 14 17 13 18 6 19 7 20 5 21 3 22 4 23 94 24
REMARK SMILES IDX 93 25 95 26 92 27 2 28 1 29 24 30 25 31 26 32 27 33 28 35
REMARK SMILES IDX 29 36 30 37 91 38 31 39 90 40 32 41 33 42 34 43 84 44 35 45
REMARK SMILES IDX 89 46 83 47 85 48 36 49 88 50 82 51 81 52 37 54 69 55 49 56
REMARK SMILES IDX 68 57 50 58 53 59 67 60 86 61 51 62 52 63 66 65 87 66 54 67
REMARK SMILES IDX 38 68 39 69 47 70 40 71 46 72 48 73 45 74 41 75 42 76 43 77
REMARK SMILES IDX 44 78 70 79 71 80 79 81 72 82 78 83 80 84 77 85 73 86 74 87
REMARK SMILES IDX 75 88 76 89 55 90 56 91 64 92 57 93 63 94 65 95 62 96 58 97
REMARK SMILES IDX 59 98 60 99 61 100
REMARK H PARENT 21 6 9 12 26 34 85 53 53 64
REMARK Flexibility Score: inf
ROOT
ATOM      1  C   UNL A   1      31.555  30.582  26.077  1.00  0.00     0.023 C 
ENDROOT
BRANCH   1   2
ATOM      2  C   UNL A   1      32.152  29.581  27.064  1.00  0.00     0.116 C 
BRANCH   2   3
ATOM      3  N   UNL A   1      31.498  28.289  27.030  1.00  0.00    -0.356 N 
ATOM      4  C   UNL A   1      32.015  27.068  26.703  1.00  0.00     0.224 C 
ATOM      5  O   UNL A   1      31.329  26.064  26.914  1.00  0.00    -0.275 OA
ATOM      6  H   UNL A   1      30.545  28.291  27.277  1.00  0.00     0.163 HD
BRANCH   4   7
ATOM      7  C   UNL A   1      33.448  26.933  26.210  1.00  0.00     0.138 C 
BRANCH   7   8
ATOM      8  C   UNL A   1      33.659  25.928  25.112  1.00  0.00    -0.002 A 
ATOM      9  C   UNL A   1      33.483  26.116  23.744  1.00  0.00     0.093 A 
ATOM     10  N   UNL A   1      33.883  24.959  23.115  1.00  0.00    -0.351 N 
ATOM     11  C   UNL A   1      34.176  23.982  24.033  1.00  0.00     0.048 A 
ATOM     12  H   UNL A   1      33.949  24.848  22.139  1.00  0.00     0.167 HD
ATOM     13  C   UNL A   1      34.036  24.553  25.296  1.00  0.00     0.004 A 
ATOM     14  C   UNL A   1      34.574  22.654  23.836  1.00  0.00     0.047 A 
ATOM     15  C   UNL A   1      34.297  23.748  26.426  1.00  0.00     0.012 A 
ATOM     16  C   UNL A   1      34.825  21.883  24.973  1.00  0.00     0.043 A 
ATOM     17  C   UNL A   1      34.689  22.415  26.252  1.00  0.00     0.021 A 
ATOM     18  Cl  UNL A   1      35.307  20.240  24.785  1.00  0.00    -0.084 Cl
BRANCH   9  19
ATOM     19  C   UNL A   1      33.050  27.298  23.016  1.00  0.00     0.227 C 
ATOM     20  O   UNL A   1      33.842  27.981  22.376  1.00  0.00    -0.285 OA
BRANCH  19  21
ATOM     21  C   UNL A   1      31.579  27.642  23.034  1.00  0.00     0.113 A 
ATOM     22  C   UNL A   1      29.743  29.214  22.779  1.00  0.00    -0.026 A 
ATOM     23  C   UNL A   1      31.115  28.920  22.703  1.00  0.00     0.037 A 
ATOM     24  C   UNL A   1      28.879  28.171  23.144  1.00  0.00     0.062 A 
ATOM     25  C   UNL A   1      29.419  26.925  23.438  1.00  0.00     0.132 A 
ATOM     26  Cl  UNL A   1      27.170  28.375  23.242  1.00  0.00    -0.082 Cl
ATOM     27  N   UNL A   1      30.740  26.644  23.406  1.00  0.00    -0.251 NA
BRANCH  22  28
ATOM     28  C   UNL A   1      29.198  30.596  22.475  1.00  0.00     0.034 C 
ATOM     29  C   UNL A   1      28.965  31.528  23.662  1.00  0.00     0.009 C 
ENDBRANCH  22  28
ENDBRANCH  19  21
ENDBRANCH   9  19
ENDBRANCH   7   8
ENDBRANCH   4   7
ENDBRANCH   2   3
ENDBRANCH   1   2
BRANCH   1  30
ATOM     30  C   UNL A   1      31.460  32.027  26.573  1.00  0.00     0.023 C 
BRANCH  30  31
ATOM     31  C   UNL A   1      32.744  32.624  27.143  1.00  0.00     0.116 C 
BRANCH  31  32
ATOM     32  N   UNL A   1      32.563  33.957  27.691  1.00  0.00    -0.352 N 
ATOM     33  C   UNL A   1      33.256  34.595  28.691  1.00  0.00     0.251 C 
ATOM     34  H   UNL A   1      31.833  34.480  27.288  1.00  0.00     0.163 HD
ATOM     35  O   UNL A   1      32.874  35.699  29.068  1.00  0.00    -0.269 OA
BRANCH  33  36
ATOM     36  C   UNL A   1      34.424  33.952  29.338  1.00  0.00     0.039 A 
ATOM     37  C   UNL A   1      35.704  34.388  28.975  1.00  0.00     0.014 A 
ATOM     38  C   UNL A   1      34.278  32.916  30.265  1.00  0.00     0.014 A 
ATOM     39  C   UNL A   1      36.832  33.830  29.583  1.00  0.00     0.010 A 
ATOM     40  C   UNL A   1      35.402  32.386  30.899  1.00  0.00     0.010 A 
ATOM     41  C   UNL A   1      36.686  32.842  30.566  1.00  0.00    -0.014 A 
BRANCH  41  42
ATOM     42  C   UNL A   1      37.865  32.275  31.263  1.00  0.00     0.031 A 
ATOM     43  C   UNL A   1      38.664  31.177  30.623  1.00  0.00     0.074 A 
ATOM     44  C   UNL A   1      38.164  32.694  32.506  1.00  0.00     0.049 A 
ATOM     45  N   UNL A   1      39.646  30.470  31.121  1.00  0.00    -0.248 NA
ATOM     46  C   UNL A   1      38.286  30.809  29.251  1.00  0.00     0.031 C 
ATOM     47  C   UNL A   1      37.435  33.722  33.253  1.00  0.00     0.029 A 
ATOM     48  N   UNL A   1      39.147  32.287  33.370  1.00  0.00    -0.354 N 
ATOM     49  C   UNL A   1      39.984  29.548  30.137  1.00  0.00     0.074 A 
ATOM     50  C   UNL A   1      39.094  29.784  29.019  1.00  0.00     0.031 C 
ATOM     51  C   UNL A   1      37.989  33.856  34.469  1.00  0.00     0.029 A 
ATOM     52  C   UNL A   1      39.098  32.914  34.592  1.00  0.00     0.049 A 
ATOM     53  H   UNL A   1      39.824  31.612  33.138  1.00  0.00     0.167 HD
ATOM     54  C   UNL A   1      40.945  28.591  30.166  1.00  0.00     0.034 A 
ATOM     55  C   UNL A   1      39.850  32.737  35.693  1.00  0.00     0.034 A 
ATOM     56  C   UNL A   1      41.843  28.376  31.273  1.00  0.00     0.049 A 
ATOM     57  C   UNL A   1      40.955  31.722  35.677  1.00  0.00     0.074 A 
ATOM     58  C   UNL A   1      42.878  27.462  31.384  1.00  0.00     0.029 A 
ATOM     59  N   UNL A   1      41.811  29.085  32.465  1.00  0.00    -0.354 N 
ATOM     60  N   UNL A   1      41.270  30.864  34.736  1.00  0.00    -0.248 NA
ATOM     61  C   UNL A   1      41.809  31.659  36.870  1.00  0.00     0.031 C 
ATOM     62  C   UNL A   1      43.457  27.606  32.653  1.00  0.00     0.029 A 
ATOM     63  C   UNL A   1      42.803  28.629  33.320  1.00  0.00     0.049 A 
ATOM     64  H   UNL A   1      41.177  29.809  32.673  1.00  0.00     0.167 HD
ATOM     65  C   UNL A   1      42.365  30.161  35.222  1.00  0.00     0.074 A 
ATOM     66  C   UNL A   1      42.657  30.695  36.537  1.00  0.00     0.031 C 
ATOM     67  C   UNL A   1      43.069  29.165  34.630  1.00  0.00     0.034 A 
BRANCH  54  68
ATOM     68  C   UNL A   1      41.027  27.681  28.972  1.00  0.00     0.023 A 
ATOM     69  C   UNL A   1      42.027  27.833  27.997  1.00  0.00     0.031 A 
ATOM     70  C   UNL A   1      40.053  26.686  28.777  1.00  0.00     0.131 A 
ATOM     71  C   UNL A   1      41.993  27.045  26.836  1.00  0.00     0.055 A 
ATOM     72  C   UNL A   1      40.058  25.866  27.647  1.00  0.00     0.041 A 
ATOM     73  F   UNL A   1      39.062  26.517  29.667  1.00  0.00    -0.206 F 
ATOM     74  C   UNL A   1      41.025  26.053  26.663  1.00  0.00     0.022 A 
BRANCH  71  75
ATOM     75  S   UNL A   1      43.160  27.419  25.500  1.00  0.00     0.124 S 
ATOM     76  O   UNL A   1      42.340  28.238  24.611  1.00  0.00    -0.237 OA
ATOM     77  O   UNL A   1      44.233  28.113  26.201  1.00  0.00    -0.237 OA
ATOM     78  O   UNL A   1      43.511  26.102  24.973  1.00  0.00    -0.744 OA
ENDBRANCH  71  75
ENDBRANCH  54  68
BRANCH  55  79
ATOM     79  C   UNL A   1      39.559  33.519  36.918  1.00  0.00     0.023 A 
ATOM     80  C   UNL A   1      38.804  32.969  37.962  1.00  0.00     0.031 A 
ATOM     81  C   UNL A   1      40.044  34.829  37.054  1.00  0.00     0.131 A 
ATOM     82  C   UNL A   1      38.538  33.740  39.104  1.00  0.00     0.055 A 
ATOM     83  C   UNL A   1      39.787  35.588  38.195  1.00  0.00     0.041 A 
ATOM     84  F   UNL A   1      40.783  35.382  36.079  1.00  0.00    -0.206 F 
ATOM     85  C   UNL A   1      39.027  35.045  39.227  1.00  0.00     0.022 A 
BRANCH  82  86
ATOM     86  S   UNL A   1      37.533  33.016  40.427  1.00  0.00     0.124 S 
ATOM     87  O   UNL A   1      38.276  31.800  40.739  1.00  0.00    -0.237 OA
ATOM     88  O   UNL A   1      37.565  34.065  41.441  1.00  0.00    -0.237 OA
ATOM     89  O   UNL A   1      36.233  32.807  39.793  1.00  0.00    -0.744 OA
ENDBRANCH  82  86
ENDBRANCH  55  79
BRANCH  67  90
ATOM     90  C   UNL A   1      44.238  28.624  35.401  1.00  0.00     0.023 A 
ATOM     91  C   UNL A   1      44.069  27.632  36.380  1.00  0.00     0.031 A 
ATOM     92  C   UNL A   1      45.527  29.131  35.169  1.00  0.00     0.131 A 
ATOM     93  C   UNL A   1      45.178  27.194  37.119  1.00  0.00     0.055 A 
ATOM     94  C   UNL A   1      46.629  28.676  35.893  1.00  0.00     0.041 A 
ATOM     95  F   UNL A   1      45.729  30.086  34.248  1.00  0.00    -0.206 F 
ATOM     96  C   UNL A   1      46.457  27.706  36.878  1.00  0.00     0.022 A 
BRANCH  93  97
ATOM     97  S   UNL A   1      44.924  25.975  38.438  1.00  0.00     0.124 S 
ATOM     98  O   UNL A   1      43.862  26.595  39.226  1.00  0.00    -0.237 OA
ATOM     99  O   UNL A   1      44.549  24.779  37.691  1.00  0.00    -0.237 OA
ATOM    100  O   UNL A   1      46.225  25.909  39.100  1.00  0.00    -0.744 OA
ENDBRANCH  93  97
ENDBRANCH  67  90
ENDBRANCH  41  42
ENDBRANCH  33  36
ENDBRANCH  31  32
ENDBRANCH  30  31
ENDBRANCH   1  30
TORSDOF 18
ENDMDL
MODEL 2
REMARK VINA RESULT:     -12.4      3.669      8.596
REMARK SMILES CCc1cc(C(=O)c2[nH]c3cc(Cl)ccc3c2CC(=O)NCCCCNC(=O)c2ccc(-c3c4nc(c(-c5cc(S(=O)(=O)[O-])ccc5F)c5ccc([nH]5)c(-c5cc(S(=O)(=O)[O-])ccc5F)c5nc(c(-c6cc(S(=O)(=O)[O-])ccc6F)c6ccc3[nH]6)C=C5)C=C4)cc2)ncc1Cl
REMARK SMILES IDX 23 1 22 2 21 3 19 4 20 5 18 7 17 8 8 9 9 10 10 11 16 13
REMARK SMILES IDX 11 14 15 15 12 16 14 17 13 18 6 19 7 20 5 21 3 22 4 23 94 24
REMARK SMILES IDX 93 25 95 26 92 27 2 28 1 29 24 30 25 31 26 32 27 33 28 35
REMARK SMILES IDX 29 36 30 37 91 38 31 39 90 40 32 41 33 42 34 43 84 44 35 45
REMARK SMILES IDX 89 46 83 47 85 48 36 49 88 50 82 51 81 52 37 54 69 55 49 56
REMARK SMILES IDX 68 57 50 58 53 59 67 60 86 61 51 62 52 63 66 65 87 66 54 67
REMARK SMILES IDX 38 68 39 69 47 70 40 71 46 72 48 73 45 74 41 75 42 76 43 77
REMARK SMILES IDX 44 78 70 79 71 80 79 81 72 82 78 83 80 84 77 85 73 86 74 87
REMARK SMILES IDX 75 88 76 89 55 90 56 91 64 92 57 93 63 94 65 95 62 96 58 97
REMARK SMILES IDX 59 98 60 99 61 100
REMARK H PARENT 21 6 9 12 26 34 85 53 53 64
REMARK Flexibility Score: inf
ROOT
ATOM      1  C   UNL A   1      33.595  27.575  25.116  1.00  0.00     0.023 C 
ENDROOT
BRANCH   1   2
ATOM      2  C   UNL A   1      33.930  26.228  25.756  1.00  0.00     0.116 C 
BRANCH   2   3
ATOM      3  N   UNL A   1      34.741  25.381  24.906  1.00  0.00    -0.356 N 
ATOM      4  C   UNL A   1      34.996  24.044  25.012  1.00  0.00     0.224 C 
ATOM      5  O   UNL A   1      35.569  23.479  24.076  1.00  0.00    -0.275 OA
ATOM      6  H   UNL A   1      35.168  25.833  24.143  1.00  0.00     0.163 HD
BRANCH   4   7
ATOM      7  C   UNL A   1      34.478  23.241  26.195  1.00  0.00     0.138 C 
BRANCH   7   8
ATOM      8  C   UNL A   1      33.552  22.108  25.849  1.00  0.00    -0.002 A 
ATOM      9  C   UNL A   1      32.166  22.075  25.980  1.00  0.00     0.093 A 
ATOM     10  N   UNL A   1      31.733  20.879  25.454  1.00  0.00    -0.351 N 
ATOM     11  C   UNL A   1      32.797  20.081  25.118  1.00  0.00     0.048 A 
ATOM     12  H   UNL A   1      30.787  20.631  25.335  1.00  0.00     0.167 HD
ATOM     13  C   UNL A   1      33.954  20.817  25.363  1.00  0.00     0.004 A 
ATOM     14  C   UNL A   1      32.815  18.780  24.598  1.00  0.00     0.047 A 
ATOM     15  C   UNL A   1      35.200  20.215  25.084  1.00  0.00     0.012 A 
ATOM     16  C   UNL A   1      34.064  18.213  24.332  1.00  0.00     0.043 A 
ATOM     17  C   UNL A   1      35.242  18.913  24.569  1.00  0.00     0.021 A 
ATOM     18  Cl  UNL A   1      34.142  16.611  23.701  1.00  0.00    -0.084 Cl
BRANCH   9  19
ATOM     19  C   UNL A   1      31.255  23.090  26.482  1.00  0.00     0.227 C 
ATOM     20  O   UNL A   1      30.809  23.042  27.623  1.00  0.00    -0.285 OA
BRANCH  19  21
ATOM     21  C   UNL A   1      30.902  24.240  25.567  1.00  0.00     0.113 A 
ATOM     22  C   UNL A   1      31.057  25.414  23.445  1.00  0.00    -0.026 A 
ATOM     23  C   UNL A   1      31.368  24.305  24.249  1.00  0.00     0.037 A 
ATOM     24  C   UNL A   1      30.233  26.404  24.003  1.00  0.00     0.062 A 
ATOM     25  C   UNL A   1      29.797  26.254  25.313  1.00  0.00     0.132 A 
ATOM     26  Cl  UNL A   1      29.739  27.802  23.123  1.00  0.00    -0.082 Cl
ATOM     27  N   UNL A   1      30.123  25.209  26.106  1.00  0.00    -0.251 NA
BRANCH  22  28
ATOM     28  C   UNL A   1      31.576  25.552  22.027  1.00  0.00     0.034 C 
ATOM     29  C   UNL A   1      32.945  24.950  21.727  1.00  0.00     0.009 C 
ENDBRANCH  22  28
ENDBRANCH  19  21
ENDBRANCH   9  19
ENDBRANCH   7   8
ENDBRANCH   4   7
ENDBRANCH   2   3
ENDBRANCH   1   2
BRANCH   1  30
ATOM     30  C   UNL A   1      32.711  28.504  25.951  1.00  0.00     0.023 C 
BRANCH  30  31
ATOM     31  C   UNL A   1      33.289  28.948  27.293  1.00  0.00     0.116 C 
BRANCH  31  32
ATOM     32  N   UNL A   1      33.403  30.391  27.419  1.00  0.00    -0.352 N 
ATOM     33  C   UNL A   1      34.421  31.146  27.947  1.00  0.00     0.251 C 
ATOM     34  H   UNL A   1      32.637  30.904  27.074  1.00  0.00     0.163 HD
ATOM     35  O   UNL A   1      34.274  32.362  28.041  1.00  0.00    -0.269 OA
BRANCH  33  36
ATOM     36  C   UNL A   1      35.667  30.510  28.438  1.00  0.00     0.039 A 
ATOM     37  C   UNL A   1      36.810  30.589  27.634  1.00  0.00     0.014 A 
ATOM     38  C   UNL A   1      35.715  29.818  29.651  1.00  0.00     0.014 A 
ATOM     39  C   UNL A   1      38.014  30.028  28.072  1.00  0.00     0.010 A 
ATOM     40  C   UNL A   1      36.925  29.292  30.105  1.00  0.00     0.010 A 
ATOM     41  C   UNL A   1      38.083  29.398  29.321  1.00  0.00    -0.014 A 
BRANCH  41  42
ATOM     42  C   UNL A   1      39.361  28.844  29.830  1.00  0.00     0.031 A 
ATOM     43  C   UNL A   1      40.084  29.526  30.954  1.00  0.00     0.074 A 
ATOM     44  C   UNL A   1      39.907  27.775  29.222  1.00  0.00     0.049 A 
ATOM     45  N   UNL A   1      41.266  29.270  31.454  1.00  0.00    -0.248 NA
ATOM     46  C   UNL A   1      39.395  30.664  31.580  1.00  0.00     0.031 C 
ATOM     47  C   UNL A   1      39.324  27.053  28.088  1.00  0.00     0.029 A 
ATOM     48  N   UNL A   1      41.091  27.125  29.459  1.00  0.00    -0.354 N 
ATOM     49  C   UNL A   1      41.480  30.236  32.430  1.00  0.00     0.074 A 
ATOM     50  C   UNL A   1      40.307  31.085  32.443  1.00  0.00     0.031 C 
ATOM     51  C   UNL A   1      40.158  26.067  27.721  1.00  0.00     0.029 A 
ATOM     52  C   UNL A   1      41.339  26.099  28.579  1.00  0.00     0.049 A 
ATOM     53  H   UNL A   1      41.703  27.370  30.189  1.00  0.00     0.167 HD
ATOM     54  C   UNL A   1      42.558  30.401  33.237  1.00  0.00     0.034 A 
ATOM     55  C   UNL A   1      42.406  25.288  28.466  1.00  0.00     0.034 A 
ATOM     56  C   UNL A   1      43.714  29.539  33.236  1.00  0.00     0.049 A 
ATOM     57  C   UNL A   1      43.556  25.443  29.417  1.00  0.00     0.074 A 
ATOM     58  C   UNL A   1      44.838  29.594  34.042  1.00  0.00     0.029 A 
ATOM     59  N   UNL A   1      43.893  28.461  32.380  1.00  0.00    -0.354 N 
ATOM     60  N   UNL A   1      43.740  26.354  30.342  1.00  0.00    -0.248 NA
ATOM     61  C   UNL A   1      44.636  24.454  29.311  1.00  0.00     0.031 C 
ATOM     62  C   UNL A   1      45.707  28.562  33.658  1.00  0.00     0.029 A 
ATOM     63  C   UNL A   1      45.109  27.846  32.634  1.00  0.00     0.049 A 
ATOM     64  H   UNL A   1      43.249  28.174  31.692  1.00  0.00     0.167 HD
ATOM     65  C   UNL A   1      44.958  26.044  30.935  1.00  0.00     0.074 A 
ATOM     66  C   UNL A   1      45.463  24.862  30.265  1.00  0.00     0.031 C 
ATOM     67  C   UNL A   1      45.599  26.679  31.947  1.00  0.00     0.034 A 
BRANCH  54  68
ATOM     68  C   UNL A   1      42.540  31.594  34.152  1.00  0.00     0.023 A 
ATOM     69  C   UNL A   1      41.857  31.571  35.379  1.00  0.00     0.031 A 
ATOM     70  C   UNL A   1      43.163  32.792  33.759  1.00  0.00     0.131 A 
ATOM     71  C   UNL A   1      41.759  32.744  36.143  1.00  0.00     0.055 A 
ATOM     72  C   UNL A   1      43.110  33.940  34.551  1.00  0.00     0.041 A 
ATOM     73  F   UNL A   1      43.807  32.872  32.584  1.00  0.00    -0.206 F 
ATOM     74  C   UNL A   1      42.394  33.923  35.745  1.00  0.00     0.022 A 
BRANCH  71  75
ATOM     75  S   UNL A   1      40.685  32.740  37.604  1.00  0.00     0.124 S 
ATOM     76  O   UNL A   1      39.587  31.885  37.163  1.00  0.00    -0.237 OA
ATOM     77  O   UNL A   1      41.555  32.186  38.635  1.00  0.00    -0.237 OA
ATOM     78  O   UNL A   1      40.336  34.149  37.776  1.00  0.00    -0.744 OA
ENDBRANCH  71  75
ENDBRANCH  54  68
BRANCH  55  79
ATOM     79  C   UNL A   1      42.450  24.275  27.384  1.00  0.00     0.023 A 
ATOM     80  C   UNL A   1      41.733  23.076  27.489  1.00  0.00     0.031 A 
ATOM     81  C   UNL A   1      43.209  24.508  26.227  1.00  0.00     0.131 A 
ATOM     82  C   UNL A   1      41.804  22.135  26.451  1.00  0.00     0.055 A 
ATOM     83  C   UNL A   1      43.267  23.575  25.193  1.00  0.00     0.041 A 
ATOM     84  F   UNL A   1      43.896  25.652  26.087  1.00  0.00    -0.206 F 
ATOM     85  C   UNL A   1      42.565  22.378  25.303  1.00  0.00     0.022 A 
BRANCH  82  86
ATOM     86  S   UNL A   1      40.891  20.578  26.626  1.00  0.00     0.124 S 
ATOM     87  O   UNL A   1      40.872  20.401  28.074  1.00  0.00    -0.237 OA
ATOM     88  O   UNL A   1      39.612  20.905  26.003  1.00  0.00    -0.237 OA
ATOM     89  O   UNL A   1      41.711  19.618  25.890  1.00  0.00    -0.744 OA
ENDBRANCH  82  86
ENDBRANCH  55  79
BRANCH  67  90
ATOM     90  C   UNL A   1      46.897  26.075  32.397  1.00  0.00     0.023 A 
ATOM     91  C   UNL A   1      48.112  26.407  31.775  1.00  0.00     0.031 A 
ATOM     92  C   UNL A   1      46.910  25.136  33.442  1.00  0.00     0.131 A 
ATOM     93  C   UNL A   1      49.295  25.778  32.188  1.00  0.00     0.055 A 
ATOM     94  C   UNL A   1      48.093  24.529  33.862  1.00  0.00     0.041 A 
ATOM     95  F   UNL A   1      45.770  24.785  34.057  1.00  0.00    -0.206 F 
ATOM     96  C   UNL A   1      49.294  24.845  33.229  1.00  0.00     0.022 A 
BRANCH  93  97
ATOM     97  S   UNL A   1      50.838  26.157  31.312  1.00  0.00     0.124 S 
ATOM     98  O   UNL A   1      51.654  24.982  31.607  1.00  0.00    -0.237 OA
ATOM     99  O   UNL A   1      50.388  26.290  29.930  1.00  0.00    -0.237 OA
ATOM    100  O   UNL A   1      51.292  27.397  31.937  1.00  0.00    -0.744 OA
ENDBRANCH  93  97
ENDBRANCH  67  90
ENDBRANCH  41  42
ENDBRANCH  33  36
ENDBRANCH  31  32
ENDBRANCH  30  31
ENDBRANCH   1  30
TORSDOF 18
ENDMDL
MODEL 3
REMARK VINA RESULT:     -12.3      5.508     10.712
REMARK SMILES CCc1cc(C(=O)c2[nH]c3cc(Cl)ccc3c2CC(=O)NCCCCNC(=O)c2ccc(-c3c4nc(c(-c5cc(S(=O)(=O)[O-])ccc5F)c5ccc([nH]5)c(-c5cc(S(=O)(=O)[O-])ccc5F)c5nc(c(-c6cc(S(=O)(=O)[O-])ccc6F)c6ccc3[nH]6)C=C5)C=C4)cc2)ncc1Cl
REMARK SMILES IDX 23 1 22 2 21 3 19 4 20 5 18 7 17 8 8 9 9 10 10 11 16 13
REMARK SMILES IDX 11 14 15 15 12 16 14 17 13 18 6 19 7 20 5 21 3 22 4 23 94 24
REMARK SMILES IDX 93 25 95 26 92 27 2 28 1 29 24 30 25 31 26 32 27 33 28 35
REMARK SMILES IDX 29 36 30 37 91 38 31 39 90 40 32 41 33 42 34 43 84 44 35 45
REMARK SMILES IDX 89 46 83 47 85 48 36 49 88 50 82 51 81 52 37 54 69 55 49 56
REMARK SMILES IDX 68 57 50 58 53 59 67 60 86 61 51 62 52 63 66 65 87 66 54 67
REMARK SMILES IDX 38 68 39 69 47 70 40 71 46 72 48 73 45 74 41 75 42 76 43 77
REMARK SMILES IDX 44 78 70 79 71 80 79 81 72 82 78 83 80 84 77 85 73 86 74 87
REMARK SMILES IDX 75 88 76 89 55 90 56 91 64 92 57 93 63 94 65 95 62 96 58 97
REMARK SMILES IDX 59 98 60 99 61 100
REMARK H PARENT 21 6 9 12 26 34 85 53 53 64
REMARK Flexibility Score: inf
ROOT
ATOM      1  C   UNL A   1      35.244  23.421  26.146  1.00  0.00     0.023 C 
ENDROOT
BRANCH   1   2
ATOM      2  C   UNL A   1      34.687  24.608  25.362  1.00  0.00     0.116 C 
BRANCH   2   3
ATOM      3  N   UNL A   1      33.779  25.427  26.138  1.00  0.00    -0.356 N 
ATOM      4  C   UNL A   1      33.196  26.618  25.809  1.00  0.00     0.224 C 
ATOM      5  O   UNL A   1      32.309  27.060  26.545  1.00  0.00    -0.275 OA
ATOM      6  H   UNL A   1      33.550  25.076  27.028  1.00  0.00     0.163 HD
BRANCH   4   7
ATOM      7  C   UNL A   1      33.537  27.321  24.505  1.00  0.00     0.138 C 
BRANCH   7   8
ATOM      8  C   UNL A   1      32.369  27.600  23.599  1.00  0.00    -0.002 A 
ATOM      9  C   UNL A   1      31.994  26.895  22.458  1.00  0.00     0.093 A 
ATOM     10  N   UNL A   1      30.815  27.444  22.006  1.00  0.00    -0.351 N 
ATOM     11  C   UNL A   1      30.493  28.565  22.726  1.00  0.00     0.048 A 
ATOM     12  H   UNL A   1      30.278  27.081  21.264  1.00  0.00     0.167 HD
ATOM     13  C   UNL A   1      31.452  28.698  23.728  1.00  0.00     0.004 A 
ATOM     14  C   UNL A   1      29.416  29.450  22.579  1.00  0.00     0.047 A 
ATOM     15  C   UNL A   1      31.336  29.782  24.625  1.00  0.00     0.012 A 
ATOM     16  C   UNL A   1      29.329  30.511  23.483  1.00  0.00     0.043 A 
ATOM     17  C   UNL A   1      30.271  30.682  24.491  1.00  0.00     0.021 A 
ATOM     18  Cl  UNL A   1      28.029  31.633  23.338  1.00  0.00    -0.084 Cl
BRANCH   9  19
ATOM     19  C   UNL A   1      32.610  25.734  21.837  1.00  0.00     0.227 C 
ATOM     20  O   UNL A   1      33.272  25.834  20.810  1.00  0.00    -0.285 OA
BRANCH  19  21
ATOM     21  C   UNL A   1      32.449  24.395  22.519  1.00  0.00     0.113 A 
ATOM     22  C   UNL A   1      31.518  22.975  24.258  1.00  0.00    -0.026 A 
ATOM     23  C   UNL A   1      31.604  24.226  23.622  1.00  0.00     0.037 A 
ATOM     24  C   UNL A   1      32.265  21.921  23.712  1.00  0.00     0.062 A 
ATOM     25  C   UNL A   1      33.065  22.169  22.603  1.00  0.00     0.132 A 
ATOM     26  Cl  UNL A   1      32.229  20.325  24.364  1.00  0.00    -0.082 Cl
ATOM     27  N   UNL A   1      33.184  23.377  22.009  1.00  0.00    -0.251 NA
BRANCH  22  28
ATOM     28  C   UNL A   1      30.653  22.753  25.483  1.00  0.00     0.034 C 
ATOM     29  C   UNL A   1      31.316  22.940  26.845  1.00  0.00     0.009 C 
ENDBRANCH  22  28
ENDBRANCH  19  21
ENDBRANCH   9  19
ENDBRANCH   7   8
ENDBRANCH   4   7
ENDBRANCH   2   3
ENDBRANCH   1   2
BRANCH   1  30
ATOM     30  C   UNL A   1      35.389  22.116  25.360  1.00  0.00     0.023 C 
BRANCH  30  31
ATOM     31  C   UNL A   1      36.699  21.938  24.595  1.00  0.00     0.116 C 
BRANCH  31  32
ATOM     32  N   UNL A   1      37.484  20.808  25.058  1.00  0.00    -0.352 N 
ATOM     33  C   UNL A   1      38.673  20.790  25.745  1.00  0.00     0.251 C 
ATOM     34  H   UNL A   1      37.108  19.922  24.848  1.00  0.00     0.163 HD
ATOM     35  O   UNL A   1      39.220  19.711  25.960  1.00  0.00    -0.269 OA
BRANCH  33  36
ATOM     36  C   UNL A   1      39.316  22.048  26.189  1.00  0.00     0.039 A 
ATOM     37  C   UNL A   1      40.431  21.960  27.031  1.00  0.00     0.014 A 
ATOM     38  C   UNL A   1      38.822  23.302  25.817  1.00  0.00     0.014 A 
ATOM     39  C   UNL A   1      41.085  23.122  27.450  1.00  0.00     0.010 A 
ATOM     40  C   UNL A   1      39.498  24.460  26.204  1.00  0.00     0.010 A 
ATOM     41  C   UNL A   1      40.637  24.378  27.019  1.00  0.00    -0.014 A 
BRANCH  41  42
ATOM     42  C   UNL A   1      41.347  25.619  27.406  1.00  0.00     0.031 A 
ATOM     43  C   UNL A   1      40.652  26.660  28.234  1.00  0.00     0.074 A 
ATOM     44  C   UNL A   1      42.591  25.842  26.941  1.00  0.00     0.049 A 
ATOM     45  N   UNL A   1      41.057  27.858  28.568  1.00  0.00    -0.248 NA
ATOM     46  C   UNL A   1      39.310  26.315  28.725  1.00  0.00     0.031 C 
ATOM     47  C   UNL A   1      43.355  24.928  26.090  1.00  0.00     0.029 A 
ATOM     48  N   UNL A   1      43.420  26.922  27.101  1.00  0.00    -0.354 N 
ATOM     49  C   UNL A   1      40.009  28.426  29.282  1.00  0.00     0.074 A 
ATOM     50  C   UNL A   1      38.948  27.441  29.322  1.00  0.00     0.031 C 
ATOM     51  C   UNL A   1      44.537  25.491  25.792  1.00  0.00     0.029 A 
ATOM     52  C   UNL A   1      44.605  26.809  26.416  1.00  0.00     0.049 A 
ATOM     53  H   UNL A   1      43.189  27.702  27.655  1.00  0.00     0.167 HD
ATOM     54  C   UNL A   1      39.936  29.657  29.847  1.00  0.00     0.034 A 
ATOM     55  C   UNL A   1      45.625  27.678  26.290  1.00  0.00     0.034 A 
ATOM     56  C   UNL A   1      41.004  30.626  29.824  1.00  0.00     0.049 A 
ATOM     57  C   UNL A   1      45.553  29.006  26.984  1.00  0.00     0.074 A 
ATOM     58  C   UNL A   1      41.047  31.883  30.403  1.00  0.00     0.029 A 
ATOM     59  N   UNL A   1      42.221  30.443  29.183  1.00  0.00    -0.354 N 
ATOM     60  N   UNL A   1      44.559  29.526  27.663  1.00  0.00    -0.248 NA
ATOM     61  C   UNL A   1      46.746  29.859  26.898  1.00  0.00     0.031 C 
ATOM     62  C   UNL A   1      42.283  32.468  30.093  1.00  0.00     0.029 A 
ATOM     63  C   UNL A   1      43.021  31.564  29.348  1.00  0.00     0.049 A 
ATOM     64  H   UNL A   1      42.481  29.634  28.685  1.00  0.00     0.167 HD
ATOM     65  C   UNL A   1      45.009  30.768  28.093  1.00  0.00     0.074 A 
ATOM     66  C   UNL A   1      46.363  30.919  27.598  1.00  0.00     0.031 C 
ATOM     67  C   UNL A   1      44.361  31.699  28.835  1.00  0.00     0.034 A 
BRANCH  54  68
ATOM     68  C   UNL A   1      38.630  30.027  30.494  1.00  0.00     0.023 A 
ATOM     69  C   UNL A   1      37.642  30.745  29.800  1.00  0.00     0.031 A 
ATOM     70  C   UNL A   1      38.398  29.710  31.844  1.00  0.00     0.131 A 
ATOM     71  C   UNL A   1      36.492  31.179  30.477  1.00  0.00     0.055 A 
ATOM     72  C   UNL A   1      37.226  30.095  32.497  1.00  0.00     0.041 A 
ATOM     73  F   UNL A   1      39.322  29.047  32.557  1.00  0.00    -0.206 F 
ATOM     74  C   UNL A   1      36.271  30.845  31.816  1.00  0.00     0.022 A 
BRANCH  71  75
ATOM     75  S   UNL A   1      35.347  32.291  29.617  1.00  0.00     0.124 S 
ATOM     76  O   UNL A   1      36.246  33.346  29.160  1.00  0.00    -0.237 OA
ATOM     77  O   UNL A   1      34.788  31.431  28.581  1.00  0.00    -0.237 OA
ATOM     78  O   UNL A   1      34.409  32.693  30.664  1.00  0.00    -0.744 OA
ENDBRANCH  71  75
ENDBRANCH  54  68
BRANCH  55  79
ATOM     79  C   UNL A   1      46.789  27.330  25.441  1.00  0.00     0.023 A 
ATOM     80  C   UNL A   1      46.922  27.853  24.148  1.00  0.00     0.031 A 
ATOM     81  C   UNL A   1      47.786  26.469  25.925  1.00  0.00     0.131 A 
ATOM     82  C   UNL A   1      48.032  27.495  23.368  1.00  0.00     0.055 A 
ATOM     83  C   UNL A   1      48.893  26.125  25.151  1.00  0.00     0.041 A 
ATOM     84  F   UNL A   1      47.698  25.960  27.165  1.00  0.00    -0.206 F 
ATOM     85  C   UNL A   1      49.019  26.636  23.862  1.00  0.00     0.022 A 
BRANCH  82  86
ATOM     86  S   UNL A   1      48.164  28.163  21.688  1.00  0.00     0.124 S 
ATOM     87  O   UNL A   1      47.904  26.982  20.872  1.00  0.00    -0.237 OA
ATOM     88  O   UNL A   1      47.122  29.186  21.686  1.00  0.00    -0.237 OA
ATOM     89  O   UNL A   1      49.532  28.673  21.630  1.00  0.00    -0.744 OA
ENDBRANCH  82  86
ENDBRANCH  55  79
BRANCH  67  90
ATOM     90  C   UNL A   1      45.134  32.941  29.173  1.00  0.00     0.023 A 
ATOM     91  C   UNL A   1      45.126  34.059  28.325  1.00  0.00     0.031 A 
ATOM     92  C   UNL A   1      45.908  32.988  30.345  1.00  0.00     0.131 A 
ATOM     93  C   UNL A   1      45.907  35.178  28.647  1.00  0.00     0.055 A 
ATOM     94  C   UNL A   1      46.666  34.113  30.671  1.00  0.00     0.041 A 
ATOM     95  F   UNL A   1      45.949  31.937  31.178  1.00  0.00    -0.206 F 
ATOM     96  C   UNL A   1      46.673  35.214  29.816  1.00  0.00     0.022 A 
BRANCH  93  97
ATOM     97  S   UNL A   1      45.950  36.577  27.492  1.00  0.00     0.124 S 
ATOM     98  O   UNL A   1      46.465  35.953  26.276  1.00  0.00    -0.237 OA
ATOM     99  O   UNL A   1      44.552  36.993  27.454  1.00  0.00    -0.237 OA
ATOM    100  O   UNL A   1      46.861  37.523  28.133  1.00  0.00    -0.744 OA
ENDBRANCH  93  97
ENDBRANCH  67  90
ENDBRANCH  41  42
ENDBRANCH  33  36
ENDBRANCH  31  32
ENDBRANCH  30  31
ENDBRANCH   1  30
TORSDOF 18
ENDMDL
