MODEL 1
REMARK VINA RESULT:     -10.6      0.000      0.000
REMARK SMILES O=C(NCCCCNC(=O)[C@H]1CC1(c1ccccc1)c1ccccc1)c1ccc(-c2c3nc(c(-c4cc(S(=O)(=O)[O-])ccc4F)c4ccc([nH]4)c(-c4cc(S(=O)(=O)[O-])ccc4F)c4nc(c(-c5cc(S(=O)(=O)[O-])ccc5F)c5ccc2[nH]5)C=C4)C=C3)cc1
REMARK SMILES IDX 4 1 3 2 1 3 2 4 26 6 27 7 88 8 28 9 87 10 29 11 30 12 31 13
REMARK SMILES IDX 81 14 32 15 86 16 80 17 82 18 33 19 85 20 79 21 78 22 34 24
REMARK SMILES IDX 66 25 46 26 65 27 47 28 50 29 64 30 83 31 48 32 49 33 63 35
REMARK SMILES IDX 84 36 51 37 35 38 36 39 44 40 37 41 43 42 45 43 42 44 38 45
REMARK SMILES IDX 39 46 40 47 41 48 67 49 68 50 76 51 69 52 75 53 77 54 74 55
REMARK SMILES IDX 70 56 71 57 72 58 73 59 52 60 53 61 61 62 54 63 60 64 62 65
REMARK SMILES IDX 59 66 55 67 56 68 57 69 58 70 5 71 6 72 7 73 8 74 9 75 10 77
REMARK SMILES IDX 11 78 12 79 13 80 14 81 15 82 19 83 16 84 18 85 17 86 20 87
REMARK SMILES IDX 21 88 25 89 22 90 24 91 23 92
REMARK H PARENT 3 5 82 23 50 34 8 76
REMARK Flexibility Score: inf
ROOT
ATOM      1  C   UNL A   1      40.509  21.547  26.125  1.00  0.00     0.116 C 
ENDROOT
BRANCH   1   2
ATOM      2  N   UNL A   1      39.095  21.819  25.899  1.00  0.00    -0.352 N 
ATOM      3  O   UNL A   1      37.185  23.025  26.007  1.00  0.00    -0.269 OA
ATOM      4  C   UNL A   1      38.397  22.969  26.190  1.00  0.00     0.251 C 
ATOM      5  H   UNL A   1      38.576  21.091  25.487  1.00  0.00     0.163 HD
BRANCH   4   6
ATOM      6  C   UNL A   1      39.121  24.120  26.770  1.00  0.00     0.039 A 
ATOM      7  C   UNL A   1      39.030  24.395  28.136  1.00  0.00     0.014 A 
ATOM      8  C   UNL A   1      39.844  24.966  25.926  1.00  0.00     0.014 A 
ATOM      9  C   UNL A   1      39.519  25.599  28.627  1.00  0.00     0.010 A 
ATOM     10  C   UNL A   1      40.403  26.141  26.439  1.00  0.00     0.010 A 
ATOM     11  C   UNL A   1      40.201  26.492  27.782  1.00  0.00    -0.014 A 
BRANCH  11  12
ATOM     12  C   UNL A   1      40.681  27.786  28.336  1.00  0.00     0.031 A 
ATOM     13  C   UNL A   1      42.148  28.127  28.339  1.00  0.00     0.074 A 
ATOM     14  C   UNL A   1      39.777  28.678  28.784  1.00  0.00     0.049 A 
ATOM     15  N   UNL A   1      42.740  29.224  28.736  1.00  0.00    -0.248 NA
ATOM     16  C   UNL A   1      43.070  27.096  27.841  1.00  0.00     0.031 C 
ATOM     17  C   UNL A   1      38.329  28.454  28.831  1.00  0.00     0.029 A 
ATOM     18  N   UNL A   1      39.931  29.956  29.254  1.00  0.00    -0.354 N 
ATOM     19  C   UNL A   1      44.104  29.011  28.561  1.00  0.00     0.074 A 
ATOM     20  C   UNL A   1      44.249  27.663  28.049  1.00  0.00     0.031 C 
ATOM     21  C   UNL A   1      37.726  29.576  29.252  1.00  0.00     0.029 A 
ATOM     22  C   UNL A   1      38.742  30.575  29.562  1.00  0.00     0.049 A 
ATOM     23  H   UNL A   1      40.808  30.388  29.364  1.00  0.00     0.167 HD
ATOM     24  C   UNL A   1      45.135  29.860  28.800  1.00  0.00     0.034 A 
ATOM     25  C   UNL A   1      38.495  31.808  30.044  1.00  0.00     0.034 A 
ATOM     26  C   UNL A   1      44.968  31.207  29.295  1.00  0.00     0.049 A 
ATOM     27  C   UNL A   1      39.656  32.730  30.301  1.00  0.00     0.074 A 
ATOM     28  C   UNL A   1      45.939  32.163  29.543  1.00  0.00     0.029 A 
ATOM     29  N   UNL A   1      43.751  31.791  29.623  1.00  0.00    -0.354 N 
ATOM     30  N   UNL A   1      40.938  32.514  30.119  1.00  0.00    -0.248 NA
ATOM     31  C   UNL A   1      39.333  34.064  30.822  1.00  0.00     0.031 C 
ATOM     32  C   UNL A   1      45.317  33.300  30.073  1.00  0.00     0.029 A 
ATOM     33  C   UNL A   1      43.948  33.081  30.093  1.00  0.00     0.049 A 
ATOM     34  H   UNL A   1      42.874  31.351  29.535  1.00  0.00     0.167 HD
ATOM     35  C   UNL A   1      41.575  33.696  30.485  1.00  0.00     0.074 A 
ATOM     36  C   UNL A   1      40.532  34.624  30.876  1.00  0.00     0.031 C 
ATOM     37  C   UNL A   1      42.900  33.989  30.495  1.00  0.00     0.034 A 
BRANCH  24  38
ATOM     38  C   UNL A   1      46.535  29.336  28.575  1.00  0.00     0.023 A 
ATOM     39  C   UNL A   1      47.225  28.608  29.561  1.00  0.00     0.031 A 
ATOM     40  C   UNL A   1      47.200  29.594  27.364  1.00  0.00     0.131 A 
ATOM     41  C   UNL A   1      48.559  28.226  29.345  1.00  0.00     0.055 A 
ATOM     42  C   UNL A   1      48.502  29.145  27.125  1.00  0.00     0.041 A 
ATOM     43  F   UNL A   1      46.601  30.301  26.393  1.00  0.00    -0.206 F 
ATOM     44  C   UNL A   1      49.194  28.469  28.124  1.00  0.00     0.022 A 
BRANCH  41  45
ATOM     45  S   UNL A   1      49.499  27.532  30.733  1.00  0.00     0.124 S 
ATOM     46  O   UNL A   1      50.678  26.999  30.054  1.00  0.00    -0.237 OA
ATOM     47  O   UNL A   1      49.723  28.699  31.579  1.00  0.00    -0.237 OA
ATOM     48  O   UNL A   1      48.600  26.522  31.286  1.00  0.00    -0.744 OA
ENDBRANCH  41  45
ENDBRANCH  24  38
BRANCH  25  49
ATOM     49  C   UNL A   1      37.097  32.234  30.326  1.00  0.00     0.023 A 
ATOM     50  C   UNL A   1      36.241  32.642  29.292  1.00  0.00     0.031 A 
ATOM     51  C   UNL A   1      36.603  32.257  31.642  1.00  0.00     0.131 A 
ATOM     52  C   UNL A   1      34.946  33.090  29.594  1.00  0.00     0.055 A 
ATOM     53  C   UNL A   1      35.298  32.657  31.933  1.00  0.00     0.041 A 
ATOM     54  F   UNL A   1      37.381  31.870  32.666  1.00  0.00    -0.206 F 
ATOM     55  C   UNL A   1      34.465  33.087  30.906  1.00  0.00     0.022 A 
BRANCH  52  56
ATOM     56  S   UNL A   1      33.917  33.741  28.251  1.00  0.00     0.124 S 
ATOM     57  O   UNL A   1      34.897  34.464  27.447  1.00  0.00    -0.237 OA
ATOM     58  O   UNL A   1      33.380  32.518  27.661  1.00  0.00    -0.237 OA
ATOM     59  O   UNL A   1      32.940  34.577  28.945  1.00  0.00    -0.744 OA
ENDBRANCH  52  56
ENDBRANCH  25  49
BRANCH  37  60
ATOM     60  C   UNL A   1      43.278  35.389  30.909  1.00  0.00     0.023 A 
ATOM     61  C   UNL A   1      43.403  36.428  29.968  1.00  0.00     0.031 A 
ATOM     62  C   UNL A   1      43.556  35.677  32.256  1.00  0.00     0.131 A 
ATOM     63  C   UNL A   1      43.861  37.688  30.378  1.00  0.00     0.055 A 
ATOM     64  C   UNL A   1      43.955  36.949  32.667  1.00  0.00     0.041 A 
ATOM     65  F   UNL A   1      43.453  34.721  33.194  1.00  0.00    -0.206 F 
ATOM     66  C   UNL A   1      44.125  37.960  31.724  1.00  0.00     0.022 A 
BRANCH  63  67
ATOM     67  S   UNL A   1      44.211  38.941  29.115  1.00  0.00     0.124 S 
ATOM     68  O   UNL A   1      44.856  38.150  28.071  1.00  0.00    -0.237 OA
ATOM     69  O   UNL A   1      42.877  39.445  28.799  1.00  0.00    -0.237 OA
ATOM     70  O   UNL A   1      45.085  39.890  29.803  1.00  0.00    -0.744 OA
ENDBRANCH  63  67
ENDBRANCH  37  60
ENDBRANCH  11  12
ENDBRANCH   4   6
ENDBRANCH   1   2
BRANCH   1  71
ATOM     71  C   UNL A   1      40.781  20.325  27.000  1.00  0.00     0.023 C 
BRANCH  71  72
ATOM     72  C   UNL A   1      42.126  19.630  26.770  1.00  0.00     0.023 C 
BRANCH  72  73
ATOM     73  C   UNL A   1      42.838  20.031  25.483  1.00  0.00     0.116 C 
BRANCH  73  74
ATOM     74  N   UNL A   1      44.280  19.980  25.595  1.00  0.00    -0.356 N 
ATOM     75  C   UNL A   1      45.254  20.916  25.380  1.00  0.00     0.224 C 
ATOM     76  H   UNL A   1      44.626  19.103  25.879  1.00  0.00     0.163 HD
ATOM     77  O   UNL A   1      46.397  20.640  25.743  1.00  0.00    -0.275 OA
BRANCH  75  78
ATOM     78  C   UNL A   1      45.051  22.225  24.704  1.00  0.00     0.095 C 
ATOM     79  C   UNL A   1      43.785  22.979  24.467  1.00  0.00     0.032 C 
ATOM     80  C   UNL A   1      44.798  23.527  25.485  1.00  0.00     0.033 C 
BRANCH  80  81
ATOM     81  C   UNL A   1      44.366  23.461  26.964  1.00  0.00    -0.037 A 
ATOM     82  C   UNL A   1      43.007  23.363  27.317  1.00  0.00     0.004 A 
ATOM     83  C   UNL A   1      45.295  23.586  28.014  1.00  0.00     0.004 A 
ATOM     84  C   UNL A   1      42.596  23.390  28.652  1.00  0.00     0.000 A 
ATOM     85  C   UNL A   1      44.889  23.622  29.350  1.00  0.00     0.000 A 
ATOM     86  C   UNL A   1      43.537  23.526  29.667  1.00  0.00     0.000 A 
ENDBRANCH  80  81
BRANCH  80  87
ATOM     87  C   UNL A   1      45.618  24.803  25.106  1.00  0.00    -0.037 A 
ATOM     88  C   UNL A   1      47.012  24.734  24.891  1.00  0.00     0.004 A 
ATOM     89  C   UNL A   1      45.054  26.090  25.001  1.00  0.00     0.004 A 
ATOM     90  C   UNL A   1      47.797  25.865  24.643  1.00  0.00     0.000 A 
ATOM     91  C   UNL A   1      45.831  27.229  24.748  1.00  0.00     0.000 A 
ATOM     92  C   UNL A   1      47.205  27.117  24.580  1.00  0.00     0.000 A 
ENDBRANCH  80  87
ENDBRANCH  75  78
ENDBRANCH  73  74
ENDBRANCH  72  73
ENDBRANCH  71  72
ENDBRANCH   1  71
TORSDOF 16
ENDMDL
MODEL 2
REMARK VINA RESULT:     -10.5      2.082      2.354
REMARK SMILES O=C(NCCCCNC(=O)[C@H]1CC1(c1ccccc1)c1ccccc1)c1ccc(-c2c3nc(c(-c4cc(S(=O)(=O)[O-])ccc4F)c4ccc([nH]4)c(-c4cc(S(=O)(=O)[O-])ccc4F)c4nc(c(-c5cc(S(=O)(=O)[O-])ccc5F)c5ccc2[nH]5)C=C4)C=C3)cc1
REMARK SMILES IDX 4 1 3 2 1 3 2 4 26 6 27 7 88 8 28 9 87 10 29 11 30 12 31 13
REMARK SMILES IDX 81 14 32 15 86 16 80 17 82 18 33 19 85 20 79 21 78 22 34 24
REMARK SMILES IDX 66 25 46 26 65 27 47 28 50 29 64 30 83 31 48 32 49 33 63 35
REMARK SMILES IDX 84 36 51 37 35 38 36 39 44 40 37 41 43 42 45 43 42 44 38 45
REMARK SMILES IDX 39 46 40 47 41 48 67 49 68 50 76 51 69 52 75 53 77 54 74 55
REMARK SMILES IDX 70 56 71 57 72 58 73 59 52 60 53 61 61 62 54 63 60 64 62 65
REMARK SMILES IDX 59 66 55 67 56 68 57 69 58 70 5 71 6 72 7 73 8 74 9 75 10 77
REMARK SMILES IDX 11 78 12 79 13 80 14 81 15 82 19 83 16 84 18 85 17 86 20 87
REMARK SMILES IDX 21 88 25 89 22 90 24 91 23 92
REMARK H PARENT 3 5 82 23 50 34 8 76
REMARK Flexibility Score: inf
ROOT
ATOM      1  C   UNL A   1      40.142  21.351  26.888  1.00  0.00     0.116 C 
ENDROOT
BRANCH   1   2
ATOM      2  N   UNL A   1      39.034  21.846  26.081  1.00  0.00    -0.352 N 
ATOM      3  O   UNL A   1      37.579  23.395  25.306  1.00  0.00    -0.269 OA
ATOM      4  C   UNL A   1      38.575  23.140  25.977  1.00  0.00     0.251 C 
ATOM      5  H   UNL A   1      38.557  21.174  25.543  1.00  0.00     0.163 HD
BRANCH   4   6
ATOM      6  C   UNL A   1      39.272  24.210  26.721  1.00  0.00     0.039 A 
ATOM      7  C   UNL A   1      39.063  24.365  28.093  1.00  0.00     0.014 A 
ATOM      8  C   UNL A   1      40.088  25.104  26.025  1.00  0.00     0.014 A 
ATOM      9  C   UNL A   1      39.535  25.504  28.734  1.00  0.00     0.010 A 
ATOM     10  C   UNL A   1      40.627  26.210  26.691  1.00  0.00     0.010 A 
ATOM     11  C   UNL A   1      40.313  26.446  28.038  1.00  0.00    -0.014 A 
BRANCH  11  12
ATOM     12  C   UNL A   1      40.772  27.669  28.748  1.00  0.00     0.031 A 
ATOM     13  C   UNL A   1      42.239  27.927  28.969  1.00  0.00     0.074 A 
ATOM     14  C   UNL A   1      39.857  28.575  29.142  1.00  0.00     0.049 A 
ATOM     15  N   UNL A   1      42.822  28.960  29.524  1.00  0.00    -0.248 NA
ATOM     16  C   UNL A   1      43.172  26.886  28.517  1.00  0.00     0.031 C 
ATOM     17  C   UNL A   1      38.408  28.429  28.983  1.00  0.00     0.029 A 
ATOM     18  N   UNL A   1      40.004  29.806  29.727  1.00  0.00    -0.354 N 
ATOM     19  C   UNL A   1      44.186  28.684  29.512  1.00  0.00     0.074 A 
ATOM     20  C   UNL A   1      44.338  27.370  28.921  1.00  0.00     0.031 C 
ATOM     21  C   UNL A   1      37.804  29.549  29.408  1.00  0.00     0.029 A 
ATOM     22  C   UNL A   1      38.814  30.467  29.924  1.00  0.00     0.049 A 
ATOM     23  H   UNL A   1      40.878  30.181  29.983  1.00  0.00     0.167 HD
ATOM     24  C   UNL A   1      45.212  29.456  29.948  1.00  0.00     0.034 A 
ATOM     25  C   UNL A   1      38.561  31.673  30.464  1.00  0.00     0.034 A 
ATOM     26  C   UNL A   1      45.042  30.773  30.521  1.00  0.00     0.049 A 
ATOM     27  C   UNL A   1      39.718  32.510  30.941  1.00  0.00     0.074 A 
ATOM     28  C   UNL A   1      46.014  31.653  30.966  1.00  0.00     0.029 A 
ATOM     29  N   UNL A   1      43.819  31.397  30.731  1.00  0.00    -0.354 N 
ATOM     30  N   UNL A   1      41.001  32.237  30.911  1.00  0.00    -0.248 NA
ATOM     31  C   UNL A   1      39.388  33.819  31.517  1.00  0.00     0.031 C 
ATOM     32  C   UNL A   1      45.377  32.782  31.498  1.00  0.00     0.029 A 
ATOM     33  C   UNL A   1      44.010  32.639  31.322  1.00  0.00     0.049 A 
ATOM     34  H   UNL A   1      42.943  31.014  30.497  1.00  0.00     0.167 HD
ATOM     35  C   UNL A   1      41.635  33.354  31.448  1.00  0.00     0.074 A 
ATOM     36  C   UNL A   1      40.593  34.307  31.771  1.00  0.00     0.031 C 
ATOM     37  C   UNL A   1      42.959  33.571  31.654  1.00  0.00     0.034 A 
BRANCH  24  38
ATOM     38  C   UNL A   1      46.605  28.874  29.869  1.00  0.00     0.023 A 
ATOM     39  C   UNL A   1      47.425  29.054  28.741  1.00  0.00     0.031 A 
ATOM     40  C   UNL A   1      47.110  28.102  30.930  1.00  0.00     0.131 A 
ATOM     41  C   UNL A   1      48.673  28.414  28.671  1.00  0.00     0.055 A 
ATOM     42  C   UNL A   1      48.384  27.530  30.887  1.00  0.00     0.041 A 
ATOM     43  F   UNL A   1      46.367  27.877  32.025  1.00  0.00    -0.206 F 
ATOM     44  C   UNL A   1      49.168  27.673  29.747  1.00  0.00     0.022 A 
BRANCH  41  45
ATOM     45  S   UNL A   1      49.580  28.448  27.100  1.00  0.00     0.124 S 
ATOM     46  O   UNL A   1      49.614  27.031  26.747  1.00  0.00    -0.237 OA
ATOM     47  O   UNL A   1      48.735  29.294  26.265  1.00  0.00    -0.237 OA
ATOM     48  O   UNL A   1      50.875  29.022  27.463  1.00  0.00    -0.744 OA
ENDBRANCH  41  45
ENDBRANCH  24  38
BRANCH  25  49
ATOM     49  C   UNL A   1      37.159  32.155  30.594  1.00  0.00     0.023 A 
ATOM     50  C   UNL A   1      36.498  32.763  29.515  1.00  0.00     0.031 A 
ATOM     51  C   UNL A   1      36.464  32.030  31.810  1.00  0.00     0.131 A 
ATOM     52  C   UNL A   1      35.194  33.256  29.683  1.00  0.00     0.055 A 
ATOM     53  C   UNL A   1      35.150  32.478  31.958  1.00  0.00     0.041 A 
ATOM     54  F   UNL A   1      37.050  31.450  32.869  1.00  0.00    -0.206 F 
ATOM     55  C   UNL A   1      34.512  33.105  30.893  1.00  0.00     0.022 A 
BRANCH  52  56
ATOM     56  S   UNL A   1      34.424  34.158  28.312  1.00  0.00     0.124 S 
ATOM     57  O   UNL A   1      35.443  34.050  27.274  1.00  0.00    -0.237 OA
ATOM     58  O   UNL A   1      33.202  33.391  28.094  1.00  0.00    -0.237 OA
ATOM     59  O   UNL A   1      34.227  35.500  28.857  1.00  0.00    -0.744 OA
ENDBRANCH  52  56
ENDBRANCH  25  49
BRANCH  37  60
ATOM     60  C   UNL A   1      43.341  34.916  32.220  1.00  0.00     0.023 A 
ATOM     61  C   UNL A   1      43.403  35.142  33.607  1.00  0.00     0.031 A 
ATOM     62  C   UNL A   1      43.607  35.995  31.360  1.00  0.00     0.131 A 
ATOM     63  C   UNL A   1      43.657  36.432  34.093  1.00  0.00     0.055 A 
ATOM     64  C   UNL A   1      43.917  37.264  31.849  1.00  0.00     0.041 A 
ATOM     65  F   UNL A   1      43.562  35.833  30.028  1.00  0.00    -0.206 F 
ATOM     66  C   UNL A   1      43.927  37.493  33.223  1.00  0.00     0.022 A 
BRANCH  63  67
ATOM     67  S   UNL A   1      43.522  36.734  35.876  1.00  0.00     0.124 S 
ATOM     68  O   UNL A   1      42.084  36.915  36.048  1.00  0.00    -0.237 OA
ATOM     69  O   UNL A   1      44.082  35.510  36.441  1.00  0.00    -0.237 OA
ATOM     70  O   UNL A   1      44.328  37.937  36.084  1.00  0.00    -0.744 OA
ENDBRANCH  63  67
ENDBRANCH  37  60
ENDBRANCH  11  12
ENDBRANCH   4   6
ENDBRANCH   1   2
BRANCH   1  71
ATOM     71  C   UNL A   1      40.729  20.027  26.402  1.00  0.00     0.023 C 
BRANCH  71  72
ATOM     72  C   UNL A   1      42.242  19.870  26.573  1.00  0.00     0.023 C 
BRANCH  72  73
ATOM     73  C   UNL A   1      43.024  19.773  25.267  1.00  0.00     0.116 C 
BRANCH  73  74
ATOM     74  N   UNL A   1      44.436  20.040  25.432  1.00  0.00    -0.356 N 
ATOM     75  C   UNL A   1      45.171  21.191  25.355  1.00  0.00     0.224 C 
ATOM     76  H   UNL A   1      44.971  19.239  25.638  1.00  0.00     0.163 HD
ATOM     77  O   UNL A   1      46.341  21.144  25.734  1.00  0.00    -0.275 OA
BRANCH  75  78
ATOM     78  C   UNL A   1      44.682  22.486  24.811  1.00  0.00     0.095 C 
ATOM     79  C   UNL A   1      43.291  23.023  24.759  1.00  0.00     0.032 C 
ATOM     80  C   UNL A   1      44.305  23.672  25.715  1.00  0.00     0.033 C 
BRANCH  80  81
ATOM     81  C   UNL A   1      44.053  23.438  27.219  1.00  0.00    -0.037 A 
ATOM     82  C   UNL A   1      42.753  23.208  27.708  1.00  0.00     0.004 A 
ATOM     83  C   UNL A   1      45.089  23.535  28.167  1.00  0.00     0.004 A 
ATOM     84  C   UNL A   1      42.501  23.081  29.076  1.00  0.00     0.000 A 
ATOM     85  C   UNL A   1      44.840  23.417  29.537  1.00  0.00     0.000 A 
ATOM     86  C   UNL A   1      43.544  23.192  29.990  1.00  0.00     0.000 A 
ENDBRANCH  80  81
BRANCH  80  87
ATOM     87  C   UNL A   1      44.856  25.091  25.364  1.00  0.00    -0.037 A 
ATOM     88  C   UNL A   1      46.233  25.298  25.127  1.00  0.00     0.004 A 
ATOM     89  C   UNL A   1      44.053  26.248  25.307  1.00  0.00     0.004 A 
ATOM     90  C   UNL A   1      46.781  26.566  24.902  1.00  0.00     0.000 A 
ATOM     91  C   UNL A   1      44.592  27.522  25.077  1.00  0.00     0.000 A 
ATOM     92  C   UNL A   1      45.958  27.682  24.886  1.00  0.00     0.000 A 
ENDBRANCH  80  87
ENDBRANCH  75  78
ENDBRANCH  73  74
ENDBRANCH  72  73
ENDBRANCH  71  72
ENDBRANCH   1  71
TORSDOF 16
ENDMDL
MODEL 3
REMARK VINA RESULT:     -10.5      3.898      6.975
REMARK SMILES O=C(NCCCCNC(=O)[C@H]1CC1(c1ccccc1)c1ccccc1)c1ccc(-c2c3nc(c(-c4cc(S(=O)(=O)[O-])ccc4F)c4ccc([nH]4)c(-c4cc(S(=O)(=O)[O-])ccc4F)c4nc(c(-c5cc(S(=O)(=O)[O-])ccc5F)c5ccc2[nH]5)C=C4)C=C3)cc1
REMARK SMILES IDX 4 1 3 2 1 3 2 4 26 6 27 7 88 8 28 9 87 10 29 11 30 12 31 13
REMARK SMILES IDX 81 14 32 15 86 16 80 17 82 18 33 19 85 20 79 21 78 22 34 24
REMARK SMILES IDX 66 25 46 26 65 27 47 28 50 29 64 30 83 31 48 32 49 33 63 35
REMARK SMILES IDX 84 36 51 37 35 38 36 39 44 40 37 41 43 42 45 43 42 44 38 45
REMARK SMILES IDX 39 46 40 47 41 48 67 49 68 50 76 51 69 52 75 53 77 54 74 55
REMARK SMILES IDX 70 56 71 57 72 58 73 59 52 60 53 61 61 62 54 63 60 64 62 65
REMARK SMILES IDX 59 66 55 67 56 68 57 69 58 70 5 71 6 72 7 73 8 74 9 75 10 77
REMARK SMILES IDX 11 78 12 79 13 80 14 81 15 82 19 83 16 84 18 85 17 86 20 87
REMARK SMILES IDX 21 88 25 89 22 90 24 91 23 92
REMARK H PARENT 3 5 82 23 50 34 8 76
REMARK Flexibility Score: inf
ROOT
ATOM      1  C   UNL A   1      36.702  22.150  25.398  1.00  0.00     0.116 C 
ENDROOT
BRANCH   1   2
ATOM      2  N   UNL A   1      37.683  21.074  25.471  1.00  0.00    -0.352 N 
ATOM      3  O   UNL A   1      39.705  20.153  25.895  1.00  0.00    -0.269 OA
ATOM      4  C   UNL A   1      38.966  21.130  25.967  1.00  0.00     0.251 C 
ATOM      5  H   UNL A   1      37.392  20.200  25.124  1.00  0.00     0.163 HD
BRANCH   4   6
ATOM      6  C   UNL A   1      39.456  22.400  26.545  1.00  0.00     0.039 A 
ATOM      7  C   UNL A   1      38.937  23.620  26.108  1.00  0.00     0.014 A 
ATOM      8  C   UNL A   1      40.489  22.367  27.485  1.00  0.00     0.014 A 
ATOM      9  C   UNL A   1      39.560  24.804  26.484  1.00  0.00     0.010 A 
ATOM     10  C   UNL A   1      41.063  23.565  27.922  1.00  0.00     0.010 A 
ATOM     11  C   UNL A   1      40.638  24.790  27.386  1.00  0.00    -0.014 A 
BRANCH  11  12
ATOM     12  C   UNL A   1      41.301  26.073  27.739  1.00  0.00     0.031 A 
ATOM     13  C   UNL A   1      42.658  26.418  27.185  1.00  0.00     0.074 A 
ATOM     14  C   UNL A   1      40.644  26.954  28.518  1.00  0.00     0.049 A 
ATOM     15  N   UNL A   1      43.364  27.508  27.346  1.00  0.00    -0.248 NA
ATOM     16  C   UNL A   1      43.312  25.400  26.350  1.00  0.00     0.031 C 
ATOM     17  C   UNL A   1      39.324  26.725  29.114  1.00  0.00     0.029 A 
ATOM     18  N   UNL A   1      40.974  28.221  28.920  1.00  0.00    -0.354 N 
ATOM     19  C   UNL A   1      44.555  27.302  26.656  1.00  0.00     0.074 A 
ATOM     20  C   UNL A   1      44.484  25.966  26.100  1.00  0.00     0.031 C 
ATOM     21  C   UNL A   1      38.936  27.836  29.758  1.00  0.00     0.029 A 
ATOM     22  C   UNL A   1      39.999  28.831  29.673  1.00  0.00     0.049 A 
ATOM     23  H   UNL A   1      41.829  28.654  28.692  1.00  0.00     0.167 HD
ATOM     24  C   UNL A   1      45.602  28.148  26.497  1.00  0.00     0.034 A 
ATOM     25  C   UNL A   1      39.963  30.052  30.238  1.00  0.00     0.034 A 
ATOM     26  C   UNL A   1      45.647  29.484  27.046  1.00  0.00     0.049 A 
ATOM     27  C   UNL A   1      41.140  30.972  30.048  1.00  0.00     0.074 A 
ATOM     28  C   UNL A   1      46.645  30.437  26.920  1.00  0.00     0.029 A 
ATOM     29  N   UNL A   1      44.653  30.057  27.828  1.00  0.00    -0.354 N 
ATOM     30  N   UNL A   1      42.251  30.763  29.383  1.00  0.00    -0.248 NA
ATOM     31  C   UNL A   1      41.049  32.293  30.681  1.00  0.00     0.031 C 
ATOM     32  C   UNL A   1      46.280  31.561  27.673  1.00  0.00     0.029 A 
ATOM     33  C   UNL A   1      45.023  31.339  28.212  1.00  0.00     0.049 A 
ATOM     34  H   UNL A   1      43.807  29.618  28.076  1.00  0.00     0.167 HD
ATOM     35  C   UNL A   1      42.987  31.939  29.500  1.00  0.00     0.074 A 
ATOM     36  C   UNL A   1      42.180  32.856  30.281  1.00  0.00     0.031 C 
ATOM     37  C   UNL A   1      44.216  32.235  29.006  1.00  0.00     0.034 A 
BRANCH  24  38
ATOM     38  C   UNL A   1      46.806  27.633  25.741  1.00  0.00     0.023 A 
ATOM     39  C   UNL A   1      47.066  28.006  24.410  1.00  0.00     0.031 A 
ATOM     40  C   UNL A   1      47.693  26.732  26.355  1.00  0.00     0.131 A 
ATOM     41  C   UNL A   1      48.141  27.428  23.717  1.00  0.00     0.055 A 
ATOM     42  C   UNL A   1      48.806  26.218  25.684  1.00  0.00     0.041 A 
ATOM     43  F   UNL A   1      47.487  26.322  27.616  1.00  0.00    -0.206 F 
ATOM     44  C   UNL A   1      49.027  26.554  24.352  1.00  0.00     0.022 A 
BRANCH  41  45
ATOM     45  S   UNL A   1      48.285  27.724  21.932  1.00  0.00     0.124 S 
ATOM     46  O   UNL A   1      48.488  26.370  21.423  1.00  0.00    -0.237 OA
ATOM     47  O   UNL A   1      47.003  28.341  21.610  1.00  0.00    -0.237 OA
ATOM     48  O   UNL A   1      49.447  28.603  21.822  1.00  0.00    -0.744 OA
ENDBRANCH  41  45
ENDBRANCH  24  38
BRANCH  25  49
ATOM     49  C   UNL A   1      38.784  30.470  31.045  1.00  0.00     0.023 A 
ATOM     50  C   UNL A   1      37.722  31.177  30.463  1.00  0.00     0.031 A 
ATOM     51  C   UNL A   1      38.713  30.180  32.420  1.00  0.00     0.131 A 
ATOM     52  C   UNL A   1      36.647  31.604  31.260  1.00  0.00     0.055 A 
ATOM     53  C   UNL A   1      37.620  30.564  33.198  1.00  0.00     0.041 A 
ATOM     54  F   UNL A   1      39.701  29.500  33.021  1.00  0.00    -0.206 F 
ATOM     55  C   UNL A   1      36.584  31.290  32.620  1.00  0.00     0.022 A 
BRANCH  52  56
ATOM     56  S   UNL A   1      35.362  32.635  30.504  1.00  0.00     0.124 S 
ATOM     57  O   UNL A   1      36.097  33.860  30.210  1.00  0.00    -0.237 OA
ATOM     58  O   UNL A   1      34.967  31.830  29.353  1.00  0.00    -0.237 OA
ATOM     59  O   UNL A   1      34.355  32.749  31.558  1.00  0.00    -0.744 OA
ENDBRANCH  52  56
ENDBRANCH  25  49
BRANCH  37  60
ATOM     60  C   UNL A   1      44.732  33.627  29.271  1.00  0.00     0.023 A 
ATOM     61  C   UNL A   1      44.426  34.702  28.417  1.00  0.00     0.031 A 
ATOM     62  C   UNL A   1      45.574  33.871  30.369  1.00  0.00     0.131 A 
ATOM     63  C   UNL A   1      45.013  35.956  28.638  1.00  0.00     0.055 A 
ATOM     64  C   UNL A   1      46.108  35.135  30.618  1.00  0.00     0.041 A 
ATOM     65  F   UNL A   1      45.897  32.879  31.215  1.00  0.00    -0.206 F 
ATOM     66  C   UNL A   1      45.842  36.184  29.740  1.00  0.00     0.022 A 
BRANCH  63  67
ATOM     67  S   UNL A   1      44.766  37.263  27.404  1.00  0.00     0.124 S 
ATOM     68  O   UNL A   1      45.979  37.156  26.599  1.00  0.00    -0.237 OA
ATOM     69  O   UNL A   1      43.529  36.844  26.751  1.00  0.00    -0.237 OA
ATOM     70  O   UNL A   1      44.661  38.480  28.208  1.00  0.00    -0.744 OA
ENDBRANCH  63  67
ENDBRANCH  37  60
ENDBRANCH  11  12
ENDBRANCH   4   6
ENDBRANCH   1   2
BRANCH   1  71
ATOM     71  C   UNL A   1      35.977  22.247  24.057  1.00  0.00     0.023 C 
BRANCH  71  72
ATOM     72  C   UNL A   1      34.500  21.842  24.071  1.00  0.00     0.023 C 
BRANCH  72  73
ATOM     73  C   UNL A   1      33.881  21.737  25.461  1.00  0.00     0.116 C 
BRANCH  73  74
ATOM     74  N   UNL A   1      32.555  22.310  25.536  1.00  0.00    -0.356 N 
ATOM     75  C   UNL A   1      32.114  23.590  25.730  1.00  0.00     0.224 C 
ATOM     76  H   UNL A   1      31.831  21.652  25.426  1.00  0.00     0.163 HD
ATOM     77  O   UNL A   1      30.917  23.811  25.553  1.00  0.00    -0.275 OA
BRANCH  75  78
ATOM     78  C   UNL A   1      32.959  24.729  26.178  1.00  0.00     0.095 C 
ATOM     79  C   UNL A   1      34.339  25.105  25.755  1.00  0.00     0.032 C 
ATOM     80  C   UNL A   1      33.161  25.993  25.325  1.00  0.00     0.033 C 
BRANCH  80  81
ATOM     81  C   UNL A   1      32.814  25.967  23.823  1.00  0.00    -0.037 A 
ATOM     82  C   UNL A   1      31.654  26.599  23.336  1.00  0.00     0.004 A 
ATOM     83  C   UNL A   1      33.586  25.240  22.896  1.00  0.00     0.004 A 
ATOM     84  C   UNL A   1      31.282  26.509  21.993  1.00  0.00     0.000 A 
ATOM     85  C   UNL A   1      33.214  25.140  21.553  1.00  0.00     0.000 A 
ATOM     86  C   UNL A   1      32.060  25.774  21.104  1.00  0.00     0.000 A 
ENDBRANCH  80  81
BRANCH  80  87
ATOM     87  C   UNL A   1      32.998  27.392  26.003  1.00  0.00    -0.037 A 
ATOM     88  C   UNL A   1      34.062  28.322  26.017  1.00  0.00     0.004 A 
ATOM     89  C   UNL A   1      31.830  27.802  26.675  1.00  0.00     0.004 A 
ATOM     90  C   UNL A   1      33.990  29.545  26.692  1.00  0.00     0.000 A 
ATOM     91  C   UNL A   1      31.746  29.027  27.351  1.00  0.00     0.000 A 
ATOM     92  C   UNL A   1      32.832  29.894  27.369  1.00  0.00     0.000 A 
ENDBRANCH  80  87
ENDBRANCH  75  78
ENDBRANCH  73  74
ENDBRANCH  72  73
ENDBRANCH  71  72
ENDBRANCH   1  71
TORSDOF 16
ENDMDL
