MODEL 1
REMARK VINA RESULT:     -13.5      0.000      0.000
REMARK SMILES COc1cc(C)cc2c1[C@@H](C)[C@@H](CC(=O)N[C@@H](Cc1c[nH]c3ccccc13)C(=O)NCCCCNC(=O)c1ccc(-c3c4nc(c(-c5cc(S(=O)(=O)[O-])ccc5F)c5ccc([nH]5)c(-c5cc(S(=O)(=O)[O-])ccc5F)c5nc(c(-c6cc(S(=O)(=O)[O-])ccc6F)c6ccc3[nH]6)C=C5)C=C4)cc1)C(=O)O2
REMARK SMILES IDX 32 1 31 2 30 3 28 4 29 5 17 7 16 8 14 9 15 10 13 12 12 13
REMARK SMILES IDX 3 14 4 15 9 16 5 17 8 18 10 19 6 20 7 21 103 22 11 23 101 24
REMARK SMILES IDX 102 25 2 26 1 27 18 28 19 29 20 30 27 31 21 32 22 33 26 34
REMARK SMILES IDX 23 36 25 37 24 38 33 39 34 40 35 41 36 42 37 44 38 45 39 46
REMARK SMILES IDX 100 47 40 48 99 49 41 50 42 51 43 52 93 53 44 54 98 55 92 56
REMARK SMILES IDX 94 57 45 58 97 59 91 60 90 61 46 63 78 64 58 65 77 66 59 67
REMARK SMILES IDX 62 68 76 69 95 70 60 71 61 72 75 74 96 75 63 76 47 77 48 78
REMARK SMILES IDX 56 79 49 80 55 81 57 82 54 83 50 84 51 85 52 86 53 87 79 88
REMARK SMILES IDX 80 89 88 90 81 91 87 92 89 93 86 94 82 95 83 96 84 97 85 98
REMARK SMILES IDX 64 99 65 100 73 101 66 102 72 103 74 104 71 105 67 106
REMARK SMILES IDX 68 107 69 108 70 109
REMARK H PARENT 30 6 16 11 21 35 35 43 94 62 62 73
REMARK Flexibility Score: inf
ROOT
ATOM      1  C   UNL A   1      31.887  31.066  26.455  1.00  0.00     0.023 C 
ENDROOT
BRANCH   1   2
ATOM      2  C   UNL A   1      31.731  29.694  25.809  1.00  0.00     0.116 C 
BRANCH   2   3
ATOM      3  N   UNL A   1      32.788  29.470  24.858  1.00  0.00    -0.354 N 
ATOM      4  C   UNL A   1      33.197  28.308  24.299  1.00  0.00     0.242 C 
ATOM      5  O   UNL A   1      34.283  28.333  23.704  1.00  0.00    -0.273 OA
ATOM      6  H   UNL A   1      33.282  30.274  24.576  1.00  0.00     0.163 HD
BRANCH   4   7
ATOM      7  C   UNL A   1      32.394  26.987  24.359  1.00  0.00     0.175 C 
BRANCH   7   8
ATOM      8  N   UNL A   1      32.206  26.413  25.680  1.00  0.00    -0.344 N 
ATOM      9  C   UNL A   1      32.267  25.083  25.990  1.00  0.00     0.221 C 
ATOM     10  O   UNL A   1      31.571  24.637  26.900  1.00  0.00    -0.275 OA
ATOM     11  H   UNL A   1      32.018  27.038  26.418  1.00  0.00     0.164 HD
BRANCH   9  12
ATOM     12  C   UNL A   1      33.309  24.221  25.294  1.00  0.00     0.116 C 
BRANCH  12  13
ATOM     13  C   UNL A   1      32.938  23.561  23.943  1.00  0.00     0.116 C 
ATOM     14  C   UNL A   1      34.961  20.524  24.920  1.00  0.00     0.126 A 
ATOM     15  C   UNL A   1      36.318  20.377  25.257  1.00  0.00     0.050 A 
ATOM     16  C   UNL A   1      34.514  21.668  24.255  1.00  0.00     0.041 A 
ATOM     17  C   UNL A   1      37.255  21.374  24.953  1.00  0.00    -0.044 A 
ATOM     18  C   UNL A   1      35.500  22.585  23.846  1.00  0.00     0.138 A 
ATOM     19  C   UNL A   1      33.058  22.013  23.959  1.00  0.00     0.038 C 
ATOM     20  C   UNL A   1      38.691  21.230  25.360  1.00  0.00     0.044 C 
ATOM     21  C   UNL A   1      36.841  22.472  24.205  1.00  0.00     0.051 A 
ATOM     22  O   UNL A   1      35.187  23.674  23.015  1.00  0.00    -0.426 OA
ATOM     23  C   UNL A   1      31.981  21.419  24.870  1.00  0.00     0.014 C 
ATOM     24  C   UNL A   1      33.848  23.913  22.788  1.00  0.00     0.315 C 
ATOM     25  O   UNL A   1      33.449  24.361  21.719  1.00  0.00    -0.251 OA
BRANCH  14  26
ATOM     26  O   UNL A   1      34.075  19.503  25.128  1.00  0.00    -0.496 OA
ATOM     27  C   UNL A   1      34.384  18.337  24.371  1.00  0.00     0.278 C 
ENDBRANCH  14  26
ENDBRANCH  12  13
ENDBRANCH   9  12
ENDBRANCH   7   8
BRANCH   7  28
ATOM     28  C   UNL A   1      31.277  26.619  23.389  1.00  0.00     0.072 C 
BRANCH  28  29
ATOM     29  C   UNL A   1      29.932  27.272  23.193  1.00  0.00    -0.020 A 
ATOM     30  C   UNL A   1      28.812  26.589  23.654  1.00  0.00     0.087 A 
ATOM     31  C   UNL A   1      29.454  28.565  22.762  1.00  0.00     0.003 A 
ATOM     32  N   UNL A   1      27.747  27.431  23.663  1.00  0.00    -0.361 N 
ATOM     33  C   UNL A   1      28.084  28.614  23.063  1.00  0.00     0.046 A 
ATOM     34  C   UNL A   1      29.997  29.728  22.169  1.00  0.00     0.010 A 
ATOM     35  H   UNL A   1      26.863  27.220  24.043  1.00  0.00     0.166 HD
ATOM     36  C   UNL A   1      27.261  29.717  22.801  1.00  0.00     0.026 A 
ATOM     37  C   UNL A   1      29.180  30.829  21.860  1.00  0.00     0.001 A 
ATOM     38  C   UNL A   1      27.828  30.820  22.172  1.00  0.00     0.002 A 
ENDBRANCH  28  29
ENDBRANCH   7  28
ENDBRANCH   4   7
ENDBRANCH   2   3
ENDBRANCH   1   2
BRANCH   1  39
ATOM     39  C   UNL A   1      32.954  31.104  27.545  1.00  0.00     0.023 C 
BRANCH  39  40
ATOM     40  C   UNL A   1      33.839  32.338  27.494  1.00  0.00     0.116 C 
BRANCH  40  41
ATOM     41  N   UNL A   1      33.116  33.593  27.671  1.00  0.00    -0.352 N 
ATOM     42  C   UNL A   1      33.335  34.539  28.651  1.00  0.00     0.251 C 
ATOM     43  H   UNL A   1      32.398  33.785  27.026  1.00  0.00     0.163 HD
ATOM     44  O   UNL A   1      32.625  35.525  28.763  1.00  0.00    -0.269 OA
BRANCH  42  45
ATOM     45  C   UNL A   1      34.437  34.266  29.593  1.00  0.00     0.039 A 
ATOM     46  C   UNL A   1      35.743  34.561  29.201  1.00  0.00     0.014 A 
ATOM     47  C   UNL A   1      34.177  33.513  30.737  1.00  0.00     0.014 A 
ATOM     48  C   UNL A   1      36.794  33.926  29.844  1.00  0.00     0.010 A 
ATOM     49  C   UNL A   1      35.247  32.968  31.448  1.00  0.00     0.010 A 
ATOM     50  C   UNL A   1      36.560  33.117  30.970  1.00  0.00    -0.014 A 
BRANCH  50  51
ATOM     51  C   UNL A   1      37.704  32.440  31.632  1.00  0.00     0.031 A 
ATOM     52  C   UNL A   1      38.170  32.857  33.003  1.00  0.00     0.074 A 
ATOM     53  C   UNL A   1      38.301  31.412  30.998  1.00  0.00     0.049 A 
ATOM     54  N   UNL A   1      39.165  32.387  33.709  1.00  0.00    -0.248 NA
ATOM     55  C   UNL A   1      37.433  33.946  33.667  1.00  0.00     0.031 C 
ATOM     56  C   UNL A   1      37.921  30.918  29.675  1.00  0.00     0.029 A 
ATOM     57  N   UNL A   1      39.332  30.590  31.377  1.00  0.00    -0.354 N 
ATOM     58  C   UNL A   1      39.195  33.136  34.881  1.00  0.00     0.074 A 
ATOM     59  C   UNL A   1      38.134  34.112  34.780  1.00  0.00     0.031 C 
ATOM     60  C   UNL A   1      38.667  29.850  29.374  1.00  0.00     0.029 A 
ATOM     61  C   UNL A   1      39.647  29.639  30.434  1.00  0.00     0.049 A 
ATOM     62  H   UNL A   1      39.799  30.671  32.239  1.00  0.00     0.167 HD
ATOM     63  C   UNL A   1      40.029  33.009  35.942  1.00  0.00     0.034 A 
ATOM     64  C   UNL A   1      40.632  28.719  30.403  1.00  0.00     0.034 A 
ATOM     65  C   UNL A   1      41.059  32.004  36.032  1.00  0.00     0.049 A 
ATOM     66  C   UNL A   1      41.561  28.618  31.582  1.00  0.00     0.074 A 
ATOM     67  C   UNL A   1      41.923  31.763  37.086  1.00  0.00     0.029 A 
ATOM     68  N   UNL A   1      41.366  31.076  35.046  1.00  0.00    -0.354 N 
ATOM     69  N   UNL A   1      41.547  29.306  32.699  1.00  0.00    -0.248 NA
ATOM     70  C   UNL A   1      42.636  27.622  31.503  1.00  0.00     0.031 C 
ATOM     71  C   UNL A   1      42.799  30.746  36.709  1.00  0.00     0.029 A 
ATOM     72  C   UNL A   1      42.430  30.286  35.455  1.00  0.00     0.049 A 
ATOM     73  H   UNL A   1      40.898  30.991  34.185  1.00  0.00     0.167 HD
ATOM     74  C   UNL A   1      42.600  28.815  33.465  1.00  0.00     0.074 A 
ATOM     75  C   UNL A   1      43.209  27.750  32.693  1.00  0.00     0.031 C 
ATOM     76  C   UNL A   1      43.024  29.216  34.689  1.00  0.00     0.034 A 
BRANCH  63  77
ATOM     77  C   UNL A   1      39.885  33.958  37.110  1.00  0.00     0.023 A 
ATOM     78  C   UNL A   1      40.838  34.978  37.304  1.00  0.00     0.031 A 
ATOM     79  C   UNL A   1      38.912  33.764  38.106  1.00  0.00     0.131 A 
ATOM     80  C   UNL A   1      40.826  35.731  38.484  1.00  0.00     0.055 A 
ATOM     81  C   UNL A   1      38.875  34.549  39.260  1.00  0.00     0.041 A 
ATOM     82  F   UNL A   1      37.982  32.803  37.973  1.00  0.00    -0.206 F 
ATOM     83  C   UNL A   1      39.845  35.528  39.460  1.00  0.00     0.022 A 
BRANCH  80  84
ATOM     84  S   UNL A   1      42.127  36.945  38.837  1.00  0.00     0.124 S 
ATOM     85  O   UNL A   1      41.356  38.061  39.384  1.00  0.00    -0.237 OA
ATOM     86  O   UNL A   1      42.957  36.230  39.802  1.00  0.00    -0.237 OA
ATOM     87  O   UNL A   1      42.739  37.193  37.537  1.00  0.00    -0.744 OA
ENDBRANCH  80  84
ENDBRANCH  63  77
BRANCH  64  88
ATOM     88  C   UNL A   1      40.744  27.826  29.213  1.00  0.00     0.023 A 
ATOM     89  C   UNL A   1      41.661  28.112  28.183  1.00  0.00     0.031 A 
ATOM     90  C   UNL A   1      39.848  26.763  29.021  1.00  0.00     0.131 A 
ATOM     91  C   UNL A   1      41.597  27.408  26.975  1.00  0.00     0.055 A 
ATOM     92  C   UNL A   1      39.845  26.007  27.847  1.00  0.00     0.041 A 
ATOM     93  F   UNL A   1      38.945  26.461  29.966  1.00  0.00    -0.206 F 
ATOM     94  C   UNL A   1      40.707  26.343  26.808  1.00  0.00     0.022 A 
BRANCH  91  95
ATOM     95  S   UNL A   1      42.545  27.960  25.530  1.00  0.00     0.124 S 
ATOM     96  O   UNL A   1      43.832  28.308  26.123  1.00  0.00    -0.237 OA
ATOM     97  O   UNL A   1      42.538  26.761  24.694  1.00  0.00    -0.237 OA
ATOM     98  O   UNL A   1      41.764  29.078  25.012  1.00  0.00    -0.744 OA
ENDBRANCH  91  95
ENDBRANCH  64  88
BRANCH  76  99
ATOM     99  C   UNL A   1      44.208  28.513  35.311  1.00  0.00     0.023 A 
ATOM    100  C   UNL A   1      43.998  27.485  36.250  1.00  0.00     0.031 A 
ATOM    101  C   UNL A   1      45.522  28.968  35.104  1.00  0.00     0.131 A 
ATOM    102  C   UNL A   1      45.077  26.985  36.989  1.00  0.00     0.055 A 
ATOM    103  C   UNL A   1      46.602  28.427  35.803  1.00  0.00     0.041 A 
ATOM    104  F   UNL A   1      45.773  29.952  34.227  1.00  0.00    -0.206 F 
ATOM    105  C   UNL A   1      46.380  27.443  36.763  1.00  0.00     0.022 A 
BRANCH 102 106
ATOM    106  S   UNL A   1      44.818  25.800  38.337  1.00  0.00     0.124 S 
ATOM    107  O   UNL A   1      46.189  25.495  38.739  1.00  0.00    -0.237 OA
ATOM    108  O   UNL A   1      44.048  26.589  39.296  1.00  0.00    -0.237 OA
ATOM    109  O   UNL A   1      44.097  24.700  37.706  1.00  0.00    -0.744 OA
ENDBRANCH 102 106
ENDBRANCH  76  99
ENDBRANCH  50  51
ENDBRANCH  42  45
ENDBRANCH  40  41
ENDBRANCH  39  40
ENDBRANCH   1  39
TORSDOF 20
ENDMDL
MODEL 2
REMARK VINA RESULT:     -13.4      5.570     11.284
REMARK SMILES COc1cc(C)cc2c1[C@@H](C)[C@@H](CC(=O)N[C@@H](Cc1c[nH]c3ccccc13)C(=O)NCCCCNC(=O)c1ccc(-c3c4nc(c(-c5cc(S(=O)(=O)[O-])ccc5F)c5ccc([nH]5)c(-c5cc(S(=O)(=O)[O-])ccc5F)c5nc(c(-c6cc(S(=O)(=O)[O-])ccc6F)c6ccc3[nH]6)C=C5)C=C4)cc1)C(=O)O2
REMARK SMILES IDX 32 1 31 2 30 3 28 4 29 5 17 7 16 8 14 9 15 10 13 12 12 13
REMARK SMILES IDX 3 14 4 15 9 16 5 17 8 18 10 19 6 20 7 21 103 22 11 23 101 24
REMARK SMILES IDX 102 25 2 26 1 27 18 28 19 29 20 30 27 31 21 32 22 33 26 34
REMARK SMILES IDX 23 36 25 37 24 38 33 39 34 40 35 41 36 42 37 44 38 45 39 46
REMARK SMILES IDX 100 47 40 48 99 49 41 50 42 51 43 52 93 53 44 54 98 55 92 56
REMARK SMILES IDX 94 57 45 58 97 59 91 60 90 61 46 63 78 64 58 65 77 66 59 67
REMARK SMILES IDX 62 68 76 69 95 70 60 71 61 72 75 74 96 75 63 76 47 77 48 78
REMARK SMILES IDX 56 79 49 80 55 81 57 82 54 83 50 84 51 85 52 86 53 87 79 88
REMARK SMILES IDX 80 89 88 90 81 91 87 92 89 93 86 94 82 95 83 96 84 97 85 98
REMARK SMILES IDX 64 99 65 100 73 101 66 102 72 103 74 104 71 105 67 106
REMARK SMILES IDX 68 107 69 108 70 109
REMARK H PARENT 30 6 16 11 21 35 35 43 94 62 62 73
REMARK Flexibility Score: inf
ROOT
ATOM      1  C   UNL A   1      37.557  20.448  24.973  1.00  0.00     0.023 C 
ENDROOT
BRANCH   1   2
ATOM      2  C   UNL A   1      36.044  20.630  24.951  1.00  0.00     0.116 C 
BRANCH   2   3
ATOM      3  N   UNL A   1      35.595  21.205  26.191  1.00  0.00    -0.354 N 
ATOM      4  C   UNL A   1      34.713  22.211  26.392  1.00  0.00     0.242 C 
ATOM      5  O   UNL A   1      34.678  22.695  27.531  1.00  0.00    -0.273 OA
ATOM      6  H   UNL A   1      35.982  20.811  27.006  1.00  0.00     0.163 HD
BRANCH   4   7
ATOM      7  C   UNL A   1      33.770  22.769  25.299  1.00  0.00     0.175 C 
BRANCH   7   8
ATOM      8  N   UNL A   1      34.396  23.577  24.267  1.00  0.00    -0.344 N 
ATOM      9  C   UNL A   1      33.870  24.711  23.711  1.00  0.00     0.221 C 
ATOM     10  O   UNL A   1      34.120  24.987  22.539  1.00  0.00    -0.275 OA
ATOM     11  H   UNL A   1      35.276  23.284  23.939  1.00  0.00     0.164 HD
BRANCH   9  12
ATOM     12  C   UNL A   1      33.108  25.675  24.607  1.00  0.00     0.116 C 
BRANCH  12  13
ATOM     13  C   UNL A   1      31.575  25.504  24.742  1.00  0.00     0.116 C 
ATOM     14  C   UNL A   1      31.183  29.257  24.546  1.00  0.00     0.126 A 
ATOM     15  C   UNL A   1      31.701  30.291  25.345  1.00  0.00     0.050 A 
ATOM     16  C   UNL A   1      31.169  27.940  25.009  1.00  0.00     0.041 A 
ATOM     17  C   UNL A   1      32.230  30.032  26.617  1.00  0.00    -0.044 A 
ATOM     18  C   UNL A   1      31.582  27.735  26.339  1.00  0.00     0.138 A 
ATOM     19  C   UNL A   1      30.769  26.713  24.195  1.00  0.00     0.038 C 
ATOM     20  C   UNL A   1      32.823  31.134  27.441  1.00  0.00     0.044 C 
ATOM     21  C   UNL A   1      32.132  28.742  27.129  1.00  0.00     0.051 A 
ATOM     22  O   UNL A   1      31.436  26.487  26.967  1.00  0.00    -0.426 OA
ATOM     23  C   UNL A   1      30.914  26.786  22.672  1.00  0.00     0.014 C 
ATOM     24  C   UNL A   1      31.063  25.430  26.163  1.00  0.00     0.315 C 
ATOM     25  O   UNL A   1      30.355  24.523  26.585  1.00  0.00    -0.251 OA
BRANCH  14  26
ATOM     26  O   UNL A   1      30.577  29.534  23.351  1.00  0.00    -0.496 OA
ATOM     27  C   UNL A   1      29.370  30.276  23.500  1.00  0.00     0.278 C 
ENDBRANCH  14  26
ENDBRANCH  12  13
ENDBRANCH   9  12
ENDBRANCH   7   8
BRANCH   7  28
ATOM     28  C   UNL A   1      32.508  22.064  24.816  1.00  0.00     0.072 C 
BRANCH  28  29
ATOM     29  C   UNL A   1      32.371  20.748  24.093  1.00  0.00    -0.020 A 
ATOM     30  C   UNL A   1      32.019  20.786  22.748  1.00  0.00     0.087 A 
ATOM     31  C   UNL A   1      32.663  19.363  24.383  1.00  0.00     0.003 A 
ATOM     32  N   UNL A   1      32.224  19.563  22.197  1.00  0.00    -0.361 N 
ATOM     33  C   UNL A   1      32.547  18.660  23.174  1.00  0.00     0.046 A 
ATOM     34  C   UNL A   1      33.036  18.594  25.510  1.00  0.00     0.010 A 
ATOM     35  H   UNL A   1      32.150  19.356  21.237  1.00  0.00     0.166 HD
ATOM     36  C   UNL A   1      32.764  17.282  23.043  1.00  0.00     0.026 A 
ATOM     37  C   UNL A   1      33.217  17.205  25.408  1.00  0.00     0.001 A 
ATOM     38  C   UNL A   1      33.080  16.559  24.187  1.00  0.00     0.002 A 
ENDBRANCH  28  29
ENDBRANCH   7  28
ENDBRANCH   4   7
ENDBRANCH   2   3
ENDBRANCH   1   2
BRANCH   1  39
ATOM     39  C   UNL A   1      38.311  21.699  25.412  1.00  0.00     0.023 C 
BRANCH  39  40
ATOM     40  C   UNL A   1      39.459  21.420  26.369  1.00  0.00     0.116 C 
BRANCH  40  41
ATOM     41  N   UNL A   1      40.101  20.126  26.162  1.00  0.00    -0.352 N 
ATOM     42  C   UNL A   1      41.458  19.879  26.114  1.00  0.00     0.251 C 
ATOM     43  H   UNL A   1      39.507  19.351  26.044  1.00  0.00     0.163 HD
ATOM     44  O   UNL A   1      41.900  18.771  25.859  1.00  0.00    -0.269 OA
BRANCH  42  45
ATOM     45  C   UNL A   1      42.345  21.037  26.329  1.00  0.00     0.039 A 
ATOM     46  C   UNL A   1      42.690  21.384  27.636  1.00  0.00     0.014 A 
ATOM     47  C   UNL A   1      42.618  21.888  25.258  1.00  0.00     0.014 A 
ATOM     48  C   UNL A   1      43.127  22.674  27.893  1.00  0.00     0.010 A 
ATOM     49  C   UNL A   1      43.164  23.146  25.514  1.00  0.00     0.010 A 
ATOM     50  C   UNL A   1      43.362  23.573  26.838  1.00  0.00    -0.014 A 
BRANCH  50  51
ATOM     51  C   UNL A   1      43.818  24.954  27.144  1.00  0.00     0.031 A 
ATOM     52  C   UNL A   1      45.244  25.375  26.901  1.00  0.00     0.074 A 
ATOM     53  C   UNL A   1      42.920  25.842  27.612  1.00  0.00     0.049 A 
ATOM     54  N   UNL A   1      45.808  26.532  27.136  1.00  0.00    -0.248 NA
ATOM     55  C   UNL A   1      46.159  24.373  26.329  1.00  0.00     0.031 C 
ATOM     56  C   UNL A   1      41.511  25.542  27.870  1.00  0.00     0.029 A 
ATOM     57  N   UNL A   1      43.042  27.169  27.935  1.00  0.00    -0.354 N 
ATOM     58  C   UNL A   1      47.143  26.391  26.772  1.00  0.00     0.074 A 
ATOM     59  C   UNL A   1      47.313  25.027  26.325  1.00  0.00     0.031 C 
ATOM     60  C   UNL A   1      40.889  26.659  28.260  1.00  0.00     0.029 A 
ATOM     61  C   UNL A   1      41.868  27.734  28.377  1.00  0.00     0.049 A 
ATOM     62  H   UNL A   1      43.887  27.668  27.858  1.00  0.00     0.167 HD
ATOM     63  C   UNL A   1      48.129  27.321  26.803  1.00  0.00     0.034 A 
ATOM     64  C   UNL A   1      41.607  28.968  28.855  1.00  0.00     0.034 A 
ATOM     65  C   UNL A   1      47.925  28.686  27.223  1.00  0.00     0.049 A 
ATOM     66  C   UNL A   1      42.725  29.973  28.903  1.00  0.00     0.074 A 
ATOM     67  C   UNL A   1      48.849  29.717  27.243  1.00  0.00     0.029 A 
ATOM     68  N   UNL A   1      46.729  29.214  27.688  1.00  0.00    -0.354 N 
ATOM     69  N   UNL A   1      43.971  29.834  28.515  1.00  0.00    -0.248 NA
ATOM     70  C   UNL A   1      42.411  31.297  29.451  1.00  0.00     0.031 C 
ATOM     71  C   UNL A   1      48.235  30.842  27.791  1.00  0.00     0.029 A 
ATOM     72  C   UNL A   1      46.903  30.546  28.032  1.00  0.00     0.049 A 
ATOM     73  H   UNL A   1      45.883  28.717  27.763  1.00  0.00     0.167 HD
ATOM     74  C   UNL A   1      44.586  31.059  28.756  1.00  0.00     0.074 A 
ATOM     75  C   UNL A   1      43.564  31.935  29.295  1.00  0.00     0.031 C 
ATOM     76  C   UNL A   1      45.878  31.419  28.555  1.00  0.00     0.034 A 
BRANCH  63  77
ATOM     77  C   UNL A   1      49.524  26.931  26.372  1.00  0.00     0.023 A 
ATOM     78  C   UNL A   1      50.543  26.801  27.337  1.00  0.00     0.031 A 
ATOM     79  C   UNL A   1      49.882  26.842  25.015  1.00  0.00     0.131 A 
ATOM     80  C   UNL A   1      51.873  26.637  26.931  1.00  0.00     0.055 A 
ATOM     81  C   UNL A   1      51.203  26.630  24.617  1.00  0.00     0.041 A 
ATOM     82  F   UNL A   1      48.951  26.962  24.054  1.00  0.00    -0.206 F 
ATOM     83  C   UNL A   1      52.209  26.543  25.577  1.00  0.00     0.022 A 
BRANCH  80  84
ATOM     84  S   UNL A   1      53.228  26.621  28.138  1.00  0.00     0.124 S 
ATOM     85  O   UNL A   1      52.529  26.255  29.368  1.00  0.00    -0.237 OA
ATOM     86  O   UNL A   1      54.109  25.591  27.593  1.00  0.00    -0.237 OA
ATOM     87  O   UNL A   1      53.748  27.982  28.101  1.00  0.00    -0.744 OA
ENDBRANCH  80  84
ENDBRANCH  63  77
BRANCH  64  88
ATOM     88  C   UNL A   1      40.217  29.291  29.291  1.00  0.00     0.023 A 
ATOM     89  C   UNL A   1      39.852  29.203  30.648  1.00  0.00     0.031 A 
ATOM     90  C   UNL A   1      39.208  29.550  28.351  1.00  0.00     0.131 A 
ATOM     91  C   UNL A   1      38.503  29.280  31.014  1.00  0.00     0.055 A 
ATOM     92  C   UNL A   1      37.874  29.712  28.732  1.00  0.00     0.041 A 
ATOM     93  F   UNL A   1      39.502  29.627  27.045  1.00  0.00    -0.206 F 
ATOM     94  C   UNL A   1      37.512  29.553  30.066  1.00  0.00     0.022 A 
BRANCH  91  95
ATOM     95  S   UNL A   1      37.975  28.860  32.699  1.00  0.00     0.124 S 
ATOM     96  O   UNL A   1      38.953  29.575  33.512  1.00  0.00    -0.237 OA
ATOM     97  O   UNL A   1      36.616  29.397  32.727  1.00  0.00    -0.237 OA
ATOM     98  O   UNL A   1      38.064  27.405  32.735  1.00  0.00    -0.744 OA
ENDBRANCH  91  95
ENDBRANCH  64  88
BRANCH  76  99
ATOM     99  C   UNL A   1      46.300  32.827  28.905  1.00  0.00     0.023 A 
ATOM    100  C   UNL A   1      46.290  33.828  27.914  1.00  0.00     0.031 A 
ATOM    101  C   UNL A   1      46.863  33.134  30.155  1.00  0.00     0.131 A 
ATOM    102  C   UNL A   1      46.884  35.069  28.172  1.00  0.00     0.055 A 
ATOM    103  C   UNL A   1      47.403  34.392  30.426  1.00  0.00     0.041 A 
ATOM    104  F   UNL A   1      46.905  32.211  31.129  1.00  0.00    -0.206 F 
ATOM    105  C   UNL A   1      47.431  35.360  29.426  1.00  0.00     0.022 A 
BRANCH 102 106
ATOM    106  S   UNL A   1      47.059  36.312  26.862  1.00  0.00     0.124 S 
ATOM    107  O   UNL A   1      48.335  35.938  26.259  1.00  0.00    -0.237 OA
ATOM    108  O   UNL A   1      45.880  36.058  26.038  1.00  0.00    -0.237 OA
ATOM    109  O   UNL A   1      47.061  37.582  27.580  1.00  0.00    -0.744 OA
ENDBRANCH 102 106
ENDBRANCH  76  99
ENDBRANCH  50  51
ENDBRANCH  42  45
ENDBRANCH  40  41
ENDBRANCH  39  40
ENDBRANCH   1  39
TORSDOF 20
ENDMDL
MODEL 3
REMARK VINA RESULT:     -13.4      5.826     10.162
REMARK SMILES COc1cc(C)cc2c1[C@@H](C)[C@@H](CC(=O)N[C@@H](Cc1c[nH]c3ccccc13)C(=O)NCCCCNC(=O)c1ccc(-c3c4nc(c(-c5cc(S(=O)(=O)[O-])ccc5F)c5ccc([nH]5)c(-c5cc(S(=O)(=O)[O-])ccc5F)c5nc(c(-c6cc(S(=O)(=O)[O-])ccc6F)c6ccc3[nH]6)C=C5)C=C4)cc1)C(=O)O2
REMARK SMILES IDX 32 1 31 2 30 3 28 4 29 5 17 7 16 8 14 9 15 10 13 12 12 13
REMARK SMILES IDX 3 14 4 15 9 16 5 17 8 18 10 19 6 20 7 21 103 22 11 23 101 24
REMARK SMILES IDX 102 25 2 26 1 27 18 28 19 29 20 30 27 31 21 32 22 33 26 34
REMARK SMILES IDX 23 36 25 37 24 38 33 39 34 40 35 41 36 42 37 44 38 45 39 46
REMARK SMILES IDX 100 47 40 48 99 49 41 50 42 51 43 52 93 53 44 54 98 55 92 56
REMARK SMILES IDX 94 57 45 58 97 59 91 60 90 61 46 63 78 64 58 65 77 66 59 67
REMARK SMILES IDX 62 68 76 69 95 70 60 71 61 72 75 74 96 75 63 76 47 77 48 78
REMARK SMILES IDX 56 79 49 80 55 81 57 82 54 83 50 84 51 85 52 86 53 87 79 88
REMARK SMILES IDX 80 89 88 90 81 91 87 92 89 93 86 94 82 95 83 96 84 97 85 98
REMARK SMILES IDX 64 99 65 100 73 101 66 102 72 103 74 104 71 105 67 106
REMARK SMILES IDX 68 107 69 108 70 109
REMARK H PARENT 30 6 16 11 21 35 35 43 94 62 62 73
REMARK Flexibility Score: inf
ROOT
ATOM      1  C   UNL A   1      37.338  20.230  24.994  1.00  0.00     0.023 C 
ENDROOT
BRANCH   1   2
ATOM      2  C   UNL A   1      35.836  20.486  25.003  1.00  0.00     0.116 C 
BRANCH   2   3
ATOM      3  N   UNL A   1      35.447  21.117  26.237  1.00  0.00    -0.354 N 
ATOM      4  C   UNL A   1      34.636  22.183  26.427  1.00  0.00     0.242 C 
ATOM      5  O   UNL A   1      34.652  22.695  27.555  1.00  0.00    -0.273 OA
ATOM      6  H   UNL A   1      35.823  20.718  27.054  1.00  0.00     0.163 HD
BRANCH   4   7
ATOM      7  C   UNL A   1      33.711  22.776  25.338  1.00  0.00     0.175 C 
BRANCH   7   8
ATOM      8  N   UNL A   1      34.357  23.598  24.329  1.00  0.00    -0.344 N 
ATOM      9  C   UNL A   1      33.826  24.718  23.751  1.00  0.00     0.221 C 
ATOM     10  O   UNL A   1      34.115  25.000  22.590  1.00  0.00    -0.275 OA
ATOM     11  H   UNL A   1      35.257  23.326  24.037  1.00  0.00     0.164 HD
BRANCH   9  12
ATOM     12  C   UNL A   1      33.007  25.665  24.616  1.00  0.00     0.116 C 
BRANCH  12  13
ATOM     13  C   UNL A   1      31.479  25.438  24.715  1.00  0.00     0.116 C 
ATOM     14  C   UNL A   1      30.945  29.158  24.333  1.00  0.00     0.126 A 
ATOM     15  C   UNL A   1      31.398  30.248  25.097  1.00  0.00     0.050 A 
ATOM     16  C   UNL A   1      30.969  27.864  24.857  1.00  0.00     0.041 A 
ATOM     17  C   UNL A   1      31.898  30.069  26.394  1.00  0.00    -0.044 A 
ATOM     18  C   UNL A   1      31.350  27.737  26.206  1.00  0.00     0.138 A 
ATOM     19  C   UNL A   1      30.642  26.586  24.090  1.00  0.00     0.038 C 
ATOM     20  C   UNL A   1      32.423  31.231  27.183  1.00  0.00     0.044 C 
ATOM     21  C   UNL A   1      31.836  28.800  26.964  1.00  0.00     0.051 A 
ATOM     22  O   UNL A   1      31.235  26.513  26.887  1.00  0.00    -0.426 OA
ATOM     23  C   UNL A   1      30.829  26.596  22.570  1.00  0.00     0.014 C 
ATOM     24  C   UNL A   1      30.928  25.407  26.123  1.00  0.00     0.315 C 
ATOM     25  O   UNL A   1      30.243  24.492  26.567  1.00  0.00    -0.251 OA
BRANCH  14  26
ATOM     26  O   UNL A   1      30.364  29.355  23.111  1.00  0.00    -0.496 OA
ATOM     27  C   UNL A   1      29.234  30.221  23.167  1.00  0.00     0.278 C 
ENDBRANCH  14  26
ENDBRANCH  12  13
ENDBRANCH   9  12
ENDBRANCH   7   8
BRANCH   7  28
ATOM     28  C   UNL A   1      32.446  22.096  24.826  1.00  0.00     0.072 C 
BRANCH  28  29
ATOM     29  C   UNL A   1      32.300  20.791  24.085  1.00  0.00    -0.020 A 
ATOM     30  C   UNL A   1      31.978  20.851  22.734  1.00  0.00     0.087 A 
ATOM     31  C   UNL A   1      32.560  19.398  24.364  1.00  0.00     0.003 A 
ATOM     32  N   UNL A   1      32.172  19.631  22.172  1.00  0.00    -0.361 N 
ATOM     33  C   UNL A   1      32.457  18.711  23.145  1.00  0.00     0.046 A 
ATOM     34  C   UNL A   1      32.894  18.609  25.490  1.00  0.00     0.010 A 
ATOM     35  H   UNL A   1      32.115  19.437  21.208  1.00  0.00     0.166 HD
ATOM     36  C   UNL A   1      32.650  17.331  23.002  1.00  0.00     0.026 A 
ATOM     37  C   UNL A   1      33.051  17.218  25.375  1.00  0.00     0.001 A 
ATOM     38  C   UNL A   1      32.928  16.589  24.144  1.00  0.00     0.002 A 
ENDBRANCH  28  29
ENDBRANCH   7  28
ENDBRANCH   4   7
ENDBRANCH   2   3
ENDBRANCH   1   2
BRANCH   1  39
ATOM     39  C   UNL A   1      38.166  21.476  25.291  1.00  0.00     0.023 C 
BRANCH  39  40
ATOM     40  C   UNL A   1      39.262  21.255  26.320  1.00  0.00     0.116 C 
BRANCH  40  41
ATOM     41  N   UNL A   1      40.017  20.020  26.125  1.00  0.00    -0.352 N 
ATOM     42  C   UNL A   1      41.390  19.885  26.125  1.00  0.00     0.251 C 
ATOM     43  H   UNL A   1      39.493  19.201  25.977  1.00  0.00     0.163 HD
ATOM     44  O   UNL A   1      41.930  18.821  25.876  1.00  0.00    -0.269 OA
BRANCH  42  45
ATOM     45  C   UNL A   1      42.170  21.110  26.384  1.00  0.00     0.039 A 
ATOM     46  C   UNL A   1      42.444  21.463  27.705  1.00  0.00     0.014 A 
ATOM     47  C   UNL A   1      42.405  21.997  25.333  1.00  0.00     0.014 A 
ATOM     48  C   UNL A   1      42.764  22.782  27.993  1.00  0.00     0.010 A 
ATOM     49  C   UNL A   1      42.836  23.292  25.623  1.00  0.00     0.010 A 
ATOM     50  C   UNL A   1      42.956  23.714  26.958  1.00  0.00    -0.014 A 
BRANCH  50  51
ATOM     51  C   UNL A   1      43.286  25.122  27.296  1.00  0.00     0.031 A 
ATOM     52  C   UNL A   1      42.273  26.024  27.952  1.00  0.00     0.074 A 
ATOM     53  C   UNL A   1      44.529  25.573  27.040  1.00  0.00     0.049 A 
ATOM     54  N   UNL A   1      42.393  27.282  28.290  1.00  0.00    -0.248 NA
ATOM     55  C   UNL A   1      40.953  25.449  28.262  1.00  0.00     0.031 C 
ATOM     56  C   UNL A   1      45.591  24.779  26.421  1.00  0.00     0.029 A 
ATOM     57  N   UNL A   1      45.119  26.789  27.278  1.00  0.00    -0.354 N 
ATOM     58  C   UNL A   1      41.163  27.657  28.822  1.00  0.00     0.074 A 
ATOM     59  C   UNL A   1      40.300  26.501  28.737  1.00  0.00     0.031 C 
ATOM     60  C   UNL A   1      46.713  25.506  26.376  1.00  0.00     0.029 A 
ATOM     61  C   UNL A   1      46.430  26.849  26.869  1.00  0.00     0.049 A 
ATOM     62  H   UNL A   1      44.649  27.543  27.701  1.00  0.00     0.167 HD
ATOM     63  C   UNL A   1      40.799  28.856  29.339  1.00  0.00     0.034 A 
ATOM     64  C   UNL A   1      47.305  27.875  26.858  1.00  0.00     0.034 A 
ATOM     65  C   UNL A   1      41.691  29.985  29.442  1.00  0.00     0.049 A 
ATOM     66  C   UNL A   1      46.866  29.202  27.413  1.00  0.00     0.074 A 
ATOM     67  C   UNL A   1      41.430  31.227  29.995  1.00  0.00     0.029 A 
ATOM     68  N   UNL A   1      43.004  30.017  28.993  1.00  0.00    -0.354 N 
ATOM     69  N   UNL A   1      45.714  29.526  27.951  1.00  0.00    -0.248 NA
ATOM     70  C   UNL A   1      47.836  30.302  27.363  1.00  0.00     0.031 C 
ATOM     71  C   UNL A   1      42.553  32.032  29.811  1.00  0.00     0.029 A 
ATOM     72  C   UNL A   1      43.552  31.269  29.224  1.00  0.00     0.049 A 
ATOM     73  H   UNL A   1      43.475  29.263  28.573  1.00  0.00     0.167 HD
ATOM     74  C   UNL A   1      45.826  30.864  28.320  1.00  0.00     0.074 A 
ATOM     75  C   UNL A   1      47.171  31.276  27.970  1.00  0.00     0.031 C 
ATOM     76  C   UNL A   1      44.897  31.672  28.888  1.00  0.00     0.034 A 
BRANCH  63  77
ATOM     77  C   UNL A   1      39.388  29.040  29.848  1.00  0.00     0.023 A 
ATOM     78  C   UNL A   1      38.455  29.764  29.077  1.00  0.00     0.031 A 
ATOM     79  C   UNL A   1      39.010  28.645  31.143  1.00  0.00     0.131 A 
ATOM     80  C   UNL A   1      37.213  30.108  29.625  1.00  0.00     0.055 A 
ATOM     81  C   UNL A   1      37.752  28.950  31.667  1.00  0.00     0.041 A 
ATOM     82  F   UNL A   1      39.862  27.957  31.922  1.00  0.00    -0.206 F 
ATOM     83  C   UNL A   1      36.853  29.699  30.912  1.00  0.00     0.022 A 
BRANCH  80  84
ATOM     84  S   UNL A   1      36.050  31.168  28.721  1.00  0.00     0.124 S 
ATOM     85  O   UNL A   1      35.532  30.249  27.709  1.00  0.00    -0.237 OA
ATOM     86  O   UNL A   1      35.103  31.541  29.768  1.00  0.00    -0.237 OA
ATOM     87  O   UNL A   1      36.885  32.248  28.209  1.00  0.00    -0.744 OA
ENDBRANCH  80  84
ENDBRANCH  63  77
BRANCH  64  88
ATOM     88  C   UNL A   1      48.678  27.644  26.320  1.00  0.00     0.023 A 
ATOM     89  C   UNL A   1      48.964  27.876  24.961  1.00  0.00     0.031 A 
ATOM     90  C   UNL A   1      49.675  27.058  27.114  1.00  0.00     0.131 A 
ATOM     91  C   UNL A   1      50.179  27.439  24.419  1.00  0.00     0.055 A 
ATOM     92  C   UNL A   1      50.919  26.703  26.587  1.00  0.00     0.041 A 
ATOM     93  F   UNL A   1      49.446  26.803  28.410  1.00  0.00    -0.206 F 
ATOM     94  C   UNL A   1      51.167  26.871  25.228  1.00  0.00     0.022 A 
BRANCH  91  95
ATOM     95  S   UNL A   1      50.446  27.438  22.624  1.00  0.00     0.124 S 
ATOM     96  O   UNL A   1      50.523  28.865  22.327  1.00  0.00    -0.237 OA
ATOM     97  O   UNL A   1      51.702  26.701  22.510  1.00  0.00    -0.237 OA
ATOM     98  O   UNL A   1      49.274  26.746  22.101  1.00  0.00    -0.744 OA
ENDBRANCH  91  95
ENDBRANCH  64  88
BRANCH  76  99
ATOM     99  C   UNL A   1      45.272  33.104  29.190  1.00  0.00     0.023 A 
ATOM    100  C   UNL A   1      45.058  34.104  28.222  1.00  0.00     0.031 A 
ATOM    101  C   UNL A   1      45.986  33.445  30.352  1.00  0.00     0.131 A 
ATOM    102  C   UNL A   1      45.600  35.381  28.407  1.00  0.00     0.055 A 
ATOM    103  C   UNL A   1      46.476  34.735  30.558  1.00  0.00     0.041 A 
ATOM    104  F   UNL A   1      46.224  32.525  31.300  1.00  0.00    -0.206 F 
ATOM    105  C   UNL A   1      46.300  35.705  29.575  1.00  0.00     0.022 A 
BRANCH 102 106
ATOM    106  S   UNL A   1      45.508  36.635  27.100  1.00  0.00     0.124 S 
ATOM    107  O   UNL A   1      44.069  36.722  26.865  1.00  0.00    -0.237 OA
ATOM    108  O   UNL A   1      46.106  37.800  27.749  1.00  0.00    -0.237 OA
ATOM    109  O   UNL A   1      46.282  36.060  26.005  1.00  0.00    -0.744 OA
ENDBRANCH 102 106
ENDBRANCH  76  99
ENDBRANCH  50  51
ENDBRANCH  42  45
ENDBRANCH  40  41
ENDBRANCH  39  40
ENDBRANCH   1  39
TORSDOF 20
ENDMDL
