MODEL 1
REMARK VINA RESULT:     -11.1      0.000      0.000
REMARK SMILES CC(C)Cc1ccc([C@H](CF)C(=O)NCCCCNC(=O)c2ccc(-c3c4nc(c(-c5cc(S(=O)(=O)[O-])ccc5F)c5ccc([nH]5)c(-c5cc(S(=O)(=O)[O-])ccc5F)c5nc(c(-c6cc(S(=O)(=O)[O-])ccc6F)c6ccc3[nH]6)C=C5)C=C4)cc2)cc1
REMARK SMILES IDX 16 1 15 2 14 3 12 4 13 5 9 7 8 8 5 9 6 10 86 11 7 12 85 13
REMARK SMILES IDX 4 14 2 15 1 16 3 17 10 18 11 19 17 20 18 21 19 22 20 23
REMARK SMILES IDX 21 25 22 26 23 27 84 28 24 29 83 30 25 31 26 32 27 33 77 34
REMARK SMILES IDX 28 35 82 36 76 37 78 38 29 39 81 40 75 41 74 42 30 44 62 45
REMARK SMILES IDX 42 46 61 47 43 48 46 49 60 50 79 51 44 52 45 53 59 55 80 56
REMARK SMILES IDX 47 57 31 58 32 59 40 60 33 61 39 62 41 63 38 64 34 65 35 66
REMARK SMILES IDX 36 67 37 68 63 69 64 70 72 71 65 72 71 73 73 74 70 75 66 76
REMARK SMILES IDX 67 77 68 78 69 79 48 80 49 81 57 82 50 83 56 84 58 85 55 86
REMARK SMILES IDX 51 87 52 88 53 89 54 90
REMARK H PARENT 14 6 19 24 78 43 46 54
REMARK Flexibility Score: inf
ROOT
ATOM      1  C   UNL A   1      33.684  29.442  25.580  1.00  0.00     0.023 C 
ENDROOT
BRANCH   1   2
ATOM      2  C   UNL A   1      33.626  27.942  25.319  1.00  0.00     0.116 C 
BRANCH   2   3
ATOM      3  N   UNL A   1      32.607  27.280  26.117  1.00  0.00    -0.355 N 
ATOM      4  C   UNL A   1      31.593  26.454  25.716  1.00  0.00     0.230 C 
ATOM      5  O   UNL A   1      30.933  25.889  26.591  1.00  0.00    -0.274 OA
ATOM      6  H   UNL A   1      32.653  27.450  27.086  1.00  0.00     0.163 HD
BRANCH   4   7
ATOM      7  C   UNL A   1      31.280  26.246  24.235  1.00  0.00     0.139 C 
BRANCH   7   8
ATOM      8  C   UNL A   1      30.396  27.324  23.603  1.00  0.00    -0.033 A 
ATOM      9  C   UNL A   1      28.742  29.326  22.450  1.00  0.00    -0.048 A 
ATOM     10  C   UNL A   1      30.132  29.400  22.349  1.00  0.00     0.004 A 
ATOM     11  C   UNL A   1      28.182  28.238  23.129  1.00  0.00     0.004 A 
ATOM     12  C   UNL A   1      30.941  28.393  22.876  1.00  0.00     0.005 A 
ATOM     13  C   UNL A   1      28.998  27.246  23.688  1.00  0.00     0.005 A 
BRANCH   9  14
ATOM     14  C   UNL A   1      27.851  30.396  21.858  1.00  0.00     0.038 C 
BRANCH  14  15
ATOM     15  C   UNL A   1      28.562  31.712  21.470  1.00  0.00    -0.013 C 
ATOM     16  C   UNL A   1      27.940  32.359  20.229  1.00  0.00     0.008 C 
ATOM     17  C   UNL A   1      28.524  32.695  22.641  1.00  0.00     0.008 C 
ENDBRANCH  14  15
ENDBRANCH   9  14
ENDBRANCH   7   8
BRANCH   7  18
ATOM     18  C   UNL A   1      30.796  24.801  24.053  1.00  0.00     0.232 C 
ATOM     19  F   UNL A   1      31.877  23.968  24.054  1.00  0.00    -0.250 F 
ENDBRANCH   7  18
ENDBRANCH   4   7
ENDBRANCH   2   3
ENDBRANCH   1   2
BRANCH   1  20
ATOM     20  C   UNL A   1      32.323  30.120  25.739  1.00  0.00     0.023 C 
BRANCH  20  21
ATOM     21  C   UNL A   1      32.033  30.690  27.126  1.00  0.00     0.116 C 
BRANCH  21  22
ATOM     22  N   UNL A   1      32.063  32.145  27.158  1.00  0.00    -0.352 N 
ATOM     23  C   UNL A   1      33.049  32.982  27.630  1.00  0.00     0.251 C 
ATOM     24  H   UNL A   1      31.267  32.594  26.791  1.00  0.00     0.163 HD
ATOM     25  O   UNL A   1      32.843  34.189  27.714  1.00  0.00    -0.269 OA
BRANCH  23  26
ATOM     26  C   UNL A   1      34.339  32.409  28.069  1.00  0.00     0.039 A 
ATOM     27  C   UNL A   1      35.491  33.196  28.001  1.00  0.00     0.014 A 
ATOM     28  C   UNL A   1      34.394  31.117  28.599  1.00  0.00     0.014 A 
ATOM     29  C   UNL A   1      36.682  32.724  28.557  1.00  0.00     0.010 A 
ATOM     30  C   UNL A   1      35.564  30.676  29.211  1.00  0.00     0.010 A 
ATOM     31  C   UNL A   1      36.713  31.484  29.214  1.00  0.00    -0.014 A 
BRANCH  31  32
ATOM     32  C   UNL A   1      37.922  31.021  29.947  1.00  0.00     0.031 A 
ATOM     33  C   UNL A   1      38.829  29.993  29.334  1.00  0.00     0.074 A 
ATOM     34  C   UNL A   1      38.146  31.460  31.203  1.00  0.00     0.049 A 
ATOM     35  N   UNL A   1      39.851  29.370  29.862  1.00  0.00    -0.248 NA
ATOM     36  C   UNL A   1      38.525  29.591  27.953  1.00  0.00     0.031 C 
ATOM     37  C   UNL A   1      37.315  32.431  31.920  1.00  0.00     0.029 A 
ATOM     38  N   UNL A   1      39.126  31.134  32.107  1.00  0.00    -0.354 N 
ATOM     39  C   UNL A   1      40.305  28.492  28.884  1.00  0.00     0.074 A 
ATOM     40  C   UNL A   1      39.410  28.627  27.753  1.00  0.00     0.031 C 
ATOM     41  C   UNL A   1      37.828  32.629  33.145  1.00  0.00     0.029 A 
ATOM     42  C   UNL A   1      38.991  31.766  33.322  1.00  0.00     0.049 A 
ATOM     43  H   UNL A   1      39.856  30.505  31.905  1.00  0.00     0.167 HD
ATOM     44  C   UNL A   1      41.380  27.665  28.920  1.00  0.00     0.034 A 
ATOM     45  C   UNL A   1      39.708  31.648  34.457  1.00  0.00     0.034 A 
ATOM     46  C   UNL A   1      42.268  27.550  30.051  1.00  0.00     0.049 A 
ATOM     47  C   UNL A   1      40.874  30.693  34.487  1.00  0.00     0.074 A 
ATOM     48  C   UNL A   1      43.420  26.793  30.170  1.00  0.00     0.029 A 
ATOM     49  N   UNL A   1      42.097  28.203  31.266  1.00  0.00    -0.354 N 
ATOM     50  N   UNL A   1      41.319  29.904  33.537  1.00  0.00    -0.248 NA
ATOM     51  C   UNL A   1      41.635  30.615  35.741  1.00  0.00     0.031 C 
ATOM     52  C   UNL A   1      43.910  26.938  31.473  1.00  0.00     0.029 A 
ATOM     53  C   UNL A   1      43.102  27.839  32.148  1.00  0.00     0.049 A 
ATOM     54  H   UNL A   1      41.368  28.832  31.470  1.00  0.00     0.167 HD
ATOM     55  C   UNL A   1      42.427  29.255  34.073  1.00  0.00     0.074 A 
ATOM     56  C   UNL A   1      42.590  29.753  35.422  1.00  0.00     0.031 C 
ATOM     57  C   UNL A   1      43.241  28.333  33.498  1.00  0.00     0.034 A 
BRANCH  44  58
ATOM     58  C   UNL A   1      41.632  26.804  27.705  1.00  0.00     0.023 A 
ATOM     59  C   UNL A   1      41.210  25.465  27.652  1.00  0.00     0.031 A 
ATOM     60  C   UNL A   1      42.329  27.320  26.598  1.00  0.00     0.131 A 
ATOM     61  C   UNL A   1      41.555  24.665  26.553  1.00  0.00     0.055 A 
ATOM     62  C   UNL A   1      42.598  26.541  25.471  1.00  0.00     0.041 A 
ATOM     63  F   UNL A   1      42.774  28.586  26.599  1.00  0.00    -0.206 F 
ATOM     64  C   UNL A   1      42.225  25.200  25.451  1.00  0.00     0.022 A 
BRANCH  61  65
ATOM     65  S   UNL A   1      41.241  22.881  26.648  1.00  0.00     0.124 S 
ATOM     66  O   UNL A   1      42.125  22.371  25.602  1.00  0.00    -0.237 OA
ATOM     67  O   UNL A   1      41.625  22.566  28.019  1.00  0.00    -0.237 OA
ATOM     68  O   UNL A   1      39.813  22.768  26.357  1.00  0.00    -0.744 OA
ENDBRANCH  61  65
ENDBRANCH  44  58
BRANCH  45  69
ATOM     69  C   UNL A   1      39.338  32.432  35.669  1.00  0.00     0.023 A 
ATOM     70  C   UNL A   1      38.507  31.883  36.657  1.00  0.00     0.031 A 
ATOM     71  C   UNL A   1      39.780  33.756  35.838  1.00  0.00     0.131 A 
ATOM     72  C   UNL A   1      38.108  32.667  37.750  1.00  0.00     0.055 A 
ATOM     73  C   UNL A   1      39.419  34.516  36.952  1.00  0.00     0.041 A 
ATOM     74  F   UNL A   1      40.582  34.327  34.925  1.00  0.00    -0.206 F 
ATOM     75  C   UNL A   1      38.568  33.976  37.911  1.00  0.00     0.022 A 
BRANCH  72  76
ATOM     76  S   UNL A   1      36.913  31.974  38.926  1.00  0.00     0.124 S 
ATOM     77  O   UNL A   1      36.952  30.556  38.588  1.00  0.00    -0.237 OA
ATOM     78  O   UNL A   1      37.500  32.347  40.209  1.00  0.00    -0.237 OA
ATOM     79  O   UNL A   1      35.667  32.661  38.590  1.00  0.00    -0.744 OA
ENDBRANCH  72  76
ENDBRANCH  45  69
BRANCH  57  80
ATOM     80  C   UNL A   1      44.402  27.838  34.323  1.00  0.00     0.023 A 
ATOM     81  C   UNL A   1      44.313  26.666  35.094  1.00  0.00     0.031 A 
ATOM     82  C   UNL A   1      45.613  28.552  34.338  1.00  0.00     0.131 A 
ATOM     83  C   UNL A   1      45.402  26.268  35.885  1.00  0.00     0.055 A 
ATOM     84  C   UNL A   1      46.711  28.122  35.084  1.00  0.00     0.041 A 
ATOM     85  F   UNL A   1      45.750  29.680  33.620  1.00  0.00    -0.206 F 
ATOM     86  C   UNL A   1      46.605  26.978  35.871  1.00  0.00     0.022 A 
BRANCH  83  87
ATOM     87  S   UNL A   1      45.205  24.839  36.984  1.00  0.00     0.124 S 
ATOM     88  O   UNL A   1      46.559  24.665  37.500  1.00  0.00    -0.237 OA
ATOM     89  O   UNL A   1      44.215  25.316  37.945  1.00  0.00    -0.237 OA
ATOM     90  O   UNL A   1      44.740  23.780  36.091  1.00  0.00    -0.744 OA
ENDBRANCH  83  87
ENDBRANCH  57  80
ENDBRANCH  31  32
ENDBRANCH  23  26
ENDBRANCH  21  22
ENDBRANCH  20  21
ENDBRANCH   1  20
TORSDOF 18
ENDMDL
MODEL 2
REMARK VINA RESULT:     -10.9      4.144     10.289
REMARK SMILES CC(C)Cc1ccc([C@H](CF)C(=O)NCCCCNC(=O)c2ccc(-c3c4nc(c(-c5cc(S(=O)(=O)[O-])ccc5F)c5ccc([nH]5)c(-c5cc(S(=O)(=O)[O-])ccc5F)c5nc(c(-c6cc(S(=O)(=O)[O-])ccc6F)c6ccc3[nH]6)C=C5)C=C4)cc2)cc1
REMARK SMILES IDX 16 1 15 2 14 3 12 4 13 5 9 7 8 8 5 9 6 10 86 11 7 12 85 13
REMARK SMILES IDX 4 14 2 15 1 16 3 17 10 18 11 19 17 20 18 21 19 22 20 23
REMARK SMILES IDX 21 25 22 26 23 27 84 28 24 29 83 30 25 31 26 32 27 33 77 34
REMARK SMILES IDX 28 35 82 36 76 37 78 38 29 39 81 40 75 41 74 42 30 44 62 45
REMARK SMILES IDX 42 46 61 47 43 48 46 49 60 50 79 51 44 52 45 53 59 55 80 56
REMARK SMILES IDX 47 57 31 58 32 59 40 60 33 61 39 62 41 63 38 64 34 65 35 66
REMARK SMILES IDX 36 67 37 68 63 69 64 70 72 71 65 72 71 73 73 74 70 75 66 76
REMARK SMILES IDX 67 77 68 78 69 79 48 80 49 81 57 82 50 83 56 84 58 85 55 86
REMARK SMILES IDX 51 87 52 88 53 89 54 90
REMARK H PARENT 14 6 19 24 78 43 46 54
REMARK Flexibility Score: inf
ROOT
ATOM      1  C   UNL A   1      34.384  35.198  28.564  1.00  0.00     0.023 C 
ENDROOT
BRANCH   1   2
ATOM      2  C   UNL A   1      33.434  36.236  29.147  1.00  0.00     0.116 C 
BRANCH   2   3
ATOM      3  N   UNL A   1      32.574  35.682  30.180  1.00  0.00    -0.355 N 
ATOM      4  C   UNL A   1      32.766  35.634  31.534  1.00  0.00     0.230 C 
ATOM      5  O   UNL A   1      31.828  35.242  32.233  1.00  0.00    -0.274 OA
ATOM      6  H   UNL A   1      31.733  35.284  29.860  1.00  0.00     0.163 HD
BRANCH   4   7
ATOM      7  C   UNL A   1      34.100  36.039  32.160  1.00  0.00     0.139 C 
BRANCH   7   8
ATOM      8  C   UNL A   1      34.965  34.876  32.649  1.00  0.00    -0.033 A 
ATOM      9  C   UNL A   1      36.588  32.720  33.539  1.00  0.00    -0.048 A 
ATOM     10  C   UNL A   1      36.052  33.635  34.447  1.00  0.00     0.004 A 
ATOM     11  C   UNL A   1      36.303  32.888  32.179  1.00  0.00     0.004 A 
ATOM     12  C   UNL A   1      35.218  34.666  34.013  1.00  0.00     0.005 A 
ATOM     13  C   UNL A   1      35.494  33.945  31.742  1.00  0.00     0.005 A 
BRANCH   9  14
ATOM     14  C   UNL A   1      37.470  31.580  33.999  1.00  0.00     0.038 C 
BRANCH  14  15
ATOM     15  C   UNL A   1      38.556  31.955  35.033  1.00  0.00    -0.013 C 
ATOM     16  C   UNL A   1      39.381  30.741  35.469  1.00  0.00     0.008 C 
ATOM     17  C   UNL A   1      39.479  33.030  34.458  1.00  0.00     0.008 C 
ENDBRANCH  14  15
ENDBRANCH   9  14
ENDBRANCH   7   8
BRANCH   7  18
ATOM     18  C   UNL A   1      33.820  37.139  33.194  1.00  0.00     0.232 C 
ATOM     19  F   UNL A   1      34.327  38.319  32.733  1.00  0.00    -0.250 F 
ENDBRANCH   7  18
ENDBRANCH   4   7
ENDBRANCH   2   3
ENDBRANCH   1   2
BRANCH   1  20
ATOM     20  C   UNL A   1      33.802  33.790  28.443  1.00  0.00     0.023 C 
BRANCH  20  21
ATOM     21  C   UNL A   1      34.777  32.716  27.966  1.00  0.00     0.116 C 
BRANCH  21  22
ATOM     22  N   UNL A   1      34.123  31.452  27.657  1.00  0.00    -0.352 N 
ATOM     23  C   UNL A   1      34.631  30.175  27.713  1.00  0.00     0.251 C 
ATOM     24  H   UNL A   1      33.184  31.522  27.366  1.00  0.00     0.163 HD
ATOM     25  O   UNL A   1      33.979  29.233  27.273  1.00  0.00    -0.269 OA
BRANCH  23  26
ATOM     26  C   UNL A   1      35.982  29.956  28.271  1.00  0.00     0.039 A 
ATOM     27  C   UNL A   1      36.109  29.508  29.588  1.00  0.00     0.014 A 
ATOM     28  C   UNL A   1      37.115  30.138  27.473  1.00  0.00     0.014 A 
ATOM     29  C   UNL A   1      37.368  29.147  30.075  1.00  0.00     0.010 A 
ATOM     30  C   UNL A   1      38.357  29.715  27.938  1.00  0.00     0.010 A 
ATOM     31  C   UNL A   1      38.493  29.196  29.236  1.00  0.00    -0.014 A 
BRANCH  31  32
ATOM     32  C   UNL A   1      39.815  28.677  29.674  1.00  0.00     0.031 A 
ATOM     33  C   UNL A   1      40.618  29.425  30.700  1.00  0.00     0.074 A 
ATOM     34  C   UNL A   1      40.330  27.582  29.077  1.00  0.00     0.049 A 
ATOM     35  N   UNL A   1      41.839  29.208  31.115  1.00  0.00    -0.248 NA
ATOM     36  C   UNL A   1      39.968  30.592  31.316  1.00  0.00     0.031 C 
ATOM     37  C   UNL A   1      39.661  26.791  28.041  1.00  0.00     0.029 A 
ATOM     38  N   UNL A   1      41.541  26.956  29.240  1.00  0.00    -0.354 N 
ATOM     39  C   UNL A   1      42.112  30.218  32.031  1.00  0.00     0.074 A 
ATOM     40  C   UNL A   1      40.946  31.077  32.067  1.00  0.00     0.031 C 
ATOM     41  C   UNL A   1      40.465  25.780  27.672  1.00  0.00     0.029 A 
ATOM     42  C   UNL A   1      41.723  25.878  28.404  1.00  0.00     0.049 A 
ATOM     43  H   UNL A   1      42.216  27.252  29.893  1.00  0.00     0.167 HD
ATOM     44  C   UNL A   1      43.224  30.400  32.787  1.00  0.00     0.034 A 
ATOM     45  C   UNL A   1      42.790  25.073  28.229  1.00  0.00     0.034 A 
ATOM     46  C   UNL A   1      44.373  29.528  32.747  1.00  0.00     0.049 A 
ATOM     47  C   UNL A   1      44.030  25.318  29.051  1.00  0.00     0.074 A 
ATOM     48  C   UNL A   1      45.525  29.583  33.514  1.00  0.00     0.029 A 
ATOM     49  N   UNL A   1      44.524  28.449  31.884  1.00  0.00    -0.354 N 
ATOM     50  N   UNL A   1      44.255  26.250  29.948  1.00  0.00    -0.248 NA
ATOM     51  C   UNL A   1      45.159  24.403  28.838  1.00  0.00     0.031 C 
ATOM     52  C   UNL A   1      46.395  28.579  33.073  1.00  0.00     0.029 A 
ATOM     53  C   UNL A   1      45.761  27.853  32.078  1.00  0.00     0.049 A 
ATOM     54  H   UNL A   1      43.851  28.151  31.232  1.00  0.00     0.167 HD
ATOM     55  C   UNL A   1      45.542  26.015  30.424  1.00  0.00     0.074 A 
ATOM     56  C   UNL A   1      46.038  24.849  29.723  1.00  0.00     0.031 C 
ATOM     57  C   UNL A   1      46.248  26.699  31.359  1.00  0.00     0.034 A 
BRANCH  44  58
ATOM     58  C   UNL A   1      43.253  31.603  33.699  1.00  0.00     0.023 A 
ATOM     59  C   UNL A   1      42.963  31.494  35.069  1.00  0.00     0.031 A 
ATOM     60  C   UNL A   1      43.546  32.879  33.186  1.00  0.00     0.131 A 
ATOM     61  C   UNL A   1      42.895  32.649  35.864  1.00  0.00     0.055 A 
ATOM     62  C   UNL A   1      43.556  34.014  33.999  1.00  0.00     0.041 A 
ATOM     63  F   UNL A   1      43.812  33.047  31.881  1.00  0.00    -0.206 F 
ATOM     64  C   UNL A   1      43.213  33.905  35.344  1.00  0.00     0.022 A 
BRANCH  61  65
ATOM     65  S   UNL A   1      42.244  32.500  37.550  1.00  0.00     0.124 S 
ATOM     66  O   UNL A   1      42.175  31.050  37.712  1.00  0.00    -0.237 OA
ATOM     67  O   UNL A   1      43.261  33.184  38.342  1.00  0.00    -0.237 OA
ATOM     68  O   UNL A   1      40.949  33.175  37.479  1.00  0.00    -0.744 OA
ENDBRANCH  61  65
ENDBRANCH  44  58
BRANCH  45  69
ATOM     69  C   UNL A   1      42.752  23.975  27.224  1.00  0.00     0.023 A 
ATOM     70  C   UNL A   1      42.111  22.759  27.507  1.00  0.00     0.031 A 
ATOM     71  C   UNL A   1      43.389  24.111  25.978  1.00  0.00     0.131 A 
ATOM     72  C   UNL A   1      42.157  21.711  26.575  1.00  0.00     0.055 A 
ATOM     73  C   UNL A   1      43.390  23.082  25.034  1.00  0.00     0.041 A 
ATOM     74  F   UNL A   1      44.011  25.257  25.654  1.00  0.00    -0.206 F 
ATOM     75  C   UNL A   1      42.781  21.868  25.336  1.00  0.00     0.022 A 
BRANCH  72  76
ATOM     76  S   UNL A   1      41.450  20.106  27.039  1.00  0.00     0.124 S 
ATOM     77  O   UNL A   1      40.751  20.435  28.275  1.00  0.00    -0.237 OA
ATOM     78  O   UNL A   1      40.610  19.801  25.886  1.00  0.00    -0.237 OA
ATOM     79  O   UNL A   1      42.624  19.249  27.195  1.00  0.00    -0.744 OA
ENDBRANCH  72  76
ENDBRANCH  45  69
BRANCH  57  80
ATOM     80  C   UNL A   1      47.619  26.173  31.700  1.00  0.00     0.023 A 
ATOM     81  C   UNL A   1      47.833  25.335  32.808  1.00  0.00     0.031 A 
ATOM     82  C   UNL A   1      48.726  26.519  30.905  1.00  0.00     0.131 A 
ATOM     83  C   UNL A   1      49.134  24.907  33.116  1.00  0.00     0.055 A 
ATOM     84  C   UNL A   1      50.008  26.047  31.186  1.00  0.00     0.041 A 
ATOM     85  F   UNL A   1      48.575  27.319  29.836  1.00  0.00    -0.206 F 
ATOM     86  C   UNL A   1      50.219  25.243  32.303  1.00  0.00     0.022 A 
BRANCH  83  87
ATOM     87  S   UNL A   1      49.401  23.954  34.636  1.00  0.00     0.124 S 
ATOM     88  O   UNL A   1      49.341  22.580  34.146  1.00  0.00    -0.237 OA
ATOM     89  O   UNL A   1      50.714  24.418  35.072  1.00  0.00    -0.237 OA
ATOM     90  O   UNL A   1      48.288  24.356  35.493  1.00  0.00    -0.744 OA
ENDBRANCH  83  87
ENDBRANCH  57  80
ENDBRANCH  31  32
ENDBRANCH  23  26
ENDBRANCH  21  22
ENDBRANCH  20  21
ENDBRANCH   1  20
TORSDOF 18
ENDMDL
MODEL 3
REMARK VINA RESULT:     -10.7      5.480      8.340
REMARK SMILES CC(C)Cc1ccc([C@H](CF)C(=O)NCCCCNC(=O)c2ccc(-c3c4nc(c(-c5cc(S(=O)(=O)[O-])ccc5F)c5ccc([nH]5)c(-c5cc(S(=O)(=O)[O-])ccc5F)c5nc(c(-c6cc(S(=O)(=O)[O-])ccc6F)c6ccc3[nH]6)C=C5)C=C4)cc2)cc1
REMARK SMILES IDX 16 1 15 2 14 3 12 4 13 5 9 7 8 8 5 9 6 10 86 11 7 12 85 13
REMARK SMILES IDX 4 14 2 15 1 16 3 17 10 18 11 19 17 20 18 21 19 22 20 23
REMARK SMILES IDX 21 25 22 26 23 27 84 28 24 29 83 30 25 31 26 32 27 33 77 34
REMARK SMILES IDX 28 35 82 36 76 37 78 38 29 39 81 40 75 41 74 42 30 44 62 45
REMARK SMILES IDX 42 46 61 47 43 48 46 49 60 50 79 51 44 52 45 53 59 55 80 56
REMARK SMILES IDX 47 57 31 58 32 59 40 60 33 61 39 62 41 63 38 64 34 65 35 66
REMARK SMILES IDX 36 67 37 68 63 69 64 70 72 71 65 72 71 73 73 74 70 75 66 76
REMARK SMILES IDX 67 77 68 78 69 79 48 80 49 81 57 82 50 83 56 84 58 85 55 86
REMARK SMILES IDX 51 87 52 88 53 89 54 90
REMARK H PARENT 14 6 19 24 78 43 46 54
REMARK Flexibility Score: inf
ROOT
ATOM      1  C   UNL A   1      36.104  23.306  23.708  1.00  0.00     0.023 C 
ENDROOT
BRANCH   1   2
ATOM      2  C   UNL A   1      35.459  24.268  24.699  1.00  0.00     0.116 C 
BRANCH   2   3
ATOM      3  N   UNL A   1      34.183  24.779  24.225  1.00  0.00    -0.355 N 
ATOM      4  C   UNL A   1      32.918  24.476  24.649  1.00  0.00     0.230 C 
ATOM      5  O   UNL A   1      31.986  25.145  24.196  1.00  0.00    -0.274 OA
ATOM      6  H   UNL A   1      34.237  25.437  23.496  1.00  0.00     0.163 HD
BRANCH   4   7
ATOM      7  C   UNL A   1      32.664  23.340  25.639  1.00  0.00     0.139 C 
BRANCH   7   8
ATOM      8  C   UNL A   1      32.638  21.939  25.023  1.00  0.00    -0.033 A 
ATOM      9  C   UNL A   1      32.603  19.345  23.862  1.00  0.00    -0.048 A 
ATOM     10  C   UNL A   1      32.746  19.511  25.241  1.00  0.00     0.004 A 
ATOM     11  C   UNL A   1      32.474  20.489  23.066  1.00  0.00     0.004 A 
ATOM     12  C   UNL A   1      32.717  20.783  25.814  1.00  0.00     0.005 A 
ATOM     13  C   UNL A   1      32.481  21.766  23.640  1.00  0.00     0.005 A 
BRANCH   9  14
ATOM     14  C   UNL A   1      32.605  17.971  23.231  1.00  0.00     0.038 C 
BRANCH  14  15
ATOM     15  C   UNL A   1      33.772  17.049  23.647  1.00  0.00    -0.013 C 
ATOM     16  C   UNL A   1      34.943  17.834  24.244  1.00  0.00     0.008 C 
ATOM     17  C   UNL A   1      33.284  16.004  24.652  1.00  0.00     0.008 C 
ENDBRANCH  14  15
ENDBRANCH   9  14
ENDBRANCH   7   8
BRANCH   7  18
ATOM     18  C   UNL A   1      31.440  23.716  26.485  1.00  0.00     0.232 C 
ATOM     19  F   UNL A   1      30.338  23.096  25.970  1.00  0.00    -0.250 F 
ENDBRANCH   7  18
ENDBRANCH   4   7
ENDBRANCH   2   3
ENDBRANCH   1   2
BRANCH   1  20
ATOM     20  C   UNL A   1      36.332  21.892  24.242  1.00  0.00     0.023 C 
BRANCH  20  21
ATOM     21  C   UNL A   1      36.905  21.810  25.655  1.00  0.00     0.116 C 
BRANCH  21  22
ATOM     22  N   UNL A   1      38.018  20.877  25.762  1.00  0.00    -0.352 N 
ATOM     23  C   UNL A   1      39.316  21.116  26.150  1.00  0.00     0.251 C 
ATOM     24  H   UNL A   1      37.813  19.944  25.523  1.00  0.00     0.163 HD
ATOM     25  O   UNL A   1      40.164  20.235  26.040  1.00  0.00    -0.269 OA
BRANCH  23  26
ATOM     26  C   UNL A   1      39.686  22.452  26.663  1.00  0.00     0.039 A 
ATOM     27  C   UNL A   1      40.627  22.550  27.691  1.00  0.00     0.014 A 
ATOM     28  C   UNL A   1      39.145  23.605  26.087  1.00  0.00     0.014 A 
ATOM     29  C   UNL A   1      41.100  23.807  28.075  1.00  0.00     0.010 A 
ATOM     30  C   UNL A   1      39.666  24.851  26.425  1.00  0.00     0.010 A 
ATOM     31  C   UNL A   1      40.664  24.962  27.407  1.00  0.00    -0.014 A 
BRANCH  31  32
ATOM     32  C   UNL A   1      41.259  26.296  27.686  1.00  0.00     0.031 A 
ATOM     33  C   UNL A   1      42.671  26.595  27.269  1.00  0.00     0.074 A 
ATOM     34  C   UNL A   1      40.558  27.201  28.399  1.00  0.00     0.049 A 
ATOM     35  N   UNL A   1      43.409  27.641  27.533  1.00  0.00    -0.248 NA
ATOM     36  C   UNL A   1      43.351  25.561  26.473  1.00  0.00     0.031 C 
ATOM     37  C   UNL A   1      39.191  27.012  28.893  1.00  0.00     0.029 A 
ATOM     38  N   UNL A   1      40.902  28.450  28.851  1.00  0.00    -0.354 N 
ATOM     39  C   UNL A   1      44.646  27.389  26.949  1.00  0.00     0.074 A 
ATOM     40  C   UNL A   1      44.571  26.066  26.365  1.00  0.00     0.031 C 
ATOM     41  C   UNL A   1      38.811  28.110  29.566  1.00  0.00     0.029 A 
ATOM     42  C   UNL A   1      39.919  29.059  29.597  1.00  0.00     0.049 A 
ATOM     43  H   UNL A   1      41.771  28.871  28.659  1.00  0.00     0.167 HD
ATOM     44  C   UNL A   1      45.735  28.196  26.890  1.00  0.00     0.034 A 
ATOM     45  C   UNL A   1      39.917  30.238  30.252  1.00  0.00     0.034 A 
ATOM     46  C   UNL A   1      45.790  29.517  27.468  1.00  0.00     0.049 A 
ATOM     47  C   UNL A   1      41.153  31.100  30.206  1.00  0.00     0.074 A 
ATOM     48  C   UNL A   1      46.818  30.441  27.412  1.00  0.00     0.029 A 
ATOM     49  N   UNL A   1      44.776  30.098  28.220  1.00  0.00    -0.354 N 
ATOM     50  N   UNL A   1      42.299  30.867  29.609  1.00  0.00    -0.248 NA
ATOM     51  C   UNL A   1      41.094  32.382  30.918  1.00  0.00     0.031 C 
ATOM     52  C   UNL A   1      46.453  31.553  28.180  1.00  0.00     0.029 A 
ATOM     53  C   UNL A   1      45.169  31.353  28.661  1.00  0.00     0.049 A 
ATOM     54  H   UNL A   1      43.906  29.680  28.412  1.00  0.00     0.167 HD
ATOM     55  C   UNL A   1      43.087  31.987  29.855  1.00  0.00     0.074 A 
ATOM     56  C   UNL A   1      42.283  32.898  30.643  1.00  0.00     0.031 C 
ATOM     57  C   UNL A   1      44.361  32.243  29.460  1.00  0.00     0.034 A 
BRANCH  44  58
ATOM     58  C   UNL A   1      46.961  27.654  26.195  1.00  0.00     0.023 A 
ATOM     59  C   UNL A   1      47.251  27.973  24.858  1.00  0.00     0.031 A 
ATOM     60  C   UNL A   1      47.836  26.783  26.869  1.00  0.00     0.131 A 
ATOM     61  C   UNL A   1      48.339  27.366  24.213  1.00  0.00     0.055 A 
ATOM     62  C   UNL A   1      48.964  26.246  26.246  1.00  0.00     0.041 A 
ATOM     63  F   UNL A   1      47.600  26.427  28.142  1.00  0.00    -0.206 F 
ATOM     64  C   UNL A   1      49.212  26.523  24.904  1.00  0.00     0.022 A 
BRANCH  61  65
ATOM     65  S   UNL A   1      48.512  27.581  22.420  1.00  0.00     0.124 S 
ATOM     66  O   UNL A   1      48.591  26.195  21.964  1.00  0.00    -0.237 OA
ATOM     67  O   UNL A   1      47.292  28.300  22.070  1.00  0.00    -0.237 OA
ATOM     68  O   UNL A   1      49.750  28.346  22.284  1.00  0.00    -0.744 OA
ENDBRANCH  61  65
ENDBRANCH  44  58
BRANCH  45  69
ATOM     69  C   UNL A   1      38.721  30.669  31.028  1.00  0.00     0.023 A 
ATOM     70  C   UNL A   1      37.780  31.550  30.473  1.00  0.00     0.031 A 
ATOM     71  C   UNL A   1      38.521  30.236  32.351  1.00  0.00     0.131 A 
ATOM     72  C   UNL A   1      36.704  32.005  31.251  1.00  0.00     0.055 A 
ATOM     73  C   UNL A   1      37.422  30.653  33.104  1.00  0.00     0.041 A 
ATOM     74  F   UNL A   1      39.388  29.387  32.926  1.00  0.00    -0.206 F 
ATOM     75  C   UNL A   1      36.512  31.553  32.559  1.00  0.00     0.022 A 
BRANCH  72  76
ATOM     76  S   UNL A   1      35.596  33.259  30.551  1.00  0.00     0.124 S 
ATOM     77  O   UNL A   1      34.370  32.495  30.353  1.00  0.00    -0.237 OA
ATOM     78  O   UNL A   1      35.566  34.261  31.611  1.00  0.00    -0.237 OA
ATOM     79  O   UNL A   1      36.279  33.671  29.327  1.00  0.00    -0.744 OA
ENDBRANCH  72  76
ENDBRANCH  45  69
BRANCH  57  80
ATOM     80  C   UNL A   1      44.941  33.579  29.847  1.00  0.00     0.023 A 
ATOM     81  C   UNL A   1      45.654  33.756  31.045  1.00  0.00     0.031 A 
ATOM     82  C   UNL A   1      44.774  34.692  29.004  1.00  0.00     0.131 A 
ATOM     83  C   UNL A   1      46.136  35.028  31.389  1.00  0.00     0.055 A 
ATOM     84  C   UNL A   1      45.301  35.943  29.325  1.00  0.00     0.041 A 
ATOM     85  F   UNL A   1      44.099  34.577  27.848  1.00  0.00    -0.206 F 
ATOM     86  C   UNL A   1      45.979  36.118  30.529  1.00  0.00     0.022 A 
BRANCH  83  87
ATOM     87  S   UNL A   1      46.917  35.257  33.010  1.00  0.00     0.124 S 
ATOM     88  O   UNL A   1      47.240  33.884  33.386  1.00  0.00    -0.237 OA
ATOM     89  O   UNL A   1      48.054  36.115  32.693  1.00  0.00    -0.237 OA
ATOM     90  O   UNL A   1      45.870  35.889  33.809  1.00  0.00    -0.744 OA
ENDBRANCH  83  87
ENDBRANCH  57  80
ENDBRANCH  31  32
ENDBRANCH  23  26
ENDBRANCH  21  22
ENDBRANCH  20  21
ENDBRANCH   1  20
TORSDOF 18
ENDMDL
