MODEL 1
REMARK VINA RESULT:     -13.0      0.000      0.000
REMARK SMILES Cc1c(C[NH2+]Cc2cccc(F)c2)c(C(=O)NCCCCNC(=O)c2ccc(-c3c4nc(c(-c5cc(S(=O)(=O)[O-])ccc5F)c5ccc([nH]5)c(-c5cc(S(=O)(=O)[O-])ccc5F)c5nc(c(-c6cc(S(=O)(=O)[O-])ccc6F)c6ccc3[nH]6)C=C5)C=C4)cc2)c(C)n1Cc1c(F)cccc1Cl
REMARK SMILES IDX 19 1 18 2 17 3 15 4 16 5 14 7 1 8 2 9 3 10 90 11 88 12 89 13
REMARK SMILES IDX 4 14 5 15 6 18 7 19 8 20 13 21 9 22 11 23 10 24 12 25 91 26
REMARK SMILES IDX 92 27 93 28 98 29 94 30 95 31 97 32 99 33 96 34 20 35 21 36
REMARK SMILES IDX 22 37 23 38 24 40 25 41 26 42 87 43 27 44 86 45 28 46 29 47
REMARK SMILES IDX 30 48 80 49 31 50 85 51 79 52 81 53 32 54 84 55 78 56 77 57
REMARK SMILES IDX 33 59 65 60 45 61 64 62 46 63 49 64 63 65 82 66 47 67 48 68
REMARK SMILES IDX 62 70 83 71 50 72 34 73 35 74 43 75 36 76 42 77 44 78 41 79
REMARK SMILES IDX 37 80 38 81 39 82 40 83 66 84 67 85 75 86 68 87 74 88 76 89
REMARK SMILES IDX 73 90 69 91 70 92 71 93 72 94 51 95 52 96 60 97 53 98 59 99
REMARK SMILES IDX 61 100 58 101 54 102 55 103 56 104 57 105
REMARK H PARENT 17 6 5 16 5 17 22 39 81 58 49 69
REMARK Flexibility Score: inf
ROOT
ATOM      1  C   UNL A   1      32.441  28.414  26.363  1.00  0.00     0.023 C 
ENDROOT
BRANCH   1   2
ATOM      2  C   UNL A   1      32.277  27.010  26.931  1.00  0.00     0.116 C 
BRANCH   2   3
ATOM      3  N   UNL A   1      30.939  26.481  26.998  1.00  0.00    -0.352 N 
ATOM      4  C   UNL A   1      30.318  25.579  26.165  1.00  0.00     0.253 C 
ATOM      5  O   UNL A   1      29.147  25.292  26.474  1.00  0.00    -0.269 OA
ATOM      6  H   UNL A   1      30.390  26.812  27.745  1.00  0.00     0.163 HD
BRANCH   4   7
ATOM      7  C   UNL A   1      30.943  25.093  24.920  1.00  0.00     0.069 A 
ATOM      8  C   UNL A   1      32.101  25.350  21.356  1.00  0.00     0.065 C 
ATOM      9  C   UNL A   1      31.810  25.076  22.792  1.00  0.00     0.025 A 
ATOM     10  C   UNL A   1      31.020  25.825  23.670  1.00  0.00     0.040 A 
ATOM     11  N   UNL A   1      32.260  23.975  23.502  1.00  0.00    -0.343 N 
ATOM     12  C   UNL A   1      31.385  23.811  24.567  1.00  0.00     0.028 A 
ATOM     13  C   UNL A   1      30.997  22.467  25.086  1.00  0.00     0.065 C 
BRANCH  10  14
ATOM     14  C   UNL A   1      30.318  27.128  23.357  1.00  0.00     0.300 C 
BRANCH  14  15
ATOM     15  N   UNL A   1      31.310  28.061  22.828  1.00  0.00    -0.339 N 
ATOM     16  H   UNL A   1      31.212  28.087  21.813  1.00  0.00     0.346 HD
ATOM     17  H   UNL A   1      32.221  27.719  23.133  1.00  0.00     0.346 HD
BRANCH  15  18
ATOM     18  C   UNL A   1      31.190  29.424  23.331  1.00  0.00     0.297 C 
BRANCH  18  19
ATOM     19  C   UNL A   1      29.900  30.147  22.987  1.00  0.00     0.009 A 
ATOM     20  C   UNL A   1      29.216  30.960  23.905  1.00  0.00     0.010 A 
ATOM     21  C   UNL A   1      29.379  30.035  21.687  1.00  0.00     0.048 A 
ATOM     22  C   UNL A   1      28.001  31.566  23.572  1.00  0.00     0.004 A 
ATOM     23  C   UNL A   1      28.177  30.659  21.358  1.00  0.00     0.123 A 
ATOM     24  C   UNL A   1      27.475  31.406  22.296  1.00  0.00     0.039 A 
ATOM     25  F   UNL A   1      27.683  30.530  20.119  1.00  0.00    -0.207 F 
ENDBRANCH  18  19
ENDBRANCH  15  18
ENDBRANCH  14  15
ENDBRANCH  10  14
BRANCH  11  26
ATOM     26  C   UNL A   1      33.307  23.018  23.104  1.00  0.00     0.162 C 
BRANCH  26  27
ATOM     27  C   UNL A   1      34.392  22.811  24.145  1.00  0.00     0.026 A 
ATOM     28  C   UNL A   1      35.174  23.898  24.566  1.00  0.00     0.129 A 
ATOM     29  C   UNL A   1      34.630  21.592  24.800  1.00  0.00     0.048 A 
ATOM     30  F   UNL A   1      34.920  25.126  24.108  1.00  0.00    -0.207 F 
ATOM     31  C   UNL A   1      36.188  23.786  25.518  1.00  0.00     0.040 A 
ATOM     32  C   UNL A   1      35.633  21.474  25.782  1.00  0.00     0.021 A 
ATOM     33  Cl  UNL A   1      33.676  20.182  24.500  1.00  0.00    -0.084 Cl
ATOM     34  C   UNL A   1      36.426  22.564  26.127  1.00  0.00     0.005 A 
ENDBRANCH  26  27
ENDBRANCH  11  26
ENDBRANCH   4   7
ENDBRANCH   2   3
ENDBRANCH   1   2
BRANCH   1  35
ATOM     35  C   UNL A   1      33.850  28.998  26.181  1.00  0.00     0.023 C 
BRANCH  35  36
ATOM     36  C   UNL A   1      34.678  29.368  27.422  1.00  0.00     0.116 C 
BRANCH  36  37
ATOM     37  N   UNL A   1      34.771  30.787  27.680  1.00  0.00    -0.352 N 
ATOM     38  C   UNL A   1      35.922  31.534  27.897  1.00  0.00     0.251 C 
ATOM     39  H   UNL A   1      33.921  31.283  27.703  1.00  0.00     0.163 HD
ATOM     40  O   UNL A   1      35.790  32.746  28.052  1.00  0.00    -0.269 OA
BRANCH  38  41
ATOM     41  C   UNL A   1      37.276  30.876  28.048  1.00  0.00     0.039 A 
ATOM     42  C   UNL A   1      37.778  30.163  26.973  1.00  0.00     0.014 A 
ATOM     43  C   UNL A   1      38.003  30.778  29.249  1.00  0.00     0.014 A 
ATOM     44  C   UNL A   1      39.001  29.432  27.089  1.00  0.00     0.010 A 
ATOM     45  C   UNL A   1      39.206  29.949  29.386  1.00  0.00     0.010 A 
ATOM     46  C   UNL A   1      39.757  29.224  28.309  1.00  0.00    -0.014 A 
BRANCH  46  47
ATOM     47  C   UNL A   1      40.660  27.845  28.361  1.00  0.00     0.031 A 
ATOM     48  C   UNL A   1      41.390  28.054  29.650  1.00  0.00     0.074 A 
ATOM     49  C   UNL A   1      41.073  26.706  27.645  1.00  0.00     0.049 A 
ATOM     50  N   UNL A   1      42.064  29.161  29.815  1.00  0.00    -0.248 NA
ATOM     51  C   UNL A   1      41.057  27.364  30.897  1.00  0.00     0.031 C 
ATOM     52  C   UNL A   1      40.801  26.367  26.236  1.00  0.00     0.029 A 
ATOM     53  N   UNL A   1      41.864  25.544  27.997  1.00  0.00    -0.354 N 
ATOM     54  C   UNL A   1      42.546  29.139  31.092  1.00  0.00     0.074 A 
ATOM     55  C   UNL A   1      41.682  28.171  31.765  1.00  0.00     0.031 C 
ATOM     56  C   UNL A   1      41.223  25.105  25.910  1.00  0.00     0.029 A 
ATOM     57  C   UNL A   1      41.893  24.444  27.035  1.00  0.00     0.049 A 
ATOM     58  H   UNL A   1      42.359  25.498  28.847  1.00  0.00     0.167 HD
ATOM     59  C   UNL A   1      43.902  29.257  31.189  1.00  0.00     0.034 A 
ATOM     60  C   UNL A   1      42.476  23.160  27.084  1.00  0.00     0.034 A 
ATOM     61  C   UNL A   1      44.535  27.972  31.334  1.00  0.00     0.049 A 
ATOM     62  C   UNL A   1      43.670  23.323  27.914  1.00  0.00     0.074 A 
ATOM     63  C   UNL A   1      44.241  26.847  32.078  1.00  0.00     0.029 A 
ATOM     64  N   UNL A   1      45.325  27.558  30.285  1.00  0.00    -0.354 N 
ATOM     65  N   UNL A   1      44.730  23.938  27.488  1.00  0.00    -0.248 NA
ATOM     66  C   UNL A   1      43.751  22.754  29.254  1.00  0.00     0.031 C 
ATOM     67  C   UNL A   1      44.387  25.780  31.166  1.00  0.00     0.029 A 
ATOM     68  C   UNL A   1      45.149  26.207  30.084  1.00  0.00     0.049 A 
ATOM     69  H   UNL A   1      45.923  28.137  29.759  1.00  0.00     0.167 HD
ATOM     70  C   UNL A   1      45.330  24.305  28.654  1.00  0.00     0.074 A 
ATOM     71  C   UNL A   1      44.882  23.342  29.645  1.00  0.00     0.031 C 
ATOM     72  C   UNL A   1      45.576  25.627  28.826  1.00  0.00     0.034 A 
BRANCH  59  73
ATOM     73  C   UNL A   1      44.533  30.376  30.393  1.00  0.00     0.023 A 
ATOM     74  C   UNL A   1      44.269  30.439  29.020  1.00  0.00     0.031 A 
ATOM     75  C   UNL A   1      45.349  31.392  30.946  1.00  0.00     0.131 A 
ATOM     76  C   UNL A   1      44.854  31.450  28.241  1.00  0.00     0.055 A 
ATOM     77  C   UNL A   1      45.982  32.351  30.158  1.00  0.00     0.041 A 
ATOM     78  F   UNL A   1      45.491  31.532  32.273  1.00  0.00    -0.206 F 
ATOM     79  C   UNL A   1      45.738  32.383  28.792  1.00  0.00     0.022 A 
BRANCH  76  80
ATOM     80  S   UNL A   1      44.368  31.602  26.503  1.00  0.00     0.124 S 
ATOM     81  O   UNL A   1      43.854  32.974  26.444  1.00  0.00    -0.237 OA
ATOM     82  O   UNL A   1      45.644  31.390  25.806  1.00  0.00    -0.237 OA
ATOM     83  O   UNL A   1      43.385  30.558  26.316  1.00  0.00    -0.744 OA
ENDBRANCH  76  80
ENDBRANCH  59  73
BRANCH  60  84
ATOM     84  C   UNL A   1      42.497  21.706  26.457  1.00  0.00     0.023 A 
ATOM     85  C   UNL A   1      43.607  21.219  25.634  1.00  0.00     0.031 A 
ATOM     86  C   UNL A   1      41.653  20.685  26.907  1.00  0.00     0.131 A 
ATOM     87  C   UNL A   1      43.850  19.833  25.373  1.00  0.00     0.055 A 
ATOM     88  C   UNL A   1      41.888  19.308  26.627  1.00  0.00     0.041 A 
ATOM     89  F   UNL A   1      40.616  20.969  27.706  1.00  0.00    -0.206 F 
ATOM     90  C   UNL A   1      42.990  18.876  25.887  1.00  0.00     0.022 A 
BRANCH  87  91
ATOM     91  S   UNL A   1      45.390  19.213  24.547  1.00  0.00     0.124 S 
ATOM     92  O   UNL A   1      45.743  18.046  25.349  1.00  0.00    -0.237 OA
ATOM     93  O   UNL A   1      44.953  18.952  23.179  1.00  0.00    -0.237 OA
ATOM     94  O   UNL A   1      46.318  20.340  24.673  1.00  0.00    -0.744 OA
ENDBRANCH  87  91
ENDBRANCH  60  84
BRANCH  72  95
ATOM     95  C   UNL A   1      46.100  26.424  27.637  1.00  0.00     0.023 A 
ATOM     96  C   UNL A   1      47.426  26.423  27.129  1.00  0.00     0.031 A 
ATOM     97  C   UNL A   1      45.182  27.269  26.990  1.00  0.00     0.131 A 
ATOM     98  C   UNL A   1      47.778  27.242  26.032  1.00  0.00     0.055 A 
ATOM     99  C   UNL A   1      45.518  28.042  25.878  1.00  0.00     0.041 A 
ATOM    100  F   UNL A   1      43.915  27.343  27.428  1.00  0.00    -0.206 F 
ATOM    101  C   UNL A   1      46.821  28.036  25.399  1.00  0.00     0.022 A 
BRANCH  98 102
ATOM    102  S   UNL A   1      49.501  27.299  25.427  1.00  0.00     0.124 S 
ATOM    103  O   UNL A   1      49.824  25.891  25.217  1.00  0.00    -0.237 OA
ATOM    104  O   UNL A   1      49.401  28.118  24.223  1.00  0.00    -0.237 OA
ATOM    105  O   UNL A   1      50.232  27.926  26.530  1.00  0.00    -0.744 OA
ENDBRANCH  98 102
ENDBRANCH  72  95
ENDBRANCH  46  47
ENDBRANCH  38  41
ENDBRANCH  36  37
ENDBRANCH  35  36
ENDBRANCH   1  35
TORSDOF 20
ENDMDL
MODEL 2
REMARK VINA RESULT:     -13.0      4.934     10.883
REMARK SMILES Cc1c(C[NH2+]Cc2cccc(F)c2)c(C(=O)NCCCCNC(=O)c2ccc(-c3c4nc(c(-c5cc(S(=O)(=O)[O-])ccc5F)c5ccc([nH]5)c(-c5cc(S(=O)(=O)[O-])ccc5F)c5nc(c(-c6cc(S(=O)(=O)[O-])ccc6F)c6ccc3[nH]6)C=C5)C=C4)cc2)c(C)n1Cc1c(F)cccc1Cl
REMARK SMILES IDX 19 1 18 2 17 3 15 4 16 5 14 7 1 8 2 9 3 10 90 11 88 12 89 13
REMARK SMILES IDX 4 14 5 15 6 18 7 19 8 20 13 21 9 22 11 23 10 24 12 25 91 26
REMARK SMILES IDX 92 27 93 28 98 29 94 30 95 31 97 32 99 33 96 34 20 35 21 36
REMARK SMILES IDX 22 37 23 38 24 40 25 41 26 42 87 43 27 44 86 45 28 46 29 47
REMARK SMILES IDX 30 48 80 49 31 50 85 51 79 52 81 53 32 54 84 55 78 56 77 57
REMARK SMILES IDX 33 59 65 60 45 61 64 62 46 63 49 64 63 65 82 66 47 67 48 68
REMARK SMILES IDX 62 70 83 71 50 72 34 73 35 74 43 75 36 76 42 77 44 78 41 79
REMARK SMILES IDX 37 80 38 81 39 82 40 83 66 84 67 85 75 86 68 87 74 88 76 89
REMARK SMILES IDX 73 90 69 91 70 92 71 93 72 94 51 95 52 96 60 97 53 98 59 99
REMARK SMILES IDX 61 100 58 101 54 102 55 103 56 104 57 105
REMARK H PARENT 17 6 5 16 5 17 22 39 81 58 49 69
REMARK Flexibility Score: inf
ROOT
ATOM      1  C   UNL A   1      36.977  23.401  26.333  1.00  0.00     0.023 C 
ENDROOT
BRANCH   1   2
ATOM      2  C   UNL A   1      35.903  24.114  25.522  1.00  0.00     0.116 C 
BRANCH   2   3
ATOM      3  N   UNL A   1      35.642  23.613  24.196  1.00  0.00    -0.352 N 
ATOM      4  C   UNL A   1      34.440  23.473  23.541  1.00  0.00     0.253 C 
ATOM      5  O   UNL A   1      34.517  23.019  22.384  1.00  0.00    -0.269 OA
ATOM      6  H   UNL A   1      36.436  23.332  23.687  1.00  0.00     0.163 HD
BRANCH   4   7
ATOM      7  C   UNL A   1      33.144  23.711  24.205  1.00  0.00     0.069 A 
ATOM      8  C   UNL A   1      30.417  23.051  26.702  1.00  0.00     0.065 C 
ATOM      9  C   UNL A   1      31.414  23.539  25.707  1.00  0.00     0.025 A 
ATOM     10  C   UNL A   1      32.570  22.895  25.257  1.00  0.00     0.040 A 
ATOM     11  N   UNL A   1      31.331  24.736  25.016  1.00  0.00    -0.343 N 
ATOM     12  C   UNL A   1      32.098  24.581  23.868  1.00  0.00     0.028 A 
ATOM     13  C   UNL A   1      31.723  25.197  22.563  1.00  0.00     0.065 C 
BRANCH  10  14
ATOM     14  C   UNL A   1      33.094  21.557  25.732  1.00  0.00     0.300 C 
BRANCH  14  15
ATOM     15  N   UNL A   1      32.190  20.517  25.248  1.00  0.00    -0.339 N 
ATOM     16  H   UNL A   1      31.339  20.968  24.911  1.00  0.00     0.346 HD
ATOM     17  H   UNL A   1      32.024  19.889  26.035  1.00  0.00     0.346 HD
BRANCH  15  18
ATOM     18  C   UNL A   1      32.729  19.697  24.171  1.00  0.00     0.297 C 
BRANCH  18  19
ATOM     19  C   UNL A   1      33.287  18.347  24.580  1.00  0.00     0.009 A 
ATOM     20  C   UNL A   1      34.616  17.965  24.330  1.00  0.00     0.010 A 
ATOM     21  C   UNL A   1      32.460  17.445  25.269  1.00  0.00     0.048 A 
ATOM     22  C   UNL A   1      35.081  16.692  24.669  1.00  0.00     0.004 A 
ATOM     23  C   UNL A   1      32.938  16.184  25.621  1.00  0.00     0.123 A 
ATOM     24  C   UNL A   1      34.234  15.794  25.309  1.00  0.00     0.039 A 
ATOM     25  F   UNL A   1      32.133  15.328  26.265  1.00  0.00    -0.207 F 
ENDBRANCH  18  19
ENDBRANCH  15  18
ENDBRANCH  14  15
ENDBRANCH  10  14
BRANCH  11  26
ATOM     26  C   UNL A   1      30.436  25.873  25.293  1.00  0.00     0.162 C 
BRANCH  26  27
ATOM     27  C   UNL A   1      31.137  27.219  25.351  1.00  0.00     0.026 A 
ATOM     28  C   UNL A   1      32.233  27.400  26.208  1.00  0.00     0.129 A 
ATOM     29  C   UNL A   1      30.811  28.310  24.530  1.00  0.00     0.048 A 
ATOM     30  F   UNL A   1      32.708  26.375  26.919  1.00  0.00    -0.207 F 
ATOM     31  C   UNL A   1      32.927  28.607  26.316  1.00  0.00     0.040 A 
ATOM     32  C   UNL A   1      31.522  29.523  24.610  1.00  0.00     0.021 A 
ATOM     33  Cl  UNL A   1      29.573  28.221  23.326  1.00  0.00    -0.084 Cl
ATOM     34  C   UNL A   1      32.566  29.680  25.517  1.00  0.00     0.005 A 
ENDBRANCH  26  27
ENDBRANCH  11  26
ENDBRANCH   4   7
ENDBRANCH   2   3
ENDBRANCH   1   2
BRANCH   1  35
ATOM     35  C   UNL A   1      38.163  22.745  25.609  1.00  0.00     0.023 C 
BRANCH  35  36
ATOM     36  C   UNL A   1      39.339  22.198  26.434  1.00  0.00     0.116 C 
BRANCH  36  37
ATOM     37  N   UNL A   1      40.643  22.612  25.969  1.00  0.00    -0.352 N 
ATOM     38  C   UNL A   1      41.378  23.715  26.382  1.00  0.00     0.251 C 
ATOM     39  H   UNL A   1      41.060  22.046  25.280  1.00  0.00     0.163 HD
ATOM     40  O   UNL A   1      42.496  23.867  25.894  1.00  0.00    -0.269 OA
BRANCH  38  41
ATOM     41  C   UNL A   1      40.791  24.755  27.312  1.00  0.00     0.039 A 
ATOM     42  C   UNL A   1      39.628  25.397  26.920  1.00  0.00     0.014 A 
ATOM     43  C   UNL A   1      41.414  25.256  28.470  1.00  0.00     0.014 A 
ATOM     44  C   UNL A   1      39.083  26.461  27.705  1.00  0.00     0.010 A 
ATOM     45  C   UNL A   1      40.900  26.410  29.216  1.00  0.00     0.010 A 
ATOM     46  C   UNL A   1      39.709  27.077  28.858  1.00  0.00    -0.014 A 
BRANCH  46  47
ATOM     47  C   UNL A   1      39.295  28.648  29.140  1.00  0.00     0.031 A 
ATOM     48  C   UNL A   1      40.652  29.269  29.238  1.00  0.00     0.074 A 
ATOM     49  C   UNL A   1      38.239  29.529  29.436  1.00  0.00     0.049 A 
ATOM     50  N   UNL A   1      41.511  28.764  30.083  1.00  0.00    -0.248 NA
ATOM     51  C   UNL A   1      41.259  30.074  28.177  1.00  0.00     0.031 C 
ATOM     52  C   UNL A   1      36.832  29.199  29.732  1.00  0.00     0.029 A 
ATOM     53  N   UNL A   1      38.152  30.971  29.561  1.00  0.00    -0.354 N 
ATOM     54  C   UNL A   1      42.681  29.444  29.905  1.00  0.00     0.074 A 
ATOM     55  C   UNL A   1      42.540  30.021  28.570  1.00  0.00     0.031 C 
ATOM     56  C   UNL A   1      36.040  30.314  29.821  1.00  0.00     0.029 A 
ATOM     57  C   UNL A   1      36.813  31.549  29.660  1.00  0.00     0.049 A 
ATOM     58  H   UNL A   1      38.959  31.534  29.577  1.00  0.00     0.167 HD
ATOM     59  C   UNL A   1      43.164  30.048  31.029  1.00  0.00     0.034 A 
ATOM     60  C   UNL A   1      36.362  32.886  29.708  1.00  0.00     0.034 A 
ATOM     61  C   UNL A   1      42.805  31.442  31.075  1.00  0.00     0.049 A 
ATOM     62  C   UNL A   1      37.434  33.619  30.383  1.00  0.00     0.074 A 
ATOM     63  C   UNL A   1      42.788  32.450  30.132  1.00  0.00     0.029 A 
ATOM     64  N   UNL A   1      41.928  31.815  32.070  1.00  0.00    -0.354 N 
ATOM     65  N   UNL A   1      37.655  33.504  31.656  1.00  0.00    -0.248 NA
ATOM     66  C   UNL A   1      38.283  34.562  29.665  1.00  0.00     0.031 C 
ATOM     67  C   UNL A   1      41.537  33.077  30.317  1.00  0.00     0.029 A 
ATOM     68  C   UNL A   1      41.044  32.748  31.576  1.00  0.00     0.049 A 
ATOM     69  H   UNL A   1      41.932  31.468  32.991  1.00  0.00     0.167 HD
ATOM     70  C   UNL A   1      38.957  33.891  31.752  1.00  0.00     0.074 A 
ATOM     71  C   UNL A   1      39.187  34.775  30.622  1.00  0.00     0.031 C 
ATOM     72  C   UNL A   1      39.820  33.006  32.308  1.00  0.00     0.034 A 
BRANCH  59  73
ATOM     73  C   UNL A   1      43.220  29.194  32.274  1.00  0.00     0.023 A 
ATOM     74  C   UNL A   1      42.910  29.792  33.500  1.00  0.00     0.031 A 
ATOM     75  C   UNL A   1      43.531  27.812  32.285  1.00  0.00     0.131 A 
ATOM     76  C   UNL A   1      42.972  29.038  34.683  1.00  0.00     0.055 A 
ATOM     77  C   UNL A   1      43.660  27.086  33.467  1.00  0.00     0.041 A 
ATOM     78  F   UNL A   1      43.642  27.111  31.147  1.00  0.00    -0.206 F 
ATOM     79  C   UNL A   1      43.381  27.700  34.680  1.00  0.00     0.022 A 
BRANCH  76  80
ATOM     80  S   UNL A   1      42.412  29.795  36.230  1.00  0.00     0.124 S 
ATOM     81  O   UNL A   1      42.061  31.153  35.799  1.00  0.00    -0.237 OA
ATOM     82  O   UNL A   1      41.270  28.947  36.593  1.00  0.00    -0.237 OA
ATOM     83  O   UNL A   1      43.556  29.696  37.109  1.00  0.00    -0.744 OA
ENDBRANCH  76  80
ENDBRANCH  59  73
BRANCH  60  84
ATOM     84  C   UNL A   1      35.124  33.857  29.536  1.00  0.00     0.023 A 
ATOM     85  C   UNL A   1      34.461  34.499  30.674  1.00  0.00     0.031 A 
ATOM     86  C   UNL A   1      34.791  34.435  28.306  1.00  0.00     0.131 A 
ATOM     87  C   UNL A   1      33.614  35.646  30.554  1.00  0.00     0.055 A 
ATOM     88  C   UNL A   1      33.932  35.565  28.189  1.00  0.00     0.041 A 
ATOM     89  F   UNL A   1      35.351  33.985  27.175  1.00  0.00    -0.206 F 
ATOM     90  C   UNL A   1      33.364  36.187  29.303  1.00  0.00     0.022 A 
BRANCH  87  91
ATOM     91  S   UNL A   1      32.987  36.599  32.016  1.00  0.00     0.124 S 
ATOM     92  O   UNL A   1      31.676  36.004  32.254  1.00  0.00    -0.237 OA
ATOM     93  O   UNL A   1      34.005  36.357  33.033  1.00  0.00    -0.237 OA
ATOM     94  O   UNL A   1      32.947  37.980  31.527  1.00  0.00    -0.744 OA
ENDBRANCH  87  91
ENDBRANCH  60  84
BRANCH  72  95
ATOM     95  C   UNL A   1      39.363  32.228  33.536  1.00  0.00     0.023 A 
ATOM     96  C   UNL A   1      39.110  32.751  34.831  1.00  0.00     0.031 A 
ATOM     97  C   UNL A   1      39.200  30.841  33.379  1.00  0.00     0.131 A 
ATOM     98  C   UNL A   1      38.720  31.900  35.890  1.00  0.00     0.055 A 
ATOM     99  C   UNL A   1      38.770  30.007  34.411  1.00  0.00     0.041 A 
ATOM    100  F   UNL A   1      39.444  30.267  32.189  1.00  0.00    -0.206 F 
ATOM    101  C   UNL A   1      38.534  30.534  35.674  1.00  0.00     0.022 A 
BRANCH  98 102
ATOM    102  S   UNL A   1      38.469  32.562  37.574  1.00  0.00     0.124 S 
ATOM    103  O   UNL A   1      38.316  33.996  37.345  1.00  0.00    -0.237 OA
ATOM    104  O   UNL A   1      37.276  31.857  38.031  1.00  0.00    -0.237 OA
ATOM    105  O   UNL A   1      39.699  32.192  38.275  1.00  0.00    -0.744 OA
ENDBRANCH  98 102
ENDBRANCH  72  95
ENDBRANCH  46  47
ENDBRANCH  38  41
ENDBRANCH  36  37
ENDBRANCH  35  36
ENDBRANCH   1  35
TORSDOF 20
ENDMDL
MODEL 3
REMARK VINA RESULT:     -12.7      2.434      5.422
REMARK SMILES Cc1c(C[NH2+]Cc2cccc(F)c2)c(C(=O)NCCCCNC(=O)c2ccc(-c3c4nc(c(-c5cc(S(=O)(=O)[O-])ccc5F)c5ccc([nH]5)c(-c5cc(S(=O)(=O)[O-])ccc5F)c5nc(c(-c6cc(S(=O)(=O)[O-])ccc6F)c6ccc3[nH]6)C=C5)C=C4)cc2)c(C)n1Cc1c(F)cccc1Cl
REMARK SMILES IDX 19 1 18 2 17 3 15 4 16 5 14 7 1 8 2 9 3 10 90 11 88 12 89 13
REMARK SMILES IDX 4 14 5 15 6 18 7 19 8 20 13 21 9 22 11 23 10 24 12 25 91 26
REMARK SMILES IDX 92 27 93 28 98 29 94 30 95 31 97 32 99 33 96 34 20 35 21 36
REMARK SMILES IDX 22 37 23 38 24 40 25 41 26 42 87 43 27 44 86 45 28 46 29 47
REMARK SMILES IDX 30 48 80 49 31 50 85 51 79 52 81 53 32 54 84 55 78 56 77 57
REMARK SMILES IDX 33 59 65 60 45 61 64 62 46 63 49 64 63 65 82 66 47 67 48 68
REMARK SMILES IDX 62 70 83 71 50 72 34 73 35 74 43 75 36 76 42 77 44 78 41 79
REMARK SMILES IDX 37 80 38 81 39 82 40 83 66 84 67 85 75 86 68 87 74 88 76 89
REMARK SMILES IDX 73 90 69 91 70 92 71 93 72 94 51 95 52 96 60 97 53 98 59 99
REMARK SMILES IDX 61 100 58 101 54 102 55 103 56 104 57 105
REMARK H PARENT 17 6 5 16 5 17 22 39 81 58 49 69
REMARK Flexibility Score: inf
ROOT
ATOM      1  C   UNL A   1      35.317  29.716  27.320  1.00  0.00     0.023 C 
ENDROOT
BRANCH   1   2
ATOM      2  C   UNL A   1      34.412  28.546  26.956  1.00  0.00     0.116 C 
BRANCH   2   3
ATOM      3  N   UNL A   1      33.155  28.447  27.654  1.00  0.00    -0.352 N 
ATOM      4  C   UNL A   1      31.983  27.849  27.254  1.00  0.00     0.253 C 
ATOM      5  O   UNL A   1      31.049  27.908  28.075  1.00  0.00    -0.269 OA
ATOM      6  H   UNL A   1      33.132  28.867  28.545  1.00  0.00     0.163 HD
BRANCH   4   7
ATOM      7  C   UNL A   1      31.799  27.300  25.896  1.00  0.00     0.069 A 
ATOM      8  C   UNL A   1      31.294  24.583  23.353  1.00  0.00     0.065 C 
ATOM      9  C   UNL A   1      31.393  25.807  24.198  1.00  0.00     0.025 A 
ATOM     10  C   UNL A   1      31.707  25.893  25.558  1.00  0.00     0.040 A 
ATOM     11  N   UNL A   1      31.221  27.105  23.746  1.00  0.00    -0.343 N 
ATOM     12  C   UNL A   1      31.890  27.925  24.645  1.00  0.00     0.028 A 
ATOM     13  C   UNL A   1      32.610  29.161  24.221  1.00  0.00     0.065 C 
BRANCH  10  14
ATOM     14  C   UNL A   1      31.969  24.733  26.493  1.00  0.00     0.300 C 
BRANCH  14  15
ATOM     15  N   UNL A   1      32.999  23.890  25.893  1.00  0.00    -0.339 N 
ATOM     16  H   UNL A   1      32.741  23.714  24.922  1.00  0.00     0.346 HD
ATOM     17  H   UNL A   1      33.040  23.040  26.456  1.00  0.00     0.346 HD
BRANCH  15  18
ATOM     18  C   UNL A   1      34.339  24.463  25.911  1.00  0.00     0.297 C 
BRANCH  18  19
ATOM     19  C   UNL A   1      35.484  23.481  25.744  1.00  0.00     0.009 A 
ATOM     20  C   UNL A   1      36.831  23.847  25.903  1.00  0.00     0.010 A 
ATOM     21  C   UNL A   1      35.196  22.137  25.453  1.00  0.00     0.048 A 
ATOM     22  C   UNL A   1      37.862  22.930  25.686  1.00  0.00     0.004 A 
ATOM     23  C   UNL A   1      36.230  21.225  25.258  1.00  0.00     0.123 A 
ATOM     24  C   UNL A   1      37.560  21.615  25.352  1.00  0.00     0.039 A 
ATOM     25  F   UNL A   1      35.940  19.949  24.966  1.00  0.00    -0.207 F 
ENDBRANCH  18  19
ENDBRANCH  15  18
ENDBRANCH  14  15
ENDBRANCH  10  14
BRANCH  11  26
ATOM     26  C   UNL A   1      30.654  27.539  22.457  1.00  0.00     0.162 C 
BRANCH  26  27
ATOM     27  C   UNL A   1      29.520  28.541  22.582  1.00  0.00     0.026 A 
ATOM     28  C   UNL A   1      29.651  29.819  22.017  1.00  0.00     0.129 A 
ATOM     29  C   UNL A   1      28.279  28.254  23.171  1.00  0.00     0.048 A 
ATOM     30  F   UNL A   1      30.738  30.133  21.308  1.00  0.00    -0.207 F 
ATOM     31  C   UNL A   1      28.654  30.793  22.090  1.00  0.00     0.040 A 
ATOM     32  C   UNL A   1      27.255  29.219  23.227  1.00  0.00     0.021 A 
ATOM     33  Cl  UNL A   1      27.897  26.690  23.802  1.00  0.00    -0.084 Cl
ATOM     34  C   UNL A   1      27.448  30.495  22.705  1.00  0.00     0.005 A 
ENDBRANCH  26  27
ENDBRANCH  11  26
ENDBRANCH   4   7
ENDBRANCH   2   3
ENDBRANCH   1   2
BRANCH   1  35
ATOM     35  C   UNL A   1      34.697  31.014  27.862  1.00  0.00     0.023 C 
BRANCH  35  36
ATOM     36  C   UNL A   1      35.525  32.308  27.841  1.00  0.00     0.116 C 
BRANCH  36  37
ATOM     37  N   UNL A   1      35.230  33.227  28.918  1.00  0.00    -0.352 N 
ATOM     38  C   UNL A   1      35.950  33.415  30.091  1.00  0.00     0.251 C 
ATOM     39  H   UNL A   1      34.427  33.785  28.807  1.00  0.00     0.163 HD
ATOM     40  O   UNL A   1      35.557  34.286  30.864  1.00  0.00    -0.269 OA
BRANCH  38  41
ATOM     41  C   UNL A   1      37.107  32.513  30.462  1.00  0.00     0.039 A 
ATOM     42  C   UNL A   1      38.194  32.461  29.605  1.00  0.00     0.014 A 
ATOM     43  C   UNL A   1      37.109  31.586  31.521  1.00  0.00     0.014 A 
ATOM     44  C   UNL A   1      39.270  31.551  29.847  1.00  0.00     0.010 A 
ATOM     45  C   UNL A   1      38.171  30.590  31.706  1.00  0.00     0.010 A 
ATOM     46  C   UNL A   1      39.302  30.520  30.866  1.00  0.00    -0.014 A 
BRANCH  46  47
ATOM     47  C   UNL A   1      40.237  29.206  30.521  1.00  0.00     0.031 A 
ATOM     48  C   UNL A   1      40.993  29.073  31.804  1.00  0.00     0.074 A 
ATOM     49  C   UNL A   1      40.657  28.320  29.512  1.00  0.00     0.049 A 
ATOM     50  N   UNL A   1      41.646  30.111  32.256  1.00  0.00    -0.248 NA
ATOM     51  C   UNL A   1      40.706  28.058  32.819  1.00  0.00     0.031 C 
ATOM     52  C   UNL A   1      40.359  28.373  28.068  1.00  0.00     0.029 A 
ATOM     53  N   UNL A   1      41.483  27.128  29.516  1.00  0.00    -0.354 N 
ATOM     54  C   UNL A   1      42.159  29.752  33.469  1.00  0.00     0.074 A 
ATOM     55  C   UNL A   1      41.334  28.613  33.864  1.00  0.00     0.031 C 
ATOM     56  C   UNL A   1      40.801  27.262  27.400  1.00  0.00     0.029 A 
ATOM     57  C   UNL A   1      41.513  26.337  28.288  1.00  0.00     0.049 A 
ATOM     58  H   UNL A   1      42.000  26.864  30.311  1.00  0.00     0.167 HD
ATOM     59  C   UNL A   1      43.514  29.878  33.571  1.00  0.00     0.034 A 
ATOM     60  C   UNL A   1      42.126  25.106  27.971  1.00  0.00     0.034 A 
ATOM     61  C   UNL A   1      44.180  28.621  33.346  1.00  0.00     0.049 A 
ATOM     62  C   UNL A   1      43.336  25.068  28.793  1.00  0.00     0.074 A 
ATOM     63  C   UNL A   1      43.929  27.327  33.756  1.00  0.00     0.029 A 
ATOM     64  N   UNL A   1      44.953  28.534  32.209  1.00  0.00    -0.354 N 
ATOM     65  N   UNL A   1      44.371  25.807  28.534  1.00  0.00    -0.248 NA
ATOM     66  C   UNL A   1      43.463  24.155  29.923  1.00  0.00     0.031 C 
ATOM     67  C   UNL A   1      44.077  26.557  32.583  1.00  0.00     0.029 A 
ATOM     68  C   UNL A   1      44.802  27.286  31.647  1.00  0.00     0.049 A 
ATOM     69  H   UNL A   1      45.524  29.252  31.853  1.00  0.00     0.167 HD
ATOM     70  C   UNL A   1      44.991  25.856  29.746  1.00  0.00     0.074 A 
ATOM     71  C   UNL A   1      44.590  24.646  30.441  1.00  0.00     0.031 C 
ATOM     72  C   UNL A   1      45.211  27.087  30.271  1.00  0.00     0.034 A 
BRANCH  59  73
ATOM     73  C   UNL A   1      44.100  31.190  33.102  1.00  0.00     0.023 A 
ATOM     74  C   UNL A   1      43.245  32.114  32.493  1.00  0.00     0.031 A 
ATOM     75  C   UNL A   1      45.455  31.568  33.268  1.00  0.00     0.131 A 
ATOM     76  C   UNL A   1      43.754  33.336  32.024  1.00  0.00     0.055 A 
ATOM     77  C   UNL A   1      45.969  32.750  32.739  1.00  0.00     0.041 A 
ATOM     78  F   UNL A   1      46.298  30.840  34.016  1.00  0.00    -0.206 F 
ATOM     79  C   UNL A   1      45.116  33.644  32.108  1.00  0.00     0.022 A 
BRANCH  76  80
ATOM     80  S   UNL A   1      42.598  34.575  31.386  1.00  0.00     0.124 S 
ATOM     81  O   UNL A   1      42.728  35.655  32.371  1.00  0.00    -0.237 OA
ATOM     82  O   UNL A   1      43.163  34.873  30.064  1.00  0.00    -0.237 OA
ATOM     83  O   UNL A   1      41.321  33.896  31.371  1.00  0.00    -0.744 OA
ENDBRANCH  76  80
ENDBRANCH  59  73
BRANCH  60  84
ATOM     84  C   UNL A   1      42.164  23.881  26.968  1.00  0.00     0.023 A 
ATOM     85  C   UNL A   1      43.299  23.629  26.076  1.00  0.00     0.031 A 
ATOM     86  C   UNL A   1      41.305  22.784  27.093  1.00  0.00     0.131 A 
ATOM     87  C   UNL A   1      43.547  22.367  25.449  1.00  0.00     0.055 A 
ATOM     88  C   UNL A   1      41.546  21.536  26.451  1.00  0.00     0.041 A 
ATOM     89  F   UNL A   1      40.244  22.847  27.908  1.00  0.00    -0.206 F 
ATOM     90  C   UNL A   1      42.670  21.314  25.653  1.00  0.00     0.022 A 
BRANCH  87  91
ATOM     91  S   UNL A   1      45.112  21.983  24.530  1.00  0.00     0.124 S 
ATOM     92  O   UNL A   1      45.313  23.178  23.717  1.00  0.00    -0.237 OA
ATOM     93  O   UNL A   1      46.079  21.756  25.599  1.00  0.00    -0.237 OA
ATOM     94  O   UNL A   1      44.770  20.780  23.767  1.00  0.00    -0.744 OA
ENDBRANCH  87  91
ENDBRANCH  60  84
BRANCH  72  95
ATOM     95  C   UNL A   1      45.688  28.194  29.338  1.00  0.00     0.023 A 
ATOM     96  C   UNL A   1      44.878  29.121  28.633  1.00  0.00     0.031 A 
ATOM     97  C   UNL A   1      47.075  28.290  29.131  1.00  0.00     0.131 A 
ATOM     98  C   UNL A   1      45.460  30.080  27.773  1.00  0.00     0.055 A 
ATOM     99  C   UNL A   1      47.653  29.265  28.318  1.00  0.00     0.041 A 
ATOM    100  F   UNL A   1      47.906  27.431  29.744  1.00  0.00    -0.206 F 
ATOM    101  C   UNL A   1      46.846  30.160  27.630  1.00  0.00     0.022 A 
BRANCH  98 102
ATOM    102  S   UNL A   1      44.413  31.224  26.807  1.00  0.00     0.124 S 
ATOM    103  O   UNL A   1      43.309  30.373  26.374  1.00  0.00    -0.237 OA
ATOM    104  O   UNL A   1      44.078  32.262  27.777  1.00  0.00    -0.237 OA
ATOM    105  O   UNL A   1      45.294  31.665  25.724  1.00  0.00    -0.744 OA
ENDBRANCH  98 102
ENDBRANCH  72  95
ENDBRANCH  46  47
ENDBRANCH  38  41
ENDBRANCH  36  37
ENDBRANCH  35  36
ENDBRANCH   1  35
TORSDOF 20
ENDMDL
