MODEL 1
REMARK VINA RESULT:     -11.2      0.000      0.000
REMARK SMILES CCOc1cccc(OCC)c1-c1ccc([C@@H](C)C(=O)NCCCCNC(=O)c2ccc(-c3c4nc(c(-c5cc(S(=O)(=O)[O-])ccc5F)c5ccc([nH]5)c(-c5cc(S(=O)(=O)[O-])ccc5F)c5nc(c(-c6cc(S(=O)(=O)[O-])ccc6F)c6ccc3[nH]6)C=C5)C=C4)cc2)cc1F
REMARK SMILES IDX 23 1 22 2 21 3 19 4 20 5 17 7 18 8 16 9 13 10 14 11 93 12
REMARK SMILES IDX 15 13 92 14 94 15 12 16 4 17 5 18 6 19 8 20 7 21 3 22 2 23
REMARK SMILES IDX 1 24 9 25 10 26 11 27 24 28 25 29 26 30 27 31 28 33 29 34
REMARK SMILES IDX 30 35 91 36 31 37 90 38 32 39 33 40 34 41 84 42 35 43 89 44
REMARK SMILES IDX 83 45 85 46 36 47 88 48 82 49 81 50 37 52 69 53 49 54 68 55
REMARK SMILES IDX 50 56 53 57 67 58 86 59 51 60 52 61 66 63 87 64 54 65 38 66
REMARK SMILES IDX 39 67 47 68 40 69 46 70 48 71 45 72 41 73 42 74 43 75 44 76
REMARK SMILES IDX 70 77 71 78 79 79 72 80 78 81 80 82 77 83 73 84 74 85 75 86
REMARK SMILES IDX 76 87 55 88 56 89 64 90 57 91 63 92 65 93 62 94 58 95 59 96
REMARK SMILES IDX 60 97 61 98
REMARK H PARENT 21 6 26 32 85 51 53 62
REMARK Flexibility Score: inf
ROOT
ATOM      1  C   UNL A   1      37.292  21.781  24.267  1.00  0.00     0.023 C 
ENDROOT
BRANCH   1   2
ATOM      2  C   UNL A   1      36.687  23.109  23.772  1.00  0.00     0.116 C 
BRANCH   2   3
ATOM      3  N   UNL A   1      35.265  22.981  23.474  1.00  0.00    -0.356 N 
ATOM      4  C   UNL A   1      34.109  23.294  24.126  1.00  0.00     0.227 C 
ATOM      5  O   UNL A   1      33.068  22.955  23.542  1.00  0.00    -0.274 OA
ATOM      6  H   UNL A   1      35.101  22.574  22.592  1.00  0.00     0.163 HD
BRANCH   4   7
ATOM      7  C   UNL A   1      33.991  24.021  25.490  1.00  0.00     0.105 C 
ATOM      8  C   UNL A   1      33.343  23.190  26.593  1.00  0.00     0.023 C 
BRANCH   7   9
ATOM      9  C   UNL A   1      33.432  25.432  25.413  1.00  0.00    -0.033 A 
ATOM     10  C   UNL A   1      32.231  28.016  25.350  1.00  0.00     0.025 A 
ATOM     11  C   UNL A   1      31.670  26.969  26.070  1.00  0.00     0.012 A 
ATOM     12  C   UNL A   1      33.387  27.733  24.611  1.00  0.00     0.131 A 
ATOM     13  C   UNL A   1      32.336  25.766  26.189  1.00  0.00     0.005 A 
ATOM     14  C   UNL A   1      33.965  26.447  24.611  1.00  0.00     0.044 A 
ATOM     15  F   UNL A   1      33.968  28.691  23.871  1.00  0.00    -0.206 F 
BRANCH  10  16
ATOM     16  C   UNL A   1      31.521  29.300  25.384  1.00  0.00     0.069 A 
ATOM     17  C   UNL A   1      31.929  30.246  26.361  1.00  0.00     0.130 A 
ATOM     18  C   UNL A   1      31.435  31.551  26.384  1.00  0.00     0.047 A 
ATOM     19  C   UNL A   1      30.534  31.958  25.412  1.00  0.00     0.008 A 
ATOM     20  C   UNL A   1      30.582  29.723  24.413  1.00  0.00     0.130 A 
ATOM     21  C   UNL A   1      30.105  31.046  24.451  1.00  0.00     0.047 A 
BRANCH  17  22
ATOM     22  O   UNL A   1      32.790  29.847  27.357  1.00  0.00    -0.493 OA
BRANCH  22  23
ATOM     23  C   UNL A   1      34.096  30.422  27.240  1.00  0.00     0.226 C 
ATOM     24  C   UNL A   1      35.125  29.359  27.591  1.00  0.00     0.049 C 
ENDBRANCH  22  23
ENDBRANCH  17  22
BRANCH  20  25
ATOM     25  O   UNL A   1      29.959  29.027  23.407  1.00  0.00    -0.493 OA
BRANCH  25  26
ATOM     26  C   UNL A   1      29.308  29.640  22.303  1.00  0.00     0.226 C 
ATOM     27  C   UNL A   1      27.813  29.351  22.291  1.00  0.00     0.049 C 
ENDBRANCH  25  26
ENDBRANCH  20  25
ENDBRANCH  10  16
ENDBRANCH   7   9
ENDBRANCH   4   7
ENDBRANCH   2   3
ENDBRANCH   1   2
BRANCH   1  28
ATOM     28  C   UNL A   1      37.597  21.673  25.750  1.00  0.00     0.023 C 
BRANCH  28  29
ATOM     29  C   UNL A   1      39.075  21.630  26.104  1.00  0.00     0.116 C 
BRANCH  29  30
ATOM     30  N   UNL A   1      39.693  20.323  25.957  1.00  0.00    -0.352 N 
ATOM     31  C   UNL A   1      41.031  19.977  26.092  1.00  0.00     0.251 C 
ATOM     32  H   UNL A   1      39.082  19.584  25.732  1.00  0.00     0.163 HD
ATOM     33  O   UNL A   1      41.397  18.835  25.888  1.00  0.00    -0.269 OA
BRANCH  31  34
ATOM     34  C   UNL A   1      42.002  21.044  26.428  1.00  0.00     0.039 A 
ATOM     35  C   UNL A   1      42.490  21.856  25.403  1.00  0.00     0.014 A 
ATOM     36  C   UNL A   1      42.321  21.312  27.759  1.00  0.00     0.014 A 
ATOM     37  C   UNL A   1      43.196  23.019  25.727  1.00  0.00     0.010 A 
ATOM     38  C   UNL A   1      42.935  22.516  28.082  1.00  0.00     0.010 A 
ATOM     39  C   UNL A   1      43.359  23.392  27.071  1.00  0.00    -0.014 A 
BRANCH  39  40
ATOM     40  C   UNL A   1      43.931  24.708  27.455  1.00  0.00     0.031 A 
ATOM     41  C   UNL A   1      43.037  25.779  28.017  1.00  0.00     0.074 A 
ATOM     42  C   UNL A   1      45.222  24.981  27.174  1.00  0.00     0.049 A 
ATOM     43  N   UNL A   1      43.303  27.033  28.269  1.00  0.00    -0.248 NA
ATOM     44  C   UNL A   1      41.643  25.391  28.281  1.00  0.00     0.031 C 
ATOM     45  C   UNL A   1      46.170  24.050  26.558  1.00  0.00     0.029 A 
ATOM     46  N   UNL A   1      45.952  26.131  27.343  1.00  0.00    -0.354 N 
ATOM     47  C   UNL A   1      42.104  27.594  28.694  1.00  0.00     0.074 A 
ATOM     48  C   UNL A   1      41.100  26.555  28.601  1.00  0.00     0.031 C 
ATOM     49  C   UNL A   1      47.355  24.662  26.409  1.00  0.00     0.029 A 
ATOM     50  C   UNL A   1      47.243  26.040  26.875  1.00  0.00     0.049 A 
ATOM     51  H   UNL A   1      45.587  26.945  27.759  1.00  0.00     0.167 HD
ATOM     52  C   UNL A   1      41.868  28.853  29.141  1.00  0.00     0.034 A 
ATOM     53  C   UNL A   1      48.218  26.966  26.804  1.00  0.00     0.034 A 
ATOM     54  C   UNL A   1      42.890  29.864  29.253  1.00  0.00     0.049 A 
ATOM     55  C   UNL A   1      47.940  28.356  27.310  1.00  0.00     0.074 A 
ATOM     56  C   UNL A   1      42.796  31.129  29.804  1.00  0.00     0.029 A 
ATOM     57  N   UNL A   1      44.193  29.730  28.788  1.00  0.00    -0.354 N 
ATOM     58  N   UNL A   1      46.824  28.848  27.793  1.00  0.00    -0.248 NA
ATOM     59  C   UNL A   1      49.053  29.312  27.262  1.00  0.00     0.031 C 
ATOM     60  C   UNL A   1      44.019  31.783  29.613  1.00  0.00     0.029 A 
ATOM     61  C   UNL A   1      44.899  30.905  28.999  1.00  0.00     0.049 A 
ATOM     62  H   UNL A   1      44.562  28.919  28.369  1.00  0.00     0.167 HD
ATOM     63  C   UNL A   1      47.102  30.173  28.114  1.00  0.00     0.074 A 
ATOM     64  C   UNL A   1      48.498  30.394  27.788  1.00  0.00     0.031 C 
ATOM     65  C   UNL A   1      46.279  31.121  28.632  1.00  0.00     0.034 A 
BRANCH  52  66
ATOM     66  C   UNL A   1      40.445  29.198  29.514  1.00  0.00     0.023 A 
ATOM     67  C   UNL A   1      39.987  29.110  30.840  1.00  0.00     0.031 A 
ATOM     68  C   UNL A   1      39.519  29.562  28.521  1.00  0.00     0.131 A 
ATOM     69  C   UNL A   1      38.624  29.281  31.123  1.00  0.00     0.055 A 
ATOM     70  C   UNL A   1      38.180  29.820  28.824  1.00  0.00     0.041 A 
ATOM     71  F   UNL A   1      39.891  29.647  27.235  1.00  0.00    -0.206 F 
ATOM     72  C   UNL A   1      37.720  29.659  30.129  1.00  0.00     0.022 A 
BRANCH  69  73
ATOM     73  S   UNL A   1      38.023  28.828  32.774  1.00  0.00     0.124 S 
ATOM     74  O   UNL A   1      38.964  29.541  33.636  1.00  0.00    -0.237 OA
ATOM     75  O   UNL A   1      36.657  29.336  32.763  1.00  0.00    -0.237 OA
ATOM     76  O   UNL A   1      38.151  27.372  32.798  1.00  0.00    -0.744 OA
ENDBRANCH  69  73
ENDBRANCH  52  66
BRANCH  53  77
ATOM     77  C   UNL A   1      49.536  26.617  26.203  1.00  0.00     0.023 A 
ATOM     78  C   UNL A   1      49.884  27.053  24.916  1.00  0.00     0.031 A 
ATOM     79  C   UNL A   1      50.467  25.839  26.914  1.00  0.00     0.131 A 
ATOM     80  C   UNL A   1      51.122  26.684  24.366  1.00  0.00     0.055 A 
ATOM     81  C   UNL A   1      51.711  25.507  26.379  1.00  0.00     0.041 A 
ATOM     82  F   UNL A   1      50.185  25.410  28.155  1.00  0.00    -0.206 F 
ATOM     83  C   UNL A   1      52.042  25.925  25.093  1.00  0.00     0.022 A 
BRANCH  80  84
ATOM     84  S   UNL A   1      51.503  27.186  22.665  1.00  0.00     0.124 S 
ATOM     85  O   UNL A   1      51.757  28.614  22.825  1.00  0.00    -0.237 OA
ATOM     86  O   UNL A   1      52.664  26.358  22.357  1.00  0.00    -0.237 OA
ATOM     87  O   UNL A   1      50.287  26.847  21.929  1.00  0.00    -0.744 OA
ENDBRANCH  80  84
ENDBRANCH  53  77
BRANCH  65  88
ATOM     88  C   UNL A   1      46.881  32.480  28.880  1.00  0.00     0.023 A 
ATOM     89  C   UNL A   1      46.793  33.504  27.920  1.00  0.00     0.031 A 
ATOM     90  C   UNL A   1      47.555  32.753  30.082  1.00  0.00     0.131 A 
ATOM     91  C   UNL A   1      47.410  34.741  28.161  1.00  0.00     0.055 A 
ATOM     92  C   UNL A   1      48.121  34.002  30.338  1.00  0.00     0.041 A 
ATOM     93  F   UNL A   1      47.671  31.809  31.029  1.00  0.00    -0.206 F 
ATOM     94  C   UNL A   1      48.059  35.001  29.371  1.00  0.00     0.022 A 
BRANCH  91  95
ATOM     95  S   UNL A   1      47.415  35.984  26.840  1.00  0.00     0.124 S 
ATOM     96  O   UNL A   1      46.697  37.091  27.464  1.00  0.00    -0.237 OA
ATOM     97  O   UNL A   1      48.841  36.194  26.613  1.00  0.00    -0.237 OA
ATOM     98  O   UNL A   1      46.705  35.323  25.746  1.00  0.00    -0.744 OA
ENDBRANCH  91  95
ENDBRANCH  65  88
ENDBRANCH  39  40
ENDBRANCH  31  34
ENDBRANCH  29  30
ENDBRANCH  28  29
ENDBRANCH   1  28
TORSDOF 20
ENDMDL
MODEL 2
REMARK VINA RESULT:     -11.1      5.748     11.511
REMARK SMILES CCOc1cccc(OCC)c1-c1ccc([C@@H](C)C(=O)NCCCCNC(=O)c2ccc(-c3c4nc(c(-c5cc(S(=O)(=O)[O-])ccc5F)c5ccc([nH]5)c(-c5cc(S(=O)(=O)[O-])ccc5F)c5nc(c(-c6cc(S(=O)(=O)[O-])ccc6F)c6ccc3[nH]6)C=C5)C=C4)cc2)cc1F
REMARK SMILES IDX 23 1 22 2 21 3 19 4 20 5 17 7 18 8 16 9 13 10 14 11 93 12
REMARK SMILES IDX 15 13 92 14 94 15 12 16 4 17 5 18 6 19 8 20 7 21 3 22 2 23
REMARK SMILES IDX 1 24 9 25 10 26 11 27 24 28 25 29 26 30 27 31 28 33 29 34
REMARK SMILES IDX 30 35 91 36 31 37 90 38 32 39 33 40 34 41 84 42 35 43 89 44
REMARK SMILES IDX 83 45 85 46 36 47 88 48 82 49 81 50 37 52 69 53 49 54 68 55
REMARK SMILES IDX 50 56 53 57 67 58 86 59 51 60 52 61 66 63 87 64 54 65 38 66
REMARK SMILES IDX 39 67 47 68 40 69 46 70 48 71 45 72 41 73 42 74 43 75 44 76
REMARK SMILES IDX 70 77 71 78 79 79 72 80 78 81 80 82 77 83 73 84 74 85 75 86
REMARK SMILES IDX 76 87 55 88 56 89 64 90 57 91 63 92 65 93 62 94 58 95 59 96
REMARK SMILES IDX 60 97 61 98
REMARK H PARENT 21 6 26 32 85 51 53 62
REMARK Flexibility Score: inf
ROOT
ATOM      1  C   UNL A   1      34.608  30.063  27.760  1.00  0.00     0.023 C 
ENDROOT
BRANCH   1   2
ATOM      2  C   UNL A   1      34.432  28.902  26.762  1.00  0.00     0.116 C 
BRANCH   2   3
ATOM      3  N   UNL A   1      33.300  29.119  25.868  1.00  0.00    -0.356 N 
ATOM      4  C   UNL A   1      33.024  28.819  24.567  1.00  0.00     0.227 C 
ATOM      5  O   UNL A   1      31.939  29.249  24.147  1.00  0.00    -0.274 OA
ATOM      6  H   UNL A   1      32.559  29.596  26.309  1.00  0.00     0.163 HD
BRANCH   4   7
ATOM      7  C   UNL A   1      33.922  28.005  23.602  1.00  0.00     0.105 C 
ATOM      8  C   UNL A   1      33.844  28.446  22.144  1.00  0.00     0.023 C 
BRANCH   7   9
ATOM      9  C   UNL A   1      33.829  26.496  23.764  1.00  0.00    -0.033 A 
ATOM     10  C   UNL A   1      33.754  23.683  24.219  1.00  0.00     0.025 A 
ATOM     11  C   UNL A   1      34.238  24.565  25.178  1.00  0.00     0.012 A 
ATOM     12  C   UNL A   1      33.352  24.233  22.995  1.00  0.00     0.131 A 
ATOM     13  C   UNL A   1      34.147  25.928  24.985  1.00  0.00     0.005 A 
ATOM     14  C   UNL A   1      33.419  25.620  22.752  1.00  0.00     0.044 A 
ATOM     15  F   UNL A   1      32.897  23.437  22.014  1.00  0.00    -0.206 F 
BRANCH  10  16
ATOM     16  C   UNL A   1      33.772  22.257  24.560  1.00  0.00     0.069 A 
ATOM     17  C   UNL A   1      32.523  21.630  24.811  1.00  0.00     0.130 A 
ATOM     18  C   UNL A   1      32.404  20.251  24.990  1.00  0.00     0.047 A 
ATOM     19  C   UNL A   1      33.533  19.451  24.897  1.00  0.00     0.008 A 
ATOM     20  C   UNL A   1      34.918  21.430  24.492  1.00  0.00     0.130 A 
ATOM     21  C   UNL A   1      34.774  20.040  24.666  1.00  0.00     0.047 A 
BRANCH  17  22
ATOM     22  O   UNL A   1      31.400  22.413  24.949  1.00  0.00    -0.493 OA
BRANCH  22  23
ATOM     23  C   UNL A   1      31.006  22.603  26.313  1.00  0.00     0.226 C 
ATOM     24  C   UNL A   1      30.926  24.095  26.589  1.00  0.00     0.049 C 
ENDBRANCH  22  23
ENDBRANCH  17  22
BRANCH  20  25
ATOM     25  O   UNL A   1      36.244  21.748  24.337  1.00  0.00    -0.493 OA
BRANCH  25  26
ATOM     26  C   UNL A   1      37.200  21.699  25.386  1.00  0.00     0.226 C 
ATOM     27  C   UNL A   1      37.359  23.048  26.076  1.00  0.00     0.049 C 
ENDBRANCH  25  26
ENDBRANCH  20  25
ENDBRANCH  10  16
ENDBRANCH   7   9
ENDBRANCH   4   7
ENDBRANCH   2   3
ENDBRANCH   1   2
BRANCH   1  28
ATOM     28  C   UNL A   1      33.586  31.184  27.701  1.00  0.00     0.023 C 
BRANCH  28  29
ATOM     29  C   UNL A   1      34.158  32.565  27.425  1.00  0.00     0.116 C 
BRANCH  29  30
ATOM     30  N   UNL A   1      33.328  33.665  27.887  1.00  0.00    -0.352 N 
ATOM     31  C   UNL A   1      33.481  34.448  29.023  1.00  0.00     0.251 C 
ATOM     32  H   UNL A   1      32.554  33.885  27.318  1.00  0.00     0.163 HD
ATOM     33  O   UNL A   1      32.663  35.308  29.295  1.00  0.00    -0.269 OA
BRANCH  31  34
ATOM     34  C   UNL A   1      34.624  34.168  29.920  1.00  0.00     0.039 A 
ATOM     35  C   UNL A   1      34.437  33.301  30.998  1.00  0.00     0.014 A 
ATOM     36  C   UNL A   1      35.894  34.659  29.619  1.00  0.00     0.014 A 
ATOM     37  C   UNL A   1      35.551  32.823  31.696  1.00  0.00     0.010 A 
ATOM     38  C   UNL A   1      37.004  34.109  30.247  1.00  0.00     0.010 A 
ATOM     39  C   UNL A   1      36.845  33.169  31.277  1.00  0.00    -0.014 A 
BRANCH  39  40
ATOM     40  C   UNL A   1      38.054  32.537  31.865  1.00  0.00     0.031 A 
ATOM     41  C   UNL A   1      38.740  31.413  31.140  1.00  0.00     0.074 A 
ATOM     42  C   UNL A   1      38.451  32.886  33.107  1.00  0.00     0.049 A 
ATOM     43  N   UNL A   1      39.706  30.632  31.546  1.00  0.00    -0.248 NA
ATOM     44  C   UNL A   1      38.232  31.098  29.797  1.00  0.00     0.031 C 
ATOM     45  C   UNL A   1      37.818  33.909  33.943  1.00  0.00     0.029 A 
ATOM     46  N   UNL A   1      39.463  32.397  33.894  1.00  0.00    -0.354 N 
ATOM     47  C   UNL A   1      39.903  29.713  30.522  1.00  0.00     0.074 A 
ATOM     48  C   UNL A   1      38.910  29.999  29.507  1.00  0.00     0.031 C 
ATOM     49  C   UNL A   1      38.461  33.977  35.119  1.00  0.00     0.029 A 
ATOM     50  C   UNL A   1      39.520  32.974  35.142  1.00  0.00     0.049 A 
ATOM     51  H   UNL A   1      40.089  31.698  33.596  1.00  0.00     0.167 HD
ATOM     52  C   UNL A   1      40.839  28.736  30.427  1.00  0.00     0.034 A 
ATOM     53  C   UNL A   1      40.317  32.710  36.196  1.00  0.00     0.034 A 
ATOM     54  C   UNL A   1      41.838  28.488  31.437  1.00  0.00     0.049 A 
ATOM     55  C   UNL A   1      41.353  31.627  36.071  1.00  0.00     0.074 A 
ATOM     56  C   UNL A   1      42.907  27.612  31.397  1.00  0.00     0.029 A 
ATOM     57  N   UNL A   1      41.879  29.106  32.682  1.00  0.00    -0.354 N 
ATOM     58  N   UNL A   1      41.588  30.824  35.059  1.00  0.00    -0.248 NA
ATOM     59  C   UNL A   1      42.233  31.416  37.227  1.00  0.00     0.031 C 
ATOM     60  C   UNL A   1      43.554  27.651  32.638  1.00  0.00     0.029 A 
ATOM     61  C   UNL A   1      42.927  28.599  33.433  1.00  0.00     0.049 A 
ATOM     62  H   UNL A   1      41.253  29.803  32.985  1.00  0.00     0.167 HD
ATOM     63  C   UNL A   1      42.648  30.014  35.455  1.00  0.00     0.074 A 
ATOM     64  C   UNL A   1      43.020  30.443  36.790  1.00  0.00     0.031 C 
ATOM     65  C   UNL A   1      43.259  29.010  34.778  1.00  0.00     0.034 A 
BRANCH  52  66
ATOM     66  C   UNL A   1      40.799  27.859  29.198  1.00  0.00     0.023 A 
ATOM     67  C   UNL A   1      41.710  28.026  28.140  1.00  0.00     0.031 A 
ATOM     68  C   UNL A   1      39.800  26.880  29.055  1.00  0.00     0.131 A 
ATOM     69  C   UNL A   1      41.542  27.304  26.949  1.00  0.00     0.055 A 
ATOM     70  C   UNL A   1      39.695  26.099  27.902  1.00  0.00     0.041 A 
ATOM     71  F   UNL A   1      38.891  26.683  30.023  1.00  0.00    -0.206 F 
ATOM     72  C   UNL A   1      40.556  26.324  26.831  1.00  0.00     0.022 A 
BRANCH  69  73
ATOM     73  S   UNL A   1      42.520  27.791  25.501  1.00  0.00     0.124 S 
ATOM     74  O   UNL A   1      43.741  28.296  26.126  1.00  0.00    -0.237 OA
ATOM     75  O   UNL A   1      42.648  26.537  24.771  1.00  0.00    -0.237 OA
ATOM     76  O   UNL A   1      41.694  28.810  24.856  1.00  0.00    -0.744 OA
ENDBRANCH  69  73
ENDBRANCH  52  66
BRANCH  53  77
ATOM     77  C   UNL A   1      40.143  33.463  37.470  1.00  0.00     0.023 A 
ATOM     78  C   UNL A   1      41.005  34.515  37.813  1.00  0.00     0.031 A 
ATOM     79  C   UNL A   1      39.108  33.134  38.363  1.00  0.00     0.131 A 
ATOM     80  C   UNL A   1      40.832  35.188  39.034  1.00  0.00     0.055 A 
ATOM     81  C   UNL A   1      38.917  33.830  39.557  1.00  0.00     0.041 A 
ATOM     82  F   UNL A   1      38.250  32.144  38.072  1.00  0.00    -0.206 F 
ATOM     83  C   UNL A   1      39.787  34.860  39.902  1.00  0.00     0.022 A 
BRANCH  80  84
ATOM     84  S   UNL A   1      42.018  36.482  39.490  1.00  0.00     0.124 S 
ATOM     85  O   UNL A   1      43.278  35.907  39.032  1.00  0.00    -0.237 OA
ATOM     86  O   UNL A   1      41.523  37.628  38.733  1.00  0.00    -0.237 OA
ATOM     87  O   UNL A   1      41.869  36.586  40.940  1.00  0.00    -0.744 OA
ENDBRANCH  80  84
ENDBRANCH  53  77
BRANCH  65  88
ATOM     88  C   UNL A   1      44.399  28.314  35.477  1.00  0.00     0.023 A 
ATOM     89  C   UNL A   1      44.166  27.283  36.404  1.00  0.00     0.031 A 
ATOM     90  C   UNL A   1      45.728  28.691  35.222  1.00  0.00     0.131 A 
ATOM     91  C   UNL A   1      45.248  26.693  37.076  1.00  0.00     0.055 A 
ATOM     92  C   UNL A   1      46.802  28.064  35.854  1.00  0.00     0.041 A 
ATOM     93  F   UNL A   1      46.004  29.673  34.349  1.00  0.00    -0.206 F 
ATOM     94  C   UNL A   1      46.564  27.066  36.795  1.00  0.00     0.022 A 
BRANCH  91  95
ATOM     95  S   UNL A   1      44.905  25.479  38.379  1.00  0.00     0.124 S 
ATOM     96  O   UNL A   1      43.983  24.567  37.709  1.00  0.00    -0.237 OA
ATOM     97  O   UNL A   1      46.232  24.946  38.669  1.00  0.00    -0.237 OA
ATOM     98  O   UNL A   1      44.314  26.283  39.449  1.00  0.00    -0.744 OA
ENDBRANCH  91  95
ENDBRANCH  65  88
ENDBRANCH  39  40
ENDBRANCH  31  34
ENDBRANCH  29  30
ENDBRANCH  28  29
ENDBRANCH   1  28
TORSDOF 20
ENDMDL
MODEL 3
REMARK VINA RESULT:     -10.9      6.372     11.478
REMARK SMILES CCOc1cccc(OCC)c1-c1ccc([C@@H](C)C(=O)NCCCCNC(=O)c2ccc(-c3c4nc(c(-c5cc(S(=O)(=O)[O-])ccc5F)c5ccc([nH]5)c(-c5cc(S(=O)(=O)[O-])ccc5F)c5nc(c(-c6cc(S(=O)(=O)[O-])ccc6F)c6ccc3[nH]6)C=C5)C=C4)cc2)cc1F
REMARK SMILES IDX 23 1 22 2 21 3 19 4 20 5 17 7 18 8 16 9 13 10 14 11 93 12
REMARK SMILES IDX 15 13 92 14 94 15 12 16 4 17 5 18 6 19 8 20 7 21 3 22 2 23
REMARK SMILES IDX 1 24 9 25 10 26 11 27 24 28 25 29 26 30 27 31 28 33 29 34
REMARK SMILES IDX 30 35 91 36 31 37 90 38 32 39 33 40 34 41 84 42 35 43 89 44
REMARK SMILES IDX 83 45 85 46 36 47 88 48 82 49 81 50 37 52 69 53 49 54 68 55
REMARK SMILES IDX 50 56 53 57 67 58 86 59 51 60 52 61 66 63 87 64 54 65 38 66
REMARK SMILES IDX 39 67 47 68 40 69 46 70 48 71 45 72 41 73 42 74 43 75 44 76
REMARK SMILES IDX 70 77 71 78 79 79 72 80 78 81 80 82 77 83 73 84 74 85 75 86
REMARK SMILES IDX 76 87 55 88 56 89 64 90 57 91 63 92 65 93 62 94 58 95 59 96
REMARK SMILES IDX 60 97 61 98
REMARK H PARENT 21 6 26 32 85 51 53 62
REMARK Flexibility Score: inf
ROOT
ATOM      1  C   UNL A   1      36.353  30.694  28.556  1.00  0.00     0.023 C 
ENDROOT
BRANCH   1   2
ATOM      2  C   UNL A   1      36.960  29.545  27.727  1.00  0.00     0.116 C 
BRANCH   2   3
ATOM      3  N   UNL A   1      38.411  29.650  27.631  1.00  0.00    -0.356 N 
ATOM      4  C   UNL A   1      39.458  28.803  27.845  1.00  0.00     0.227 C 
ATOM      5  O   UNL A   1      40.582  29.312  27.712  1.00  0.00    -0.274 OA
ATOM      6  H   UNL A   1      38.705  30.546  27.343  1.00  0.00     0.163 HD
BRANCH   4   7
ATOM      7  C   UNL A   1      39.364  27.303  28.222  1.00  0.00     0.105 C 
ATOM      8  C   UNL A   1      39.193  27.038  29.715  1.00  0.00     0.023 C 
BRANCH   7   9
ATOM      9  C   UNL A   1      40.425  26.418  27.587  1.00  0.00    -0.033 A 
ATOM     10  C   UNL A   1      42.438  24.682  26.561  1.00  0.00     0.025 A 
ATOM     11  C   UNL A   1      41.908  24.512  27.833  1.00  0.00     0.012 A 
ATOM     12  C   UNL A   1      41.978  25.780  25.821  1.00  0.00     0.131 A 
ATOM     13  C   UNL A   1      40.847  25.285  28.259  1.00  0.00     0.005 A 
ATOM     14  C   UNL A   1      41.007  26.662  26.338  1.00  0.00     0.044 A 
ATOM     15  F   UNL A   1      42.466  26.020  24.594  1.00  0.00    -0.206 F 
BRANCH  10  16
ATOM     16  C   UNL A   1      43.476  23.734  26.142  1.00  0.00     0.069 A 
ATOM     17  C   UNL A   1      44.823  24.182  26.178  1.00  0.00     0.130 A 
ATOM     18  C   UNL A   1      45.900  23.322  25.953  1.00  0.00     0.047 A 
ATOM     19  C   UNL A   1      45.661  21.978  25.710  1.00  0.00     0.008 A 
ATOM     20  C   UNL A   1      43.248  22.364  25.868  1.00  0.00     0.130 A 
ATOM     21  C   UNL A   1      44.349  21.514  25.654  1.00  0.00     0.047 A 
BRANCH  17  22
ATOM     22  O   UNL A   1      45.075  25.519  26.376  1.00  0.00    -0.493 OA
BRANCH  22  23
ATOM     23  C   UNL A   1      45.810  26.121  25.304  1.00  0.00     0.226 C 
ATOM     24  C   UNL A   1      45.379  27.574  25.180  1.00  0.00     0.049 C 
ENDBRANCH  22  23
ENDBRANCH  17  22
BRANCH  20  25
ATOM     25  O   UNL A   1      42.077  21.667  25.701  1.00  0.00    -0.493 OA
BRANCH  25  26
ATOM     26  C   UNL A   1      41.891  20.319  26.107  1.00  0.00     0.226 C 
ATOM     27  C   UNL A   1      40.420  19.923  26.113  1.00  0.00     0.049 C 
ENDBRANCH  25  26
ENDBRANCH  20  25
ENDBRANCH  10  16
ENDBRANCH   7   9
ENDBRANCH   4   7
ENDBRANCH   2   3
ENDBRANCH   1   2
BRANCH   1  28
ATOM     28  C   UNL A   1      35.216  31.475  27.922  1.00  0.00     0.023 C 
BRANCH  28  29
ATOM     29  C   UNL A   1      35.380  32.986  27.943  1.00  0.00     0.116 C 
BRANCH  29  30
ATOM     30  N   UNL A   1      34.202  33.715  28.383  1.00  0.00    -0.352 N 
ATOM     31  C   UNL A   1      33.865  34.124  29.667  1.00  0.00     0.251 C 
ATOM     32  H   UNL A   1      33.557  33.951  27.677  1.00  0.00     0.163 HD
ATOM     33  O   UNL A   1      32.808  34.689  29.876  1.00  0.00    -0.269 OA
BRANCH  31  34
ATOM     34  C   UNL A   1      34.794  33.799  30.773  1.00  0.00     0.039 A 
ATOM     35  C   UNL A   1      34.704  32.545  31.381  1.00  0.00     0.014 A 
ATOM     36  C   UNL A   1      35.820  34.679  31.114  1.00  0.00     0.014 A 
ATOM     37  C   UNL A   1      35.725  32.124  32.239  1.00  0.00     0.010 A 
ATOM     38  C   UNL A   1      36.880  34.223  31.886  1.00  0.00     0.010 A 
ATOM     39  C   UNL A   1      36.854  32.933  32.439  1.00  0.00    -0.014 A 
BRANCH  39  40
ATOM     40  C   UNL A   1      38.043  32.448  33.185  1.00  0.00     0.031 A 
ATOM     41  C   UNL A   1      38.241  32.847  34.621  1.00  0.00     0.074 A 
ATOM     42  C   UNL A   1      39.005  31.763  32.533  1.00  0.00     0.049 A 
ATOM     43  N   UNL A   1      39.275  32.661  35.399  1.00  0.00    -0.248 NA
ATOM     44  C   UNL A   1      37.143  33.600  35.246  1.00  0.00     0.031 C 
ATOM     45  C   UNL A   1      38.964  31.383  31.119  1.00  0.00     0.029 A 
ATOM     46  N   UNL A   1      40.219  31.290  32.966  1.00  0.00    -0.354 N 
ATOM     47  C   UNL A   1      38.967  33.299  36.595  1.00  0.00     0.074 A 
ATOM     48  C   UNL A   1      37.676  33.930  36.411  1.00  0.00     0.031 C 
ATOM     49  C   UNL A   1      40.094  30.730  30.804  1.00  0.00     0.029 A 
ATOM     50  C   UNL A   1      40.959  30.683  31.977  1.00  0.00     0.049 A 
ATOM     51  H   UNL A   1      40.531  31.377  33.895  1.00  0.00     0.167 HD
ATOM     52  C   UNL A   1      39.684  33.336  37.746  1.00  0.00     0.034 A 
ATOM     53  C   UNL A   1      42.205  30.170  32.004  1.00  0.00     0.034 A 
ATOM     54  C   UNL A   1      40.954  32.675  37.915  1.00  0.00     0.049 A 
ATOM     55  C   UNL A   1      42.983  30.215  33.291  1.00  0.00     0.074 A 
ATOM     56  C   UNL A   1      41.710  32.541  39.065  1.00  0.00     0.029 A 
ATOM     57  N   UNL A   1      41.667  32.051  36.898  1.00  0.00    -0.354 N 
ATOM     58  N   UNL A   1      42.641  30.744  34.442  1.00  0.00    -0.248 NA
ATOM     59  C   UNL A   1      44.313  29.592  33.282  1.00  0.00     0.031 C 
ATOM     60  C   UNL A   1      42.908  31.896  38.731  1.00  0.00     0.029 A 
ATOM     61  C   UNL A   1      42.873  31.570  37.384  1.00  0.00     0.049 A 
ATOM     62  H   UNL A   1      41.359  31.964  35.966  1.00  0.00     0.167 HD
ATOM     63  C   UNL A   1      43.713  30.513  35.299  1.00  0.00     0.074 A 
ATOM     64  C   UNL A   1      44.703  29.777  34.535  1.00  0.00     0.031 C 
ATOM     65  C   UNL A   1      43.865  30.874  36.598  1.00  0.00     0.034 A 
BRANCH  52  66
ATOM     66  C   UNL A   1      39.111  34.138  38.890  1.00  0.00     0.023 A 
ATOM     67  C   UNL A   1      39.259  35.534  38.961  1.00  0.00     0.031 A 
ATOM     68  C   UNL A   1      38.458  33.492  39.955  1.00  0.00     0.131 A 
ATOM     69  C   UNL A   1      38.857  36.225  40.114  1.00  0.00     0.055 A 
ATOM     70  C   UNL A   1      37.978  34.199  41.060  1.00  0.00     0.041 A 
ATOM     71  F   UNL A   1      38.299  32.160  39.953  1.00  0.00    -0.206 F 
ATOM     72  C   UNL A   1      38.195  35.571  41.154  1.00  0.00     0.022 A 
BRANCH  69  73
ATOM     73  S   UNL A   1      39.372  37.954  40.307  1.00  0.00     0.124 S 
ATOM     74  O   UNL A   1      38.292  38.660  39.621  1.00  0.00    -0.237 OA
ATOM     75  O   UNL A   1      39.418  38.109  41.755  1.00  0.00    -0.237 OA
ATOM     76  O   UNL A   1      40.666  38.004  39.630  1.00  0.00    -0.744 OA
ENDBRANCH  69  73
ENDBRANCH  52  66
BRANCH  53  77
ATOM     77  C   UNL A   1      42.803  29.599  30.764  1.00  0.00     0.023 A 
ATOM     78  C   UNL A   1      43.403  30.425  29.802  1.00  0.00     0.031 A 
ATOM     79  C   UNL A   1      42.780  28.213  30.528  1.00  0.00     0.131 A 
ATOM     80  C   UNL A   1      43.934  29.859  28.631  1.00  0.00     0.055 A 
ATOM     81  C   UNL A   1      43.342  27.652  29.381  1.00  0.00     0.041 A 
ATOM     82  F   UNL A   1      42.229  27.381  31.426  1.00  0.00    -0.206 F 
ATOM     83  C   UNL A   1      43.917  28.478  28.420  1.00  0.00     0.022 A 
BRANCH  80  84
ATOM     84  S   UNL A   1      44.619  30.962  27.366  1.00  0.00     0.124 S 
ATOM     85  O   UNL A   1      43.714  30.730  26.246  1.00  0.00    -0.237 OA
ATOM     86  O   UNL A   1      44.518  32.267  28.012  1.00  0.00    -0.237 OA
ATOM     87  O   UNL A   1      45.981  30.466  27.182  1.00  0.00    -0.744 OA
ENDBRANCH  80  84
ENDBRANCH  53  77
BRANCH  65  88
ATOM     88  C   UNL A   1      45.152  30.467  37.270  1.00  0.00     0.023 A 
ATOM     89  C   UNL A   1      45.237  29.292  38.036  1.00  0.00     0.031 A 
ATOM     90  C   UNL A   1      46.301  31.267  37.151  1.00  0.00     0.131 A 
ATOM     91  C   UNL A   1      46.436  28.971  38.691  1.00  0.00     0.055 A 
ATOM     92  C   UNL A   1      47.505  30.915  37.761  1.00  0.00     0.041 A 
ATOM     93  F   UNL A   1      46.272  32.402  36.434  1.00  0.00    -0.206 F 
ATOM     94  C   UNL A   1      47.574  29.767  38.545  1.00  0.00     0.022 A 
BRANCH  91  95
ATOM     95  S   UNL A   1      46.466  27.535  39.798  1.00  0.00     0.124 S 
ATOM     96  O   UNL A   1      47.545  27.883  40.716  1.00  0.00    -0.237 OA
ATOM     97  O   UNL A   1      45.120  27.544  40.362  1.00  0.00    -0.237 OA
ATOM     98  O   UNL A   1      46.752  26.416  38.900  1.00  0.00    -0.744 OA
ENDBRANCH  91  95
ENDBRANCH  65  88
ENDBRANCH  39  40
ENDBRANCH  31  34
ENDBRANCH  29  30
ENDBRANCH  28  29
ENDBRANCH   1  28
TORSDOF 20
ENDMDL
