MODEL 1
REMARK VINA RESULT:     -12.5      0.000      0.000
REMARK SMILES Cc1cc(Cl)cc2c1O[C@H](C(F)(F)F)C(C(=O)NCCCCNC(=O)c1ccc(-c3c4nc(c(-c5cc(S(=O)(=O)[O-])ccc5F)c5ccc([nH]5)c(-c5cc(S(=O)(=O)[O-])ccc5F)c5nc(c(-c6cc(S(=O)(=O)[O-])ccc6F)c6ccc3[nH]6)C=C5)C=C4)cc1)=C2
REMARK SMILES IDX 21 1 20 2 19 3 18 4 16 5 17 6 15 8 1 9 2 10 3 11 8 12 4 13
REMARK SMILES IDX 7 14 9 15 5 16 6 17 89 18 10 19 11 20 12 21 13 22 14 23
REMARK SMILES IDX 22 24 23 25 24 26 25 28 26 29 27 30 88 31 28 32 87 33 29 34
REMARK SMILES IDX 30 35 31 36 81 37 32 38 86 39 80 40 82 41 33 42 85 43 79 44
REMARK SMILES IDX 78 45 34 47 66 48 46 49 65 50 47 51 50 52 64 53 83 54 48 55
REMARK SMILES IDX 49 56 63 58 84 59 51 60 35 61 36 62 44 63 37 64 43 65 45 66
REMARK SMILES IDX 42 67 38 68 39 69 40 70 41 71 67 72 68 73 76 74 69 75 75 76
REMARK SMILES IDX 77 77 74 78 70 79 71 80 72 81 73 82 52 83 53 84 61 85 54 86
REMARK SMILES IDX 60 87 62 88 59 89 55 90 56 91 57 92 58 93
REMARK H PARENT 18 7 23 27 82 46 50 57
REMARK Flexibility Score: inf
ROOT
ATOM      1  C   UNL A   1      31.522  28.551  25.462  1.00  0.00     0.023 C 
ENDROOT
BRANCH   1   2
ATOM      2  C   UNL A   1      31.398  27.368  26.427  1.00  0.00     0.023 C 
BRANCH   2   3
ATOM      3  C   UNL A   1      30.783  26.118  25.807  1.00  0.00     0.116 C 
BRANCH   3   4
ATOM      4  N   UNL A   1      30.957  26.086  24.365  1.00  0.00    -0.352 N 
ATOM      5  C   UNL A   1      31.691  25.381  23.474  1.00  0.00     0.251 C 
ATOM      6  O   UNL A   1      31.535  25.702  22.291  1.00  0.00    -0.270 OA
ATOM      7  H   UNL A   1      30.390  26.754  23.918  1.00  0.00     0.163 HD
BRANCH   5   8
ATOM      8  C   UNL A   1      32.642  24.280  23.815  1.00  0.00     0.067 C 
ATOM      9  C   UNL A   1      36.665  21.182  24.611  1.00  0.00     0.048 C 
ATOM     10  C   UNL A   1      35.172  21.014  24.628  1.00  0.00    -0.007 A 
ATOM     11  C   UNL A   1      34.600  19.791  25.002  1.00  0.00     0.027 A 
ATOM     12  C   UNL A   1      34.325  22.084  24.306  1.00  0.00     0.131 A 
ATOM     13  C   UNL A   1      33.213  19.644  25.031  1.00  0.00     0.042 A 
ATOM     14  C   UNL A   1      32.935  21.936  24.330  1.00  0.00     0.019 A 
ATOM     15  O   UNL A   1      34.914  23.256  23.921  1.00  0.00    -0.475 OA
ATOM     16  Cl  UNL A   1      32.528  18.130  25.482  1.00  0.00    -0.084 Cl
ATOM     17  C   UNL A   1      32.378  20.707  24.693  1.00  0.00     0.032 A 
ATOM     18  C   UNL A   1      32.087  23.060  23.950  1.00  0.00     0.025 C 
ATOM     19  C   UNL A   1      34.113  24.464  24.055  1.00  0.00     0.314 C 
BRANCH  19  20
ATOM     20  C   UNL A   1      34.418  25.121  25.415  1.00  0.00     0.429 C 
ATOM     21  F   UNL A   1      34.302  26.470  25.325  1.00  0.00    -0.167 F 
ATOM     22  F   UNL A   1      33.567  24.725  26.388  1.00  0.00    -0.167 F 
ATOM     23  F   UNL A   1      35.670  24.852  25.851  1.00  0.00    -0.167 F 
ENDBRANCH  19  20
ENDBRANCH   5   8
ENDBRANCH   3   4
ENDBRANCH   2   3
ENDBRANCH   1   2
BRANCH   1  24
ATOM     24  C   UNL A   1      32.676  29.512  25.743  1.00  0.00     0.116 C 
BRANCH  24  25
ATOM     25  N   UNL A   1      32.248  30.830  26.189  1.00  0.00    -0.352 N 
ATOM     26  C   UNL A   1      32.886  31.675  27.067  1.00  0.00     0.251 C 
ATOM     27  H   UNL A   1      31.397  31.156  25.816  1.00  0.00     0.163 HD
ATOM     28  O   UNL A   1      32.360  32.730  27.406  1.00  0.00    -0.269 OA
BRANCH  26  29
ATOM     29  C   UNL A   1      34.187  31.262  27.626  1.00  0.00     0.039 A 
ATOM     30  C   UNL A   1      35.145  32.242  27.888  1.00  0.00     0.014 A 
ATOM     31  C   UNL A   1      34.416  29.926  27.964  1.00  0.00     0.014 A 
ATOM     32  C   UNL A   1      36.313  31.891  28.566  1.00  0.00     0.010 A 
ATOM     33  C   UNL A   1      35.555  29.589  28.688  1.00  0.00     0.010 A 
ATOM     34  C   UNL A   1      36.506  30.571  29.007  1.00  0.00    -0.014 A 
BRANCH  34  35
ATOM     35  C   UNL A   1      37.696  30.202  29.810  1.00  0.00     0.031 A 
ATOM     36  C   UNL A   1      38.751  29.314  29.219  1.00  0.00     0.074 A 
ATOM     37  C   UNL A   1      37.798  30.629  31.084  1.00  0.00     0.049 A 
ATOM     38  N   UNL A   1      39.823  28.817  29.781  1.00  0.00    -0.248 NA
ATOM     39  C   UNL A   1      38.563  28.911  27.817  1.00  0.00     0.031 C 
ATOM     40  C   UNL A   1      36.820  31.475  31.774  1.00  0.00     0.029 A 
ATOM     41  N   UNL A   1      38.771  30.412  32.025  1.00  0.00    -0.354 N 
ATOM     42  C   UNL A   1      40.433  28.038  28.806  1.00  0.00     0.074 A 
ATOM     43  C   UNL A   1      39.583  28.086  27.635  1.00  0.00     0.031 C 
ATOM     44  C   UNL A   1      37.262  31.733  33.016  1.00  0.00     0.029 A 
ATOM     45  C   UNL A   1      38.532  31.043  33.223  1.00  0.00     0.049 A 
ATOM     46  H   UNL A   1      39.568  29.858  31.859  1.00  0.00     0.167 HD
ATOM     47  C   UNL A   1      41.605  27.363  28.874  1.00  0.00     0.034 A 
ATOM     48  C   UNL A   1      39.254  31.061  34.361  1.00  0.00     0.034 A 
ATOM     49  C   UNL A   1      42.452  27.337  30.039  1.00  0.00     0.049 A 
ATOM     50  C   UNL A   1      40.544  30.289  34.420  1.00  0.00     0.074 A 
ATOM     51  C   UNL A   1      43.674  26.709  30.204  1.00  0.00     0.029 A 
ATOM     52  N   UNL A   1      42.166  27.974  31.240  1.00  0.00    -0.354 N 
ATOM     53  N   UNL A   1      41.103  29.551  33.491  1.00  0.00    -0.248 NA
ATOM     54  C   UNL A   1      41.297  30.349  35.680  1.00  0.00     0.031 C 
ATOM     55  C   UNL A   1      44.106  26.931  31.516  1.00  0.00     0.029 A 
ATOM     56  C   UNL A   1      43.180  27.741  32.153  1.00  0.00     0.049 A 
ATOM     57  H   UNL A   1      41.360  28.511  31.415  1.00  0.00     0.167 HD
ATOM     58  C   UNL A   1      42.284  29.073  34.048  1.00  0.00     0.074 A 
ATOM     59  C   UNL A   1      42.358  29.607  35.393  1.00  0.00     0.031 C 
ATOM     60  C   UNL A   1      43.226  28.269  33.494  1.00  0.00     0.034 A 
BRANCH  47  61
ATOM     61  C   UNL A   1      42.025  26.589  27.653  1.00  0.00     0.023 A 
ATOM     62  C   UNL A   1      41.743  25.218  27.525  1.00  0.00     0.031 A 
ATOM     63  C   UNL A   1      42.732  27.222  26.617  1.00  0.00     0.131 A 
ATOM     64  C   UNL A   1      42.219  24.510  26.414  1.00  0.00     0.055 A 
ATOM     65  C   UNL A   1      43.143  26.525  25.479  1.00  0.00     0.041 A 
ATOM     66  F   UNL A   1      43.043  28.526  26.698  1.00  0.00    -0.206 F 
ATOM     67  C   UNL A   1      42.897  25.159  25.378  1.00  0.00     0.022 A 
BRANCH  64  68
ATOM     68  S   UNL A   1      42.023  22.709  26.384  1.00  0.00     0.124 S 
ATOM     69  O   UNL A   1      42.755  22.315  27.586  1.00  0.00    -0.237 OA
ATOM     70  O   UNL A   1      40.576  22.543  26.435  1.00  0.00    -0.237 OA
ATOM     71  O   UNL A   1      42.651  22.317  25.123  1.00  0.00    -0.744 OA
ENDBRANCH  64  68
ENDBRANCH  47  61
BRANCH  48  72
ATOM     72  C   UNL A   1      38.776  31.838  35.535  1.00  0.00     0.023 A 
ATOM     73  C   UNL A   1      38.150  31.196  36.613  1.00  0.00     0.031 A 
ATOM     74  C   UNL A   1      38.938  33.233  35.595  1.00  0.00     0.131 A 
ATOM     75  C   UNL A   1      37.684  31.951  37.700  1.00  0.00     0.055 A 
ATOM     76  C   UNL A   1      38.501  33.977  36.692  1.00  0.00     0.041 A 
ATOM     77  F   UNL A   1      39.544  33.888  34.592  1.00  0.00    -0.206 F 
ATOM     78  C   UNL A   1      37.865  33.336  37.751  1.00  0.00     0.022 A 
BRANCH  75  79
ATOM     79  S   UNL A   1      36.821  31.097  39.048  1.00  0.00     0.124 S 
ATOM     80  O   UNL A   1      35.610  31.899  39.178  1.00  0.00    -0.237 OA
ATOM     81  O   UNL A   1      36.649  29.756  38.501  1.00  0.00    -0.237 OA
ATOM     82  O   UNL A   1      37.758  31.195  40.166  1.00  0.00    -0.744 OA
ENDBRANCH  75  79
ENDBRANCH  48  72
BRANCH  60  83
ATOM     83  C   UNL A   1      44.429  27.943  34.334  1.00  0.00     0.023 A 
ATOM     84  C   UNL A   1      44.466  26.798  35.145  1.00  0.00     0.031 A 
ATOM     85  C   UNL A   1      45.564  28.770  34.288  1.00  0.00     0.131 A 
ATOM     86  C   UNL A   1      45.611  26.522  35.904  1.00  0.00     0.055 A 
ATOM     87  C   UNL A   1      46.716  28.470  35.015  1.00  0.00     0.041 A 
ATOM     88  F   UNL A   1      45.574  29.873  33.524  1.00  0.00    -0.206 F 
ATOM     89  C   UNL A   1      46.742  27.343  35.833  1.00  0.00     0.022 A 
BRANCH  86  90
ATOM     90  S   UNL A   1      45.605  25.083  37.007  1.00  0.00     0.124 S 
ATOM     91  O   UNL A   1      44.699  24.174  36.311  1.00  0.00    -0.237 OA
ATOM     92  O   UNL A   1      47.011  24.691  37.025  1.00  0.00    -0.237 OA
ATOM     93  O   UNL A   1      45.099  25.619  38.268  1.00  0.00    -0.744 OA
ENDBRANCH  86  90
ENDBRANCH  60  83
ENDBRANCH  34  35
ENDBRANCH  26  29
ENDBRANCH  24  25
ENDBRANCH   1  24
TORSDOF 15
ENDMDL
MODEL 2
REMARK VINA RESULT:     -12.5      2.534      3.807
REMARK SMILES Cc1cc(Cl)cc2c1O[C@H](C(F)(F)F)C(C(=O)NCCCCNC(=O)c1ccc(-c3c4nc(c(-c5cc(S(=O)(=O)[O-])ccc5F)c5ccc([nH]5)c(-c5cc(S(=O)(=O)[O-])ccc5F)c5nc(c(-c6cc(S(=O)(=O)[O-])ccc6F)c6ccc3[nH]6)C=C5)C=C4)cc1)=C2
REMARK SMILES IDX 21 1 20 2 19 3 18 4 16 5 17 6 15 8 1 9 2 10 3 11 8 12 4 13
REMARK SMILES IDX 7 14 9 15 5 16 6 17 89 18 10 19 11 20 12 21 13 22 14 23
REMARK SMILES IDX 22 24 23 25 24 26 25 28 26 29 27 30 88 31 28 32 87 33 29 34
REMARK SMILES IDX 30 35 31 36 81 37 32 38 86 39 80 40 82 41 33 42 85 43 79 44
REMARK SMILES IDX 78 45 34 47 66 48 46 49 65 50 47 51 50 52 64 53 83 54 48 55
REMARK SMILES IDX 49 56 63 58 84 59 51 60 35 61 36 62 44 63 37 64 43 65 45 66
REMARK SMILES IDX 42 67 38 68 39 69 40 70 41 71 67 72 68 73 76 74 69 75 75 76
REMARK SMILES IDX 77 77 74 78 70 79 71 80 72 81 73 82 52 83 53 84 61 85 54 86
REMARK SMILES IDX 60 87 62 88 59 89 55 90 56 91 57 92 58 93
REMARK H PARENT 18 7 23 27 82 46 50 57
REMARK Flexibility Score: inf
ROOT
ATOM      1  C   UNL A   1      32.941  29.225  24.907  1.00  0.00     0.023 C 
ENDROOT
BRANCH   1   2
ATOM      2  C   UNL A   1      34.118  28.262  24.728  1.00  0.00     0.023 C 
BRANCH   2   3
ATOM      3  C   UNL A   1      33.768  26.797  24.970  1.00  0.00     0.116 C 
BRANCH   3   4
ATOM      4  N   UNL A   1      33.475  26.097  23.731  1.00  0.00    -0.352 N 
ATOM      5  C   UNL A   1      32.415  25.959  22.901  1.00  0.00     0.251 C 
ATOM      6  O   UNL A   1      32.604  25.229  21.923  1.00  0.00    -0.270 OA
ATOM      7  H   UNL A   1      34.254  25.590  23.410  1.00  0.00     0.163 HD
BRANCH   5   8
ATOM      8  C   UNL A   1      31.083  26.609  23.084  1.00  0.00     0.067 C 
ATOM      9  C   UNL A   1      26.153  27.828  23.876  1.00  0.00     0.048 C 
ATOM     10  C   UNL A   1      27.361  28.559  23.363  1.00  0.00    -0.007 A 
ATOM     11  C   UNL A   1      27.286  29.924  23.056  1.00  0.00     0.027 A 
ATOM     12  C   UNL A   1      28.591  27.901  23.217  1.00  0.00     0.131 A 
ATOM     13  C   UNL A   1      28.414  30.602  22.594  1.00  0.00     0.042 A 
ATOM     14  C   UNL A   1      29.720  28.579  22.751  1.00  0.00     0.019 A 
ATOM     15  O   UNL A   1      28.624  26.564  23.502  1.00  0.00    -0.475 OA
ATOM     16  Cl  UNL A   1      28.302  32.276  22.210  1.00  0.00    -0.084 Cl
ATOM     17  C   UNL A   1      29.629  29.937  22.436  1.00  0.00     0.032 A 
ATOM     18  C   UNL A   1      30.972  27.851  22.575  1.00  0.00     0.025 C 
ATOM     19  C   UNL A   1      29.926  25.997  23.821  1.00  0.00     0.314 C 
BRANCH  19  20
ATOM     20  C   UNL A   1      30.118  26.008  25.350  1.00  0.00     0.429 C 
ATOM     21  F   UNL A   1      28.945  25.737  25.976  1.00  0.00    -0.167 F 
ATOM     22  F   UNL A   1      31.005  25.079  25.771  1.00  0.00    -0.167 F 
ATOM     23  F   UNL A   1      30.552  27.205  25.808  1.00  0.00    -0.167 F 
ENDBRANCH  19  20
ENDBRANCH   5   8
ENDBRANCH   3   4
ENDBRANCH   2   3
ENDBRANCH   1   2
BRANCH   1  24
ATOM     24  C   UNL A   1      32.596  29.583  26.352  1.00  0.00     0.116 C 
BRANCH  24  25
ATOM     25  N   UNL A   1      32.366  31.005  26.566  1.00  0.00    -0.352 N 
ATOM     26  C   UNL A   1      33.165  31.899  27.238  1.00  0.00     0.251 C 
ATOM     27  H   UNL A   1      31.536  31.370  26.182  1.00  0.00     0.163 HD
ATOM     28  O   UNL A   1      32.799  33.059  27.401  1.00  0.00    -0.269 OA
BRANCH  26  29
ATOM     29  C   UNL A   1      34.444  31.423  27.799  1.00  0.00     0.039 A 
ATOM     30  C   UNL A   1      35.466  32.347  28.020  1.00  0.00     0.014 A 
ATOM     31  C   UNL A   1      34.592  30.086  28.178  1.00  0.00     0.014 A 
ATOM     32  C   UNL A   1      36.616  31.944  28.698  1.00  0.00     0.010 A 
ATOM     33  C   UNL A   1      35.715  29.701  28.902  1.00  0.00     0.010 A 
ATOM     34  C   UNL A   1      36.730  30.629  29.180  1.00  0.00    -0.014 A 
BRANCH  34  35
ATOM     35  C   UNL A   1      37.903  30.211  29.983  1.00  0.00     0.031 A 
ATOM     36  C   UNL A   1      38.938  29.307  29.381  1.00  0.00     0.074 A 
ATOM     37  C   UNL A   1      38.007  30.609  31.267  1.00  0.00     0.049 A 
ATOM     38  N   UNL A   1      39.992  28.770  29.940  1.00  0.00    -0.248 NA
ATOM     39  C   UNL A   1      38.750  28.938  27.970  1.00  0.00     0.031 C 
ATOM     40  C   UNL A   1      37.048  31.467  31.967  1.00  0.00     0.029 A 
ATOM     41  N   UNL A   1      38.967  30.346  32.210  1.00  0.00    -0.354 N 
ATOM     42  C   UNL A   1      40.587  27.994  28.954  1.00  0.00     0.074 A 
ATOM     43  C   UNL A   1      39.749  28.090  27.778  1.00  0.00     0.031 C 
ATOM     44  C   UNL A   1      37.487  31.687  33.218  1.00  0.00     0.029 A 
ATOM     45  C   UNL A   1      38.736  30.958  33.419  1.00  0.00     0.049 A 
ATOM     46  H   UNL A   1      39.749  29.774  32.038  1.00  0.00     0.167 HD
ATOM     47  C   UNL A   1      41.740  27.285  29.016  1.00  0.00     0.034 A 
ATOM     48  C   UNL A   1      39.449  30.933  34.562  1.00  0.00     0.034 A 
ATOM     49  C   UNL A   1      42.577  27.213  30.186  1.00  0.00     0.049 A 
ATOM     50  C   UNL A   1      40.717  30.124  34.615  1.00  0.00     0.074 A 
ATOM     51  C   UNL A   1      43.780  26.548  30.347  1.00  0.00     0.029 A 
ATOM     52  N   UNL A   1      42.299  27.832  31.398  1.00  0.00    -0.354 N 
ATOM     53  N   UNL A   1      41.264  29.391  33.674  1.00  0.00    -0.248 NA
ATOM     54  C   UNL A   1      41.462  30.138  35.881  1.00  0.00     0.031 C 
ATOM     55  C   UNL A   1      44.209  26.731  31.666  1.00  0.00     0.029 A 
ATOM     56  C   UNL A   1      43.300  27.553  32.314  1.00  0.00     0.049 A 
ATOM     57  H   UNL A   1      41.507  28.388  31.578  1.00  0.00     0.167 HD
ATOM     58  C   UNL A   1      42.426  28.869  34.229  1.00  0.00     0.074 A 
ATOM     59  C   UNL A   1      42.505  29.373  35.585  1.00  0.00     0.031 C 
ATOM     60  C   UNL A   1      43.350  28.051  33.665  1.00  0.00     0.034 A 
BRANCH  47  61
ATOM     61  C   UNL A   1      42.148  26.526  27.782  1.00  0.00     0.023 A 
ATOM     62  C   UNL A   1      41.806  25.174  27.611  1.00  0.00     0.031 A 
ATOM     63  C   UNL A   1      42.904  27.153  26.777  1.00  0.00     0.131 A 
ATOM     64  C   UNL A   1      42.271  24.474  26.489  1.00  0.00     0.055 A 
ATOM     65  C   UNL A   1      43.305  26.468  25.628  1.00  0.00     0.041 A 
ATOM     66  F   UNL A   1      43.274  28.438  26.900  1.00  0.00    -0.206 F 
ATOM     67  C   UNL A   1      42.998  25.118  25.484  1.00  0.00     0.022 A 
BRANCH  64  68
ATOM     68  S   UNL A   1      41.993  22.685  26.406  1.00  0.00     0.124 S 
ATOM     69  O   UNL A   1      42.668  22.228  27.618  1.00  0.00    -0.237 OA
ATOM     70  O   UNL A   1      40.538  22.587  26.411  1.00  0.00    -0.237 OA
ATOM     71  O   UNL A   1      42.639  22.297  25.154  1.00  0.00    -0.744 OA
ENDBRANCH  64  68
ENDBRANCH  47  61
BRANCH  48  72
ATOM     72  C   UNL A   1      38.984  31.698  35.749  1.00  0.00     0.023 A 
ATOM     73  C   UNL A   1      38.230  31.074  36.754  1.00  0.00     0.031 A 
ATOM     74  C   UNL A   1      39.285  33.063  35.894  1.00  0.00     0.131 A 
ATOM     75  C   UNL A   1      37.779  31.821  37.853  1.00  0.00     0.055 A 
ATOM     76  C   UNL A   1      38.862  33.795  37.005  1.00  0.00     0.041 A 
ATOM     77  F   UNL A   1      40.016  33.698  34.964  1.00  0.00    -0.206 F 
ATOM     78  C   UNL A   1      38.100  33.174  37.990  1.00  0.00     0.022 A 
BRANCH  75  79
ATOM     79  S   UNL A   1      36.752  31.000  39.102  1.00  0.00     0.124 S 
ATOM     80  O   UNL A   1      37.649  30.971  40.251  1.00  0.00    -0.237 OA
ATOM     81  O   UNL A   1      35.610  31.902  39.200  1.00  0.00    -0.237 OA
ATOM     82  O   UNL A   1      36.463  29.699  38.501  1.00  0.00    -0.744 OA
ENDBRANCH  75  79
ENDBRANCH  48  72
BRANCH  60  83
ATOM     83  C   UNL A   1      44.537  27.675  34.507  1.00  0.00     0.023 A 
ATOM     84  C   UNL A   1      44.543  26.504  35.280  1.00  0.00     0.031 A 
ATOM     85  C   UNL A   1      45.689  28.481  34.500  1.00  0.00     0.131 A 
ATOM     86  C   UNL A   1      45.675  26.181  36.042  1.00  0.00     0.055 A 
ATOM     87  C   UNL A   1      46.827  28.135  35.229  1.00  0.00     0.041 A 
ATOM     88  F   UNL A   1      45.728  29.608  33.772  1.00  0.00    -0.206 F 
ATOM     89  C   UNL A   1      46.822  26.981  36.009  1.00  0.00     0.022 A 
BRANCH  86  90
ATOM     90  S   UNL A   1      45.629  24.707  37.097  1.00  0.00     0.124 S 
ATOM     91  O   UNL A   1      45.672  23.630  36.112  1.00  0.00    -0.237 OA
ATOM     92  O   UNL A   1      46.825  24.867  37.918  1.00  0.00    -0.237 OA
ATOM     93  O   UNL A   1      44.364  24.840  37.817  1.00  0.00    -0.744 OA
ENDBRANCH  86  90
ENDBRANCH  60  83
ENDBRANCH  34  35
ENDBRANCH  26  29
ENDBRANCH  24  25
ENDBRANCH   1  24
TORSDOF 15
ENDMDL
MODEL 3
REMARK VINA RESULT:     -12.5      5.221     10.252
REMARK SMILES Cc1cc(Cl)cc2c1O[C@H](C(F)(F)F)C(C(=O)NCCCCNC(=O)c1ccc(-c3c4nc(c(-c5cc(S(=O)(=O)[O-])ccc5F)c5ccc([nH]5)c(-c5cc(S(=O)(=O)[O-])ccc5F)c5nc(c(-c6cc(S(=O)(=O)[O-])ccc6F)c6ccc3[nH]6)C=C5)C=C4)cc1)=C2
REMARK SMILES IDX 21 1 20 2 19 3 18 4 16 5 17 6 15 8 1 9 2 10 3 11 8 12 4 13
REMARK SMILES IDX 7 14 9 15 5 16 6 17 89 18 10 19 11 20 12 21 13 22 14 23
REMARK SMILES IDX 22 24 23 25 24 26 25 28 26 29 27 30 88 31 28 32 87 33 29 34
REMARK SMILES IDX 30 35 31 36 81 37 32 38 86 39 80 40 82 41 33 42 85 43 79 44
REMARK SMILES IDX 78 45 34 47 66 48 46 49 65 50 47 51 50 52 64 53 83 54 48 55
REMARK SMILES IDX 49 56 63 58 84 59 51 60 35 61 36 62 44 63 37 64 43 65 45 66
REMARK SMILES IDX 42 67 38 68 39 69 40 70 41 71 67 72 68 73 76 74 69 75 75 76
REMARK SMILES IDX 77 77 74 78 70 79 71 80 72 81 73 82 52 83 53 84 61 85 54 86
REMARK SMILES IDX 60 87 62 88 59 89 55 90 56 91 57 92 58 93
REMARK H PARENT 18 7 23 27 82 46 50 57
REMARK Flexibility Score: inf
ROOT
ATOM      1  C   UNL A   1      34.725  21.870  25.006  1.00  0.00     0.023 C 
ENDROOT
BRANCH   1   2
ATOM      2  C   UNL A   1      34.575  22.654  23.699  1.00  0.00     0.023 C 
BRANCH   2   3
ATOM      3  C   UNL A   1      33.139  23.053  23.372  1.00  0.00     0.116 C 
BRANCH   3   4
ATOM      4  N   UNL A   1      32.256  22.883  24.512  1.00  0.00    -0.352 N 
ATOM      5  C   UNL A   1      31.560  23.685  25.352  1.00  0.00     0.251 C 
ATOM      6  O   UNL A   1      30.919  23.099  26.230  1.00  0.00    -0.270 OA
ATOM      7  H   UNL A   1      32.129  21.933  24.733  1.00  0.00     0.163 HD
BRANCH   5   8
ATOM      8  C   UNL A   1      31.518  25.177  25.286  1.00  0.00     0.067 C 
ATOM      9  C   UNL A   1      31.844  30.251  26.038  1.00  0.00     0.048 C 
ATOM     10  C   UNL A   1      31.138  29.364  25.052  1.00  0.00    -0.007 A 
ATOM     11  C   UNL A   1      30.416  29.920  23.988  1.00  0.00     0.027 A 
ATOM     12  C   UNL A   1      31.217  27.968  25.156  1.00  0.00     0.131 A 
ATOM     13  C   UNL A   1      29.774  29.093  23.066  1.00  0.00     0.042 A 
ATOM     14  C   UNL A   1      30.570  27.138  24.235  1.00  0.00     0.019 A 
ATOM     15  O   UNL A   1      31.908  27.456  26.220  1.00  0.00    -0.475 OA
ATOM     16  Cl  UNL A   1      28.882  29.794  21.771  1.00  0.00    -0.084 Cl
ATOM     17  C   UNL A   1      29.843  27.706  23.186  1.00  0.00     0.032 A 
ATOM     18  C   UNL A   1      30.643  25.691  24.400  1.00  0.00     0.025 C 
ATOM     19  C   UNL A   1      32.400  26.093  26.084  1.00  0.00     0.314 C 
BRANCH  19  20
ATOM     20  C   UNL A   1      33.849  26.132  25.562  1.00  0.00     0.429 C 
ATOM     21  F   UNL A   1      34.493  27.228  26.036  1.00  0.00    -0.167 F 
ATOM     22  F   UNL A   1      34.574  25.060  25.953  1.00  0.00    -0.167 F 
ATOM     23  F   UNL A   1      33.912  26.181  24.212  1.00  0.00    -0.167 F 
ENDBRANCH  19  20
ENDBRANCH   5   8
ENDBRANCH   3   4
ENDBRANCH   2   3
ENDBRANCH   1   2
BRANCH   1  24
ATOM     24  C   UNL A   1      36.045  22.075  25.749  1.00  0.00     0.116 C 
BRANCH  24  25
ATOM     25  N   UNL A   1      37.027  21.029  25.502  1.00  0.00    -0.352 N 
ATOM     26  C   UNL A   1      38.387  21.085  25.691  1.00  0.00     0.251 C 
ATOM     27  H   UNL A   1      36.672  20.177  25.158  1.00  0.00     0.163 HD
ATOM     28  O   UNL A   1      39.098  20.140  25.364  1.00  0.00    -0.269 OA
BRANCH  26  29
ATOM     29  C   UNL A   1      38.975  22.318  26.246  1.00  0.00     0.039 A 
ATOM     30  C   UNL A   1      40.056  22.211  27.123  1.00  0.00     0.014 A 
ATOM     31  C   UNL A   1      38.508  23.569  25.832  1.00  0.00     0.014 A 
ATOM     32  C   UNL A   1      40.724  23.367  27.526  1.00  0.00     0.010 A 
ATOM     33  C   UNL A   1      39.210  24.715  26.192  1.00  0.00     0.010 A 
ATOM     34  C   UNL A   1      40.331  24.622  27.031  1.00  0.00    -0.014 A 
BRANCH  34  35
ATOM     35  C   UNL A   1      41.089  25.849  27.375  1.00  0.00     0.031 A 
ATOM     36  C   UNL A   1      40.458  26.899  28.242  1.00  0.00     0.074 A 
ATOM     37  C   UNL A   1      42.324  26.033  26.866  1.00  0.00     0.049 A 
ATOM     38  N   UNL A   1      40.924  28.070  28.592  1.00  0.00    -0.248 NA
ATOM     39  C   UNL A   1      39.116  26.603  28.763  1.00  0.00     0.031 C 
ATOM     40  C   UNL A   1      43.028  25.094  25.990  1.00  0.00     0.029 A 
ATOM     41  N   UNL A   1      43.206  27.073  27.014  1.00  0.00    -0.354 N 
ATOM     42  C   UNL A   1      39.931  28.654  29.367  1.00  0.00     0.074 A 
ATOM     43  C   UNL A   1      38.817  27.729  29.392  1.00  0.00     0.031 C 
ATOM     44  C   UNL A   1      44.246  25.584  25.708  1.00  0.00     0.029 A 
ATOM     45  C   UNL A   1      44.395  26.887  26.350  1.00  0.00     0.049 A 
ATOM     46  H   UNL A   1      43.007  27.877  27.546  1.00  0.00     0.167 HD
ATOM     47  C   UNL A   1      39.954  29.842  30.018  1.00  0.00     0.034 A 
ATOM     48  C   UNL A   1      45.483  27.678  26.268  1.00  0.00     0.034 A 
ATOM     49  C   UNL A   1      41.076  30.745  30.002  1.00  0.00     0.049 A 
ATOM     50  C   UNL A   1      45.480  29.002  26.983  1.00  0.00     0.074 A 
ATOM     51  C   UNL A   1      41.215  31.960  30.650  1.00  0.00     0.029 A 
ATOM     52  N   UNL A   1      42.256  30.530  29.302  1.00  0.00    -0.354 N 
ATOM     53  N   UNL A   1      44.529  29.542  27.707  1.00  0.00    -0.248 NA
ATOM     54  C   UNL A   1      46.693  29.822  26.868  1.00  0.00     0.031 C 
ATOM     55  C   UNL A   1      42.461  32.497  30.310  1.00  0.00     0.029 A 
ATOM     56  C   UNL A   1      43.121  31.594  29.492  1.00  0.00     0.049 A 
ATOM     57  H   UNL A   1      42.449  29.736  28.753  1.00  0.00     0.167 HD
ATOM     58  C   UNL A   1      45.036  30.759  28.149  1.00  0.00     0.074 A 
ATOM     59  C   UNL A   1      46.377  30.873  27.614  1.00  0.00     0.031 C 
ATOM     60  C   UNL A   1      44.447  31.695  28.934  1.00  0.00     0.034 A 
BRANCH  47  61
ATOM     61  C   UNL A   1      38.721  30.228  30.789  1.00  0.00     0.023 A 
ATOM     62  C   UNL A   1      37.676  30.947  30.182  1.00  0.00     0.031 A 
ATOM     63  C   UNL A   1      38.595  29.894  32.148  1.00  0.00     0.131 A 
ATOM     64  C   UNL A   1      36.579  31.362  30.949  1.00  0.00     0.055 A 
ATOM     65  C   UNL A   1      37.467  30.251  32.889  1.00  0.00     0.041 A 
ATOM     66  F   UNL A   1      39.573  29.224  32.780  1.00  0.00    -0.206 F 
ATOM     67  C   UNL A   1      36.455  30.998  32.292  1.00  0.00     0.022 A 
BRANCH  64  68
ATOM     68  S   UNL A   1      35.358  32.465  30.190  1.00  0.00     0.124 S 
ATOM     69  O   UNL A   1      34.356  32.564  31.249  1.00  0.00    -0.237 OA
ATOM     70  O   UNL A   1      36.134  33.672  29.931  1.00  0.00    -0.237 OA
ATOM     71  O   UNL A   1      34.928  31.732  28.999  1.00  0.00    -0.744 OA
ENDBRANCH  64  68
ENDBRANCH  47  61
BRANCH  48  72
ATOM     72  C   UNL A   1      46.665  27.240  25.480  1.00  0.00     0.023 A 
ATOM     73  C   UNL A   1      46.867  27.705  24.172  1.00  0.00     0.031 A 
ATOM     74  C   UNL A   1      47.608  26.351  26.023  1.00  0.00     0.131 A 
ATOM     75  C   UNL A   1      47.977  27.259  23.437  1.00  0.00     0.055 A 
ATOM     76  C   UNL A   1      48.727  25.935  25.300  1.00  0.00     0.041 A 
ATOM     77  F   UNL A   1      47.462  25.891  27.276  1.00  0.00    -0.206 F 
ATOM     78  C   UNL A   1      48.913  26.386  23.997  1.00  0.00     0.022 A 
BRANCH  75  79
ATOM     79  S   UNL A   1      48.174  27.828  21.726  1.00  0.00     0.124 S 
ATOM     80  O   UNL A   1      48.444  26.577  21.028  1.00  0.00    -0.237 OA
ATOM     81  O   UNL A   1      46.881  28.448  21.459  1.00  0.00    -0.237 OA
ATOM     82  O   UNL A   1      49.302  28.756  21.805  1.00  0.00    -0.744 OA
ENDBRANCH  75  79
ENDBRANCH  48  72
BRANCH  60  83
ATOM     83  C   UNL A   1      45.261  32.910  29.282  1.00  0.00     0.023 A 
ATOM     84  C   UNL A   1      45.206  34.075  28.501  1.00  0.00     0.031 A 
ATOM     85  C   UNL A   1      46.071  32.910  30.430  1.00  0.00     0.131 A 
ATOM     86  C   UNL A   1      45.971  35.191  28.864  1.00  0.00     0.055 A 
ATOM     87  C   UNL A   1      46.801  34.036  30.810  1.00  0.00     0.041 A 
ATOM     88  F   UNL A   1      46.152  31.819  31.208  1.00  0.00    -0.206 F 
ATOM     89  C   UNL A   1      46.756  35.184  30.022  1.00  0.00     0.022 A 
BRANCH  86  90
ATOM     90  S   UNL A   1      45.946  36.656  27.795  1.00  0.00     0.124 S 
ATOM     91  O   UNL A   1      46.138  36.067  26.474  1.00  0.00    -0.237 OA
ATOM     92  O   UNL A   1      44.624  37.217  28.056  1.00  0.00    -0.237 OA
ATOM     93  O   UNL A   1      47.064  37.458  28.287  1.00  0.00    -0.744 OA
ENDBRANCH  86  90
ENDBRANCH  60  83
ENDBRANCH  34  35
ENDBRANCH  26  29
ENDBRANCH  24  25
ENDBRANCH   1  24
TORSDOF 15
ENDMDL
