MODEL 1
REMARK VINA RESULT:     -12.7      0.000      0.000
REMARK SMILES CN(C)S(=O)(=O)c1cccc(-c2cc(Cl)cc(C(=O)NCCCCNC(=O)c3ccc(-c4c5nc(c(-c6cc(S(=O)(=O)[O-])ccc6F)c6ccc([nH]6)c(-c6cc(S(=O)(=O)[O-])ccc6F)c6nc(c(-c7cc(S(=O)(=O)[O-])ccc7F)c7ccc4[nH]7)C=C6)C=C5)cc3)c2)c1
REMARK SMILES IDX 22 1 21 2 20 3 18 4 19 5 17 7 12 8 13 9 91 10 14 11 15 12
REMARK SMILES IDX 16 13 11 14 7 15 8 16 92 17 9 18 10 19 4 20 5 21 6 22 2 23
REMARK SMILES IDX 1 24 3 25 23 26 24 27 25 28 26 29 27 31 28 32 29 33 90 34
REMARK SMILES IDX 30 35 89 36 31 37 32 38 33 39 83 40 34 41 88 42 82 43 84 44
REMARK SMILES IDX 35 45 87 46 81 47 80 48 36 50 68 51 48 52 67 53 49 54 52 55
REMARK SMILES IDX 66 56 85 57 50 58 51 59 65 61 86 62 53 63 37 64 38 65 46 66
REMARK SMILES IDX 39 67 45 68 47 69 44 70 40 71 41 72 42 73 43 74 69 75 70 76
REMARK SMILES IDX 78 77 71 78 77 79 79 80 76 81 72 82 73 83 74 84 75 85 54 86
REMARK SMILES IDX 55 87 63 88 56 89 62 90 64 91 61 92 57 93 58 94 59 95 60 96
REMARK H PARENT 20 6 25 30 84 49 52 60
REMARK Flexibility Score: inf
ROOT
ATOM      1  C   UNL A   1      35.664  22.702  25.812  1.00  0.00     0.023 C 
ENDROOT
BRANCH   1   2
ATOM      2  C   UNL A   1      35.428  23.881  24.877  1.00  0.00     0.116 C 
BRANCH   2   3
ATOM      3  N   UNL A   1      35.021  23.528  23.523  1.00  0.00    -0.352 N 
ATOM      4  C   UNL A   1      33.789  23.551  22.902  1.00  0.00     0.251 C 
ATOM      5  O   UNL A   1      33.704  23.200  21.727  1.00  0.00    -0.269 OA
ATOM      6  H   UNL A   1      35.758  23.216  22.948  1.00  0.00     0.163 HD
BRANCH   4   7
ATOM      7  C   UNL A   1      32.541  23.920  23.625  1.00  0.00     0.041 A 
ATOM      8  C   UNL A   1      30.977  25.631  24.395  1.00  0.00    -0.016 A 
ATOM      9  C   UNL A   1      30.429  24.699  25.285  1.00  0.00     0.029 A 
ATOM     10  C   UNL A   1      31.948  25.174  23.487  1.00  0.00     0.022 A 
ATOM     11  C   UNL A   1      30.906  23.385  25.314  1.00  0.00     0.042 A 
ATOM     12  Cl  UNL A   1      30.214  22.259  26.417  1.00  0.00    -0.084 Cl
ATOM     13  C   UNL A   1      31.980  22.999  24.515  1.00  0.00     0.034 A 
BRANCH   8  14
ATOM     14  C   UNL A   1      30.744  27.087  24.510  1.00  0.00    -0.017 A 
ATOM     15  C   UNL A   1      29.918  29.156  23.535  1.00  0.00     0.083 A 
ATOM     16  C   UNL A   1      30.744  29.916  24.363  1.00  0.00     0.022 A 
ATOM     17  C   UNL A   1      29.889  27.761  23.624  1.00  0.00     0.030 A 
ATOM     18  C   UNL A   1      31.542  29.267  25.300  1.00  0.00     0.002 A 
ATOM     19  C   UNL A   1      31.546  27.868  25.366  1.00  0.00     0.009 A 
BRANCH  15  20
ATOM     20  S   UNL A   1      28.962  29.948  22.269  1.00  0.00     0.242 S 
ATOM     21  O   UNL A   1      27.702  29.243  22.159  1.00  0.00    -0.207 OA
ATOM     22  O   UNL A   1      29.843  30.108  21.135  1.00  0.00    -0.207 OA
BRANCH  20  23
ATOM     23  N   UNL A   1      28.614  31.498  22.911  1.00  0.00    -0.204 NA
ATOM     24  C   UNL A   1      28.462  32.516  21.843  1.00  0.00     0.124 C 
ATOM     25  C   UNL A   1      27.478  31.537  23.858  1.00  0.00     0.124 C 
ENDBRANCH  20  23
ENDBRANCH  15  20
ENDBRANCH   8  14
ENDBRANCH   4   7
ENDBRANCH   2   3
ENDBRANCH   1   2
BRANCH   1  26
ATOM     26  C   UNL A   1      36.167  21.412  25.180  1.00  0.00     0.023 C 
BRANCH  26  27
ATOM     27  C   UNL A   1      37.601  21.423  24.663  1.00  0.00     0.116 C 
BRANCH  27  28
ATOM     28  N   UNL A   1      38.459  20.414  25.265  1.00  0.00    -0.352 N 
ATOM     29  C   UNL A   1      39.520  20.559  26.132  1.00  0.00     0.251 C 
ATOM     30  H   UNL A   1      38.249  19.484  25.015  1.00  0.00     0.163 HD
ATOM     31  O   UNL A   1      40.169  19.572  26.467  1.00  0.00    -0.269 OA
BRANCH  29  32
ATOM     32  C   UNL A   1      39.915  21.902  26.616  1.00  0.00     0.039 A 
ATOM     33  C   UNL A   1      41.052  22.016  27.421  1.00  0.00     0.014 A 
ATOM     34  C   UNL A   1      39.193  23.045  26.265  1.00  0.00     0.014 A 
ATOM     35  C   UNL A   1      41.523  23.279  27.788  1.00  0.00     0.010 A 
ATOM     36  C   UNL A   1      39.707  24.306  26.563  1.00  0.00     0.010 A 
ATOM     37  C   UNL A   1      40.884  24.438  27.315  1.00  0.00    -0.014 A 
BRANCH  37  38
ATOM     38  C   UNL A   1      41.443  25.792  27.576  1.00  0.00     0.031 A 
ATOM     39  C   UNL A   1      42.843  26.128  27.136  1.00  0.00     0.074 A 
ATOM     40  C   UNL A   1      40.722  26.687  28.282  1.00  0.00     0.049 A 
ATOM     41  N   UNL A   1      43.545  27.208  27.365  1.00  0.00    -0.248 NA
ATOM     42  C   UNL A   1      43.558  25.100  26.364  1.00  0.00     0.031 C 
ATOM     43  C   UNL A   1      39.370  26.463  28.803  1.00  0.00     0.029 A 
ATOM     44  N   UNL A   1      41.025  27.961  28.698  1.00  0.00    -0.354 N 
ATOM     45  C   UNL A   1      44.791  26.980  26.790  1.00  0.00     0.074 A 
ATOM     46  C   UNL A   1      44.761  25.642  26.240  1.00  0.00     0.031 C 
ATOM     47  C   UNL A   1      38.958  27.565  29.452  1.00  0.00     0.029 A 
ATOM     48  C   UNL A   1      40.027  28.557  29.435  1.00  0.00     0.049 A 
ATOM     49  H   UNL A   1      41.878  28.405  28.489  1.00  0.00     0.167 HD
ATOM     50  C   UNL A   1      45.855  27.817  26.715  1.00  0.00     0.034 A 
ATOM     51  C   UNL A   1      39.984  29.760  30.043  1.00  0.00     0.034 A 
ATOM     52  C   UNL A   1      45.860  29.162  27.235  1.00  0.00     0.049 A 
ATOM     53  C   UNL A   1      41.181  30.674  29.936  1.00  0.00     0.074 A 
ATOM     54  C   UNL A   1      46.856  30.118  27.141  1.00  0.00     0.029 A 
ATOM     55  N   UNL A   1      44.821  29.742  27.951  1.00  0.00    -0.354 N 
ATOM     56  N   UNL A   1      42.328  30.464  29.332  1.00  0.00    -0.248 NA
ATOM     57  C   UNL A   1      41.074  31.989  30.581  1.00  0.00     0.031 C 
ATOM     58  C   UNL A   1      46.444  31.254  27.848  1.00  0.00     0.029 A 
ATOM     59  C   UNL A   1      45.164  31.031  28.327  1.00  0.00     0.049 A 
ATOM     60  H   UNL A   1      43.965  29.302  28.161  1.00  0.00     0.167 HD
ATOM     61  C   UNL A   1      43.061  31.637  29.494  1.00  0.00     0.074 A 
ATOM     62  C   UNL A   1      42.223  32.552  30.240  1.00  0.00     0.031 C 
ATOM     63  C   UNL A   1      44.314  31.933  29.065  1.00  0.00     0.034 A 
BRANCH  50  64
ATOM     64  C   UNL A   1      47.111  27.295  26.062  1.00  0.00     0.023 A 
ATOM     65  C   UNL A   1      48.071  26.562  26.779  1.00  0.00     0.031 A 
ATOM     66  C   UNL A   1      47.349  27.534  24.696  1.00  0.00     0.131 A 
ATOM     67  C   UNL A   1      49.249  26.141  26.144  1.00  0.00     0.055 A 
ATOM     68  C   UNL A   1      48.490  27.052  24.053  1.00  0.00     0.041 A 
ATOM     69  F   UNL A   1      46.476  28.245  23.965  1.00  0.00    -0.206 F 
ATOM     70  C   UNL A   1      49.454  26.360  24.780  1.00  0.00     0.022 A 
BRANCH  67  71
ATOM     71  S   UNL A   1      50.560  25.396  27.152  1.00  0.00     0.124 S 
ATOM     72  O   UNL A   1      50.952  26.519  28.002  1.00  0.00    -0.237 OA
ATOM     73  O   UNL A   1      49.865  24.302  27.818  1.00  0.00    -0.237 OA
ATOM     74  O   UNL A   1      51.561  24.991  26.167  1.00  0.00    -0.744 OA
ENDBRANCH  67  71
ENDBRANCH  50  64
BRANCH  51  75
ATOM     75  C   UNL A   1      38.784  30.183  30.823  1.00  0.00     0.023 A 
ATOM     76  C   UNL A   1      37.721  30.858  30.202  1.00  0.00     0.031 A 
ATOM     77  C   UNL A   1      38.715  29.985  32.214  1.00  0.00     0.131 A 
ATOM     78  C   UNL A   1      36.666  31.367  30.975  1.00  0.00     0.055 A 
ATOM     79  C   UNL A   1      37.635  30.443  32.971  1.00  0.00     0.041 A 
ATOM     80  F   UNL A   1      39.701  29.342  32.859  1.00  0.00    -0.206 F 
ATOM     81  C   UNL A   1      36.611  31.155  32.355  1.00  0.00     0.022 A 
BRANCH  78  82
ATOM     82  S   UNL A   1      35.426  32.417  30.166  1.00  0.00     0.124 S 
ATOM     83  O   UNL A   1      34.391  32.499  31.190  1.00  0.00    -0.237 OA
ATOM     84  O   UNL A   1      36.183  33.639  29.919  1.00  0.00    -0.237 OA
ATOM     85  O   UNL A   1      35.065  31.656  28.971  1.00  0.00    -0.744 OA
ENDBRANCH  78  82
ENDBRANCH  51  75
BRANCH  63  86
ATOM     86  C   UNL A   1      44.821  33.326  29.342  1.00  0.00     0.023 A 
ATOM     87  C   UNL A   1      44.650  34.372  28.419  1.00  0.00     0.031 A 
ATOM     88  C   UNL A   1      45.496  33.603  30.543  1.00  0.00     0.131 A 
ATOM     89  C   UNL A   1      45.196  35.635  28.689  1.00  0.00     0.055 A 
ATOM     90  C   UNL A   1      45.987  34.877  30.831  1.00  0.00     0.041 A 
ATOM     91  F   UNL A   1      45.687  32.639  31.459  1.00  0.00    -0.206 F 
ATOM     92  C   UNL A   1      45.850  35.898  29.896  1.00  0.00     0.022 A 
BRANCH  89  93
ATOM     93  S   UNL A   1      45.114  36.913  27.404  1.00  0.00     0.124 S 
ATOM     94  O   UNL A   1      43.710  36.863  27.014  1.00  0.00    -0.237 OA
ATOM     95  O   UNL A   1      45.533  38.110  28.126  1.00  0.00    -0.237 OA
ATOM     96  O   UNL A   1      46.057  36.442  26.390  1.00  0.00    -0.744 OA
ENDBRANCH  89  93
ENDBRANCH  63  86
ENDBRANCH  37  38
ENDBRANCH  29  32
ENDBRANCH  27  28
ENDBRANCH  26  27
ENDBRANCH   1  26
TORSDOF 17
ENDMDL
MODEL 2
REMARK VINA RESULT:     -12.6      1.503      7.505
REMARK SMILES CN(C)S(=O)(=O)c1cccc(-c2cc(Cl)cc(C(=O)NCCCCNC(=O)c3ccc(-c4c5nc(c(-c6cc(S(=O)(=O)[O-])ccc6F)c6ccc([nH]6)c(-c6cc(S(=O)(=O)[O-])ccc6F)c6nc(c(-c7cc(S(=O)(=O)[O-])ccc7F)c7ccc4[nH]7)C=C6)C=C5)cc3)c2)c1
REMARK SMILES IDX 22 1 21 2 20 3 18 4 19 5 17 7 12 8 13 9 91 10 14 11 15 12
REMARK SMILES IDX 16 13 11 14 7 15 8 16 92 17 9 18 10 19 4 20 5 21 6 22 2 23
REMARK SMILES IDX 1 24 3 25 23 26 24 27 25 28 26 29 27 31 28 32 29 33 90 34
REMARK SMILES IDX 30 35 89 36 31 37 32 38 33 39 83 40 34 41 88 42 82 43 84 44
REMARK SMILES IDX 35 45 87 46 81 47 80 48 36 50 68 51 48 52 67 53 49 54 52 55
REMARK SMILES IDX 66 56 85 57 50 58 51 59 65 61 86 62 53 63 37 64 38 65 46 66
REMARK SMILES IDX 39 67 45 68 47 69 44 70 40 71 41 72 42 73 43 74 69 75 70 76
REMARK SMILES IDX 78 77 71 78 77 79 79 80 76 81 72 82 73 83 74 84 75 85 54 86
REMARK SMILES IDX 55 87 63 88 56 89 62 90 64 91 61 92 57 93 58 94 59 95 60 96
REMARK H PARENT 20 6 25 30 84 49 52 60
REMARK Flexibility Score: inf
ROOT
ATOM      1  C   UNL A   1      35.438  21.575  26.098  1.00  0.00     0.023 C 
ENDROOT
BRANCH   1   2
ATOM      2  C   UNL A   1      34.888  22.852  25.476  1.00  0.00     0.116 C 
BRANCH   2   3
ATOM      3  N   UNL A   1      34.468  22.734  24.085  1.00  0.00    -0.352 N 
ATOM      4  C   UNL A   1      33.301  23.101  23.447  1.00  0.00     0.251 C 
ATOM      5  O   UNL A   1      33.188  22.894  22.240  1.00  0.00    -0.269 OA
ATOM      6  H   UNL A   1      35.138  22.317  23.495  1.00  0.00     0.163 HD
BRANCH   4   7
ATOM      7  C   UNL A   1      32.141  23.677  24.180  1.00  0.00     0.041 A 
ATOM      8  C   UNL A   1      30.805  25.618  24.822  1.00  0.00    -0.016 A 
ATOM      9  C   UNL A   1      30.219  24.852  25.838  1.00  0.00     0.029 A 
ATOM     10  C   UNL A   1      31.670  24.964  23.929  1.00  0.00     0.022 A 
ATOM     11  C   UNL A   1      30.562  23.506  25.994  1.00  0.00     0.042 A 
ATOM     12  Cl  UNL A   1      29.826  22.586  27.249  1.00  0.00    -0.084 Cl
ATOM     13  C   UNL A   1      31.544  22.923  25.195  1.00  0.00     0.034 A 
BRANCH   8  14
ATOM     14  C   UNL A   1      30.726  27.094  24.782  1.00  0.00    -0.017 A 
ATOM     15  C   UNL A   1      29.971  29.119  23.665  1.00  0.00     0.083 A 
ATOM     16  C   UNL A   1      30.970  29.872  24.281  1.00  0.00     0.022 A 
ATOM     17  C   UNL A   1      29.825  27.753  23.931  1.00  0.00     0.030 A 
ATOM     18  C   UNL A   1      31.824  29.249  25.185  1.00  0.00     0.002 A 
ATOM     19  C   UNL A   1      31.706  27.875  25.426  1.00  0.00     0.009 A 
BRANCH  15  20
ATOM     20  S   UNL A   1      28.930  29.862  22.437  1.00  0.00     0.242 S 
ATOM     21  O   UNL A   1      27.666  29.156  22.442  1.00  0.00    -0.207 OA
ATOM     22  O   UNL A   1      29.730  29.976  21.239  1.00  0.00    -0.207 OA
BRANCH  20  23
ATOM     23  N   UNL A   1      28.627  31.437  23.040  1.00  0.00    -0.204 NA
ATOM     24  C   UNL A   1      28.720  32.464  21.973  1.00  0.00     0.124 C 
ATOM     25  C   UNL A   1      27.374  31.576  23.814  1.00  0.00     0.124 C 
ENDBRANCH  20  23
ENDBRANCH  15  20
ENDBRANCH   8  14
ENDBRANCH   4   7
ENDBRANCH   2   3
ENDBRANCH   1   2
BRANCH   1  26
ATOM     26  C   UNL A   1      36.259  20.666  25.193  1.00  0.00     0.023 C 
BRANCH  26  27
ATOM     27  C   UNL A   1      37.716  21.059  24.975  1.00  0.00     0.116 C 
BRANCH  27  28
ATOM     28  N   UNL A   1      38.675  20.082  25.467  1.00  0.00    -0.352 N 
ATOM     29  C   UNL A   1      39.814  20.264  26.220  1.00  0.00     0.251 C 
ATOM     30  H   UNL A   1      38.480  19.147  25.224  1.00  0.00     0.163 HD
ATOM     31  O   UNL A   1      40.537  19.302  26.469  1.00  0.00    -0.269 OA
BRANCH  29  32
ATOM     32  C   UNL A   1      40.199  21.616  26.685  1.00  0.00     0.039 A 
ATOM     33  C   UNL A   1      41.100  21.728  27.747  1.00  0.00     0.014 A 
ATOM     34  C   UNL A   1      39.701  22.767  26.069  1.00  0.00     0.014 A 
ATOM     35  C   UNL A   1      41.581  22.986  28.123  1.00  0.00     0.010 A 
ATOM     36  C   UNL A   1      40.239  24.012  26.392  1.00  0.00     0.010 A 
ATOM     37  C   UNL A   1      41.195  24.133  27.412  1.00  0.00    -0.014 A 
BRANCH  37  38
ATOM     38  C   UNL A   1      41.796  25.464  27.703  1.00  0.00     0.031 A 
ATOM     39  C   UNL A   1      40.994  26.512  28.428  1.00  0.00     0.074 A 
ATOM     40  C   UNL A   1      43.030  25.754  27.241  1.00  0.00     0.049 A 
ATOM     41  N   UNL A   1      41.298  27.759  28.677  1.00  0.00    -0.248 NA
ATOM     42  C   UNL A   1      39.662  26.111  28.906  1.00  0.00     0.031 C 
ATOM     43  C   UNL A   1      43.889  24.838  26.485  1.00  0.00     0.029 A 
ATOM     44  N   UNL A   1      43.774  26.906  27.324  1.00  0.00    -0.354 N 
ATOM     45  C   UNL A   1      40.187  28.300  29.317  1.00  0.00     0.074 A 
ATOM     46  C   UNL A   1      39.188  27.255  29.377  1.00  0.00     0.031 C 
ATOM     47  C   UNL A   1      45.044  25.457  26.191  1.00  0.00     0.029 A 
ATOM     48  C   UNL A   1      44.995  26.826  26.693  1.00  0.00     0.049 A 
ATOM     49  H   UNL A   1      43.462  27.715  27.791  1.00  0.00     0.167 HD
ATOM     50  C   UNL A   1      40.024  29.548  29.821  1.00  0.00     0.034 A 
ATOM     51  C   UNL A   1      45.959  27.753  26.524  1.00  0.00     0.034 A 
ATOM     52  C   UNL A   1      41.041  30.568  29.788  1.00  0.00     0.049 A 
ATOM     53  C   UNL A   1      45.752  29.132  27.103  1.00  0.00     0.074 A 
ATOM     54  C   UNL A   1      41.006  31.838  30.340  1.00  0.00     0.029 A 
ATOM     55  N   UNL A   1      42.275  30.442  29.166  1.00  0.00    -0.354 N 
ATOM     56  N   UNL A   1      44.718  29.605  27.760  1.00  0.00    -0.248 NA
ATOM     57  C   UNL A   1      46.845  30.098  26.927  1.00  0.00     0.031 C 
ATOM     58  C   UNL A   1      42.193  32.497  30.003  1.00  0.00     0.029 A 
ATOM     59  C   UNL A   1      42.998  31.618  29.297  1.00  0.00     0.049 A 
ATOM     60  H   UNL A   1      42.592  29.634  28.699  1.00  0.00     0.167 HD
ATOM     61  C   UNL A   1      45.056  30.910  28.108  1.00  0.00     0.074 A 
ATOM     62  C   UNL A   1      46.391  31.144  27.599  1.00  0.00     0.031 C 
ATOM     63  C   UNL A   1      44.330  31.833  28.788  1.00  0.00     0.034 A 
BRANCH  50  64
ATOM     64  C   UNL A   1      38.687  29.885  30.437  1.00  0.00     0.023 A 
ATOM     65  C   UNL A   1      37.718  30.628  29.743  1.00  0.00     0.031 A 
ATOM     66  C   UNL A   1      38.379  29.450  31.739  1.00  0.00     0.131 A 
ATOM     67  C   UNL A   1      36.510  30.963  30.374  1.00  0.00     0.055 A 
ATOM     68  C   UNL A   1      37.148  29.726  32.334  1.00  0.00     0.041 A 
ATOM     69  F   UNL A   1      39.275  28.752  32.455  1.00  0.00    -0.206 F 
ATOM     70  C   UNL A   1      36.209  30.496  31.656  1.00  0.00     0.022 A 
BRANCH  67  71
ATOM     71  S   UNL A   1      35.382  32.108  29.535  1.00  0.00     0.124 S 
ATOM     72  O   UNL A   1      34.476  32.477  30.622  1.00  0.00    -0.237 OA
ATOM     73  O   UNL A   1      36.282  33.156  29.069  1.00  0.00    -0.237 OA
ATOM     74  O   UNL A   1      34.781  31.289  28.484  1.00  0.00    -0.744 OA
ENDBRANCH  67  71
ENDBRANCH  50  64
BRANCH  51  75
ATOM     75  C   UNL A   1      47.204  27.436  25.765  1.00  0.00     0.023 A 
ATOM     76  C   UNL A   1      47.336  27.794  24.413  1.00  0.00     0.031 A 
ATOM     77  C   UNL A   1      48.250  26.706  26.357  1.00  0.00     0.131 A 
ATOM     78  C   UNL A   1      48.455  27.367  23.681  1.00  0.00     0.055 A 
ATOM     79  C   UNL A   1      49.389  26.334  25.639  1.00  0.00     0.041 A 
ATOM     80  F   UNL A   1      48.180  26.342  27.647  1.00  0.00    -0.206 F 
ATOM     81  C   UNL A   1      49.487  26.649  24.287  1.00  0.00     0.022 A 
BRANCH  78  82
ATOM     82  S   UNL A   1      48.483  27.664  21.891  1.00  0.00     0.124 S 
ATOM     83  O   UNL A   1      48.860  26.352  21.377  1.00  0.00    -0.237 OA
ATOM     84  O   UNL A   1      47.109  28.083  21.634  1.00  0.00    -0.237 OA
ATOM     85  O   UNL A   1      49.492  28.710  21.736  1.00  0.00    -0.744 OA
ENDBRANCH  78  82
ENDBRANCH  51  75
BRANCH  63  86
ATOM     86  C   UNL A   1      44.997  33.156  29.071  1.00  0.00     0.023 A 
ATOM     87  C   UNL A   1      44.855  34.255  28.206  1.00  0.00     0.031 A 
ATOM     88  C   UNL A   1      45.796  33.310  30.217  1.00  0.00     0.131 A 
ATOM     89  C   UNL A   1      45.547  35.445  28.474  1.00  0.00     0.055 A 
ATOM     90  C   UNL A   1      46.436  34.516  30.507  1.00  0.00     0.041 A 
ATOM     91  F   UNL A   1      45.965  32.291  31.075  1.00  0.00    -0.206 F 
ATOM     92  C   UNL A   1      46.325  35.587  29.627  1.00  0.00     0.022 A 
BRANCH  89  93
ATOM     93  S   UNL A   1      45.486  36.783  27.250  1.00  0.00     0.124 S 
ATOM     94  O   UNL A   1      46.025  37.910  28.003  1.00  0.00    -0.237 OA
ATOM     95  O   UNL A   1      46.335  36.267  26.181  1.00  0.00    -0.237 OA
ATOM     96  O   UNL A   1      44.066  36.880  26.918  1.00  0.00    -0.744 OA
ENDBRANCH  89  93
ENDBRANCH  63  86
ENDBRANCH  37  38
ENDBRANCH  29  32
ENDBRANCH  27  28
ENDBRANCH  26  27
ENDBRANCH   1  26
TORSDOF 17
ENDMDL
MODEL 3
REMARK VINA RESULT:     -12.2      2.469      7.757
REMARK SMILES CN(C)S(=O)(=O)c1cccc(-c2cc(Cl)cc(C(=O)NCCCCNC(=O)c3ccc(-c4c5nc(c(-c6cc(S(=O)(=O)[O-])ccc6F)c6ccc([nH]6)c(-c6cc(S(=O)(=O)[O-])ccc6F)c6nc(c(-c7cc(S(=O)(=O)[O-])ccc7F)c7ccc4[nH]7)C=C6)C=C5)cc3)c2)c1
REMARK SMILES IDX 22 1 21 2 20 3 18 4 19 5 17 7 12 8 13 9 91 10 14 11 15 12
REMARK SMILES IDX 16 13 11 14 7 15 8 16 92 17 9 18 10 19 4 20 5 21 6 22 2 23
REMARK SMILES IDX 1 24 3 25 23 26 24 27 25 28 26 29 27 31 28 32 29 33 90 34
REMARK SMILES IDX 30 35 89 36 31 37 32 38 33 39 83 40 34 41 88 42 82 43 84 44
REMARK SMILES IDX 35 45 87 46 81 47 80 48 36 50 68 51 48 52 67 53 49 54 52 55
REMARK SMILES IDX 66 56 85 57 50 58 51 59 65 61 86 62 53 63 37 64 38 65 46 66
REMARK SMILES IDX 39 67 45 68 47 69 44 70 40 71 41 72 42 73 43 74 69 75 70 76
REMARK SMILES IDX 78 77 71 78 77 79 79 80 76 81 72 82 73 83 74 84 75 85 54 86
REMARK SMILES IDX 55 87 63 88 56 89 62 90 64 91 61 92 57 93 58 94 59 95 60 96
REMARK H PARENT 20 6 25 30 84 49 52 60
REMARK Flexibility Score: inf
ROOT
ATOM      1  C   UNL A   1      39.105  22.880  26.693  1.00  0.00     0.023 C 
ENDROOT
BRANCH   1   2
ATOM      2  C   UNL A   1      38.155  23.832  25.980  1.00  0.00     0.116 C 
BRANCH   2   3
ATOM      3  N   UNL A   1      37.760  23.426  24.637  1.00  0.00    -0.352 N 
ATOM      4  C   UNL A   1      36.521  23.323  24.039  1.00  0.00     0.251 C 
ATOM      5  O   UNL A   1      36.450  22.952  22.869  1.00  0.00    -0.269 OA
ATOM      6  H   UNL A   1      38.513  23.179  24.052  1.00  0.00     0.163 HD
BRANCH   4   7
ATOM      7  C   UNL A   1      35.257  23.579  24.781  1.00  0.00     0.041 A 
ATOM      8  C   UNL A   1      33.414  25.077  25.355  1.00  0.00    -0.016 A 
ATOM      9  C   UNL A   1      33.103  24.245  26.438  1.00  0.00     0.029 A 
ATOM     10  C   UNL A   1      34.418  24.648  24.469  1.00  0.00     0.022 A 
ATOM     11  C   UNL A   1      33.835  23.076  26.662  1.00  0.00     0.042 A 
ATOM     12  Cl  UNL A   1      33.431  22.069  27.999  1.00  0.00    -0.084 Cl
ATOM     13  C   UNL A   1      34.931  22.756  25.862  1.00  0.00     0.034 A 
BRANCH   8  14
ATOM     14  C   UNL A   1      32.898  26.457  25.227  1.00  0.00    -0.017 A 
ATOM     15  C   UNL A   1      31.731  28.141  23.916  1.00  0.00     0.083 A 
ATOM     16  C   UNL A   1      32.356  29.171  24.620  1.00  0.00     0.022 A 
ATOM     17  C   UNL A   1      31.970  26.799  24.231  1.00  0.00     0.030 A 
ATOM     18  C   UNL A   1      33.221  28.849  25.660  1.00  0.00     0.002 A 
ATOM     19  C   UNL A   1      33.493  27.507  25.955  1.00  0.00     0.009 A 
BRANCH  15  20
ATOM     20  S   UNL A   1      30.699  28.517  22.525  1.00  0.00     0.242 S 
ATOM     21  O   UNL A   1      30.657  27.346  21.675  1.00  0.00    -0.207 OA
ATOM     22  O   UNL A   1      31.140  29.800  22.026  1.00  0.00    -0.207 OA
BRANCH  20  23
ATOM     23  N   UNL A   1      29.135  28.703  23.199  1.00  0.00    -0.204 NA
ATOM     24  C   UNL A   1      28.290  29.614  22.388  1.00  0.00     0.124 C 
ATOM     25  C   UNL A   1      28.432  27.436  23.495  1.00  0.00     0.124 C 
ENDBRANCH  20  23
ENDBRANCH  15  20
ENDBRANCH   8  14
ENDBRANCH   4   7
ENDBRANCH   2   3
ENDBRANCH   1   2
BRANCH   1  26
ATOM     26  C   UNL A   1      39.389  21.549  26.009  1.00  0.00     0.023 C 
BRANCH  26  27
ATOM     27  C   UNL A   1      40.024  20.464  26.870  1.00  0.00     0.116 C 
BRANCH  27  28
ATOM     28  N   UNL A   1      40.965  19.613  26.157  1.00  0.00    -0.352 N 
ATOM     29  C   UNL A   1      42.255  19.871  25.748  1.00  0.00     0.251 C 
ATOM     30  H   UNL A   1      40.628  18.714  25.933  1.00  0.00     0.163 HD
ATOM     31  O   UNL A   1      42.859  19.034  25.083  1.00  0.00    -0.269 OA
BRANCH  29  32
ATOM     32  C   UNL A   1      42.894  21.171  26.056  1.00  0.00     0.039 A 
ATOM     33  C   UNL A   1      42.966  22.138  25.049  1.00  0.00     0.014 A 
ATOM     34  C   UNL A   1      43.398  21.452  27.328  1.00  0.00     0.014 A 
ATOM     35  C   UNL A   1      43.446  23.417  25.343  1.00  0.00     0.010 A 
ATOM     36  C   UNL A   1      43.802  22.749  27.641  1.00  0.00     0.010 A 
ATOM     37  C   UNL A   1      43.817  23.749  26.657  1.00  0.00    -0.014 A 
BRANCH  37  38
ATOM     38  C   UNL A   1      44.202  25.139  27.025  1.00  0.00     0.031 A 
ATOM     39  C   UNL A   1      43.176  26.078  27.601  1.00  0.00     0.074 A 
ATOM     40  C   UNL A   1      45.450  25.577  26.763  1.00  0.00     0.049 A 
ATOM     41  N   UNL A   1      43.285  27.350  27.882  1.00  0.00    -0.248 NA
ATOM     42  C   UNL A   1      41.841  25.517  27.865  1.00  0.00     0.031 C 
ATOM     43  C   UNL A   1      46.521  24.776  26.164  1.00  0.00     0.029 A 
ATOM     44  N   UNL A   1      46.030  26.809  26.951  1.00  0.00    -0.354 N 
ATOM     45  C   UNL A   1      42.030  27.750  28.330  1.00  0.00     0.074 A 
ATOM     46  C   UNL A   1      41.166  26.593  28.241  1.00  0.00     0.031 C 
ATOM     47  C   UNL A   1      47.627  25.530  26.051  1.00  0.00     0.029 A 
ATOM     48  C   UNL A   1      47.336  26.879  26.523  1.00  0.00     0.049 A 
ATOM     49  H   UNL A   1      45.554  27.571  27.353  1.00  0.00     0.167 HD
ATOM     50  C   UNL A   1      41.641  28.966  28.788  1.00  0.00     0.034 A 
ATOM     51  C   UNL A   1      48.198  27.916  26.500  1.00  0.00     0.034 A 
ATOM     52  C   UNL A   1      42.523  30.100  28.906  1.00  0.00     0.049 A 
ATOM     53  C   UNL A   1      47.739  29.256  27.023  1.00  0.00     0.074 A 
ATOM     54  C   UNL A   1      42.249  31.352  29.431  1.00  0.00     0.029 A 
ATOM     55  N   UNL A   1      43.847  30.126  28.490  1.00  0.00    -0.354 N 
ATOM     56  N   UNL A   1      46.565  29.597  27.502  1.00  0.00    -0.248 NA
ATOM     57  C   UNL A   1      48.723  30.346  27.013  1.00  0.00     0.031 C 
ATOM     58  C   UNL A   1      43.389  32.151  29.280  1.00  0.00     0.029 A 
ATOM     59  C   UNL A   1      44.394  31.379  28.722  1.00  0.00     0.049 A 
ATOM     60  H   UNL A   1      44.328  29.366  28.089  1.00  0.00     0.167 HD
ATOM     61  C   UNL A   1      46.685  30.931  27.885  1.00  0.00     0.074 A 
ATOM     62  C   UNL A   1      48.047  31.326  27.593  1.00  0.00     0.031 C 
ATOM     63  C   UNL A   1      45.756  31.755  28.430  1.00  0.00     0.034 A 
BRANCH  50  64
ATOM     64  C   UNL A   1      40.194  29.136  29.178  1.00  0.00     0.023 A 
ATOM     65  C   UNL A   1      39.783  29.138  30.521  1.00  0.00     0.031 A 
ATOM     66  C   UNL A   1      39.210  29.304  28.187  1.00  0.00     0.131 A 
ATOM     67  C   UNL A   1      38.420  29.246  30.836  1.00  0.00     0.055 A 
ATOM     68  C   UNL A   1      37.864  29.482  28.509  1.00  0.00     0.041 A 
ATOM     69  F   UNL A   1      39.542  29.292  26.886  1.00  0.00    -0.206 F 
ATOM     70  C   UNL A   1      37.460  29.443  29.841  1.00  0.00     0.022 A 
BRANCH  67  71
ATOM     71  S   UNL A   1      37.907  29.020  32.561  1.00  0.00     0.124 S 
ATOM     72  O   UNL A   1      36.652  29.769  32.595  1.00  0.00    -0.237 OA
ATOM     73  O   UNL A   1      37.789  27.571  32.669  1.00  0.00    -0.237 OA
ATOM     74  O   UNL A   1      39.001  29.615  33.326  1.00  0.00    -0.744 OA
ENDBRANCH  67  71
ENDBRANCH  50  64
BRANCH  51  75
ATOM     75  C   UNL A   1      49.577  27.756  25.953  1.00  0.00     0.023 A 
ATOM     76  C   UNL A   1      49.851  28.012  24.600  1.00  0.00     0.031 A 
ATOM     77  C   UNL A   1      50.626  27.272  26.756  1.00  0.00     0.131 A 
ATOM     78  C   UNL A   1      51.120  27.724  24.074  1.00  0.00     0.055 A 
ATOM     79  C   UNL A   1      51.903  27.042  26.242  1.00  0.00     0.041 A 
ATOM     80  F   UNL A   1      50.422  27.015  28.058  1.00  0.00    -0.206 F 
ATOM     81  C   UNL A   1      52.151  27.251  24.889  1.00  0.00     0.022 A 
BRANCH  78  82
ATOM     82  S   UNL A   1      51.369  27.865  22.282  1.00  0.00     0.124 S 
ATOM     83  O   UNL A   1      51.259  29.304  22.078  1.00  0.00    -0.237 OA
ATOM     84  O   UNL A   1      52.701  27.293  22.118  1.00  0.00    -0.237 OA
ATOM     85  O   UNL A   1      50.277  27.069  21.724  1.00  0.00    -0.744 OA
ENDBRANCH  78  82
ENDBRANCH  51  75
BRANCH  63  86
ATOM     86  C   UNL A   1      46.207  33.145  28.800  1.00  0.00     0.023 A 
ATOM     87  C   UNL A   1      46.107  34.220  27.900  1.00  0.00     0.031 A 
ATOM     88  C   UNL A   1      46.757  33.391  30.070  1.00  0.00     0.131 A 
ATOM     89  C   UNL A   1      46.600  35.482  28.263  1.00  0.00     0.055 A 
ATOM     90  C   UNL A   1      47.194  34.662  30.446  1.00  0.00     0.041 A 
ATOM     91  F   UNL A   1      46.877  32.400  30.967  1.00  0.00    -0.206 F 
ATOM     92  C   UNL A   1      47.129  35.713  29.536  1.00  0.00     0.022 A 
BRANCH  89  93
ATOM     93  S   UNL A   1      46.619  36.802  27.019  1.00  0.00     0.124 S 
ATOM     94  O   UNL A   1      45.318  37.430  27.222  1.00  0.00    -0.237 OA
ATOM     95  O   UNL A   1      47.778  37.592  27.419  1.00  0.00    -0.237 OA
ATOM     96  O   UNL A   1      46.769  36.081  25.756  1.00  0.00    -0.744 OA
ENDBRANCH  89  93
ENDBRANCH  63  86
ENDBRANCH  37  38
ENDBRANCH  29  32
ENDBRANCH  27  28
ENDBRANCH  26  27
ENDBRANCH   1  26
TORSDOF 17
ENDMDL
