MODEL 1
REMARK VINA RESULT:     -11.3      0.000      0.000
REMARK SMILES CC[C@](C)(NC(=O)N[C@@H]1C[C@@H]1C)C(=O)NCCCCNC(=O)c1ccc(-c2c3nc(c(-c4cc(S(=O)(=O)[O-])ccc4F)c4ccc([nH]4)c(-c4cc(S(=O)(=O)[O-])ccc4F)c4nc(c(-c5cc(S(=O)(=O)[O-])ccc5F)c5ccc2[nH]5)C=C4)C=C3)cc1
REMARK SMILES IDX 18 1 17 2 16 3 15 4 13 5 14 6 3 8 4 9 2 10 1 11 5 12 6 13
REMARK SMILES IDX 7 15 8 16 9 18 10 19 11 20 12 21 19 22 20 23 21 24 22 26
REMARK SMILES IDX 23 27 24 28 85 29 25 30 84 31 26 32 27 33 28 34 78 35 29 36
REMARK SMILES IDX 83 37 77 38 79 39 30 40 82 41 76 42 75 43 31 45 63 46 43 47
REMARK SMILES IDX 62 48 44 49 47 50 61 51 80 52 45 53 46 54 60 56 81 57 48 58
REMARK SMILES IDX 32 59 33 60 41 61 34 62 40 63 42 64 39 65 35 66 36 67 37 68
REMARK SMILES IDX 38 69 64 70 65 71 73 72 66 73 72 74 74 75 71 76 67 77 68 78
REMARK SMILES IDX 69 79 70 80 49 81 50 82 58 83 51 84 57 85 59 86 56 87 52 88
REMARK SMILES IDX 53 89 54 90 55 91
REMARK H PARENT 15 7 5 14 8 17 20 25 79 44 47 55
REMARK Flexibility Score: inf
ROOT
ATOM      1  C   UNL A   1      31.594  32.303  26.669  1.00  0.00     0.023 C 
ENDROOT
BRANCH   1   2
ATOM      2  C   UNL A   1      31.699  30.785  26.698  1.00  0.00     0.023 C 
BRANCH   2   3
ATOM      3  C   UNL A   1      31.407  30.072  25.381  1.00  0.00     0.116 C 
BRANCH   3   4
ATOM      4  N   UNL A   1      32.568  29.656  24.614  1.00  0.00    -0.354 N 
ATOM      5  C   UNL A   1      32.645  28.903  23.471  1.00  0.00     0.245 C 
ATOM      6  O   UNL A   1      33.637  29.081  22.755  1.00  0.00    -0.272 OA
ATOM      7  H   UNL A   1      33.434  29.962  24.970  1.00  0.00     0.163 HD
BRANCH   5   8
ATOM      8  C   UNL A   1      31.448  28.057  22.983  1.00  0.00     0.117 C 
ATOM      9  C   UNL A   1      30.260  28.867  22.425  1.00  0.00     0.045 C 
BRANCH   8  10
ATOM     10  C   UNL A   1      30.934  27.295  24.255  1.00  0.00     0.035 C 
ATOM     11  C   UNL A   1      29.568  26.625  24.088  1.00  0.00     0.007 C 
ENDBRANCH   8  10
BRANCH   8  12
ATOM     12  N   UNL A   1      31.866  27.089  21.956  1.00  0.00    -0.324 N 
ATOM     13  C   UNL A   1      32.955  26.332  21.812  1.00  0.00     0.315 C 
ATOM     14  H   UNL A   1      31.210  26.977  21.230  1.00  0.00     0.166 HD
ATOM     15  O   UNL A   1      33.241  26.017  20.649  1.00  0.00    -0.249 OA
ATOM     16  N   UNL A   1      33.787  25.897  22.765  1.00  0.00    -0.335 N 
ATOM     17  H   UNL A   1      34.701  25.834  22.406  1.00  0.00     0.165 HD
BRANCH  16  18
ATOM     18  C   UNL A   1      33.778  25.496  24.140  1.00  0.00     0.087 C 
ATOM     19  C   UNL A   1      34.702  24.881  25.147  1.00  0.00     0.030 C 
ATOM     20  C   UNL A   1      33.925  23.971  24.278  1.00  0.00     0.010 C 
ATOM     21  C   UNL A   1      34.708  23.180  23.276  1.00  0.00     0.010 C 
ENDBRANCH  16  18
ENDBRANCH   8  12
ENDBRANCH   5   8
ENDBRANCH   3   4
ENDBRANCH   2   3
ENDBRANCH   1   2
BRANCH   1  22
ATOM     22  C   UNL A   1      32.866  33.036  27.056  1.00  0.00     0.116 C 
BRANCH  22  23
ATOM     23  N   UNL A   1      32.604  34.260  27.795  1.00  0.00    -0.352 N 
ATOM     24  C   UNL A   1      33.174  34.723  28.956  1.00  0.00     0.251 C 
ATOM     25  H   UNL A   1      31.915  34.844  27.404  1.00  0.00     0.163 HD
ATOM     26  O   UNL A   1      32.696  35.704  29.511  1.00  0.00    -0.269 OA
BRANCH  24  27
ATOM     27  C   UNL A   1      34.332  34.013  29.542  1.00  0.00     0.039 A 
ATOM     28  C   UNL A   1      35.618  34.390  29.149  1.00  0.00     0.014 A 
ATOM     29  C   UNL A   1      34.156  32.991  30.478  1.00  0.00     0.014 A 
ATOM     30  C   UNL A   1      36.726  33.786  29.746  1.00  0.00     0.010 A 
ATOM     31  C   UNL A   1      35.258  32.461  31.141  1.00  0.00     0.010 A 
ATOM     32  C   UNL A   1      36.556  32.846  30.775  1.00  0.00    -0.014 A 
BRANCH  32  33
ATOM     33  C   UNL A   1      37.722  32.244  31.471  1.00  0.00     0.031 A 
ATOM     34  C   UNL A   1      38.478  31.111  30.829  1.00  0.00     0.074 A 
ATOM     35  C   UNL A   1      38.066  32.679  32.700  1.00  0.00     0.049 A 
ATOM     36  N   UNL A   1      39.468  30.402  31.305  1.00  0.00    -0.248 NA
ATOM     37  C   UNL A   1      38.038  30.702  29.485  1.00  0.00     0.031 C 
ATOM     38  C   UNL A   1      37.385  33.745  33.439  1.00  0.00     0.029 A 
ATOM     39  N   UNL A   1      39.067  32.277  33.547  1.00  0.00    -0.354 N 
ATOM     40  C   UNL A   1      39.765  29.460  30.325  1.00  0.00     0.074 A 
ATOM     41  C   UNL A   1      38.800  29.644  29.262  1.00  0.00     0.031 C 
ATOM     42  C   UNL A   1      38.005  33.929  34.615  1.00  0.00     0.029 A 
ATOM     43  C   UNL A   1      39.090  32.962  34.741  1.00  0.00     0.049 A 
ATOM     44  H   UNL A   1      39.708  31.565  33.323  1.00  0.00     0.167 HD
ATOM     45  C   UNL A   1      40.768  28.547  30.302  1.00  0.00     0.034 A 
ATOM     46  C   UNL A   1      39.883  32.815  35.821  1.00  0.00     0.034 A 
ATOM     47  C   UNL A   1      41.724  28.382  31.369  1.00  0.00     0.049 A 
ATOM     48  C   UNL A   1      40.964  31.764  35.791  1.00  0.00     0.074 A 
ATOM     49  C   UNL A   1      42.802  27.518  31.433  1.00  0.00     0.029 A 
ATOM     50  N   UNL A   1      41.712  29.090  32.565  1.00  0.00    -0.354 N 
ATOM     51  N   UNL A   1      41.261  30.911  34.836  1.00  0.00    -0.248 NA
ATOM     52  C   UNL A   1      41.825  31.664  36.976  1.00  0.00     0.031 C 
ATOM     53  C   UNL A   1      43.394  27.647  32.694  1.00  0.00     0.029 A 
ATOM     54  C   UNL A   1      42.744  28.657  33.384  1.00  0.00     0.049 A 
ATOM     55  H   UNL A   1      41.066  29.796  32.796  1.00  0.00     0.167 HD
ATOM     56  C   UNL A   1      42.363  30.197  35.296  1.00  0.00     0.074 A 
ATOM     57  C   UNL A   1      42.688  30.730  36.602  1.00  0.00     0.031 C 
ATOM     58  C   UNL A   1      43.050  29.193  34.692  1.00  0.00     0.034 A 
BRANCH  45  59
ATOM     59  C   UNL A   1      40.859  27.644  29.092  1.00  0.00     0.023 A 
ATOM     60  C   UNL A   1      41.794  27.876  28.068  1.00  0.00     0.031 A 
ATOM     61  C   UNL A   1      39.985  26.553  28.947  1.00  0.00     0.131 A 
ATOM     62  C   UNL A   1      41.782  27.080  26.912  1.00  0.00     0.055 A 
ATOM     63  C   UNL A   1      40.036  25.711  27.835  1.00  0.00     0.041 A 
ATOM     64  F   UNL A   1      39.053  26.294  29.878  1.00  0.00    -0.206 F 
ATOM     65  C   UNL A   1      40.929  25.981  26.802  1.00  0.00     0.022 A 
BRANCH  62  66
ATOM     66  S   UNL A   1      42.790  27.597  25.496  1.00  0.00     0.124 S 
ATOM     67  O   UNL A   1      44.072  27.884  26.136  1.00  0.00    -0.237 OA
ATOM     68  O   UNL A   1      42.754  26.420  24.636  1.00  0.00    -0.237 OA
ATOM     69  O   UNL A   1      42.083  28.769  24.982  1.00  0.00    -0.744 OA
ENDBRANCH  62  66
ENDBRANCH  45  59
BRANCH  46  70
ATOM     70  C   UNL A   1      39.678  33.665  37.031  1.00  0.00     0.023 A 
ATOM     71  C   UNL A   1      39.005  33.173  38.160  1.00  0.00     0.031 A 
ATOM     72  C   UNL A   1      40.111  35.004  37.056  1.00  0.00     0.131 A 
ATOM     73  C   UNL A   1      38.739  34.024  39.243  1.00  0.00     0.055 A 
ATOM     74  C   UNL A   1      39.899  35.829  38.161  1.00  0.00     0.041 A 
ATOM     75  F   UNL A   1      40.762  35.527  36.005  1.00  0.00    -0.206 F 
ATOM     76  C   UNL A   1      39.196  35.343  39.259  1.00  0.00     0.022 A 
BRANCH  73  77
ATOM     77  S   UNL A   1      37.697  33.409  40.596  1.00  0.00     0.124 S 
ATOM     78  O   UNL A   1      36.506  32.972  39.875  1.00  0.00    -0.237 OA
ATOM     79  O   UNL A   1      38.528  32.353  41.163  1.00  0.00    -0.237 OA
ATOM     80  O   UNL A   1      37.516  34.584  41.446  1.00  0.00    -0.744 OA
ENDBRANCH  73  77
ENDBRANCH  46  70
BRANCH  58  81
ATOM     81  C   UNL A   1      44.253  28.643  35.421  1.00  0.00     0.023 A 
ATOM     82  C   UNL A   1      44.136  27.629  36.389  1.00  0.00     0.031 A 
ATOM     83  C   UNL A   1      45.536  29.151  35.149  1.00  0.00     0.131 A 
ATOM     84  C   UNL A   1      45.272  27.197  37.089  1.00  0.00     0.055 A 
ATOM     85  C   UNL A   1      46.672  28.669  35.800  1.00  0.00     0.041 A 
ATOM     86  F   UNL A   1      45.708  30.123  34.239  1.00  0.00    -0.206 F 
ATOM     87  C   UNL A   1      46.542  27.696  36.787  1.00  0.00     0.022 A 
BRANCH  84  88
ATOM     88  S   UNL A   1      45.056  26.047  38.475  1.00  0.00     0.124 S 
ATOM     89  O   UNL A   1      44.715  24.806  37.787  1.00  0.00    -0.237 OA
ATOM     90  O   UNL A   1      46.365  26.081  39.117  1.00  0.00    -0.237 OA
ATOM     91  O   UNL A   1      43.970  26.644  39.250  1.00  0.00    -0.744 OA
ENDBRANCH  84  88
ENDBRANCH  58  81
ENDBRANCH  32  33
ENDBRANCH  24  27
ENDBRANCH  22  23
ENDBRANCH   1  22
TORSDOF 17
ENDMDL
MODEL 2
REMARK VINA RESULT:     -11.1      1.398      1.734
REMARK SMILES CC[C@](C)(NC(=O)N[C@@H]1C[C@@H]1C)C(=O)NCCCCNC(=O)c1ccc(-c2c3nc(c(-c4cc(S(=O)(=O)[O-])ccc4F)c4ccc([nH]4)c(-c4cc(S(=O)(=O)[O-])ccc4F)c4nc(c(-c5cc(S(=O)(=O)[O-])ccc5F)c5ccc2[nH]5)C=C4)C=C3)cc1
REMARK SMILES IDX 18 1 17 2 16 3 15 4 13 5 14 6 3 8 4 9 2 10 1 11 5 12 6 13
REMARK SMILES IDX 7 15 8 16 9 18 10 19 11 20 12 21 19 22 20 23 21 24 22 26
REMARK SMILES IDX 23 27 24 28 85 29 25 30 84 31 26 32 27 33 28 34 78 35 29 36
REMARK SMILES IDX 83 37 77 38 79 39 30 40 82 41 76 42 75 43 31 45 63 46 43 47
REMARK SMILES IDX 62 48 44 49 47 50 61 51 80 52 45 53 46 54 60 56 81 57 48 58
REMARK SMILES IDX 32 59 33 60 41 61 34 62 40 63 42 64 39 65 35 66 36 67 37 68
REMARK SMILES IDX 38 69 64 70 65 71 73 72 66 73 72 74 74 75 71 76 67 77 68 78
REMARK SMILES IDX 69 79 70 80 49 81 50 82 58 83 51 84 57 85 59 86 56 87 52 88
REMARK SMILES IDX 53 89 54 90 55 91
REMARK H PARENT 15 7 5 14 8 17 20 25 79 44 47 55
REMARK Flexibility Score: inf
ROOT
ATOM      1  C   UNL A   1      31.501  31.981  26.820  1.00  0.00     0.023 C 
ENDROOT
BRANCH   1   2
ATOM      2  C   UNL A   1      31.767  30.486  26.716  1.00  0.00     0.023 C 
BRANCH   2   3
ATOM      3  C   UNL A   1      31.426  29.840  25.376  1.00  0.00     0.116 C 
BRANCH   3   4
ATOM      4  N   UNL A   1      32.558  29.488  24.536  1.00  0.00    -0.354 N 
ATOM      5  C   UNL A   1      32.594  28.800  23.351  1.00  0.00     0.245 C 
ATOM      6  O   UNL A   1      33.548  29.036  22.601  1.00  0.00    -0.272 OA
ATOM      7  H   UNL A   1      33.434  29.792  24.868  1.00  0.00     0.163 HD
BRANCH   5   8
ATOM      8  C   UNL A   1      31.390  27.958  22.872  1.00  0.00     0.117 C 
ATOM      9  C   UNL A   1      30.214  28.771  22.293  1.00  0.00     0.045 C 
BRANCH   8  10
ATOM     10  C   UNL A   1      30.861  27.226  24.156  1.00  0.00     0.035 C 
ATOM     11  C   UNL A   1      29.445  26.657  24.027  1.00  0.00     0.007 C 
ENDBRANCH   8  10
BRANCH   8  12
ATOM     12  N   UNL A   1      31.802  26.968  21.865  1.00  0.00    -0.324 N 
ATOM     13  C   UNL A   1      32.895  26.214  21.727  1.00  0.00     0.315 C 
ATOM     14  H   UNL A   1      31.139  26.833  21.151  1.00  0.00     0.166 HD
ATOM     15  O   UNL A   1      33.169  25.870  20.570  1.00  0.00    -0.249 OA
ATOM     16  N   UNL A   1      33.740  25.809  22.682  1.00  0.00    -0.335 N 
ATOM     17  H   UNL A   1      34.651  25.742  22.313  1.00  0.00     0.165 HD
BRANCH  16  18
ATOM     18  C   UNL A   1      33.750  25.443  24.066  1.00  0.00     0.087 C 
ATOM     19  C   UNL A   1      34.713  24.936  25.098  1.00  0.00     0.030 C 
ATOM     20  C   UNL A   1      34.029  23.941  24.246  1.00  0.00     0.010 C 
ATOM     21  C   UNL A   1      34.890  23.197  23.272  1.00  0.00     0.010 C 
ENDBRANCH  16  18
ENDBRANCH   8  12
ENDBRANCH   5   8
ENDBRANCH   3   4
ENDBRANCH   2   3
ENDBRANCH   1   2
BRANCH   1  22
ATOM     22  C   UNL A   1      32.745  32.851  26.807  1.00  0.00     0.116 C 
BRANCH  22  23
ATOM     23  N   UNL A   1      32.564  34.096  27.534  1.00  0.00    -0.352 N 
ATOM     24  C   UNL A   1      33.219  34.564  28.647  1.00  0.00     0.251 C 
ATOM     25  H   UNL A   1      31.869  34.693  27.175  1.00  0.00     0.163 HD
ATOM     26  O   UNL A   1      32.805  35.569  29.210  1.00  0.00    -0.269 OA
BRANCH  24  27
ATOM     27  C   UNL A   1      34.391  33.831  29.175  1.00  0.00     0.039 A 
ATOM     28  C   UNL A   1      35.667  34.343  28.932  1.00  0.00     0.014 A 
ATOM     29  C   UNL A   1      34.236  32.655  29.914  1.00  0.00     0.014 A 
ATOM     30  C   UNL A   1      36.781  33.709  29.485  1.00  0.00     0.010 A 
ATOM     31  C   UNL A   1      35.336  32.083  30.544  1.00  0.00     0.010 A 
ATOM     32  C   UNL A   1      36.622  32.599  30.328  1.00  0.00    -0.014 A 
BRANCH  32  33
ATOM     33  C   UNL A   1      37.790  31.953  30.983  1.00  0.00     0.031 A 
ATOM     34  C   UNL A   1      38.588  30.915  30.241  1.00  0.00     0.074 A 
ATOM     35  C   UNL A   1      38.096  32.261  32.259  1.00  0.00     0.049 A 
ATOM     36  N   UNL A   1      39.587  30.183  30.661  1.00  0.00    -0.248 NA
ATOM     37  C   UNL A   1      38.188  30.644  28.851  1.00  0.00     0.031 C 
ATOM     38  C   UNL A   1      37.371  33.224  33.092  1.00  0.00     0.029 A 
ATOM     39  N   UNL A   1      39.089  31.794  33.082  1.00  0.00    -0.354 N 
ATOM     40  C   UNL A   1      39.930  29.361  29.593  1.00  0.00     0.074 A 
ATOM     41  C   UNL A   1      38.983  29.635  28.533  1.00  0.00     0.031 C 
ATOM     42  C   UNL A   1      37.961  33.295  34.296  1.00  0.00     0.029 A 
ATOM     43  C   UNL A   1      39.068  32.347  34.343  1.00  0.00     0.049 A 
ATOM     44  H   UNL A   1      39.754  31.127  32.798  1.00  0.00     0.167 HD
ATOM     45  C   UNL A   1      40.956  28.480  29.496  1.00  0.00     0.034 A 
ATOM     46  C   UNL A   1      39.842  32.103  35.420  1.00  0.00     0.034 A 
ATOM     47  C   UNL A   1      41.894  28.224  30.561  1.00  0.00     0.049 A 
ATOM     48  C   UNL A   1      40.952  31.088  35.302  1.00  0.00     0.074 A 
ATOM     49  C   UNL A   1      42.993  27.384  30.558  1.00  0.00     0.029 A 
ATOM     50  N   UNL A   1      41.838  28.798  31.826  1.00  0.00    -0.354 N 
ATOM     51  N   UNL A   1      41.291  30.351  34.268  1.00  0.00    -0.248 NA
ATOM     52  C   UNL A   1      41.790  30.882  36.490  1.00  0.00     0.031 C 
ATOM     53  C   UNL A   1      43.555  27.391  31.839  1.00  0.00     0.029 A 
ATOM     54  C   UNL A   1      42.864  28.304  32.618  1.00  0.00     0.049 A 
ATOM     55  H   UNL A   1      41.169  29.459  32.116  1.00  0.00     0.167 HD
ATOM     56  C   UNL A   1      42.402  29.618  34.675  1.00  0.00     0.074 A 
ATOM     57  C   UNL A   1      42.685  30.015  36.038  1.00  0.00     0.031 C 
ATOM     58  C   UNL A   1      43.128  28.702  33.982  1.00  0.00     0.034 A 
BRANCH  45  59
ATOM     59  C   UNL A   1      41.097  27.716  28.199  1.00  0.00     0.023 A 
ATOM     60  C   UNL A   1      40.718  26.366  28.093  1.00  0.00     0.031 A 
ATOM     61  C   UNL A   1      41.640  28.334  27.059  1.00  0.00     0.131 A 
ATOM     62  C   UNL A   1      40.958  25.659  26.905  1.00  0.00     0.055 A 
ATOM     63  C   UNL A   1      41.794  27.651  25.852  1.00  0.00     0.041 A 
ATOM     64  F   UNL A   1      42.044  29.615  27.103  1.00  0.00    -0.206 F 
ATOM     65  C   UNL A   1      41.467  26.300  25.774  1.00  0.00     0.022 A 
BRANCH  62  66
ATOM     66  S   UNL A   1      40.739  23.859  26.909  1.00  0.00     0.124 S 
ATOM     67  O   UNL A   1      41.738  23.439  25.929  1.00  0.00    -0.237 OA
ATOM     68  O   UNL A   1      41.019  23.510  28.297  1.00  0.00    -0.237 OA
ATOM     69  O   UNL A   1      39.351  23.682  26.487  1.00  0.00    -0.744 OA
ENDBRANCH  62  66
ENDBRANCH  45  59
BRANCH  46  70
ATOM     70  C   UNL A   1      39.589  32.812  36.708  1.00  0.00     0.023 A 
ATOM     71  C   UNL A   1      38.671  32.312  37.645  1.00  0.00     0.031 A 
ATOM     72  C   UNL A   1      40.228  34.031  37.001  1.00  0.00     0.131 A 
ATOM     73  C   UNL A   1      38.379  33.050  38.802  1.00  0.00     0.055 A 
ATOM     74  C   UNL A   1      39.981  34.731  38.183  1.00  0.00     0.041 A 
ATOM     75  F   UNL A   1      41.117  34.556  36.142  1.00  0.00    -0.206 F 
ATOM     76  C   UNL A   1      39.040  34.247  39.086  1.00  0.00     0.022 A 
BRANCH  73  77
ATOM     77  S   UNL A   1      37.046  32.471  39.889  1.00  0.00     0.124 S 
ATOM     78  O   UNL A   1      37.066  33.480  40.943  1.00  0.00    -0.237 OA
ATOM     79  O   UNL A   1      35.894  32.499  38.995  1.00  0.00    -0.237 OA
ATOM     80  O   UNL A   1      37.490  31.138  40.291  1.00  0.00    -0.744 OA
ENDBRANCH  73  77
ENDBRANCH  46  70
BRANCH  58  81
ATOM     81  C   UNL A   1      44.330  28.107  34.677  1.00  0.00     0.023 A 
ATOM     82  C   UNL A   1      44.249  26.903  35.400  1.00  0.00     0.031 A 
ATOM     83  C   UNL A   1      45.573  28.761  34.622  1.00  0.00     0.131 A 
ATOM     84  C   UNL A   1      45.376  26.423  36.085  1.00  0.00     0.055 A 
ATOM     85  C   UNL A   1      46.707  28.244  35.249  1.00  0.00     0.041 A 
ATOM     86  F   UNL A   1      45.709  29.917  33.951  1.00  0.00    -0.206 F 
ATOM     87  C   UNL A   1      46.608  27.074  35.997  1.00  0.00     0.022 A 
BRANCH  84  88
ATOM     88  S   UNL A   1      45.183  24.988  37.178  1.00  0.00     0.124 S 
ATOM     89  O   UNL A   1      44.582  25.589  38.364  1.00  0.00    -0.237 OA
ATOM     90  O   UNL A   1      44.316  24.114  36.397  1.00  0.00    -0.237 OA
ATOM     91  O   UNL A   1      46.552  24.505  37.354  1.00  0.00    -0.744 OA
ENDBRANCH  84  88
ENDBRANCH  58  81
ENDBRANCH  32  33
ENDBRANCH  24  27
ENDBRANCH  22  23
ENDBRANCH   1  22
TORSDOF 17
ENDMDL
MODEL 3
REMARK VINA RESULT:     -11.1      1.611      7.915
REMARK SMILES CC[C@](C)(NC(=O)N[C@@H]1C[C@@H]1C)C(=O)NCCCCNC(=O)c1ccc(-c2c3nc(c(-c4cc(S(=O)(=O)[O-])ccc4F)c4ccc([nH]4)c(-c4cc(S(=O)(=O)[O-])ccc4F)c4nc(c(-c5cc(S(=O)(=O)[O-])ccc5F)c5ccc2[nH]5)C=C4)C=C3)cc1
REMARK SMILES IDX 18 1 17 2 16 3 15 4 13 5 14 6 3 8 4 9 2 10 1 11 5 12 6 13
REMARK SMILES IDX 7 15 8 16 9 18 10 19 11 20 12 21 19 22 20 23 21 24 22 26
REMARK SMILES IDX 23 27 24 28 85 29 25 30 84 31 26 32 27 33 28 34 78 35 29 36
REMARK SMILES IDX 83 37 77 38 79 39 30 40 82 41 76 42 75 43 31 45 63 46 43 47
REMARK SMILES IDX 62 48 44 49 47 50 61 51 80 52 45 53 46 54 60 56 81 57 48 58
REMARK SMILES IDX 32 59 33 60 41 61 34 62 40 63 42 64 39 65 35 66 36 67 37 68
REMARK SMILES IDX 38 69 64 70 65 71 73 72 66 73 72 74 74 75 71 76 67 77 68 78
REMARK SMILES IDX 69 79 70 80 49 81 50 82 58 83 51 84 57 85 59 86 56 87 52 88
REMARK SMILES IDX 53 89 54 90 55 91
REMARK H PARENT 15 7 5 14 8 17 20 25 79 44 47 55
REMARK Flexibility Score: inf
ROOT
ATOM      1  C   UNL A   1      31.072  32.074  26.509  1.00  0.00     0.023 C 
ENDROOT
BRANCH   1   2
ATOM      2  C   UNL A   1      30.988  31.040  25.395  1.00  0.00     0.023 C 
BRANCH   2   3
ATOM      3  C   UNL A   1      31.765  29.747  25.628  1.00  0.00     0.116 C 
BRANCH   3   4
ATOM      4  N   UNL A   1      32.824  29.463  24.674  1.00  0.00    -0.354 N 
ATOM      5  C   UNL A   1      32.762  28.864  23.443  1.00  0.00     0.245 C 
ATOM      6  O   UNL A   1      33.653  29.159  22.638  1.00  0.00    -0.272 OA
ATOM      7  H   UNL A   1      33.724  29.745  24.956  1.00  0.00     0.163 HD
BRANCH   5   8
ATOM      8  C   UNL A   1      31.522  28.055  23.003  1.00  0.00     0.117 C 
ATOM      9  C   UNL A   1      30.344  28.900  22.474  1.00  0.00     0.045 C 
BRANCH   8  10
ATOM     10  C   UNL A   1      31.023  27.325  24.300  1.00  0.00     0.035 C 
ATOM     11  C   UNL A   1      29.942  26.267  24.060  1.00  0.00     0.007 C 
ENDBRANCH   8  10
BRANCH   8  12
ATOM     12  N   UNL A   1      31.872  27.063  21.975  1.00  0.00    -0.324 N 
ATOM     13  C   UNL A   1      32.948  26.296  21.782  1.00  0.00     0.315 C 
ATOM     14  H   UNL A   1      31.174  26.939  21.292  1.00  0.00     0.166 HD
ATOM     15  O   UNL A   1      33.162  25.954  20.612  1.00  0.00    -0.249 OA
ATOM     16  N   UNL A   1      33.832  25.877  22.694  1.00  0.00    -0.335 N 
ATOM     17  H   UNL A   1      34.723  25.800  22.282  1.00  0.00     0.165 HD
BRANCH  16  18
ATOM     18  C   UNL A   1      33.903  25.505  24.075  1.00  0.00     0.087 C 
ATOM     19  C   UNL A   1      34.757  24.671  24.982  1.00  0.00     0.030 C 
ATOM     20  C   UNL A   1      33.654  23.999  24.263  1.00  0.00     0.010 C 
ATOM     21  C   UNL A   1      34.051  23.016  23.206  1.00  0.00     0.010 C 
ENDBRANCH  16  18
ENDBRANCH   8  12
ENDBRANCH   5   8
ENDBRANCH   3   4
ENDBRANCH   2   3
ENDBRANCH   1   2
BRANCH   1  22
ATOM     22  C   UNL A   1      32.482  32.495  26.882  1.00  0.00     0.116 C 
BRANCH  22  23
ATOM     23  N   UNL A   1      32.539  33.843  27.423  1.00  0.00    -0.352 N 
ATOM     24  C   UNL A   1      33.381  34.373  28.370  1.00  0.00     0.251 C 
ATOM     25  H   UNL A   1      31.875  34.470  27.055  1.00  0.00     0.163 HD
ATOM     26  O   UNL A   1      33.160  35.492  28.812  1.00  0.00    -0.269 OA
BRANCH  24  27
ATOM     27  C   UNL A   1      34.521  33.574  28.871  1.00  0.00     0.039 A 
ATOM     28  C   UNL A   1      35.813  34.082  28.721  1.00  0.00     0.014 A 
ATOM     29  C   UNL A   1      34.322  32.340  29.495  1.00  0.00     0.014 A 
ATOM     30  C   UNL A   1      36.897  33.381  29.254  1.00  0.00     0.010 A 
ATOM     31  C   UNL A   1      35.389  31.693  30.109  1.00  0.00     0.010 A 
ATOM     32  C   UNL A   1      36.690  32.203  29.988  1.00  0.00    -0.014 A 
BRANCH  32  33
ATOM     33  C   UNL A   1      37.822  31.480  30.623  1.00  0.00     0.031 A 
ATOM     34  C   UNL A   1      38.220  31.801  32.038  1.00  0.00     0.074 A 
ATOM     35  C   UNL A   1      38.524  30.577  29.908  1.00  0.00     0.049 A 
ATOM     36  N   UNL A   1      39.222  31.341  32.742  1.00  0.00    -0.248 NA
ATOM     37  C   UNL A   1      37.397  32.795  32.745  1.00  0.00     0.031 C 
ATOM     38  C   UNL A   1      38.256  30.210  28.515  1.00  0.00     0.029 A 
ATOM     39  N   UNL A   1      39.608  29.808  30.250  1.00  0.00    -0.354 N 
ATOM     40  C   UNL A   1      39.155  31.993  33.968  1.00  0.00     0.074 A 
ATOM     41  C   UNL A   1      38.058  32.933  33.883  1.00  0.00     0.031 C 
ATOM     42  C   UNL A   1      39.134  29.270  28.133  1.00  0.00     0.029 A 
ATOM     43  C   UNL A   1      40.060  29.004  29.227  1.00  0.00     0.049 A 
ATOM     44  H   UNL A   1      40.023  29.830  31.142  1.00  0.00     0.167 HD
ATOM     45  C   UNL A   1      39.920  31.804  35.072  1.00  0.00     0.034 A 
ATOM     46  C   UNL A   1      41.112  28.164  29.174  1.00  0.00     0.034 A 
ATOM     47  C   UNL A   1      41.007  30.858  35.140  1.00  0.00     0.049 A 
ATOM     48  C   UNL A   1      41.975  28.001  30.400  1.00  0.00     0.074 A 
ATOM     49  C   UNL A   1      41.820  30.557  36.217  1.00  0.00     0.029 A 
ATOM     50  N   UNL A   1      41.439  30.066  34.083  1.00  0.00    -0.354 N 
ATOM     51  N   UNL A   1      41.871  28.593  31.569  1.00  0.00    -0.248 NA
ATOM     52  C   UNL A   1      43.089  27.049  30.305  1.00  0.00     0.031 C 
ATOM     53  C   UNL A   1      42.790  29.642  35.793  1.00  0.00     0.029 A 
ATOM     54  C   UNL A   1      42.528  29.301  34.476  1.00  0.00     0.049 A 
ATOM     55  H   UNL A   1      41.032  30.049  33.187  1.00  0.00     0.167 HD
ATOM     56  C   UNL A   1      42.887  28.059  32.356  1.00  0.00     0.074 A 
ATOM     57  C   UNL A   1      43.579  27.086  31.536  1.00  0.00     0.031 C 
ATOM     58  C   UNL A   1      43.216  28.341  33.643  1.00  0.00     0.034 A 
BRANCH  45  59
ATOM     59  C   UNL A   1      39.618  32.659  36.282  1.00  0.00     0.023 A 
ATOM     60  C   UNL A   1      38.774  32.207  37.312  1.00  0.00     0.031 A 
ATOM     61  C   UNL A   1      40.159  33.950  36.399  1.00  0.00     0.131 A 
ATOM     62  C   UNL A   1      38.433  33.064  38.369  1.00  0.00     0.055 A 
ATOM     63  C   UNL A   1      39.888  34.767  37.498  1.00  0.00     0.041 A 
ATOM     64  F   UNL A   1      40.953  34.449  35.437  1.00  0.00    -0.206 F 
ATOM     65  C   UNL A   1      39.008  34.331  38.484  1.00  0.00     0.022 A 
BRANCH  62  66
ATOM     66  S   UNL A   1      37.113  32.556  39.504  1.00  0.00     0.124 S 
ATOM     67  O   UNL A   1      37.504  31.183  39.814  1.00  0.00    -0.237 OA
ATOM     68  O   UNL A   1      37.244  33.519  40.592  1.00  0.00    -0.237 OA
ATOM     69  O   UNL A   1      35.900  32.684  38.698  1.00  0.00    -0.744 OA
ENDBRANCH  62  66
ENDBRANCH  45  59
BRANCH  46  70
ATOM     70  C   UNL A   1      41.426  27.425  27.915  1.00  0.00     0.023 A 
ATOM     71  C   UNL A   1      41.213  26.041  27.813  1.00  0.00     0.031 A 
ATOM     72  C   UNL A   1      41.989  28.086  26.809  1.00  0.00     0.131 A 
ATOM     73  C   UNL A   1      41.609  25.355  26.655  1.00  0.00     0.055 A 
ATOM     74  C   UNL A   1      42.323  27.411  25.635  1.00  0.00     0.041 A 
ATOM     75  F   UNL A   1      42.212  29.410  26.850  1.00  0.00    -0.206 F 
ATOM     76  C   UNL A   1      42.147  26.033  25.559  1.00  0.00     0.022 A 
BRANCH  73  77
ATOM     77  S   UNL A   1      41.502  23.544  26.638  1.00  0.00     0.124 S 
ATOM     78  O   UNL A   1      40.068  23.335  26.472  1.00  0.00    -0.237 OA
ATOM     79  O   UNL A   1      42.338  23.202  25.492  1.00  0.00    -0.237 OA
ATOM     80  O   UNL A   1      42.043  23.159  27.940  1.00  0.00    -0.744 OA
ENDBRANCH  73  77
ENDBRANCH  46  70
BRANCH  58  81
ATOM     81  C   UNL A   1      44.347  27.549  34.255  1.00  0.00     0.023 A 
ATOM     82  C   UNL A   1      44.145  26.270  34.805  1.00  0.00     0.031 A 
ATOM     83  C   UNL A   1      45.644  28.088  34.297  1.00  0.00     0.131 A 
ATOM     84  C   UNL A   1      45.211  25.600  35.424  1.00  0.00     0.055 A 
ATOM     85  C   UNL A   1      46.716  27.388  34.852  1.00  0.00     0.041 A 
ATOM     86  F   UNL A   1      45.896  29.306  33.792  1.00  0.00    -0.206 F 
ATOM     87  C   UNL A   1      46.499  26.142  35.433  1.00  0.00     0.022 A 
BRANCH  84  88
ATOM     88  S   UNL A   1      44.871  24.053  36.309  1.00  0.00     0.124 S 
ATOM     89  O   UNL A   1      46.131  23.334  36.156  1.00  0.00    -0.237 OA
ATOM     90  O   UNL A   1      44.565  24.524  37.655  1.00  0.00    -0.237 OA
ATOM     91  O   UNL A   1      43.739  23.483  35.580  1.00  0.00    -0.744 OA
ENDBRANCH  84  88
ENDBRANCH  58  81
ENDBRANCH  32  33
ENDBRANCH  24  27
ENDBRANCH  22  23
ENDBRANCH   1  22
TORSDOF 17
ENDMDL
