MODEL 1
REMARK VINA RESULT:     -12.2      0.000      0.000
REMARK SMILES O=C(CNC(=O)CN1C(=O)S/C(=C\c2cccc(Br)c2)C1=O)NCCCCNC(=O)c1ccc(-c2c3nc(c(-c4cc(S(=O)(=O)[O-])ccc4F)c4ccc([nH]4)c(-c4cc(S(=O)(=O)[O-])ccc4F)c4nc(c(-c5cc(S(=O)(=O)[O-])ccc5F)c5ccc2[nH]5)C=C4)C=C3)cc1
REMARK SMILES IDX 25 1 24 2 23 3 1 4 2 5 3 7 4 8 5 9 6 11 7 12 8 13 9 14 21 15
REMARK SMILES IDX 10 16 11 17 12 18 22 19 13 20 14 21 15 22 20 23 16 24 18 25
REMARK SMILES IDX 17 26 19 27 26 28 27 29 28 30 29 31 30 33 31 34 32 35 93 36
REMARK SMILES IDX 33 37 92 38 34 39 35 40 36 41 86 42 37 43 91 44 85 45 87 46
REMARK SMILES IDX 38 47 90 48 84 49 83 50 39 52 71 53 51 54 70 55 52 56 55 57
REMARK SMILES IDX 69 58 88 59 53 60 54 61 68 63 89 64 56 65 40 66 41 67 49 68
REMARK SMILES IDX 42 69 48 70 50 71 47 72 43 73 44 74 45 75 46 76 72 77 73 78
REMARK SMILES IDX 81 79 74 80 80 81 82 82 79 83 75 84 76 85 77 86 78 87 57 88
REMARK SMILES IDX 58 89 66 90 59 91 65 92 67 93 64 94 60 95 61 96 62 97 63 98
REMARK H PARENT 23 6 4 10 28 32 87 51 55 62
REMARK Flexibility Score: inf
ROOT
ATOM      1  C   UNL A   1      33.892  28.547  23.220  1.00  0.00     0.023 C 
ENDROOT
BRANCH   1   2
ATOM      2  C   UNL A   1      33.515  27.625  22.062  1.00  0.00     0.116 C 
BRANCH   2   3
ATOM      3  N   UNL A   1      32.707  26.503  22.506  1.00  0.00    -0.355 N 
ATOM      4  O   UNL A   1      30.668  27.382  21.920  1.00  0.00    -0.273 OA
ATOM      5  C   UNL A   1      31.332  26.480  22.422  1.00  0.00     0.239 C 
ATOM      6  H   UNL A   1      33.166  25.720  22.886  1.00  0.00     0.163 HD
BRANCH   5   7
ATOM      7  C   UNL A   1      30.677  25.288  23.134  1.00  0.00     0.216 C 
BRANCH   7   8
ATOM      8  N   UNL A   1      30.155  25.641  24.447  1.00  0.00    -0.345 N 
ATOM      9  C   UNL A   1      30.766  25.697  25.659  1.00  0.00     0.240 C 
ATOM     10  H   UNL A   1      29.200  25.878  24.458  1.00  0.00     0.164 HD
ATOM     11  O   UNL A   1      30.163  26.314  26.542  1.00  0.00    -0.273 OA
BRANCH   9  12
ATOM     12  C   UNL A   1      32.190  25.188  25.896  1.00  0.00     0.229 C 
BRANCH  12  13
ATOM     13  N   UNL A   1      32.560  23.935  25.253  1.00  0.00    -0.259 N 
ATOM     14  C   UNL A   1      33.690  23.833  24.492  1.00  0.00     0.294 C 
ATOM     15  C   UNL A   1      31.924  22.755  25.566  1.00  0.00     0.268 C 
ATOM     16  O   UNL A   1      34.442  24.743  24.177  1.00  0.00    -0.261 OA
ATOM     17  S   UNL A   1      33.953  22.169  24.002  1.00  0.00    -0.022 SA
ATOM     18  C   UNL A   1      32.628  21.595  24.935  1.00  0.00     0.083 C 
ATOM     19  O   UNL A   1      30.879  22.659  26.193  1.00  0.00    -0.268 OA
ATOM     20  C   UNL A   1      32.188  20.332  25.054  1.00  0.00     0.029 C 
BRANCH  20  21
ATOM     21  C   UNL A   1      32.704  19.144  24.353  1.00  0.00    -0.023 A 
ATOM     22  C   UNL A   1      32.350  18.850  23.037  1.00  0.00     0.008 A 
ATOM     23  C   UNL A   1      33.597  18.284  25.004  1.00  0.00     0.023 A 
ATOM     24  C   UNL A   1      32.859  17.703  22.410  1.00  0.00     0.002 A 
ATOM     25  C   UNL A   1      34.073  17.125  24.397  1.00  0.00     0.018 A 
ATOM     26  C   UNL A   1      33.707  16.830  23.095  1.00  0.00     0.016 A 
ATOM     27  Br  UNL A   1      35.207  15.964  25.365  1.00  0.00    -0.051 Br
ENDBRANCH  20  21
ENDBRANCH  12  13
ENDBRANCH   9  12
ENDBRANCH   7   8
ENDBRANCH   5   7
ENDBRANCH   2   3
ENDBRANCH   1   2
BRANCH   1  28
ATOM     28  C   UNL A   1      32.704  29.303  23.809  1.00  0.00     0.023 C 
BRANCH  28  29
ATOM     29  C   UNL A   1      32.539  29.298  25.335  1.00  0.00     0.116 C 
BRANCH  29  30
ATOM     30  N   UNL A   1      32.203  30.595  25.903  1.00  0.00    -0.352 N 
ATOM     31  C   UNL A   1      32.787  31.386  26.873  1.00  0.00     0.251 C 
ATOM     32  H   UNL A   1      31.390  30.991  25.514  1.00  0.00     0.163 HD
ATOM     33  O   UNL A   1      32.212  32.440  27.149  1.00  0.00    -0.269 OA
BRANCH  31  34
ATOM     34  C   UNL A   1      34.020  31.023  27.641  1.00  0.00     0.039 A 
ATOM     35  C   UNL A   1      34.955  32.043  27.892  1.00  0.00     0.014 A 
ATOM     36  C   UNL A   1      34.337  29.731  28.055  1.00  0.00     0.014 A 
ATOM     37  C   UNL A   1      36.157  31.784  28.575  1.00  0.00     0.010 A 
ATOM     38  C   UNL A   1      35.512  29.482  28.793  1.00  0.00     0.010 A 
ATOM     39  C   UNL A   1      36.447  30.500  29.059  1.00  0.00    -0.014 A 
BRANCH  39  40
ATOM     40  C   UNL A   1      37.718  30.204  29.801  1.00  0.00     0.031 A 
ATOM     41  C   UNL A   1      38.758  29.276  29.213  1.00  0.00     0.074 A 
ATOM     42  C   UNL A   1      37.948  30.733  31.023  1.00  0.00     0.049 A 
ATOM     43  N   UNL A   1      39.868  28.823  29.742  1.00  0.00    -0.248 NA
ATOM     44  C   UNL A   1      38.502  28.782  27.852  1.00  0.00     0.031 C 
ATOM     45  C   UNL A   1      37.058  31.658  31.726  1.00  0.00     0.029 A 
ATOM     46  N   UNL A   1      38.998  30.561  31.899  1.00  0.00    -0.354 N 
ATOM     47  C   UNL A   1      40.436  27.978  28.791  1.00  0.00     0.074 A 
ATOM     48  C   UNL A   1      39.516  27.949  27.670  1.00  0.00     0.031 C 
ATOM     49  C   UNL A   1      37.602  31.979  32.912  1.00  0.00     0.029 A 
ATOM     50  C   UNL A   1      38.853  31.243  33.088  1.00  0.00     0.049 A 
ATOM     51  H   UNL A   1      39.782  30.001  31.694  1.00  0.00     0.167 HD
ATOM     52  C   UNL A   1      41.612  27.300  28.834  1.00  0.00     0.034 A 
ATOM     53  C   UNL A   1      39.616  31.262  34.203  1.00  0.00     0.034 A 
ATOM     54  C   UNL A   1      42.536  27.335  29.944  1.00  0.00     0.049 A 
ATOM     55  C   UNL A   1      40.884  30.439  34.259  1.00  0.00     0.074 A 
ATOM     56  C   UNL A   1      43.774  26.718  30.052  1.00  0.00     0.029 A 
ATOM     57  N   UNL A   1      42.330  28.006  31.141  1.00  0.00    -0.354 N 
ATOM     58  N   UNL A   1      41.410  29.666  33.339  1.00  0.00    -0.248 NA
ATOM     59  C   UNL A   1      41.661  30.496  35.506  1.00  0.00     0.031 C 
ATOM     60  C   UNL A   1      44.269  26.941  31.342  1.00  0.00     0.029 A 
ATOM     61  C   UNL A   1      43.391  27.780  32.007  1.00  0.00     0.049 A 
ATOM     62  H   UNL A   1      41.543  28.561  31.347  1.00  0.00     0.167 HD
ATOM     63  C   UNL A   1      42.599  29.181  33.883  1.00  0.00     0.074 A 
ATOM     64  C   UNL A   1      42.717  29.756  35.206  1.00  0.00     0.031 C 
ATOM     65  C   UNL A   1      43.514  28.342  33.332  1.00  0.00     0.034 A 
BRANCH  52  66
ATOM     66  C   UNL A   1      41.958  26.419  27.652  1.00  0.00     0.023 A 
ATOM     67  C   UNL A   1      41.533  25.082  27.572  1.00  0.00     0.031 A 
ATOM     68  C   UNL A   1      42.726  26.928  26.587  1.00  0.00     0.131 A 
ATOM     69  C   UNL A   1      41.940  24.280  26.492  1.00  0.00     0.055 A 
ATOM     70  C   UNL A   1      43.052  26.151  25.474  1.00  0.00     0.041 A 
ATOM     71  F   UNL A   1      43.176  28.192  26.613  1.00  0.00    -0.206 F 
ATOM     72  C   UNL A   1      42.671  24.814  25.429  1.00  0.00     0.022 A 
BRANCH  69  73
ATOM     73  S   UNL A   1      41.625  22.496  26.572  1.00  0.00     0.124 S 
ATOM     74  O   UNL A   1      40.167  22.450  26.481  1.00  0.00    -0.237 OA
ATOM     75  O   UNL A   1      42.354  21.994  25.414  1.00  0.00    -0.237 OA
ATOM     76  O   UNL A   1      42.172  22.110  27.871  1.00  0.00    -0.744 OA
ENDBRANCH  69  73
ENDBRANCH  52  66
BRANCH  53  77
ATOM     77  C   UNL A   1      39.199  32.063  35.395  1.00  0.00     0.023 A 
ATOM     78  C   UNL A   1      38.546  31.460  36.483  1.00  0.00     0.031 A 
ATOM     79  C   UNL A   1      39.379  33.458  35.430  1.00  0.00     0.131 A 
ATOM     80  C   UNL A   1      38.051  32.253  37.531  1.00  0.00     0.055 A 
ATOM     81  C   UNL A   1      38.942  34.234  36.505  1.00  0.00     0.041 A 
ATOM     82  F   UNL A   1      39.991  34.090  34.415  1.00  0.00    -0.206 F 
ATOM     83  C   UNL A   1      38.260  33.633  37.558  1.00  0.00     0.022 A 
BRANCH  80  84
ATOM     84  S   UNL A   1      37.033  31.466  38.811  1.00  0.00     0.124 S 
ATOM     85  O   UNL A   1      35.839  32.304  38.795  1.00  0.00    -0.237 OA
ATOM     86  O   UNL A   1      36.877  30.115  38.285  1.00  0.00    -0.237 OA
ATOM     87  O   UNL A   1      37.857  31.574  40.013  1.00  0.00    -0.744 OA
ENDBRANCH  80  84
ENDBRANCH  53  77
BRANCH  65  88
ATOM     88  C   UNL A   1      44.760  28.036  34.136  1.00  0.00     0.023 A 
ATOM     89  C   UNL A   1      44.815  26.975  35.058  1.00  0.00     0.031 A 
ATOM     90  C   UNL A   1      45.913  28.830  33.980  1.00  0.00     0.131 A 
ATOM     91  C   UNL A   1      45.974  26.773  35.828  1.00  0.00     0.055 A 
ATOM     92  C   UNL A   1      47.084  28.582  34.699  1.00  0.00     0.041 A 
ATOM     93  F   UNL A   1      45.922  29.862  33.121  1.00  0.00    -0.206 F 
ATOM     94  C   UNL A   1      47.115  27.558  35.639  1.00  0.00     0.022 A 
BRANCH  91  95
ATOM     95  S   UNL A   1      45.937  25.536  37.155  1.00  0.00     0.124 S 
ATOM     96  O   UNL A   1      45.405  26.307  38.273  1.00  0.00    -0.237 OA
ATOM     97  O   UNL A   1      45.050  24.515  36.606  1.00  0.00    -0.237 OA
ATOM     98  O   UNL A   1      47.336  25.133  37.289  1.00  0.00    -0.744 OA
ENDBRANCH  91  95
ENDBRANCH  65  88
ENDBRANCH  39  40
ENDBRANCH  31  34
ENDBRANCH  29  30
ENDBRANCH  28  29
ENDBRANCH   1  28
TORSDOF 18
ENDMDL
MODEL 2
REMARK VINA RESULT:     -12.1      2.805      3.283
REMARK SMILES O=C(CNC(=O)CN1C(=O)S/C(=C\c2cccc(Br)c2)C1=O)NCCCCNC(=O)c1ccc(-c2c3nc(c(-c4cc(S(=O)(=O)[O-])ccc4F)c4ccc([nH]4)c(-c4cc(S(=O)(=O)[O-])ccc4F)c4nc(c(-c5cc(S(=O)(=O)[O-])ccc5F)c5ccc2[nH]5)C=C4)C=C3)cc1
REMARK SMILES IDX 25 1 24 2 23 3 1 4 2 5 3 7 4 8 5 9 6 11 7 12 8 13 9 14 21 15
REMARK SMILES IDX 10 16 11 17 12 18 22 19 13 20 14 21 15 22 20 23 16 24 18 25
REMARK SMILES IDX 17 26 19 27 26 28 27 29 28 30 29 31 30 33 31 34 32 35 93 36
REMARK SMILES IDX 33 37 92 38 34 39 35 40 36 41 86 42 37 43 91 44 85 45 87 46
REMARK SMILES IDX 38 47 90 48 84 49 83 50 39 52 71 53 51 54 70 55 52 56 55 57
REMARK SMILES IDX 69 58 88 59 53 60 54 61 68 63 89 64 56 65 40 66 41 67 49 68
REMARK SMILES IDX 42 69 48 70 50 71 47 72 43 73 44 74 45 75 46 76 72 77 73 78
REMARK SMILES IDX 81 79 74 80 80 81 82 82 79 83 75 84 76 85 77 86 78 87 57 88
REMARK SMILES IDX 58 89 66 90 59 91 65 92 67 93 64 94 60 95 61 96 62 97 63 98
REMARK H PARENT 23 6 4 10 28 32 87 51 55 62
REMARK Flexibility Score: inf
ROOT
ATOM      1  C   UNL A   1      33.798  28.958  23.589  1.00  0.00     0.023 C 
ENDROOT
BRANCH   1   2
ATOM      2  C   UNL A   1      33.098  28.415  22.345  1.00  0.00     0.116 C 
BRANCH   2   3
ATOM      3  N   UNL A   1      32.085  27.431  22.682  1.00  0.00    -0.355 N 
ATOM      4  O   UNL A   1      30.268  28.659  22.002  1.00  0.00    -0.273 OA
ATOM      5  C   UNL A   1      30.735  27.642  22.505  1.00  0.00     0.239 C 
ATOM      6  H   UNL A   1      32.379  26.569  23.057  1.00  0.00     0.163 HD
BRANCH   5   7
ATOM      7  C   UNL A   1      29.841  26.554  23.117  1.00  0.00     0.216 C 
BRANCH   7   8
ATOM      8  N   UNL A   1      29.810  26.611  24.572  1.00  0.00    -0.345 N 
ATOM      9  C   UNL A   1      30.270  25.735  25.504  1.00  0.00     0.240 C 
ATOM     10  H   UNL A   1      29.384  27.417  24.942  1.00  0.00     0.164 HD
ATOM     11  O   UNL A   1      30.381  26.176  26.652  1.00  0.00    -0.273 OA
BRANCH   9  12
ATOM     12  C   UNL A   1      30.790  24.341  25.149  1.00  0.00     0.229 C 
BRANCH  12  13
ATOM     13  N   UNL A   1      32.137  24.005  25.587  1.00  0.00    -0.259 N 
ATOM     14  C   UNL A   1      32.359  23.352  26.767  1.00  0.00     0.294 C 
ATOM     15  C   UNL A   1      33.215  24.122  24.740  1.00  0.00     0.268 C 
ATOM     16  O   UNL A   1      31.523  23.069  27.613  1.00  0.00    -0.261 OA
ATOM     17  S   UNL A   1      34.056  22.939  26.930  1.00  0.00    -0.022 SA
ATOM     18  C   UNL A   1      34.437  23.518  25.357  1.00  0.00     0.083 C 
ATOM     19  O   UNL A   1      33.213  24.715  23.671  1.00  0.00    -0.268 OA
ATOM     20  C   UNL A   1      35.635  23.533  24.750  1.00  0.00     0.029 C 
BRANCH  20  21
ATOM     21  C   UNL A   1      36.925  23.115  25.326  1.00  0.00    -0.023 A 
ATOM     22  C   UNL A   1      37.469  21.855  25.083  1.00  0.00     0.008 A 
ATOM     23  C   UNL A   1      37.653  24.005  26.125  1.00  0.00     0.023 A 
ATOM     24  C   UNL A   1      38.696  21.494  25.657  1.00  0.00     0.002 A 
ATOM     25  C   UNL A   1      38.853  23.636  26.726  1.00  0.00     0.018 A 
ATOM     26  C   UNL A   1      39.382  22.378  26.494  1.00  0.00     0.016 A 
ATOM     27  Br  UNL A   1      39.740  24.858  27.864  1.00  0.00    -0.051 Br
ENDBRANCH  20  21
ENDBRANCH  12  13
ENDBRANCH   9  12
ENDBRANCH   7   8
ENDBRANCH   5   7
ENDBRANCH   2   3
ENDBRANCH   1   2
BRANCH   1  28
ATOM     28  C   UNL A   1      33.916  27.937  24.718  1.00  0.00     0.023 C 
BRANCH  28  29
ATOM     29  C   UNL A   1      33.096  28.183  25.992  1.00  0.00     0.116 C 
BRANCH  29  30
ATOM     30  N   UNL A   1      32.735  29.575  26.210  1.00  0.00    -0.352 N 
ATOM     31  C   UNL A   1      33.336  30.616  26.890  1.00  0.00     0.251 C 
ATOM     32  H   UNL A   1      31.884  29.828  25.784  1.00  0.00     0.163 HD
ATOM     33  O   UNL A   1      32.730  31.689  26.909  1.00  0.00    -0.269 OA
BRANCH  31  34
ATOM     34  C   UNL A   1      34.626  30.511  27.643  1.00  0.00     0.039 A 
ATOM     35  C   UNL A   1      35.422  31.666  27.737  1.00  0.00     0.014 A 
ATOM     36  C   UNL A   1      35.123  29.329  28.190  1.00  0.00     0.014 A 
ATOM     37  C   UNL A   1      36.665  31.648  28.396  1.00  0.00     0.010 A 
ATOM     38  C   UNL A   1      36.339  29.325  28.903  1.00  0.00     0.010 A 
ATOM     39  C   UNL A   1      37.135  30.479  29.011  1.00  0.00    -0.014 A 
BRANCH  39  40
ATOM     40  C   UNL A   1      38.453  30.442  29.731  1.00  0.00     0.031 A 
ATOM     41  C   UNL A   1      39.631  29.694  29.145  1.00  0.00     0.074 A 
ATOM     42  C   UNL A   1      38.608  31.046  30.929  1.00  0.00     0.049 A 
ATOM     43  N   UNL A   1      40.815  29.467  29.660  1.00  0.00    -0.248 NA
ATOM     44  C   UNL A   1      39.442  29.116  27.807  1.00  0.00     0.031 C 
ATOM     45  C   UNL A   1      37.580  31.821  31.625  1.00  0.00     0.029 A 
ATOM     46  N   UNL A   1      39.689  31.096  31.783  1.00  0.00    -0.354 N 
ATOM     47  C   UNL A   1      41.506  28.703  28.721  1.00  0.00     0.074 A 
ATOM     48  C   UNL A   1      40.585  28.471  27.626  1.00  0.00     0.031 C 
ATOM     49  C   UNL A   1      38.081  32.275  32.787  1.00  0.00     0.029 A 
ATOM     50  C   UNL A   1      39.447  31.782  32.953  1.00  0.00     0.049 A 
ATOM     51  H   UNL A   1      40.556  30.678  31.576  1.00  0.00     0.167 HD
ATOM     52  C   UNL A   1      42.786  28.249  28.756  1.00  0.00     0.034 A 
ATOM     53  C   UNL A   1      40.215  31.976  34.048  1.00  0.00     0.034 A 
ATOM     54  C   UNL A   1      43.710  28.487  29.841  1.00  0.00     0.049 A 
ATOM     55  C   UNL A   1      41.611  31.395  34.097  1.00  0.00     0.074 A 
ATOM     56  C   UNL A   1      45.040  28.105  29.937  1.00  0.00     0.029 A 
ATOM     57  N   UNL A   1      43.409  29.152  31.021  1.00  0.00    -0.354 N 
ATOM     58  N   UNL A   1      42.249  30.697  33.189  1.00  0.00    -0.248 NA
ATOM     59  C   UNL A   1      42.388  31.633  35.323  1.00  0.00     0.031 C 
ATOM     60  C   UNL A   1      45.512  28.459  31.206  1.00  0.00     0.029 A 
ATOM     61  C   UNL A   1      44.511  29.149  31.867  1.00  0.00     0.049 A 
ATOM     62  H   UNL A   1      42.540  29.565  31.229  1.00  0.00     0.167 HD
ATOM     63  C   UNL A   1      43.517  30.452  33.718  1.00  0.00     0.074 A 
ATOM     64  C   UNL A   1      43.555  31.084  35.018  1.00  0.00     0.031 C 
ATOM     65  C   UNL A   1      44.556  29.771  33.170  1.00  0.00     0.034 A 
BRANCH  52  66
ATOM     66  C   UNL A   1      43.262  27.403  27.593  1.00  0.00     0.023 A 
ATOM     67  C   UNL A   1      43.199  25.999  27.621  1.00  0.00     0.031 A 
ATOM     68  C   UNL A   1      43.786  28.013  26.438  1.00  0.00     0.131 A 
ATOM     69  C   UNL A   1      43.720  25.253  26.550  1.00  0.00     0.055 A 
ATOM     70  C   UNL A   1      44.219  27.268  25.341  1.00  0.00     0.041 A 
ATOM     71  F   UNL A   1      43.888  29.349  26.358  1.00  0.00    -0.206 F 
ATOM     72  C   UNL A   1      44.202  25.878  25.399  1.00  0.00     0.022 A 
BRANCH  69  73
ATOM     73  S   UNL A   1      43.893  23.458  26.749  1.00  0.00     0.124 S 
ATOM     74  O   UNL A   1      43.001  23.200  27.879  1.00  0.00    -0.237 OA
ATOM     75  O   UNL A   1      43.449  22.953  25.456  1.00  0.00    -0.237 OA
ATOM     76  O   UNL A   1      45.315  23.281  27.036  1.00  0.00    -0.744 OA
ENDBRANCH  69  73
ENDBRANCH  52  66
BRANCH  53  77
ATOM     77  C   UNL A   1      39.684  32.730  35.225  1.00  0.00     0.023 A 
ATOM     78  C   UNL A   1      39.022  32.070  36.273  1.00  0.00     0.031 A 
ATOM     79  C   UNL A   1      39.763  34.134  35.281  1.00  0.00     0.131 A 
ATOM     80  C   UNL A   1      38.421  32.812  37.302  1.00  0.00     0.055 A 
ATOM     81  C   UNL A   1      39.220  34.864  36.340  1.00  0.00     0.041 A 
ATOM     82  F   UNL A   1      40.379  34.820  34.304  1.00  0.00    -0.206 F 
ATOM     83  C   UNL A   1      38.531  34.203  37.352  1.00  0.00     0.022 A 
BRANCH  80  84
ATOM     84  S   UNL A   1      37.400  31.941  38.522  1.00  0.00     0.124 S 
ATOM     85  O   UNL A   1      38.198  32.087  39.734  1.00  0.00    -0.237 OA
ATOM     86  O   UNL A   1      36.156  32.703  38.475  1.00  0.00    -0.237 OA
ATOM     87  O   UNL A   1      37.317  30.583  37.989  1.00  0.00    -0.744 OA
ENDBRANCH  80  84
ENDBRANCH  53  77
BRANCH  65  88
ATOM     88  C   UNL A   1      45.852  29.721  33.951  1.00  0.00     0.023 A 
ATOM     89  C   UNL A   1      46.843  30.711  33.824  1.00  0.00     0.031 A 
ATOM     90  C   UNL A   1      46.102  28.654  34.836  1.00  0.00     0.131 A 
ATOM     91  C   UNL A   1      48.057  30.585  34.522  1.00  0.00     0.055 A 
ATOM     92  C   UNL A   1      47.282  28.570  35.579  1.00  0.00     0.041 A 
ATOM     93  F   UNL A   1      45.199  27.674  34.997  1.00  0.00    -0.206 F 
ATOM     94  C   UNL A   1      48.273  29.531  35.413  1.00  0.00     0.022 A 
BRANCH  91  95
ATOM     95  S   UNL A   1      49.393  31.762  34.172  1.00  0.00     0.124 S 
ATOM     96  O   UNL A   1      49.646  32.334  35.489  1.00  0.00    -0.237 OA
ATOM     97  O   UNL A   1      50.441  30.895  33.642  1.00  0.00    -0.237 OA
ATOM     98  O   UNL A   1      48.798  32.679  33.200  1.00  0.00    -0.744 OA
ENDBRANCH  91  95
ENDBRANCH  65  88
ENDBRANCH  39  40
ENDBRANCH  31  34
ENDBRANCH  29  30
ENDBRANCH  28  29
ENDBRANCH   1  28
TORSDOF 18
ENDMDL
MODEL 3
REMARK VINA RESULT:     -12.0      2.284      7.639
REMARK SMILES O=C(CNC(=O)CN1C(=O)S/C(=C\c2cccc(Br)c2)C1=O)NCCCCNC(=O)c1ccc(-c2c3nc(c(-c4cc(S(=O)(=O)[O-])ccc4F)c4ccc([nH]4)c(-c4cc(S(=O)(=O)[O-])ccc4F)c4nc(c(-c5cc(S(=O)(=O)[O-])ccc5F)c5ccc2[nH]5)C=C4)C=C3)cc1
REMARK SMILES IDX 25 1 24 2 23 3 1 4 2 5 3 7 4 8 5 9 6 11 7 12 8 13 9 14 21 15
REMARK SMILES IDX 10 16 11 17 12 18 22 19 13 20 14 21 15 22 20 23 16 24 18 25
REMARK SMILES IDX 17 26 19 27 26 28 27 29 28 30 29 31 30 33 31 34 32 35 93 36
REMARK SMILES IDX 33 37 92 38 34 39 35 40 36 41 86 42 37 43 91 44 85 45 87 46
REMARK SMILES IDX 38 47 90 48 84 49 83 50 39 52 71 53 51 54 70 55 52 56 55 57
REMARK SMILES IDX 69 58 88 59 53 60 54 61 68 63 89 64 56 65 40 66 41 67 49 68
REMARK SMILES IDX 42 69 48 70 50 71 47 72 43 73 44 74 45 75 46 76 72 77 73 78
REMARK SMILES IDX 81 79 74 80 80 81 82 82 79 83 75 84 76 85 77 86 78 87 57 88
REMARK SMILES IDX 58 89 66 90 59 91 65 92 67 93 64 94 60 95 61 96 62 97 63 98
REMARK H PARENT 23 6 4 10 28 32 87 51 55 62
REMARK Flexibility Score: inf
ROOT
ATOM      1  C   UNL A   1      33.807  28.909  24.589  1.00  0.00     0.023 C 
ENDROOT
BRANCH   1   2
ATOM      2  C   UNL A   1      32.778  28.668  23.487  1.00  0.00     0.116 C 
BRANCH   2   3
ATOM      3  N   UNL A   1      32.214  27.332  23.558  1.00  0.00    -0.355 N 
ATOM      4  O   UNL A   1      30.523  27.664  22.042  1.00  0.00    -0.273 OA
ATOM      5  C   UNL A   1      31.105  26.938  22.841  1.00  0.00     0.239 C 
ATOM      6  H   UNL A   1      32.647  26.674  24.149  1.00  0.00     0.163 HD
BRANCH   5   7
ATOM      7  C   UNL A   1      30.566  25.553  23.224  1.00  0.00     0.216 C 
BRANCH   7   8
ATOM      8  N   UNL A   1      29.839  25.566  24.486  1.00  0.00    -0.345 N 
ATOM      9  C   UNL A   1      30.271  25.377  25.761  1.00  0.00     0.240 C 
ATOM     10  H   UNL A   1      28.875  25.741  24.402  1.00  0.00     0.164 HD
ATOM     11  O   UNL A   1      29.500  25.742  26.653  1.00  0.00    -0.273 OA
BRANCH   9  12
ATOM     12  C   UNL A   1      31.688  24.907  26.097  1.00  0.00     0.229 C 
BRANCH  12  13
ATOM     13  N   UNL A   1      32.168  23.714  25.415  1.00  0.00    -0.259 N 
ATOM     14  C   UNL A   1      33.317  23.732  24.675  1.00  0.00     0.294 C 
ATOM     15  C   UNL A   1      31.622  22.476  25.667  1.00  0.00     0.268 C 
ATOM     16  O   UNL A   1      34.001  24.711  24.413  1.00  0.00    -0.261 OA
ATOM     17  S   UNL A   1      33.720  22.115  24.127  1.00  0.00    -0.022 SA
ATOM     18  C   UNL A   1      32.428  21.401  25.007  1.00  0.00     0.083 C 
ATOM     19  O   UNL A   1      30.577  22.273  26.267  1.00  0.00    -0.268 OA
ATOM     20  C   UNL A   1      32.087  20.104  25.068  1.00  0.00     0.029 C 
BRANCH  20  21
ATOM     21  C   UNL A   1      32.709  18.989  24.333  1.00  0.00    -0.023 A 
ATOM     22  C   UNL A   1      32.427  18.739  22.992  1.00  0.00     0.008 A 
ATOM     23  C   UNL A   1      33.633  18.158  24.979  1.00  0.00     0.023 A 
ATOM     24  C   UNL A   1      33.035  17.661  22.332  1.00  0.00     0.002 A 
ATOM     25  C   UNL A   1      34.210  17.066  24.337  1.00  0.00     0.018 A 
ATOM     26  C   UNL A   1      33.915  16.813  23.009  1.00  0.00     0.016 A 
ATOM     27  Br  UNL A   1      35.383  15.935  25.295  1.00  0.00    -0.051 Br
ENDBRANCH  20  21
ENDBRANCH  12  13
ENDBRANCH   9  12
ENDBRANCH   7   8
ENDBRANCH   5   7
ENDBRANCH   2   3
ENDBRANCH   1   2
BRANCH   1  28
ATOM     28  C   UNL A   1      33.692  27.932  25.756  1.00  0.00     0.023 C 
BRANCH  28  29
ATOM     29  C   UNL A   1      33.155  28.470  27.089  1.00  0.00     0.116 C 
BRANCH  29  30
ATOM     30  N   UNL A   1      33.312  29.907  27.260  1.00  0.00    -0.352 N 
ATOM     31  C   UNL A   1      34.333  30.698  27.749  1.00  0.00     0.251 C 
ATOM     32  H   UNL A   1      32.525  30.421  26.966  1.00  0.00     0.163 HD
ATOM     33  O   UNL A   1      34.122  31.911  27.789  1.00  0.00    -0.269 OA
BRANCH  31  34
ATOM     34  C   UNL A   1      35.634  30.181  28.278  1.00  0.00     0.039 A 
ATOM     35  C   UNL A   1      36.743  30.198  27.414  1.00  0.00     0.014 A 
ATOM     36  C   UNL A   1      35.800  29.616  29.542  1.00  0.00     0.014 A 
ATOM     37  C   UNL A   1      37.994  29.699  27.817  1.00  0.00     0.010 A 
ATOM     38  C   UNL A   1      37.068  29.172  29.967  1.00  0.00     0.010 A 
ATOM     39  C   UNL A   1      38.185  29.197  29.112  1.00  0.00    -0.014 A 
BRANCH  39  40
ATOM     40  C   UNL A   1      39.516  28.671  29.567  1.00  0.00     0.031 A 
ATOM     41  C   UNL A   1      40.294  29.379  30.655  1.00  0.00     0.074 A 
ATOM     42  C   UNL A   1      40.063  27.577  28.995  1.00  0.00     0.049 A 
ATOM     43  N   UNL A   1      41.499  29.136  31.112  1.00  0.00    -0.248 NA
ATOM     44  C   UNL A   1      39.630  30.520  31.301  1.00  0.00     0.031 C 
ATOM     45  C   UNL A   1      39.440  26.770  27.945  1.00  0.00     0.029 A 
ATOM     46  N   UNL A   1      41.276  26.957  29.206  1.00  0.00    -0.354 N 
ATOM     47  C   UNL A   1      41.746  30.102  32.086  1.00  0.00     0.074 A 
ATOM     48  C   UNL A   1      40.579  30.962  32.114  1.00  0.00     0.031 C 
ATOM     49  C   UNL A   1      40.264  25.761  27.616  1.00  0.00     0.029 A 
ATOM     50  C   UNL A   1      41.503  25.874  28.385  1.00  0.00     0.049 A 
ATOM     51  H   UNL A   1      41.924  27.261  29.883  1.00  0.00     0.167 HD
ATOM     52  C   UNL A   1      42.831  30.256  32.889  1.00  0.00     0.034 A 
ATOM     53  C   UNL A   1      42.583  25.076  28.241  1.00  0.00     0.034 A 
ATOM     54  C   UNL A   1      43.991  29.395  32.871  1.00  0.00     0.049 A 
ATOM     55  C   UNL A   1      43.811  25.313  29.092  1.00  0.00     0.074 A 
ATOM     56  C   UNL A   1      45.114  29.449  33.683  1.00  0.00     0.029 A 
ATOM     57  N   UNL A   1      44.194  28.337  31.996  1.00  0.00    -0.354 N 
ATOM     58  N   UNL A   1      44.012  26.218  30.020  1.00  0.00    -0.248 NA
ATOM     59  C   UNL A   1      44.955  24.416  28.875  1.00  0.00     0.031 C 
ATOM     60  C   UNL A   1      46.028  28.486  33.241  1.00  0.00     0.029 A 
ATOM     61  C   UNL A   1      45.439  27.763  32.219  1.00  0.00     0.049 A 
ATOM     62  H   UNL A   1      43.548  28.038  31.316  1.00  0.00     0.167 HD
ATOM     63  C   UNL A   1      45.288  25.969  30.524  1.00  0.00     0.074 A 
ATOM     64  C   UNL A   1      45.805  24.825  29.805  1.00  0.00     0.031 C 
ATOM     65  C   UNL A   1      45.966  26.626  31.501  1.00  0.00     0.034 A 
BRANCH  52  66
ATOM     66  C   UNL A   1      42.837  31.434  33.841  1.00  0.00     0.023 A 
ATOM     67  C   UNL A   1      42.312  31.342  35.141  1.00  0.00     0.031 A 
ATOM     68  C   UNL A   1      43.379  32.669  33.439  1.00  0.00     0.131 A 
ATOM     69  C   UNL A   1      42.272  32.480  35.963  1.00  0.00     0.055 A 
ATOM     70  C   UNL A   1      43.417  33.772  34.293  1.00  0.00     0.041 A 
ATOM     71  F   UNL A   1      43.881  32.825  32.203  1.00  0.00    -0.206 F 
ATOM     72  C   UNL A   1      42.847  33.686  35.559  1.00  0.00     0.022 A 
BRANCH  69  73
ATOM     73  S   UNL A   1      41.326  32.400  37.508  1.00  0.00     0.124 S 
ATOM     74  O   UNL A   1      40.108  31.719  37.072  1.00  0.00    -0.237 OA
ATOM     75  O   UNL A   1      42.208  31.634  38.380  1.00  0.00    -0.237 OA
ATOM     76  O   UNL A   1      41.147  33.803  37.874  1.00  0.00    -0.744 OA
ENDBRANCH  69  73
ENDBRANCH  52  66
BRANCH  53  77
ATOM     77  C   UNL A   1      42.588  23.982  27.221  1.00  0.00     0.023 A 
ATOM     78  C   UNL A   1      41.947  22.757  27.467  1.00  0.00     0.031 A 
ATOM     79  C   UNL A   1      43.299  24.118  26.015  1.00  0.00     0.131 A 
ATOM     80  C   UNL A   1      42.074  21.701  26.549  1.00  0.00     0.055 A 
ATOM     81  C   UNL A   1      43.369  23.088  25.075  1.00  0.00     0.041 A 
ATOM     82  F   UNL A   1      43.937  25.266  25.728  1.00  0.00    -0.206 F 
ATOM     83  C   UNL A   1      42.765  21.865  25.347  1.00  0.00     0.022 A 
BRANCH  80  84
ATOM     84  S   UNL A   1      41.411  20.073  26.997  1.00  0.00     0.124 S 
ATOM     85  O   UNL A   1      42.588  19.224  26.852  1.00  0.00    -0.237 OA
ATOM     86  O   UNL A   1      40.946  20.300  28.361  1.00  0.00    -0.237 OA
ATOM     87  O   UNL A   1      40.356  19.852  26.010  1.00  0.00    -0.744 OA
ENDBRANCH  80  84
ENDBRANCH  53  77
BRANCH  65  88
ATOM     88  C   UNL A   1      47.325  26.088  31.896  1.00  0.00     0.023 A 
ATOM     89  C   UNL A   1      47.496  25.205  32.978  1.00  0.00     0.031 A 
ATOM     90  C   UNL A   1      48.473  26.473  31.177  1.00  0.00     0.131 A 
ATOM     91  C   UNL A   1      48.787  24.786  33.345  1.00  0.00     0.055 A 
ATOM     92  C   UNL A   1      49.745  25.999  31.504  1.00  0.00     0.041 A 
ATOM     93  F   UNL A   1      48.377  27.318  30.138  1.00  0.00    -0.206 F 
ATOM     94  C   UNL A   1      49.909  25.161  32.602  1.00  0.00     0.022 A 
BRANCH  91  95
ATOM     95  S   UNL A   1      48.993  23.824  34.870  1.00  0.00     0.124 S 
ATOM     96  O   UNL A   1      48.560  22.496  34.452  1.00  0.00    -0.237 OA
ATOM     97  O   UNL A   1      50.419  23.974  35.143  1.00  0.00    -0.237 OA
ATOM     98  O   UNL A   1      48.108  24.495  35.822  1.00  0.00    -0.744 OA
ENDBRANCH  91  95
ENDBRANCH  65  88
ENDBRANCH  39  40
ENDBRANCH  31  34
ENDBRANCH  29  30
ENDBRANCH  28  29
ENDBRANCH   1  28
TORSDOF 18
ENDMDL
