MODEL 1
REMARK VINA RESULT:     -12.7      0.000      0.000
REMARK SMILES O=C(NCCCCNC(=O)[C@@H]1CCCN1S(=O)(=O)c1ccc2[nH]c(=O)c(=O)[nH]c2c1)c1ccc(-c2c3nc(c(-c4cc(S(=O)(=O)[O-])ccc4F)c4ccc([nH]4)c(-c4cc(S(=O)(=O)[O-])ccc4F)c4nc(c(-c5cc(S(=O)(=O)[O-])ccc5F)c5ccc2[nH]5)C=C4)C=C3)cc1
REMARK SMILES IDX 5 1 4 2 3 3 1 4 2 5 31 7 32 8 93 9 33 10 92 11 34 12 35 13
REMARK SMILES IDX 36 14 86 15 37 16 91 17 85 18 87 19 38 20 90 21 84 22 83 23
REMARK SMILES IDX 39 25 71 26 51 27 70 28 52 29 55 30 69 31 88 32 53 33 54 34
REMARK SMILES IDX 68 36 89 37 56 38 40 39 41 40 49 41 42 42 48 43 50 44 47 45
REMARK SMILES IDX 43 46 44 47 45 48 46 49 72 50 73 51 81 52 74 53 80 54 82 55
REMARK SMILES IDX 79 56 75 57 76 58 77 59 78 60 57 61 58 62 66 63 59 64 65 65
REMARK SMILES IDX 67 66 64 67 60 68 61 69 62 70 63 71 6 72 7 73 8 74 9 75
REMARK SMILES IDX 10 77 11 78 12 79 15 80 13 81 14 82 16 83 17 84 18 85 19 86
REMARK SMILES IDX 20 87 30 88 21 89 29 90 22 91 28 92 23 93 26 94 24 96 27 98
REMARK SMILES IDX 25 99
REMARK H PARENT 3 6 87 24 55 35 8 76 28 95 23 97
REMARK Flexibility Score: inf
ROOT
ATOM      1  C   UNL A   1      35.479  22.128  24.413  1.00  0.00     0.023 C 
ENDROOT
BRANCH   1   2
ATOM      2  C   UNL A   1      36.266  22.106  25.719  1.00  0.00     0.116 C 
BRANCH   2   3
ATOM      3  N   UNL A   1      37.219  21.007  25.773  1.00  0.00    -0.352 N 
ATOM      4  O   UNL A   1      39.246  20.026  25.751  1.00  0.00    -0.269 OA
ATOM      5  C   UNL A   1      38.585  21.044  25.938  1.00  0.00     0.251 C 
ATOM      6  H   UNL A   1      36.830  20.108  25.680  1.00  0.00     0.163 HD
BRANCH   5   7
ATOM      7  C   UNL A   1      39.248  22.307  26.329  1.00  0.00     0.039 A 
ATOM      8  C   UNL A   1      38.761  23.526  25.861  1.00  0.00     0.014 A 
ATOM      9  C   UNL A   1      40.353  22.280  27.184  1.00  0.00     0.014 A 
ATOM     10  C   UNL A   1      39.461  24.699  26.115  1.00  0.00     0.010 A 
ATOM     11  C   UNL A   1      41.001  23.477  27.518  1.00  0.00     0.010 A 
ATOM     12  C   UNL A   1      40.580  24.695  26.961  1.00  0.00    -0.014 A 
BRANCH  12  13
ATOM     13  C   UNL A   1      41.252  25.984  27.283  1.00  0.00     0.031 A 
ATOM     14  C   UNL A   1      40.576  27.019  28.141  1.00  0.00     0.074 A 
ATOM     15  C   UNL A   1      42.501  26.199  26.824  1.00  0.00     0.049 A 
ATOM     16  N   UNL A   1      41.006  28.200  28.506  1.00  0.00    -0.248 NA
ATOM     17  C   UNL A   1      39.237  26.688  28.648  1.00  0.00     0.031 C 
ATOM     18  C   UNL A   1      43.267  25.260  25.999  1.00  0.00     0.029 A 
ATOM     19  N   UNL A   1      43.356  27.257  26.997  1.00  0.00    -0.354 N 
ATOM     20  C   UNL A   1      39.989  28.762  29.270  1.00  0.00     0.074 A 
ATOM     21  C   UNL A   1      38.904  27.803  29.285  1.00  0.00     0.031 C 
ATOM     22  C   UNL A   1      44.491  25.761  25.781  1.00  0.00     0.029 A 
ATOM     23  C   UNL A   1      44.574  27.088  26.379  1.00  0.00     0.049 A 
ATOM     24  H   UNL A   1      43.121  28.062  27.514  1.00  0.00     0.167 HD
ATOM     25  C   UNL A   1      39.969  29.963  29.903  1.00  0.00     0.034 A 
ATOM     26  C   UNL A   1      45.634  27.913  26.280  1.00  0.00     0.034 A 
ATOM     27  C   UNL A   1      41.067  30.904  29.882  1.00  0.00     0.049 A 
ATOM     28  C   UNL A   1      45.563  29.259  26.945  1.00  0.00     0.074 A 
ATOM     29  C   UNL A   1      41.158  32.137  30.505  1.00  0.00     0.029 A 
ATOM     30  N   UNL A   1      42.262  30.720  29.197  1.00  0.00    -0.354 N 
ATOM     31  N   UNL A   1      44.590  29.779  27.657  1.00  0.00    -0.248 NA
ATOM     32  C   UNL A   1      46.733  30.132  26.794  1.00  0.00     0.031 C 
ATOM     33  C   UNL A   1      42.375  32.726  30.142  1.00  0.00     0.029 A 
ATOM     34  C   UNL A   1      43.080  31.830  29.353  1.00  0.00     0.049 A 
ATOM     35  H   UNL A   1      42.495  29.919  28.675  1.00  0.00     0.167 HD
ATOM     36  C   UNL A   1      45.040  31.034  28.055  1.00  0.00     0.074 A 
ATOM     37  C   UNL A   1      46.378  31.181  27.520  1.00  0.00     0.031 C 
ATOM     38  C   UNL A   1      44.404  31.976  28.797  1.00  0.00     0.034 A 
BRANCH  25  39
ATOM     39  C   UNL A   1      38.699  30.347  30.629  1.00  0.00     0.023 A 
ATOM     40  C   UNL A   1      37.648  31.023  29.986  1.00  0.00     0.031 A 
ATOM     41  C   UNL A   1      38.546  30.043  31.994  1.00  0.00     0.131 A 
ATOM     42  C   UNL A   1      36.523  31.433  30.721  1.00  0.00     0.055 A 
ATOM     43  C   UNL A   1      37.391  30.384  32.702  1.00  0.00     0.041 A 
ATOM     44  F   UNL A   1      39.523  29.416  32.669  1.00  0.00    -0.206 F 
ATOM     45  C   UNL A   1      36.377  31.096  32.069  1.00  0.00     0.022 A 
BRANCH  42  46
ATOM     46  S   UNL A   1      35.315  32.529  29.926  1.00  0.00     0.124 S 
ATOM     47  O   UNL A   1      34.387  32.795  31.023  1.00  0.00    -0.237 OA
ATOM     48  O   UNL A   1      36.139  33.654  29.501  1.00  0.00    -0.237 OA
ATOM     49  O   UNL A   1      34.768  31.711  28.845  1.00  0.00    -0.744 OA
ENDBRANCH  42  46
ENDBRANCH  25  39
BRANCH  26  50
ATOM     50  C   UNL A   1      46.826  27.508  25.481  1.00  0.00     0.023 A 
ATOM     51  C   UNL A   1      46.977  27.905  24.143  1.00  0.00     0.031 A 
ATOM     52  C   UNL A   1      47.822  26.690  26.044  1.00  0.00     0.131 A 
ATOM     53  C   UNL A   1      48.080  27.453  23.403  1.00  0.00     0.055 A 
ATOM     54  C   UNL A   1      48.948  26.293  25.321  1.00  0.00     0.041 A 
ATOM     55  F   UNL A   1      47.726  26.280  27.319  1.00  0.00    -0.206 F 
ATOM     56  C   UNL A   1      49.074  26.664  23.986  1.00  0.00     0.022 A 
BRANCH  53  57
ATOM     57  S   UNL A   1      48.157  27.838  21.631  1.00  0.00     0.124 S 
ATOM     58  O   UNL A   1      46.860  28.466  21.406  1.00  0.00    -0.237 OA
ATOM     59  O   UNL A   1      49.318  28.720  21.560  1.00  0.00    -0.237 OA
ATOM     60  O   UNL A   1      48.333  26.529  21.005  1.00  0.00    -0.744 OA
ENDBRANCH  53  57
ENDBRANCH  26  50
BRANCH  38  61
ATOM     61  C   UNL A   1      45.178  33.236  29.098  1.00  0.00     0.023 A 
ATOM     62  C   UNL A   1      45.117  34.359  28.255  1.00  0.00     0.031 A 
ATOM     63  C   UNL A   1      46.012  33.300  30.229  1.00  0.00     0.131 A 
ATOM     64  C   UNL A   1      45.918  35.479  28.525  1.00  0.00     0.055 A 
ATOM     65  C   UNL A   1      46.763  34.438  30.523  1.00  0.00     0.041 A 
ATOM     66  F   UNL A   1      46.110  32.254  31.065  1.00  0.00    -0.206 F 
ATOM     67  C   UNL A   1      46.729  35.531  29.662  1.00  0.00     0.022 A 
BRANCH  64  68
ATOM     68  S   UNL A   1      45.959  36.835  27.319  1.00  0.00     0.124 S 
ATOM     69  O   UNL A   1      46.709  36.239  26.217  1.00  0.00    -0.237 OA
ATOM     70  O   UNL A   1      44.541  37.074  27.071  1.00  0.00    -0.237 OA
ATOM     71  O   UNL A   1      46.651  37.907  28.031  1.00  0.00    -0.744 OA
ENDBRANCH  64  68
ENDBRANCH  38  61
ENDBRANCH  12  13
ENDBRANCH   5   7
ENDBRANCH   2   3
ENDBRANCH   1   2
BRANCH   1  72
ATOM     72  C   UNL A   1      35.684  23.387  23.569  1.00  0.00     0.023 C 
BRANCH  72  73
ATOM     73  C   UNL A   1      34.538  24.394  23.634  1.00  0.00     0.116 C 
BRANCH  73  74
ATOM     74  N   UNL A   1      34.677  25.322  24.744  1.00  0.00    -0.355 N 
ATOM     75  C   UNL A   1      33.709  26.131  25.284  1.00  0.00     0.238 C 
ATOM     76  H   UNL A   1      35.569  25.376  25.157  1.00  0.00     0.163 HD
ATOM     77  O   UNL A   1      34.002  26.881  26.213  1.00  0.00    -0.273 OA
BRANCH  75  78
ATOM     78  C   UNL A   1      32.333  26.091  24.666  1.00  0.00     0.162 C 
ATOM     79  C   UNL A   1      31.265  26.894  25.391  1.00  0.00     0.032 C 
ATOM     80  N   UNL A   1      31.670  24.780  24.373  1.00  0.00    -0.185 NA
ATOM     81  C   UNL A   1      30.018  26.561  24.584  1.00  0.00     0.019 C 
ATOM     82  C   UNL A   1      30.289  25.200  23.929  1.00  0.00     0.103 C 
BRANCH  80  83
ATOM     83  S   UNL A   1      31.563  23.556  25.579  1.00  0.00     0.243 S 
ATOM     84  O   UNL A   1      32.618  23.784  26.549  1.00  0.00    -0.207 OA
ATOM     85  O   UNL A   1      30.185  23.544  26.013  1.00  0.00    -0.207 OA
BRANCH  83  86
ATOM     86  C   UNL A   1      31.860  21.982  24.814  1.00  0.00     0.084 A 
ATOM     87  C   UNL A   1      31.910  21.887  23.418  1.00  0.00     0.024 A 
ATOM     88  C   UNL A   1      32.232  20.888  25.606  1.00  0.00     0.050 A 
ATOM     89  C   UNL A   1      32.194  20.666  22.804  1.00  0.00     0.030 A 
ATOM     90  C   UNL A   1      32.582  19.690  24.985  1.00  0.00     0.066 A 
ATOM     91  C   UNL A   1      32.528  19.568  23.591  1.00  0.00     0.065 A 
ATOM     92  N   UNL A   1      33.007  18.606  25.755  1.00  0.00    -0.316 N 
ATOM     93  N   UNL A   1      32.823  18.349  22.983  1.00  0.00    -0.316 N 
ATOM     94  C   UNL A   1      33.374  17.391  25.215  1.00  0.00     0.314 A 
ATOM     95  H   UNL A   1      33.048  18.715  26.733  1.00  0.00     0.170 HD
ATOM     96  C   UNL A   1      33.225  17.235  23.683  1.00  0.00     0.314 A 
ATOM     97  H   UNL A   1      32.741  18.282  22.004  1.00  0.00     0.170 HD
ATOM     98  O   UNL A   1      33.754  16.471  25.925  1.00  0.00    -0.263 OA
ATOM     99  O   UNL A   1      33.434  16.167  23.126  1.00  0.00    -0.263 OA
ENDBRANCH  83  86
ENDBRANCH  80  83
ENDBRANCH  75  78
ENDBRANCH  73  74
ENDBRANCH  72  73
ENDBRANCH   1  72
TORSDOF 16
ENDMDL
MODEL 2
REMARK VINA RESULT:     -12.5      4.966      7.414
REMARK SMILES O=C(NCCCCNC(=O)[C@@H]1CCCN1S(=O)(=O)c1ccc2[nH]c(=O)c(=O)[nH]c2c1)c1ccc(-c2c3nc(c(-c4cc(S(=O)(=O)[O-])ccc4F)c4ccc([nH]4)c(-c4cc(S(=O)(=O)[O-])ccc4F)c4nc(c(-c5cc(S(=O)(=O)[O-])ccc5F)c5ccc2[nH]5)C=C4)C=C3)cc1
REMARK SMILES IDX 5 1 4 2 3 3 1 4 2 5 31 7 32 8 93 9 33 10 92 11 34 12 35 13
REMARK SMILES IDX 36 14 86 15 37 16 91 17 85 18 87 19 38 20 90 21 84 22 83 23
REMARK SMILES IDX 39 25 71 26 51 27 70 28 52 29 55 30 69 31 88 32 53 33 54 34
REMARK SMILES IDX 68 36 89 37 56 38 40 39 41 40 49 41 42 42 48 43 50 44 47 45
REMARK SMILES IDX 43 46 44 47 45 48 46 49 72 50 73 51 81 52 74 53 80 54 82 55
REMARK SMILES IDX 79 56 75 57 76 58 77 59 78 60 57 61 58 62 66 63 59 64 65 65
REMARK SMILES IDX 67 66 64 67 60 68 61 69 62 70 63 71 6 72 7 73 8 74 9 75
REMARK SMILES IDX 10 77 11 78 12 79 15 80 13 81 14 82 16 83 17 84 18 85 19 86
REMARK SMILES IDX 20 87 30 88 21 89 29 90 22 91 28 92 23 93 26 94 24 96 27 98
REMARK SMILES IDX 25 99
REMARK H PARENT 3 6 87 24 55 35 8 76 28 95 23 97
REMARK Flexibility Score: inf
ROOT
ATOM      1  C   UNL A   1      32.755  27.888  26.684  1.00  0.00     0.023 C 
ENDROOT
BRANCH   1   2
ATOM      2  C   UNL A   1      33.878  28.777  26.159  1.00  0.00     0.116 C 
BRANCH   2   3
ATOM      3  N   UNL A   1      33.747  30.156  26.605  1.00  0.00    -0.352 N 
ATOM      4  O   UNL A   1      34.118  31.948  27.919  1.00  0.00    -0.269 OA
ATOM      5  C   UNL A   1      34.506  30.854  27.517  1.00  0.00     0.251 C 
ATOM      6  H   UNL A   1      33.010  30.663  26.194  1.00  0.00     0.163 HD
BRANCH   5   7
ATOM      7  C   UNL A   1      35.776  30.281  28.014  1.00  0.00     0.039 A 
ATOM      8  C   UNL A   1      35.811  29.615  29.237  1.00  0.00     0.014 A 
ATOM      9  C   UNL A   1      36.938  30.391  27.247  1.00  0.00     0.014 A 
ATOM     10  C   UNL A   1      37.025  29.196  29.768  1.00  0.00     0.010 A 
ATOM     11  C   UNL A   1      38.146  29.883  27.742  1.00  0.00     0.010 A 
ATOM     12  C   UNL A   1      38.207  29.307  29.022  1.00  0.00    -0.014 A 
BRANCH  12  13
ATOM     13  C   UNL A   1      39.475  28.768  29.585  1.00  0.00     0.031 A 
ATOM     14  C   UNL A   1      40.066  29.334  30.848  1.00  0.00     0.074 A 
ATOM     15  C   UNL A   1      40.075  27.732  28.965  1.00  0.00     0.049 A 
ATOM     16  N   UNL A   1      41.169  28.998  31.468  1.00  0.00    -0.248 NA
ATOM     17  C   UNL A   1      39.325  30.426  31.495  1.00  0.00     0.031 C 
ATOM     18  C   UNL A   1      39.584  27.086  27.743  1.00  0.00     0.029 A 
ATOM     19  N   UNL A   1      41.207  27.025  29.278  1.00  0.00    -0.354 N 
ATOM     20  C   UNL A   1      41.267  29.845  32.566  1.00  0.00     0.074 A 
ATOM     21  C   UNL A   1      40.126  30.735  32.507  1.00  0.00     0.031 C 
ATOM     22  C   UNL A   1      40.381  26.051  27.442  1.00  0.00     0.029 A 
ATOM     23  C   UNL A   1      41.482  26.005  28.396  1.00  0.00     0.049 A 
ATOM     24  H   UNL A   1      41.770  27.228  30.060  1.00  0.00     0.167 HD
ATOM     25  C   UNL A   1      42.218  29.870  33.535  1.00  0.00     0.034 A 
ATOM     26  C   UNL A   1      42.514  25.142  28.341  1.00  0.00     0.034 A 
ATOM     27  C   UNL A   1      43.346  28.967  33.581  1.00  0.00     0.049 A 
ATOM     28  C   UNL A   1      43.581  25.228  29.397  1.00  0.00     0.074 A 
ATOM     29  C   UNL A   1      44.353  28.893  34.528  1.00  0.00     0.029 A 
ATOM     30  N   UNL A   1      43.620  27.984  32.637  1.00  0.00    -0.354 N 
ATOM     31  N   UNL A   1      43.664  26.040  30.425  1.00  0.00    -0.248 NA
ATOM     32  C   UNL A   1      44.696  24.280  29.285  1.00  0.00     0.031 C 
ATOM     33  C   UNL A   1      45.271  27.917  34.121  1.00  0.00     0.029 A 
ATOM     34  C   UNL A   1      44.798  27.325  32.960  1.00  0.00     0.049 A 
ATOM     35  H   UNL A   1      43.061  27.785  31.852  1.00  0.00     0.167 HD
ATOM     36  C   UNL A   1      44.831  25.688  31.094  1.00  0.00     0.074 A 
ATOM     37  C   UNL A   1      45.407  24.577  30.364  1.00  0.00     0.031 C 
ATOM     38  C   UNL A   1      45.374  26.233  32.212  1.00  0.00     0.034 A 
BRANCH  25  39
ATOM     39  C   UNL A   1      42.104  30.942  34.596  1.00  0.00     0.023 A 
ATOM     40  C   UNL A   1      42.715  32.200  34.453  1.00  0.00     0.031 A 
ATOM     41  C   UNL A   1      41.383  30.693  35.777  1.00  0.00     0.131 A 
ATOM     42  C   UNL A   1      42.651  33.134  35.501  1.00  0.00     0.055 A 
ATOM     43  C   UNL A   1      41.257  31.654  36.783  1.00  0.00     0.041 A 
ATOM     44  F   UNL A   1      40.793  29.503  35.982  1.00  0.00    -0.206 F 
ATOM     45  C   UNL A   1      41.906  32.879  36.654  1.00  0.00     0.022 A 
BRANCH  42  46
ATOM     46  S   UNL A   1      43.667  34.634  35.393  1.00  0.00     0.124 S 
ATOM     47  O   UNL A   1      43.850  34.970  36.803  1.00  0.00    -0.237 OA
ATOM     48  O   UNL A   1      44.855  34.163  34.691  1.00  0.00    -0.237 OA
ATOM     49  O   UNL A   1      42.826  35.566  34.645  1.00  0.00    -0.744 OA
ENDBRANCH  42  46
ENDBRANCH  25  39
BRANCH  26  50
ATOM     50  C   UNL A   1      42.611  24.161  27.223  1.00  0.00     0.023 A 
ATOM     51  C   UNL A   1      41.979  22.909  27.294  1.00  0.00     0.031 A 
ATOM     52  C   UNL A   1      43.364  24.456  26.072  1.00  0.00     0.131 A 
ATOM     53  C   UNL A   1      42.144  21.985  26.250  1.00  0.00     0.055 A 
ATOM     54  C   UNL A   1      43.476  23.557  25.011  1.00  0.00     0.041 A 
ATOM     55  F   UNL A   1      43.990  25.638  25.954  1.00  0.00    -0.206 F 
ATOM     56  C   UNL A   1      42.873  22.307  25.103  1.00  0.00     0.022 A 
BRANCH  53  57
ATOM     57  S   UNL A   1      41.461  20.316  26.449  1.00  0.00     0.124 S 
ATOM     58  O   UNL A   1      42.137  19.588  25.380  1.00  0.00    -0.237 OA
ATOM     59  O   UNL A   1      41.866  19.980  27.810  1.00  0.00    -0.237 OA
ATOM     60  O   UNL A   1      40.025  20.511  26.259  1.00  0.00    -0.744 OA
ENDBRANCH  53  57
ENDBRANCH  26  50
BRANCH  38  61
ATOM     61  C   UNL A   1      46.644  25.598  32.725  1.00  0.00     0.023 A 
ATOM     62  C   UNL A   1      46.619  24.535  33.644  1.00  0.00     0.031 A 
ATOM     63  C   UNL A   1      47.895  26.085  32.309  1.00  0.00     0.131 A 
ATOM     64  C   UNL A   1      47.822  24.030  34.161  1.00  0.00     0.055 A 
ATOM     65  C   UNL A   1      49.090  25.541  32.783  1.00  0.00     0.041 A 
ATOM     66  F   UNL A   1      47.977  27.101  31.435  1.00  0.00    -0.206 F 
ATOM     67  C   UNL A   1      49.057  24.516  33.725  1.00  0.00     0.022 A 
BRANCH  64  68
ATOM     68  S   UNL A   1      47.752  22.791  35.485  1.00  0.00     0.124 S 
ATOM     69  O   UNL A   1      48.997  23.042  36.203  1.00  0.00    -0.237 OA
ATOM     70  O   UNL A   1      46.525  23.153  36.187  1.00  0.00    -0.237 OA
ATOM     71  O   UNL A   1      47.699  21.521  34.763  1.00  0.00    -0.744 OA
ENDBRANCH  64  68
ENDBRANCH  38  61
ENDBRANCH  12  13
ENDBRANCH   5   7
ENDBRANCH   2   3
ENDBRANCH   1   2
BRANCH   1  72
ATOM     72  C   UNL A   1      31.505  27.859  25.805  1.00  0.00     0.023 C 
BRANCH  72  73
ATOM     73  C   UNL A   1      31.302  26.564  25.023  1.00  0.00     0.116 C 
BRANCH  73  74
ATOM     74  N   UNL A   1      32.296  26.387  23.976  1.00  0.00    -0.355 N 
ATOM     75  C   UNL A   1      33.304  25.456  23.927  1.00  0.00     0.238 C 
ATOM     76  H   UNL A   1      32.240  27.007  23.214  1.00  0.00     0.163 HD
ATOM     77  O   UNL A   1      34.079  25.460  22.973  1.00  0.00    -0.273 OA
BRANCH  75  78
ATOM     78  C   UNL A   1      33.435  24.500  25.087  1.00  0.00     0.162 C 
ATOM     79  C   UNL A   1      34.812  24.431  25.728  1.00  0.00     0.032 C 
ATOM     80  N   UNL A   1      33.027  23.066  24.939  1.00  0.00    -0.185 NA
ATOM     81  C   UNL A   1      34.624  23.332  26.763  1.00  0.00     0.019 C 
ATOM     82  C   UNL A   1      33.470  22.460  26.249  1.00  0.00     0.103 C 
BRANCH  80  83
ATOM     83  S   UNL A   1      33.598  22.118  23.620  1.00  0.00     0.243 S 
ATOM     84  O   UNL A   1      32.791  22.433  22.455  1.00  0.00    -0.207 OA
ATOM     85  O   UNL A   1      35.028  22.320  23.573  1.00  0.00    -0.207 OA
BRANCH  83  86
ATOM     86  C   UNL A   1      33.346  20.404  24.006  1.00  0.00     0.084 A 
ATOM     87  C   UNL A   1      32.158  19.773  23.621  1.00  0.00     0.024 A 
ATOM     88  C   UNL A   1      34.409  19.648  24.518  1.00  0.00     0.050 A 
ATOM     89  C   UNL A   1      31.968  18.413  23.873  1.00  0.00     0.030 A 
ATOM     90  C   UNL A   1      34.238  18.277  24.702  1.00  0.00     0.066 A 
ATOM     91  C   UNL A   1      33.011  17.668  24.416  1.00  0.00     0.065 A 
ATOM     92  N   UNL A   1      35.304  17.499  25.159  1.00  0.00    -0.316 N 
ATOM     93  N   UNL A   1      32.831  16.307  24.659  1.00  0.00    -0.316 N 
ATOM     94  C   UNL A   1      35.215  16.138  25.363  1.00  0.00     0.314 A 
ATOM     95  H   UNL A   1      36.162  17.945  25.345  1.00  0.00     0.170 HD
ATOM     96  C   UNL A   1      33.830  15.486  25.131  1.00  0.00     0.314 A 
ATOM     97  H   UNL A   1      31.947  15.913  24.483  1.00  0.00     0.170 HD
ATOM     98  O   UNL A   1      36.177  15.491  25.751  1.00  0.00    -0.263 OA
ATOM     99  O   UNL A   1      33.630  14.306  25.376  1.00  0.00    -0.263 OA
ENDBRANCH  83  86
ENDBRANCH  80  83
ENDBRANCH  75  78
ENDBRANCH  73  74
ENDBRANCH  72  73
ENDBRANCH   1  72
TORSDOF 16
ENDMDL
MODEL 3
REMARK VINA RESULT:     -12.5      0.411      7.332
REMARK SMILES O=C(NCCCCNC(=O)[C@@H]1CCCN1S(=O)(=O)c1ccc2[nH]c(=O)c(=O)[nH]c2c1)c1ccc(-c2c3nc(c(-c4cc(S(=O)(=O)[O-])ccc4F)c4ccc([nH]4)c(-c4cc(S(=O)(=O)[O-])ccc4F)c4nc(c(-c5cc(S(=O)(=O)[O-])ccc5F)c5ccc2[nH]5)C=C4)C=C3)cc1
REMARK SMILES IDX 5 1 4 2 3 3 1 4 2 5 31 7 32 8 93 9 33 10 92 11 34 12 35 13
REMARK SMILES IDX 36 14 86 15 37 16 91 17 85 18 87 19 38 20 90 21 84 22 83 23
REMARK SMILES IDX 39 25 71 26 51 27 70 28 52 29 55 30 69 31 88 32 53 33 54 34
REMARK SMILES IDX 68 36 89 37 56 38 40 39 41 40 49 41 42 42 48 43 50 44 47 45
REMARK SMILES IDX 43 46 44 47 45 48 46 49 72 50 73 51 81 52 74 53 80 54 82 55
REMARK SMILES IDX 79 56 75 57 76 58 77 59 78 60 57 61 58 62 66 63 59 64 65 65
REMARK SMILES IDX 67 66 64 67 60 68 61 69 62 70 63 71 6 72 7 73 8 74 9 75
REMARK SMILES IDX 10 77 11 78 12 79 15 80 13 81 14 82 16 83 17 84 18 85 19 86
REMARK SMILES IDX 20 87 30 88 21 89 29 90 22 91 28 92 23 93 26 94 24 96 27 98
REMARK SMILES IDX 25 99
REMARK H PARENT 3 6 87 24 55 35 8 76 28 95 23 97
REMARK Flexibility Score: inf
ROOT
ATOM      1  C   UNL A   1      35.248  22.440  24.976  1.00  0.00     0.023 C 
ENDROOT
BRANCH   1   2
ATOM      2  C   UNL A   1      36.260  22.465  26.116  1.00  0.00     0.116 C 
BRANCH   2   3
ATOM      3  N   UNL A   1      37.231  21.385  26.019  1.00  0.00    -0.352 N 
ATOM      4  O   UNL A   1      39.262  20.448  25.755  1.00  0.00    -0.269 OA
ATOM      5  C   UNL A   1      38.606  21.440  26.060  1.00  0.00     0.251 C 
ATOM      6  H   UNL A   1      36.849  20.484  25.909  1.00  0.00     0.163 HD
BRANCH   5   7
ATOM      7  C   UNL A   1      39.283  22.692  26.462  1.00  0.00     0.039 A 
ATOM      8  C   UNL A   1      38.868  23.912  25.932  1.00  0.00     0.014 A 
ATOM      9  C   UNL A   1      40.327  22.655  27.389  1.00  0.00     0.014 A 
ATOM     10  C   UNL A   1      39.588  25.070  26.202  1.00  0.00     0.010 A 
ATOM     11  C   UNL A   1      40.991  23.839  27.734  1.00  0.00     0.010 A 
ATOM     12  C   UNL A   1      40.647  25.055  27.120  1.00  0.00    -0.014 A 
BRANCH  12  13
ATOM     13  C   UNL A   1      41.339  26.330  27.453  1.00  0.00     0.031 A 
ATOM     14  C   UNL A   1      42.719  26.623  26.929  1.00  0.00     0.074 A 
ATOM     15  C   UNL A   1      40.695  27.244  28.206  1.00  0.00     0.049 A 
ATOM     16  N   UNL A   1      43.476  27.672  27.133  1.00  0.00    -0.248 NA
ATOM     17  C   UNL A   1      43.334  25.601  26.070  1.00  0.00     0.031 C 
ATOM     18  C   UNL A   1      39.345  27.079  28.755  1.00  0.00     0.029 A 
ATOM     19  N   UNL A   1      41.070  28.495  28.625  1.00  0.00    -0.354 N 
ATOM     20  C   UNL A   1      44.661  27.433  26.446  1.00  0.00     0.074 A 
ATOM     21  C   UNL A   1      44.535  26.120  25.847  1.00  0.00     0.031 C 
ATOM     22  C   UNL A   1      38.989  28.203  29.392  1.00  0.00     0.029 A 
ATOM     23  C   UNL A   1      40.108  29.137  29.370  1.00  0.00     0.049 A 
ATOM     24  H   UNL A   1      41.944  28.895  28.412  1.00  0.00     0.167 HD
ATOM     25  C   UNL A   1      45.747  28.238  26.322  1.00  0.00     0.034 A 
ATOM     26  C   UNL A   1      40.126  30.333  29.988  1.00  0.00     0.034 A 
ATOM     27  C   UNL A   1      45.850  29.550  26.922  1.00  0.00     0.049 A 
ATOM     28  C   UNL A   1      41.363  31.181  29.880  1.00  0.00     0.074 A 
ATOM     29  C   UNL A   1      46.895  30.455  26.842  1.00  0.00     0.029 A 
ATOM     30  N   UNL A   1      44.876  30.142  27.717  1.00  0.00    -0.354 N 
ATOM     31  N   UNL A   1      42.479  30.937  29.233  1.00  0.00    -0.248 NA
ATOM     32  C   UNL A   1      41.344  32.468  30.586  1.00  0.00     0.031 C 
ATOM     33  C   UNL A   1      46.584  31.560  27.643  1.00  0.00     0.029 A 
ATOM     34  C   UNL A   1      45.311  31.383  28.162  1.00  0.00     0.049 A 
ATOM     35  H   UNL A   1      44.005  29.741  27.935  1.00  0.00     0.167 HD
ATOM     36  C   UNL A   1      43.288  32.049  29.439  1.00  0.00     0.074 A 
ATOM     37  C   UNL A   1      42.523  32.972  30.252  1.00  0.00     0.031 C 
ATOM     38  C   UNL A   1      44.548  32.285  28.992  1.00  0.00     0.034 A 
BRANCH  25  39
ATOM     39  C   UNL A   1      46.930  27.699  25.549  1.00  0.00     0.023 A 
ATOM     40  C   UNL A   1      47.163  28.045  24.207  1.00  0.00     0.031 A 
ATOM     41  C   UNL A   1      47.830  26.811  26.164  1.00  0.00     0.131 A 
ATOM     42  C   UNL A   1      48.228  27.455  23.506  1.00  0.00     0.055 A 
ATOM     43  C   UNL A   1      48.932  26.287  25.485  1.00  0.00     0.041 A 
ATOM     44  F   UNL A   1      47.649  26.427  27.439  1.00  0.00    -0.206 F 
ATOM     45  C   UNL A   1      49.128  26.597  24.142  1.00  0.00     0.022 A 
BRANCH  42  46
ATOM     46  S   UNL A   1      48.341  27.717  21.713  1.00  0.00     0.124 S 
ATOM     47  O   UNL A   1      48.652  26.372  21.235  1.00  0.00    -0.237 OA
ATOM     48  O   UNL A   1      47.014  28.220  21.381  1.00  0.00    -0.237 OA
ATOM     49  O   UNL A   1      49.429  28.684  21.575  1.00  0.00    -0.744 OA
ENDBRANCH  42  46
ENDBRANCH  25  39
BRANCH  26  50
ATOM     50  C   UNL A   1      38.957  30.773  30.802  1.00  0.00     0.023 A 
ATOM     51  C   UNL A   1      37.823  31.341  30.202  1.00  0.00     0.031 A 
ATOM     52  C   UNL A   1      38.973  30.653  32.204  1.00  0.00     0.131 A 
ATOM     53  C   UNL A   1      36.767  31.802  31.005  1.00  0.00     0.055 A 
ATOM     54  C   UNL A   1      37.895  31.058  32.992  1.00  0.00     0.041 A 
ATOM     55  F   UNL A   1      40.034  30.119  32.829  1.00  0.00    -0.206 F 
ATOM     56  C   UNL A   1      36.788  31.649  32.393  1.00  0.00     0.022 A 
BRANCH  53  57
ATOM     57  S   UNL A   1      35.395  32.687  30.214  1.00  0.00     0.124 S 
ATOM     58  O   UNL A   1      34.406  32.724  31.285  1.00  0.00    -0.237 OA
ATOM     59  O   UNL A   1      36.012  33.963  29.868  1.00  0.00    -0.237 OA
ATOM     60  O   UNL A   1      35.051  31.836  29.077  1.00  0.00    -0.744 OA
ENDBRANCH  53  57
ENDBRANCH  26  50
BRANCH  38  61
ATOM     61  C   UNL A   1      45.155  33.619  29.354  1.00  0.00     0.023 A 
ATOM     62  C   UNL A   1      45.034  34.738  28.512  1.00  0.00     0.031 A 
ATOM     63  C   UNL A   1      45.887  33.762  30.546  1.00  0.00     0.131 A 
ATOM     64  C   UNL A   1      45.686  35.936  28.845  1.00  0.00     0.055 A 
ATOM     65  C   UNL A   1      46.485  34.972  30.900  1.00  0.00     0.041 A 
ATOM     66  F   UNL A   1      46.036  32.724  31.385  1.00  0.00    -0.206 F 
ATOM     67  C   UNL A   1      46.397  36.063  30.041  1.00  0.00     0.022 A 
BRANCH  64  68
ATOM     68  S   UNL A   1      45.670  37.300  27.649  1.00  0.00     0.124 S 
ATOM     69  O   UNL A   1      46.360  36.710  26.506  1.00  0.00    -0.237 OA
ATOM     70  O   UNL A   1      44.242  37.546  27.475  1.00  0.00    -0.237 OA
ATOM     71  O   UNL A   1      46.402  38.365  28.332  1.00  0.00    -0.744 OA
ENDBRANCH  64  68
ENDBRANCH  38  61
ENDBRANCH  12  13
ENDBRANCH   5   7
ENDBRANCH   2   3
ENDBRANCH   1   2
BRANCH   1  72
ATOM     72  C   UNL A   1      35.571  23.386  23.819  1.00  0.00     0.023 C 
BRANCH  72  73
ATOM     73  C   UNL A   1      34.620  24.571  23.677  1.00  0.00     0.116 C 
BRANCH  73  74
ATOM     74  N   UNL A   1      34.621  25.428  24.851  1.00  0.00    -0.355 N 
ATOM     75  C   UNL A   1      33.560  26.115  25.387  1.00  0.00     0.238 C 
ATOM     76  H   UNL A   1      35.482  25.527  25.316  1.00  0.00     0.163 HD
ATOM     77  O   UNL A   1      33.740  26.820  26.378  1.00  0.00    -0.273 OA
BRANCH  75  78
ATOM     78  C   UNL A   1      32.226  26.005  24.691  1.00  0.00     0.162 C 
ATOM     79  C   UNL A   1      31.082  26.767  25.339  1.00  0.00     0.032 C 
ATOM     80  N   UNL A   1      31.641  24.660  24.379  1.00  0.00    -0.185 NA
ATOM     81  C   UNL A   1      29.901  26.367  24.467  1.00  0.00     0.019 C 
ATOM     82  C   UNL A   1      30.271  25.012  23.849  1.00  0.00     0.103 C 
BRANCH  80  83
ATOM     83  S   UNL A   1      31.518  23.448  25.596  1.00  0.00     0.243 S 
ATOM     84  O   UNL A   1      32.544  23.701  26.590  1.00  0.00    -0.207 OA
ATOM     85  O   UNL A   1      30.129  23.423  25.993  1.00  0.00    -0.207 OA
BRANCH  83  86
ATOM     86  C   UNL A   1      31.856  21.871  24.856  1.00  0.00     0.084 A 
ATOM     87  C   UNL A   1      32.001  21.772  23.467  1.00  0.00     0.024 A 
ATOM     88  C   UNL A   1      32.165  20.776  25.673  1.00  0.00     0.050 A 
ATOM     89  C   UNL A   1      32.318  20.547  22.876  1.00  0.00     0.030 A 
ATOM     90  C   UNL A   1      32.548  19.574  25.080  1.00  0.00     0.066 A 
ATOM     91  C   UNL A   1      32.589  19.449  23.687  1.00  0.00     0.065 A 
ATOM     92  N   UNL A   1      32.912  18.489  25.880  1.00  0.00    -0.316 N 
ATOM     93  N   UNL A   1      32.917  18.227  23.102  1.00  0.00    -0.316 N 
ATOM     94  C   UNL A   1      33.306  17.271  25.370  1.00  0.00     0.314 A 
ATOM     95  H   UNL A   1      32.886  18.600  26.859  1.00  0.00     0.170 HD
ATOM     96  C   UNL A   1      33.262  17.111  23.831  1.00  0.00     0.314 A 
ATOM     97  H   UNL A   1      32.901  18.158  22.121  1.00  0.00     0.170 HD
ATOM     98  O   UNL A   1      33.630  16.350  26.106  1.00  0.00    -0.263 OA
ATOM     99  O   UNL A   1      33.502  16.041  23.292  1.00  0.00    -0.263 OA
ENDBRANCH  83  86
ENDBRANCH  80  83
ENDBRANCH  75  78
ENDBRANCH  73  74
ENDBRANCH  72  73
ENDBRANCH   1  72
TORSDOF 16
ENDMDL
