MODEL 1
REMARK VINA RESULT:     -12.6      0.000      0.000
REMARK SMILES Cc1n[nH]c(C(=O)N[C@H]2CC[C@@H](C(=O)NCCCCNC(=O)c3ccc(-c4c5nc(c(-c6cc(S(=O)(=O)[O-])ccc6F)c6ccc([nH]6)c(-c6cc(S(=O)(=O)[O-])ccc6F)c6nc(c(-c7cc(S(=O)(=O)[O-])ccc7F)c7ccc4[nH]7)C=C6)C=C5)cc3)C2)n1
REMARK SMILES IDX 18 1 17 2 16 3 15 4 13 5 14 6 12 8 9 9 10 10 86 11 11 12
REMARK SMILES IDX 8 13 6 14 7 15 5 17 1 18 2 19 3 20 87 21 4 22 19 24 20 25
REMARK SMILES IDX 21 26 22 28 23 29 24 30 85 31 25 32 84 33 26 34 27 35 28 36
REMARK SMILES IDX 78 37 29 38 83 39 77 40 79 41 30 42 82 43 76 44 75 45 31 47
REMARK SMILES IDX 63 48 43 49 62 50 44 51 47 52 61 53 80 54 45 55 46 56 60 58
REMARK SMILES IDX 81 59 48 60 32 61 33 62 41 63 34 64 40 65 42 66 39 67 35 68
REMARK SMILES IDX 36 69 37 70 38 71 64 72 65 73 73 74 66 75 72 76 74 77 71 78
REMARK SMILES IDX 67 79 68 80 69 81 70 82 49 83 50 84 58 85 51 86 57 87 59 88
REMARK SMILES IDX 56 89 52 90 53 91 54 92 55 93
REMARK H PARENT 15 7 8 16 4 23 20 27 79 46 47 57
REMARK Flexibility Score: inf
ROOT
ATOM      1  C   UNL A   1      34.217  29.613  26.466  1.00  0.00     0.023 C 
ENDROOT
BRANCH   1   2
ATOM      2  C   UNL A   1      33.001  30.379  27.012  1.00  0.00     0.023 C 
BRANCH   2   3
ATOM      3  C   UNL A   1      31.761  30.429  26.111  1.00  0.00     0.116 C 
BRANCH   3   4
ATOM      4  N   UNL A   1      32.056  30.007  24.756  1.00  0.00    -0.356 N 
ATOM      5  C   UNL A   1      31.627  28.925  24.053  1.00  0.00     0.223 C 
ATOM      6  O   UNL A   1      31.994  28.824  22.883  1.00  0.00    -0.275 OA
ATOM      7  H   UNL A   1      32.667  30.601  24.264  1.00  0.00     0.163 HD
BRANCH   5   8
ATOM      8  C   UNL A   1      30.722  27.893  24.713  1.00  0.00     0.080 C 
ATOM      9  C   UNL A   1      30.598  25.807  23.441  1.00  0.00     0.083 C 
ATOM     10  C   UNL A   1      30.983  25.478  24.871  1.00  0.00     0.026 C 
ATOM     11  C   UNL A   1      29.878  27.147  23.660  1.00  0.00     0.038 C 
ATOM     12  C   UNL A   1      31.516  26.791  25.436  1.00  0.00     0.015 C 
BRANCH   9  13
ATOM     13  N   UNL A   1      31.621  25.922  22.395  1.00  0.00    -0.347 N 
ATOM     14  C   UNL A   1      32.869  25.457  22.059  1.00  0.00     0.288 C 
ATOM     15  O   UNL A   1      33.387  26.027  21.094  1.00  0.00    -0.266 OA
ATOM     16  H   UNL A   1      31.306  26.541  21.697  1.00  0.00     0.164 HD
BRANCH  14  17
ATOM     17  C   UNL A   1      33.519  24.343  22.709  1.00  0.00     0.214 A 
ATOM     18  C   UNL A   1      36.363  22.506  23.763  1.00  0.00     0.092 C 
ATOM     19  C   UNL A   1      35.020  23.014  23.414  1.00  0.00     0.148 A 
ATOM     20  N   UNL A   1      33.923  22.249  23.423  1.00  0.00    -0.159 NA
ATOM     21  N   UNL A   1      34.811  24.299  22.997  1.00  0.00    -0.207 NA
ATOM     22  N   UNL A   1      33.011  23.096  22.913  1.00  0.00    -0.255 N 
ATOM     23  H   UNL A   1      32.081  22.844  22.711  1.00  0.00     0.192 HD
ENDBRANCH  14  17
ENDBRANCH   9  13
ENDBRANCH   5   8
ENDBRANCH   3   4
ENDBRANCH   2   3
ENDBRANCH   1   2
BRANCH   1  24
ATOM     24  C   UNL A   1      35.123  28.999  27.526  1.00  0.00     0.116 C 
BRANCH  24  25
ATOM     25  N   UNL A   1      35.336  29.882  28.673  1.00  0.00    -0.352 N 
ATOM     26  C   UNL A   1      36.369  29.848  29.598  1.00  0.00     0.251 C 
ATOM     27  H   UNL A   1      34.661  30.586  28.805  1.00  0.00     0.163 HD
ATOM     28  O   UNL A   1      36.222  30.342  30.704  1.00  0.00    -0.269 OA
BRANCH  26  29
ATOM     29  C   UNL A   1      37.652  29.220  29.214  1.00  0.00     0.039 A 
ATOM     30  C   UNL A   1      38.330  29.580  28.043  1.00  0.00     0.014 A 
ATOM     31  C   UNL A   1      38.173  28.245  30.059  1.00  0.00     0.014 A 
ATOM     32  C   UNL A   1      39.575  29.003  27.778  1.00  0.00     0.010 A 
ATOM     33  C   UNL A   1      39.453  27.791  29.876  1.00  0.00     0.010 A 
ATOM     34  C   UNL A   1      40.136  28.118  28.709  1.00  0.00    -0.014 A 
BRANCH  34  35
ATOM     35  C   UNL A   1      41.512  27.637  28.598  1.00  0.00     0.031 A 
ATOM     36  C   UNL A   1      41.629  26.359  27.849  1.00  0.00     0.074 A 
ATOM     37  C   UNL A   1      42.578  28.434  28.846  1.00  0.00     0.049 A 
ATOM     38  N   UNL A   1      41.904  25.187  28.317  1.00  0.00    -0.248 NA
ATOM     39  C   UNL A   1      41.174  26.339  26.446  1.00  0.00     0.031 C 
ATOM     40  C   UNL A   1      42.557  29.839  29.268  1.00  0.00     0.029 A 
ATOM     41  N   UNL A   1      43.906  28.212  28.636  1.00  0.00    -0.354 N 
ATOM     42  C   UNL A   1      41.969  24.355  27.201  1.00  0.00     0.074 A 
ATOM     43  C   UNL A   1      41.219  25.031  26.182  1.00  0.00     0.031 C 
ATOM     44  C   UNL A   1      43.768  30.398  29.050  1.00  0.00     0.029 A 
ATOM     45  C   UNL A   1      44.692  29.368  28.608  1.00  0.00     0.049 A 
ATOM     46  H   UNL A   1      44.282  27.310  28.514  1.00  0.00     0.167 HD
ATOM     47  C   UNL A   1      42.921  23.381  27.111  1.00  0.00     0.034 A 
ATOM     48  C   UNL A   1      45.992  29.484  28.212  1.00  0.00     0.034 A 
ATOM     49  C   UNL A   1      43.539  23.159  28.409  1.00  0.00     0.049 A 
ATOM     50  C   UNL A   1      46.579  28.121  28.284  1.00  0.00     0.074 A 
ATOM     51  C   UNL A   1      43.064  22.868  29.676  1.00  0.00     0.029 A 
ATOM     52  N   UNL A   1      44.823  23.630  28.607  1.00  0.00    -0.354 N 
ATOM     53  N   UNL A   1      46.736  27.473  29.405  1.00  0.00    -0.248 NA
ATOM     54  C   UNL A   1      46.513  27.286  27.093  1.00  0.00     0.031 C 
ATOM     55  C   UNL A   1      43.866  23.650  30.560  1.00  0.00     0.029 A 
ATOM     56  C   UNL A   1      44.854  24.287  29.810  1.00  0.00     0.049 A 
ATOM     57  H   UNL A   1      45.582  23.514  27.991  1.00  0.00     0.167 HD
ATOM     58  C   UNL A   1      46.323  26.178  29.127  1.00  0.00     0.074 A 
ATOM     59  C   UNL A   1      46.305  26.095  27.666  1.00  0.00     0.031 C 
ATOM     60  C   UNL A   1      45.740  25.402  30.093  1.00  0.00     0.034 A 
BRANCH  47  61
ATOM     61  C   UNL A   1      43.622  22.968  25.819  1.00  0.00     0.023 A 
ATOM     62  C   UNL A   1      43.695  21.584  25.577  1.00  0.00     0.031 A 
ATOM     63  C   UNL A   1      44.466  23.762  25.010  1.00  0.00     0.131 A 
ATOM     64  C   UNL A   1      44.705  21.042  24.768  1.00  0.00     0.055 A 
ATOM     65  C   UNL A   1      45.423  23.219  24.145  1.00  0.00     0.041 A 
ATOM     66  F   UNL A   1      44.469  25.098  25.034  1.00  0.00    -0.206 F 
ATOM     67  C   UNL A   1      45.585  21.850  24.059  1.00  0.00     0.022 A 
BRANCH  64  68
ATOM     68  S   UNL A   1      44.981  19.257  24.860  1.00  0.00     0.124 S 
ATOM     69  O   UNL A   1      44.981  18.905  23.444  1.00  0.00    -0.237 OA
ATOM     70  O   UNL A   1      46.269  19.190  25.543  1.00  0.00    -0.237 OA
ATOM     71  O   UNL A   1      43.838  18.778  25.630  1.00  0.00    -0.744 OA
ENDBRANCH  64  68
ENDBRANCH  47  61
BRANCH  48  72
ATOM     72  C   UNL A   1      46.659  30.628  27.518  1.00  0.00     0.023 A 
ATOM     73  C   UNL A   1      45.950  31.669  26.869  1.00  0.00     0.031 A 
ATOM     74  C   UNL A   1      48.044  30.839  27.702  1.00  0.00     0.131 A 
ATOM     75  C   UNL A   1      46.624  32.844  26.444  1.00  0.00     0.055 A 
ATOM     76  C   UNL A   1      48.703  31.999  27.281  1.00  0.00     0.041 A 
ATOM     77  F   UNL A   1      48.798  29.959  28.378  1.00  0.00    -0.206 F 
ATOM     78  C   UNL A   1      47.993  33.011  26.660  1.00  0.00     0.022 A 
BRANCH  75  79
ATOM     79  S   UNL A   1      45.716  34.231  25.677  1.00  0.00     0.124 S 
ATOM     80  O   UNL A   1      45.137  34.904  26.833  1.00  0.00    -0.237 OA
ATOM     81  O   UNL A   1      46.769  34.946  24.967  1.00  0.00    -0.237 OA
ATOM     82  O   UNL A   1      44.742  33.565  24.809  1.00  0.00    -0.744 OA
ENDBRANCH  75  79
ENDBRANCH  48  72
BRANCH  60  83
ATOM     83  C   UNL A   1      45.860  25.840  31.540  1.00  0.00     0.023 A 
ATOM     84  C   UNL A   1      44.785  26.248  32.363  1.00  0.00     0.031 A 
ATOM     85  C   UNL A   1      47.131  25.746  32.134  1.00  0.00     0.131 A 
ATOM     86  C   UNL A   1      45.013  26.565  33.718  1.00  0.00     0.055 A 
ATOM     87  C   UNL A   1      47.349  26.036  33.478  1.00  0.00     0.041 A 
ATOM     88  F   UNL A   1      48.191  25.337  31.415  1.00  0.00    -0.206 F 
ATOM     89  C   UNL A   1      46.291  26.456  34.275  1.00  0.00     0.022 A 
BRANCH  86  90
ATOM     90  S   UNL A   1      43.657  27.160  34.781  1.00  0.00     0.124 S 
ATOM     91  O   UNL A   1      44.211  28.353  35.413  1.00  0.00    -0.237 OA
ATOM     92  O   UNL A   1      42.580  27.389  33.820  1.00  0.00    -0.237 OA
ATOM     93  O   UNL A   1      43.425  26.040  35.695  1.00  0.00    -0.744 OA
ENDBRANCH  86  90
ENDBRANCH  60  83
ENDBRANCH  34  35
ENDBRANCH  26  29
ENDBRANCH  24  25
ENDBRANCH   1  24
TORSDOF 16
ENDMDL
MODEL 2
REMARK VINA RESULT:     -12.5      3.126      8.443
REMARK SMILES Cc1n[nH]c(C(=O)N[C@H]2CC[C@@H](C(=O)NCCCCNC(=O)c3ccc(-c4c5nc(c(-c6cc(S(=O)(=O)[O-])ccc6F)c6ccc([nH]6)c(-c6cc(S(=O)(=O)[O-])ccc6F)c6nc(c(-c7cc(S(=O)(=O)[O-])ccc7F)c7ccc4[nH]7)C=C6)C=C5)cc3)C2)n1
REMARK SMILES IDX 18 1 17 2 16 3 15 4 13 5 14 6 12 8 9 9 10 10 86 11 11 12
REMARK SMILES IDX 8 13 6 14 7 15 5 17 1 18 2 19 3 20 87 21 4 22 19 24 20 25
REMARK SMILES IDX 21 26 22 28 23 29 24 30 85 31 25 32 84 33 26 34 27 35 28 36
REMARK SMILES IDX 78 37 29 38 83 39 77 40 79 41 30 42 82 43 76 44 75 45 31 47
REMARK SMILES IDX 63 48 43 49 62 50 44 51 47 52 61 53 80 54 45 55 46 56 60 58
REMARK SMILES IDX 81 59 48 60 32 61 33 62 41 63 34 64 40 65 42 66 39 67 35 68
REMARK SMILES IDX 36 69 37 70 38 71 64 72 65 73 73 74 66 75 72 76 74 77 71 78
REMARK SMILES IDX 67 79 68 80 69 81 70 82 49 83 50 84 58 85 51 86 57 87 59 88
REMARK SMILES IDX 56 89 52 90 53 91 54 92 55 93
REMARK H PARENT 15 7 8 16 4 23 20 27 79 46 47 57
REMARK Flexibility Score: inf
ROOT
ATOM      1  C   UNL A   1      37.315  19.992  24.982  1.00  0.00     0.023 C 
ENDROOT
BRANCH   1   2
ATOM      2  C   UNL A   1      36.219  21.071  24.944  1.00  0.00     0.023 C 
BRANCH   2   3
ATOM      3  C   UNL A   1      34.770  20.578  25.035  1.00  0.00     0.116 C 
BRANCH   3   4
ATOM      4  N   UNL A   1      33.897  21.282  24.117  1.00  0.00    -0.356 N 
ATOM      5  C   UNL A   1      33.332  22.515  24.202  1.00  0.00     0.223 C 
ATOM      6  O   UNL A   1      32.660  22.902  23.246  1.00  0.00    -0.275 OA
ATOM      7  H   UNL A   1      33.677  20.785  23.296  1.00  0.00     0.163 HD
BRANCH   5   8
ATOM      8  C   UNL A   1      33.543  23.370  25.446  1.00  0.00     0.080 C 
ATOM      9  C   UNL A   1      34.133  25.681  24.904  1.00  0.00     0.083 C 
ATOM     10  C   UNL A   1      32.946  25.695  25.848  1.00  0.00     0.026 C 
ATOM     11  C   UNL A   1      34.746  24.318  25.264  1.00  0.00     0.038 C 
ATOM     12  C   UNL A   1      32.349  24.295  25.733  1.00  0.00     0.015 C 
BRANCH   9  13
ATOM     13  N   UNL A   1      33.941  25.808  23.455  1.00  0.00    -0.347 N 
ATOM     14  C   UNL A   1      33.105  26.383  22.529  1.00  0.00     0.288 C 
ATOM     15  O   UNL A   1      33.305  26.025  21.364  1.00  0.00    -0.266 OA
ATOM     16  H   UNL A   1      34.654  25.314  22.987  1.00  0.00     0.164 HD
BRANCH  14  17
ATOM     17  C   UNL A   1      32.117  27.387  22.846  1.00  0.00     0.214 A 
ATOM     18  C   UNL A   1      29.169  29.247  22.201  1.00  0.00     0.092 C 
ATOM     19  C   UNL A   1      30.439  28.683  22.701  1.00  0.00     0.148 A 
ATOM     20  N   UNL A   1      31.205  29.295  23.611  1.00  0.00    -0.159 NA
ATOM     21  N   UNL A   1      30.955  27.511  22.222  1.00  0.00    -0.207 NA
ATOM     22  N   UNL A   1      32.280  28.488  23.630  1.00  0.00    -0.255 N 
ATOM     23  H   UNL A   1      33.095  28.672  24.152  1.00  0.00     0.192 HD
ENDBRANCH  14  17
ENDBRANCH   9  13
ENDBRANCH   5   8
ENDBRANCH   3   4
ENDBRANCH   2   3
ENDBRANCH   1   2
BRANCH   1  24
ATOM     24  C   UNL A   1      38.705  20.497  25.351  1.00  0.00     0.116 C 
BRANCH  24  25
ATOM     25  N   UNL A   1      39.643  19.415  25.648  1.00  0.00    -0.352 N 
ATOM     26  C   UNL A   1      40.989  19.515  25.969  1.00  0.00     0.251 C 
ATOM     27  H   UNL A   1      39.273  18.504  25.616  1.00  0.00     0.163 HD
ATOM     28  O   UNL A   1      41.736  18.566  25.789  1.00  0.00    -0.269 OA
BRANCH  26  29
ATOM     29  C   UNL A   1      41.495  20.779  26.544  1.00  0.00     0.039 A 
ATOM     30  C   UNL A   1      42.270  21.673  25.796  1.00  0.00     0.014 A 
ATOM     31  C   UNL A   1      41.178  21.059  27.870  1.00  0.00     0.014 A 
ATOM     32  C   UNL A   1      42.652  22.887  26.375  1.00  0.00     0.010 A 
ATOM     33  C   UNL A   1      41.427  22.304  28.387  1.00  0.00     0.010 A 
ATOM     34  C   UNL A   1      42.213  23.200  27.670  1.00  0.00    -0.014 A 
BRANCH  34  35
ATOM     35  C   UNL A   1      42.401  24.524  28.258  1.00  0.00     0.031 A 
ATOM     36  C   UNL A   1      41.288  25.463  27.962  1.00  0.00     0.074 A 
ATOM     37  C   UNL A   1      43.306  24.758  29.238  1.00  0.00     0.049 A 
ATOM     38  N   UNL A   1      41.301  26.485  27.171  1.00  0.00    -0.248 NA
ATOM     39  C   UNL A   1      39.937  25.100  28.429  1.00  0.00     0.031 C 
ATOM     40  C   UNL A   1      44.228  23.790  29.843  1.00  0.00     0.029 A 
ATOM     41  N   UNL A   1      43.500  25.866  30.006  1.00  0.00    -0.354 N 
ATOM     42  C   UNL A   1      40.042  27.066  27.307  1.00  0.00     0.074 A 
ATOM     43  C   UNL A   1      39.197  26.023  27.812  1.00  0.00     0.031 C 
ATOM     44  C   UNL A   1      44.693  24.276  31.015  1.00  0.00     0.029 A 
ATOM     45  C   UNL A   1      44.221  25.640  31.183  1.00  0.00     0.049 A 
ATOM     46  H   UNL A   1      43.160  26.755  29.754  1.00  0.00     0.167 HD
ATOM     47  C   UNL A   1      39.899  28.424  27.336  1.00  0.00     0.034 A 
ATOM     48  C   UNL A   1      44.386  26.489  32.237  1.00  0.00     0.034 A 
ATOM     49  C   UNL A   1      41.120  29.068  26.877  1.00  0.00     0.049 A 
ATOM     50  C   UNL A   1      44.095  27.854  31.730  1.00  0.00     0.074 A 
ATOM     51  C   UNL A   1      41.905  28.966  25.741  1.00  0.00     0.029 A 
ATOM     52  N   UNL A   1      41.926  29.682  27.816  1.00  0.00    -0.354 N 
ATOM     53  N   UNL A   1      44.832  28.452  30.834  1.00  0.00    -0.248 NA
ATOM     54  C   UNL A   1      42.726  28.341  31.826  1.00  0.00     0.031 C 
ATOM     55  C   UNL A   1      43.250  29.040  26.215  1.00  0.00     0.029 A 
ATOM     56  C   UNL A   1      43.220  29.293  27.586  1.00  0.00     0.049 A 
ATOM     57  H   UNL A   1      41.622  30.291  28.528  1.00  0.00     0.167 HD
ATOM     58  C   UNL A   1      43.925  29.034  29.959  1.00  0.00     0.074 A 
ATOM     59  C   UNL A   1      42.652  29.029  30.681  1.00  0.00     0.031 C 
ATOM     60  C   UNL A   1      44.222  29.178  28.631  1.00  0.00     0.034 A 
BRANCH  47  61
ATOM     61  C   UNL A   1      38.884  29.172  28.196  1.00  0.00     0.023 A 
ATOM     62  C   UNL A   1      39.062  29.063  29.588  1.00  0.00     0.031 A 
ATOM     63  C   UNL A   1      37.631  29.685  27.792  1.00  0.00     0.131 A 
ATOM     64  C   UNL A   1      37.985  29.227  30.472  1.00  0.00     0.055 A 
ATOM     65  C   UNL A   1      36.580  29.921  28.686  1.00  0.00     0.041 A 
ATOM     66  F   UNL A   1      37.313  29.942  26.520  1.00  0.00    -0.206 F 
ATOM     67  C   UNL A   1      36.735  29.641  30.030  1.00  0.00     0.022 A 
BRANCH  64  68
ATOM     68  S   UNL A   1      38.207  28.655  32.173  1.00  0.00     0.124 S 
ATOM     69  O   UNL A   1      39.358  29.452  32.583  1.00  0.00    -0.237 OA
ATOM     70  O   UNL A   1      36.926  29.010  32.776  1.00  0.00    -0.237 OA
ATOM     71  O   UNL A   1      38.451  27.225  32.019  1.00  0.00    -0.744 OA
ENDBRANCH  64  68
ENDBRANCH  47  61
BRANCH  48  72
ATOM     72  C   UNL A   1      44.498  26.162  33.692  1.00  0.00     0.023 A 
ATOM     73  C   UNL A   1      43.448  26.360  34.622  1.00  0.00     0.031 A 
ATOM     74  C   UNL A   1      45.598  25.400  34.149  1.00  0.00     0.131 A 
ATOM     75  C   UNL A   1      43.527  25.809  35.927  1.00  0.00     0.055 A 
ATOM     76  C   UNL A   1      45.671  24.859  35.436  1.00  0.00     0.041 A 
ATOM     77  F   UNL A   1      46.610  25.079  33.328  1.00  0.00    -0.206 F 
ATOM     78  C   UNL A   1      44.630  25.052  36.328  1.00  0.00     0.022 A 
BRANCH  75  79
ATOM     79  S   UNL A   1      42.151  25.986  37.115  1.00  0.00     0.124 S 
ATOM     80  O   UNL A   1      41.485  24.692  37.017  1.00  0.00    -0.237 OA
ATOM     81  O   UNL A   1      42.844  26.268  38.365  1.00  0.00    -0.237 OA
ATOM     82  O   UNL A   1      41.379  27.110  36.580  1.00  0.00    -0.744 OA
ENDBRANCH  75  79
ENDBRANCH  48  72
BRANCH  60  83
ATOM     83  C   UNL A   1      45.664  29.012  28.191  1.00  0.00     0.023 A 
ATOM     84  C   UNL A   1      46.345  27.779  28.066  1.00  0.00     0.031 A 
ATOM     85  C   UNL A   1      46.347  30.173  27.790  1.00  0.00     0.131 A 
ATOM     86  C   UNL A   1      47.667  27.748  27.578  1.00  0.00     0.055 A 
ATOM     87  C   UNL A   1      47.645  30.138  27.285  1.00  0.00     0.041 A 
ATOM     88  F   UNL A   1      45.748  31.375  27.857  1.00  0.00    -0.206 F 
ATOM     89  C   UNL A   1      48.314  28.924  27.185  1.00  0.00     0.022 A 
BRANCH  86  90
ATOM     90  S   UNL A   1      48.590  26.180  27.473  1.00  0.00     0.124 S 
ATOM     91  O   UNL A   1      49.305  26.115  28.743  1.00  0.00    -0.237 OA
ATOM     92  O   UNL A   1      47.523  25.198  27.290  1.00  0.00    -0.237 OA
ATOM     93  O   UNL A   1      49.447  26.369  26.301  1.00  0.00    -0.744 OA
ENDBRANCH  86  90
ENDBRANCH  60  83
ENDBRANCH  34  35
ENDBRANCH  26  29
ENDBRANCH  24  25
ENDBRANCH   1  24
TORSDOF 16
ENDMDL
MODEL 3
REMARK VINA RESULT:     -12.5      2.205      2.672
REMARK SMILES Cc1n[nH]c(C(=O)N[C@H]2CC[C@@H](C(=O)NCCCCNC(=O)c3ccc(-c4c5nc(c(-c6cc(S(=O)(=O)[O-])ccc6F)c6ccc([nH]6)c(-c6cc(S(=O)(=O)[O-])ccc6F)c6nc(c(-c7cc(S(=O)(=O)[O-])ccc7F)c7ccc4[nH]7)C=C6)C=C5)cc3)C2)n1
REMARK SMILES IDX 18 1 17 2 16 3 15 4 13 5 14 6 12 8 9 9 10 10 86 11 11 12
REMARK SMILES IDX 8 13 6 14 7 15 5 17 1 18 2 19 3 20 87 21 4 22 19 24 20 25
REMARK SMILES IDX 21 26 22 28 23 29 24 30 85 31 25 32 84 33 26 34 27 35 28 36
REMARK SMILES IDX 78 37 29 38 83 39 77 40 79 41 30 42 82 43 76 44 75 45 31 47
REMARK SMILES IDX 63 48 43 49 62 50 44 51 47 52 61 53 80 54 45 55 46 56 60 58
REMARK SMILES IDX 81 59 48 60 32 61 33 62 41 63 34 64 40 65 42 66 39 67 35 68
REMARK SMILES IDX 36 69 37 70 38 71 64 72 65 73 73 74 66 75 72 76 74 77 71 78
REMARK SMILES IDX 67 79 68 80 69 81 70 82 49 83 50 84 58 85 51 86 57 87 59 88
REMARK SMILES IDX 56 89 52 90 53 91 54 92 55 93
REMARK H PARENT 15 7 8 16 4 23 20 27 79 46 47 57
REMARK Flexibility Score: inf
ROOT
ATOM      1  C   UNL A   1      33.831  29.318  26.573  1.00  0.00     0.023 C 
ENDROOT
BRANCH   1   2
ATOM      2  C   UNL A   1      32.534  28.739  27.164  1.00  0.00     0.023 C 
BRANCH   2   3
ATOM      3  C   UNL A   1      31.762  27.750  26.283  1.00  0.00     0.116 C 
BRANCH   3   4
ATOM      4  N   UNL A   1      31.548  26.480  26.949  1.00  0.00    -0.356 N 
ATOM      5  C   UNL A   1      31.541  25.213  26.457  1.00  0.00     0.223 C 
ATOM      6  O   UNL A   1      31.382  24.292  27.257  1.00  0.00    -0.275 OA
ATOM      7  H   UNL A   1      31.382  26.547  27.917  1.00  0.00     0.163 HD
BRANCH   5   8
ATOM      8  C   UNL A   1      31.728  24.970  24.965  1.00  0.00     0.080 C 
ATOM      9  C   UNL A   1      33.287  23.142  24.503  1.00  0.00     0.083 C 
ATOM     10  C   UNL A   1      31.994  22.873  23.757  1.00  0.00     0.026 C 
ATOM     11  C   UNL A   1      33.206  24.671  24.637  1.00  0.00     0.038 C 
ATOM     12  C   UNL A   1      30.956  23.736  24.468  1.00  0.00     0.015 C 
BRANCH   9  13
ATOM     13  N   UNL A   1      33.550  22.511  25.802  1.00  0.00    -0.347 N 
ATOM     14  C   UNL A   1      33.459  21.301  26.445  1.00  0.00     0.288 C 
ATOM     15  O   UNL A   1      33.672  21.347  27.660  1.00  0.00    -0.266 OA
ATOM     16  H   UNL A   1      33.917  23.182  26.422  1.00  0.00     0.164 HD
BRANCH  14  17
ATOM     17  C   UNL A   1      33.216  20.045  25.774  1.00  0.00     0.214 A 
ATOM     18  C   UNL A   1      32.417  18.068  22.942  1.00  0.00     0.092 C 
ATOM     19  C   UNL A   1      32.712  18.621  24.279  1.00  0.00     0.148 A 
ATOM     20  N   UNL A   1      32.529  17.934  25.413  1.00  0.00    -0.159 NA
ATOM     21  N   UNL A   1      33.142  19.906  24.458  1.00  0.00    -0.207 NA
ATOM     22  N   UNL A   1      32.792  18.879  26.333  1.00  0.00    -0.255 N 
ATOM     23  H   UNL A   1      32.690  18.742  27.303  1.00  0.00     0.192 HD
ENDBRANCH  14  17
ENDBRANCH   9  13
ENDBRANCH   5   8
ENDBRANCH   3   4
ENDBRANCH   2   3
ENDBRANCH   1   2
BRANCH   1  24
ATOM     24  C   UNL A   1      35.097  28.998  27.359  1.00  0.00     0.116 C 
BRANCH  24  25
ATOM     25  N   UNL A   1      35.286  29.873  28.515  1.00  0.00    -0.352 N 
ATOM     26  C   UNL A   1      36.299  29.832  29.462  1.00  0.00     0.251 C 
ATOM     27  H   UNL A   1      34.610  30.578  28.637  1.00  0.00     0.163 HD
ATOM     28  O   UNL A   1      36.127  30.320  30.568  1.00  0.00    -0.269 OA
BRANCH  26  29
ATOM     29  C   UNL A   1      37.588  29.202  29.104  1.00  0.00     0.039 A 
ATOM     30  C   UNL A   1      38.276  29.543  27.933  1.00  0.00     0.014 A 
ATOM     31  C   UNL A   1      38.104  28.246  29.972  1.00  0.00     0.014 A 
ATOM     32  C   UNL A   1      39.527  28.968  27.692  1.00  0.00     0.010 A 
ATOM     33  C   UNL A   1      39.388  27.794  29.811  1.00  0.00     0.010 A 
ATOM     34  C   UNL A   1      40.082  28.103  28.645  1.00  0.00    -0.014 A 
BRANCH  34  35
ATOM     35  C   UNL A   1      41.461  27.626  28.557  1.00  0.00     0.031 A 
ATOM     36  C   UNL A   1      41.599  26.365  27.784  1.00  0.00     0.074 A 
ATOM     37  C   UNL A   1      42.519  28.419  28.847  1.00  0.00     0.049 A 
ATOM     38  N   UNL A   1      41.865  25.183  28.233  1.00  0.00    -0.248 NA
ATOM     39  C   UNL A   1      41.178  26.373  26.370  1.00  0.00     0.031 C 
ATOM     40  C   UNL A   1      42.485  29.815  29.299  1.00  0.00     0.029 A 
ATOM     41  N   UNL A   1      43.852  28.203  28.665  1.00  0.00    -0.354 N 
ATOM     42  C   UNL A   1      41.958  24.375  27.103  1.00  0.00     0.074 A 
ATOM     43  C   UNL A   1      41.232  25.072  26.080  1.00  0.00     0.031 C 
ATOM     44  C   UNL A   1      43.700  30.380  29.121  1.00  0.00     0.029 A 
ATOM     45  C   UNL A   1      44.637  29.361  28.680  1.00  0.00     0.049 A 
ATOM     46  H   UNL A   1      44.233  27.305  28.532  1.00  0.00     0.167 HD
ATOM     47  C   UNL A   1      42.914  23.404  27.014  1.00  0.00     0.034 A 
ATOM     48  C   UNL A   1      45.946  29.487  28.318  1.00  0.00     0.034 A 
ATOM     49  C   UNL A   1      43.501  23.156  28.322  1.00  0.00     0.049 A 
ATOM     50  C   UNL A   1      46.533  28.124  28.375  1.00  0.00     0.074 A 
ATOM     51  C   UNL A   1      42.995  22.837  29.570  1.00  0.00     0.029 A 
ATOM     52  N   UNL A   1      44.779  23.625  28.561  1.00  0.00    -0.354 N 
ATOM     53  N   UNL A   1      46.665  27.452  29.486  1.00  0.00    -0.248 NA
ATOM     54  C   UNL A   1      46.498  27.314  27.166  1.00  0.00     0.031 C 
ATOM     55  C   UNL A   1      43.775  23.602  30.490  1.00  0.00     0.029 A 
ATOM     56  C   UNL A   1      44.780  24.256  29.778  1.00  0.00     0.049 A 
ATOM     57  H   UNL A   1      45.553  23.523  27.961  1.00  0.00     0.167 HD
ATOM     58  C   UNL A   1      46.260  26.163  29.171  1.00  0.00     0.074 A 
ATOM     59  C   UNL A   1      46.278  26.111  27.708  1.00  0.00     0.031 C 
ATOM     60  C   UNL A   1      45.656  25.366  30.106  1.00  0.00     0.034 A 
BRANCH  47  61
ATOM     61  C   UNL A   1      43.646  23.020  25.731  1.00  0.00     0.023 A 
ATOM     62  C   UNL A   1      43.709  21.643  25.451  1.00  0.00     0.031 A 
ATOM     63  C   UNL A   1      44.524  23.826  24.971  1.00  0.00     0.131 A 
ATOM     64  C   UNL A   1      44.735  21.111  24.654  1.00  0.00     0.055 A 
ATOM     65  C   UNL A   1      45.499  23.296  24.118  1.00  0.00     0.041 A 
ATOM     66  F   UNL A   1      44.544  25.161  25.035  1.00  0.00    -0.206 F 
ATOM     67  C   UNL A   1      45.645  21.928  23.996  1.00  0.00     0.022 A 
BRANCH  64  68
ATOM     68  S   UNL A   1      44.984  19.321  24.702  1.00  0.00     0.124 S 
ATOM     69  O   UNL A   1      44.613  18.955  23.339  1.00  0.00    -0.237 OA
ATOM     70  O   UNL A   1      46.403  19.227  25.032  1.00  0.00    -0.237 OA
ATOM     71  O   UNL A   1      44.067  18.879  25.747  1.00  0.00    -0.744 OA
ENDBRANCH  64  68
ENDBRANCH  47  61
BRANCH  48  72
ATOM     72  C   UNL A   1      46.627  30.647  27.665  1.00  0.00     0.023 A 
ATOM     73  C   UNL A   1      45.931  31.712  27.041  1.00  0.00     0.031 A 
ATOM     74  C   UNL A   1      48.012  30.843  27.868  1.00  0.00     0.131 A 
ATOM     75  C   UNL A   1      46.617  32.894  26.658  1.00  0.00     0.055 A 
ATOM     76  C   UNL A   1      48.683  32.009  27.488  1.00  0.00     0.041 A 
ATOM     77  F   UNL A   1      48.753  29.937  28.524  1.00  0.00    -0.206 F 
ATOM     78  C   UNL A   1      47.985  33.045  26.891  1.00  0.00     0.022 A 
BRANCH  75  79
ATOM     79  S   UNL A   1      45.726  34.310  25.924  1.00  0.00     0.124 S 
ATOM     80  O   UNL A   1      45.772  35.298  26.994  1.00  0.00    -0.237 OA
ATOM     81  O   UNL A   1      46.516  34.601  24.734  1.00  0.00    -0.237 OA
ATOM     82  O   UNL A   1      44.392  33.770  25.650  1.00  0.00    -0.744 OA
ENDBRANCH  75  79
ENDBRANCH  48  72
BRANCH  60  83
ATOM     83  C   UNL A   1      45.740  25.774  31.565  1.00  0.00     0.023 A 
ATOM     84  C   UNL A   1      46.855  25.564  32.410  1.00  0.00     0.031 A 
ATOM     85  C   UNL A   1      44.656  26.498  32.089  1.00  0.00     0.131 A 
ATOM     86  C   UNL A   1      46.841  26.052  33.732  1.00  0.00     0.055 A 
ATOM     87  C   UNL A   1      44.654  27.000  33.388  1.00  0.00     0.041 A 
ATOM     88  F   UNL A   1      43.577  26.757  31.330  1.00  0.00    -0.206 F 
ATOM     89  C   UNL A   1      45.744  26.772  34.219  1.00  0.00     0.022 A 
BRANCH  86  90
ATOM     90  S   UNL A   1      48.235  25.734  34.863  1.00  0.00     0.124 S 
ATOM     91  O   UNL A   1      47.910  24.441  35.455  1.00  0.00    -0.237 OA
ATOM     92  O   UNL A   1      49.384  25.752  33.959  1.00  0.00    -0.237 OA
ATOM     93  O   UNL A   1      48.179  26.862  35.795  1.00  0.00    -0.744 OA
ENDBRANCH  86  90
ENDBRANCH  60  83
ENDBRANCH  34  35
ENDBRANCH  26  29
ENDBRANCH  24  25
ENDBRANCH   1  24
TORSDOF 16
ENDMDL
