MODEL 1
REMARK VINA RESULT:     -12.5      0.000      0.000
REMARK SMILES CCn1nccc1-c1cc(C(=O)NCCCCNC(=O)c2ccc(-c3c4nc(c(-c5cc(S(=O)(=O)[O-])ccc5F)c5ccc([nH]5)c(-c5cc(S(=O)(=O)[O-])ccc5F)c5nc(c(-c6cc(S(=O)(=O)[O-])ccc6F)c6ccc3[nH]6)C=C5)C=C4)cc2)n2nc3nc(C(F)(F)F)cc(C4CC4)c3c2n1
REMARK SMILES IDX 16 1 15 2 14 3 13 4 11 5 12 6 10 8 8 9 9 10 100 11 99 12
REMARK SMILES IDX 84 13 98 14 85 15 86 16 94 17 87 18 93 19 88 20 7 21 3 22
REMARK SMILES IDX 4 23 5 24 6 25 2 26 1 27 95 28 96 29 97 30 89 31 90 32 91 33
REMARK SMILES IDX 92 34 17 35 18 36 19 37 20 39 21 40 22 41 83 42 23 43 82 44
REMARK SMILES IDX 24 45 25 46 26 47 76 48 27 49 81 50 75 51 77 52 28 53 80 54
REMARK SMILES IDX 74 55 73 56 29 58 61 59 41 60 60 61 42 62 45 63 59 64 78 65
REMARK SMILES IDX 43 66 44 67 58 69 79 70 46 71 30 72 31 73 39 74 32 75 38 76
REMARK SMILES IDX 40 77 37 78 33 79 34 80 35 81 36 82 62 83 63 84 71 85 64 86
REMARK SMILES IDX 70 87 72 88 69 89 65 90 66 91 67 92 68 93 47 94 48 95 56 96
REMARK SMILES IDX 49 97 55 98 57 99 54 100 50 101 51 102 52 103 53 104
REMARK H PARENT 13 7 18 38 77 57 45 68
REMARK Flexibility Score: inf
ROOT
ATOM      1  C   UNL A   1      32.590  30.085  27.245  1.00  0.00     0.023 C 
ENDROOT
BRANCH   1   2
ATOM      2  C   UNL A   1      31.755  30.146  25.952  1.00  0.00     0.023 C 
BRANCH   2   3
ATOM      3  C   UNL A   1      32.357  29.402  24.749  1.00  0.00     0.116 C 
BRANCH   3   4
ATOM      4  N   UNL A   1      31.468  29.476  23.595  1.00  0.00    -0.351 N 
ATOM      5  C   UNL A   1      30.776  28.568  22.845  1.00  0.00     0.270 C 
ATOM      6  O   UNL A   1      30.128  29.016  21.902  1.00  0.00    -0.268 OA
ATOM      7  H   UNL A   1      31.336  30.400  23.281  1.00  0.00     0.163 HD
BRANCH   5   8
ATOM      8  C   UNL A   1      30.761  27.112  23.155  1.00  0.00     0.134 A 
ATOM      9  C   UNL A   1      30.202  25.184  24.427  1.00  0.00     0.093 A 
ATOM     10  C   UNL A   1      30.058  26.648  24.209  1.00  0.00     0.065 A 
ATOM     11  N   UNL A   1      30.358  24.366  23.426  1.00  0.00    -0.226 NA
ATOM     12  C   UNL A   1      31.389  24.797  22.628  1.00  0.00     0.166 A 
ATOM     13  N   UNL A   1      31.663  26.192  22.541  1.00  0.00    -0.207 N 
ATOM     14  C   UNL A   1      32.548  24.125  22.278  1.00  0.00     0.069 A 
ATOM     15  N   UNL A   1      32.999  26.381  22.323  1.00  0.00    -0.145 NA
ATOM     16  C   UNL A   1      33.521  25.163  22.467  1.00  0.00     0.184 A 
ATOM     17  C   UNL A   1      32.788  22.735  22.360  1.00  0.00    -0.028 A 
ATOM     18  N   UNL A   1      34.752  24.900  22.992  1.00  0.00    -0.222 NA
ATOM     19  C   UNL A   1      34.118  22.521  22.753  1.00  0.00     0.038 A 
ATOM     20  C   UNL A   1      34.935  23.561  23.243  1.00  0.00     0.147 A 
BRANCH   9  21
ATOM     21  C   UNL A   1      30.525  24.657  25.731  1.00  0.00     0.087 A 
ATOM     22  N   UNL A   1      31.773  24.725  26.332  1.00  0.00    -0.264 N 
ATOM     23  N   UNL A   1      31.878  23.935  27.421  1.00  0.00    -0.181 NA
ATOM     24  C   UNL A   1      30.727  23.267  27.446  1.00  0.00     0.136 A 
ATOM     25  C   UNL A   1      29.833  23.706  26.459  1.00  0.00     0.052 A 
BRANCH  22  26
ATOM     26  C   UNL A   1      32.998  25.288  25.780  1.00  0.00     0.141 C 
ATOM     27  C   UNL A   1      33.305  26.699  26.253  1.00  0.00     0.029 C 
ENDBRANCH  22  26
ENDBRANCH   9  21
BRANCH  17  28
ATOM     28  C   UNL A   1      31.894  21.545  22.216  1.00  0.00     0.020 C 
ATOM     29  C   UNL A   1      32.235  20.363  21.352  1.00  0.00     0.009 C 
ATOM     30  C   UNL A   1      32.102  20.207  22.845  1.00  0.00     0.009 C 
ENDBRANCH  17  28
BRANCH  20  31
ATOM     31  C   UNL A   1      35.692  23.127  24.511  1.00  0.00     0.433 C 
ATOM     32  F   UNL A   1      34.907  22.442  25.397  1.00  0.00    -0.165 F 
ATOM     33  F   UNL A   1      36.797  22.365  24.312  1.00  0.00    -0.165 F 
ATOM     34  F   UNL A   1      36.123  24.227  25.208  1.00  0.00    -0.165 F 
ENDBRANCH  20  31
ENDBRANCH   5   8
ENDBRANCH   3   4
ENDBRANCH   2   3
ENDBRANCH   1   2
BRANCH   1  35
ATOM     35  C   UNL A   1      33.967  30.733  27.142  1.00  0.00     0.116 C 
BRANCH  35  36
ATOM     36  N   UNL A   1      34.058  31.959  27.930  1.00  0.00    -0.352 N 
ATOM     37  C   UNL A   1      34.857  32.202  29.030  1.00  0.00     0.251 C 
ATOM     38  H   UNL A   1      33.481  32.702  27.641  1.00  0.00     0.163 HD
ATOM     39  O   UNL A   1      34.578  33.092  29.816  1.00  0.00    -0.269 OA
BRANCH  37  40
ATOM     40  C   UNL A   1      36.063  31.377  29.223  1.00  0.00     0.039 A 
ATOM     41  C   UNL A   1      35.965  29.987  29.339  1.00  0.00     0.014 A 
ATOM     42  C   UNL A   1      37.299  32.021  29.301  1.00  0.00     0.014 A 
ATOM     43  C   UNL A   1      37.133  29.244  29.480  1.00  0.00     0.010 A 
ATOM     44  C   UNL A   1      38.457  31.281  29.337  1.00  0.00     0.010 A 
ATOM     45  C   UNL A   1      38.371  29.900  29.473  1.00  0.00    -0.014 A 
BRANCH  45  46
ATOM     46  C   UNL A   1      39.602  29.138  29.586  1.00  0.00     0.031 A 
ATOM     47  C   UNL A   1      39.980  28.700  30.955  1.00  0.00     0.074 A 
ATOM     48  C   UNL A   1      40.273  28.688  28.508  1.00  0.00     0.049 A 
ATOM     49  N   UNL A   1      40.933  29.157  31.698  1.00  0.00    -0.248 NA
ATOM     50  C   UNL A   1      39.122  27.713  31.624  1.00  0.00     0.031 C 
ATOM     51  C   UNL A   1      39.878  28.706  27.096  1.00  0.00     0.029 A 
ATOM     52  N   UNL A   1      41.455  28.026  28.486  1.00  0.00    -0.354 N 
ATOM     53  C   UNL A   1      40.916  28.398  32.869  1.00  0.00     0.074 A 
ATOM     54  C   UNL A   1      39.688  27.641  32.831  1.00  0.00     0.031 C 
ATOM     55  C   UNL A   1      40.703  27.899  26.391  1.00  0.00     0.029 A 
ATOM     56  C   UNL A   1      41.776  27.460  27.264  1.00  0.00     0.049 A 
ATOM     57  H   UNL A   1      42.039  27.952  29.275  1.00  0.00     0.167 HD
ATOM     58  C   UNL A   1      41.998  28.317  33.697  1.00  0.00     0.034 A 
ATOM     59  C   UNL A   1      42.831  26.647  27.016  1.00  0.00     0.034 A 
ATOM     60  C   UNL A   1      43.010  29.270  33.330  1.00  0.00     0.049 A 
ATOM     61  C   UNL A   1      43.826  26.867  28.097  1.00  0.00     0.074 A 
ATOM     62  C   UNL A   1      43.077  30.649  33.300  1.00  0.00     0.029 A 
ATOM     63  N   UNL A   1      44.038  28.825  32.533  1.00  0.00    -0.354 N 
ATOM     64  N   UNL A   1      44.492  27.977  28.255  1.00  0.00    -0.248 NA
ATOM     65  C   UNL A   1      43.747  26.013  29.273  1.00  0.00     0.031 C 
ATOM     66  C   UNL A   1      43.812  30.952  32.118  1.00  0.00     0.029 A 
ATOM     67  C   UNL A   1      44.205  29.747  31.531  1.00  0.00     0.049 A 
ATOM     68  H   UNL A   1      44.557  27.998  32.657  1.00  0.00     0.167 HD
ATOM     69  C   UNL A   1      44.533  28.170  29.628  1.00  0.00     0.074 A 
ATOM     70  C   UNL A   1      44.151  26.882  30.205  1.00  0.00     0.031 C 
ATOM     71  C   UNL A   1      44.594  29.421  30.172  1.00  0.00     0.034 A 
BRANCH  58  72
ATOM     72  C   UNL A   1      42.275  27.189  34.658  1.00  0.00     0.023 A 
ATOM     73  C   UNL A   1      43.038  26.062  34.303  1.00  0.00     0.031 A 
ATOM     74  C   UNL A   1      41.956  27.311  36.027  1.00  0.00     0.131 A 
ATOM     75  C   UNL A   1      43.424  25.107  35.253  1.00  0.00     0.055 A 
ATOM     76  C   UNL A   1      42.397  26.391  36.987  1.00  0.00     0.041 A 
ATOM     77  F   UNL A   1      41.245  28.355  36.480  1.00  0.00    -0.206 F 
ATOM     78  C   UNL A   1      43.133  25.278  36.602  1.00  0.00     0.022 A 
BRANCH  75  79
ATOM     79  S   UNL A   1      44.334  23.626  34.739  1.00  0.00     0.124 S 
ATOM     80  O   UNL A   1      44.557  22.953  36.015  1.00  0.00    -0.237 OA
ATOM     81  O   UNL A   1      43.374  22.985  33.843  1.00  0.00    -0.237 OA
ATOM     82  O   UNL A   1      45.523  24.166  34.088  1.00  0.00    -0.744 OA
ENDBRANCH  75  79
ENDBRANCH  58  72
BRANCH  59  83
ATOM     83  C   UNL A   1      42.790  25.398  26.222  1.00  0.00     0.023 A 
ATOM     84  C   UNL A   1      41.922  24.356  26.594  1.00  0.00     0.031 A 
ATOM     85  C   UNL A   1      43.813  25.094  25.308  1.00  0.00     0.131 A 
ATOM     86  C   UNL A   1      42.129  23.054  26.122  1.00  0.00     0.055 A 
ATOM     87  C   UNL A   1      44.009  23.796  24.825  1.00  0.00     0.041 A 
ATOM     88  F   UNL A   1      44.687  26.038  24.928  1.00  0.00    -0.206 F 
ATOM     89  C   UNL A   1      43.175  22.763  25.245  1.00  0.00     0.022 A 
BRANCH  86  90
ATOM     90  S   UNL A   1      41.069  21.704  26.708  1.00  0.00     0.124 S 
ATOM     91  O   UNL A   1      39.778  22.030  26.107  1.00  0.00    -0.237 OA
ATOM     92  O   UNL A   1      41.744  20.537  26.154  1.00  0.00    -0.237 OA
ATOM     93  O   UNL A   1      41.122  21.842  28.161  1.00  0.00    -0.744 OA
ENDBRANCH  86  90
ENDBRANCH  59  83
BRANCH  71  94
ATOM     94  C   UNL A   1      44.833  30.604  29.258  1.00  0.00     0.023 A 
ATOM     95  C   UNL A   1      46.143  31.101  29.178  1.00  0.00     0.031 A 
ATOM     96  C   UNL A   1      43.808  31.382  28.686  1.00  0.00     0.131 A 
ATOM     97  C   UNL A   1      46.393  32.347  28.591  1.00  0.00     0.055 A 
ATOM     98  C   UNL A   1      44.068  32.598  28.045  1.00  0.00     0.041 A 
ATOM     99  F   UNL A   1      42.520  31.039  28.803  1.00  0.00    -0.206 F 
ATOM    100  C   UNL A   1      45.365  33.094  28.010  1.00  0.00     0.022 A 
BRANCH  97 101
ATOM    101  S   UNL A   1      48.040  33.091  28.693  1.00  0.00     0.124 S 
ATOM    102  O   UNL A   1      48.913  31.926  28.586  1.00  0.00    -0.237 OA
ATOM    103  O   UNL A   1      48.044  33.986  27.538  1.00  0.00    -0.237 OA
ATOM    104  O   UNL A   1      48.047  33.757  29.993  1.00  0.00    -0.744 OA
ENDBRANCH  97 101
ENDBRANCH  71  94
ENDBRANCH  45  46
ENDBRANCH  37  40
ENDBRANCH  35  36
ENDBRANCH   1  35
TORSDOF 18
ENDMDL
MODEL 2
REMARK VINA RESULT:     -12.5      3.161      8.493
REMARK SMILES CCn1nccc1-c1cc(C(=O)NCCCCNC(=O)c2ccc(-c3c4nc(c(-c5cc(S(=O)(=O)[O-])ccc5F)c5ccc([nH]5)c(-c5cc(S(=O)(=O)[O-])ccc5F)c5nc(c(-c6cc(S(=O)(=O)[O-])ccc6F)c6ccc3[nH]6)C=C5)C=C4)cc2)n2nc3nc(C(F)(F)F)cc(C4CC4)c3c2n1
REMARK SMILES IDX 16 1 15 2 14 3 13 4 11 5 12 6 10 8 8 9 9 10 100 11 99 12
REMARK SMILES IDX 84 13 98 14 85 15 86 16 94 17 87 18 93 19 88 20 7 21 3 22
REMARK SMILES IDX 4 23 5 24 6 25 2 26 1 27 95 28 96 29 97 30 89 31 90 32 91 33
REMARK SMILES IDX 92 34 17 35 18 36 19 37 20 39 21 40 22 41 83 42 23 43 82 44
REMARK SMILES IDX 24 45 25 46 26 47 76 48 27 49 81 50 75 51 77 52 28 53 80 54
REMARK SMILES IDX 74 55 73 56 29 58 61 59 41 60 60 61 42 62 45 63 59 64 78 65
REMARK SMILES IDX 43 66 44 67 58 69 79 70 46 71 30 72 31 73 39 74 32 75 38 76
REMARK SMILES IDX 40 77 37 78 33 79 34 80 35 81 36 82 62 83 63 84 71 85 64 86
REMARK SMILES IDX 70 87 72 88 69 89 65 90 66 91 67 92 68 93 47 94 48 95 56 96
REMARK SMILES IDX 49 97 55 98 57 99 54 100 50 101 51 102 52 103 53 104
REMARK H PARENT 13 7 18 38 77 57 45 68
REMARK Flexibility Score: inf
ROOT
ATOM      1  C   UNL A   1      37.505  21.651  25.842  1.00  0.00     0.023 C 
ENDROOT
BRANCH   1   2
ATOM      2  C   UNL A   1      36.987  21.652  24.391  1.00  0.00     0.023 C 
BRANCH   2   3
ATOM      3  C   UNL A   1      36.803  23.043  23.763  1.00  0.00     0.116 C 
BRANCH   3   4
ATOM      4  N   UNL A   1      35.759  23.019  22.744  1.00  0.00    -0.351 N 
ATOM      5  C   UNL A   1      34.532  23.603  22.601  1.00  0.00     0.270 C 
ATOM      6  O   UNL A   1      33.907  23.320  21.581  1.00  0.00    -0.268 OA
ATOM      7  H   UNL A   1      35.994  22.446  21.979  1.00  0.00     0.163 HD
BRANCH   5   8
ATOM      8  C   UNL A   1      33.976  24.563  23.593  1.00  0.00     0.134 A 
ATOM      9  C   UNL A   1      32.941  25.193  25.637  1.00  0.00     0.093 A 
ATOM     10  C   UNL A   1      33.529  24.123  24.789  1.00  0.00     0.065 A 
ATOM     11  N   UNL A   1      33.398  26.411  25.599  1.00  0.00    -0.226 NA
ATOM     12  C   UNL A   1      33.441  26.853  24.300  1.00  0.00     0.166 A 
ATOM     13  N   UNL A   1      33.653  25.910  23.253  1.00  0.00    -0.207 N 
ATOM     14  C   UNL A   1      32.816  27.957  23.743  1.00  0.00     0.069 A 
ATOM     15  N   UNL A   1      33.019  26.337  22.121  1.00  0.00    -0.145 NA
ATOM     16  C   UNL A   1      32.303  27.384  22.530  1.00  0.00     0.184 A 
ATOM     17  C   UNL A   1      32.285  29.073  24.425  1.00  0.00    -0.028 A 
ATOM     18  N   UNL A   1      31.078  27.731  22.042  1.00  0.00    -0.222 NA
ATOM     19  C   UNL A   1      31.107  29.486  23.784  1.00  0.00     0.038 A 
ATOM     20  C   UNL A   1      30.469  28.698  22.803  1.00  0.00     0.147 A 
BRANCH   9  21
ATOM     21  C   UNL A   1      31.648  25.020  26.256  1.00  0.00     0.087 A 
ATOM     22  N   UNL A   1      31.199  23.850  26.848  1.00  0.00    -0.264 N 
ATOM     23  N   UNL A   1      29.875  23.867  27.113  1.00  0.00    -0.181 NA
ATOM     24  C   UNL A   1      29.455  25.011  26.576  1.00  0.00     0.136 A 
ATOM     25  C   UNL A   1      30.511  25.787  26.078  1.00  0.00     0.052 A 
BRANCH  22  26
ATOM     26  C   UNL A   1      31.892  22.572  26.937  1.00  0.00     0.141 C 
ATOM     27  C   UNL A   1      32.953  22.511  28.022  1.00  0.00     0.029 C 
ENDBRANCH  22  26
ENDBRANCH   9  21
BRANCH  17  28
ATOM     28  C   UNL A   1      32.681  29.767  25.690  1.00  0.00     0.020 C 
ATOM     29  C   UNL A   1      31.807  30.776  26.379  1.00  0.00     0.009 C 
ATOM     30  C   UNL A   1      32.153  29.475  27.055  1.00  0.00     0.009 C 
ENDBRANCH  17  28
BRANCH  20  31
ATOM     31  C   UNL A   1      28.951  28.623  23.049  1.00  0.00     0.433 C 
ATOM     32  F   UNL A   1      28.214  28.773  21.906  1.00  0.00    -0.165 F 
ATOM     33  F   UNL A   1      28.501  27.492  23.647  1.00  0.00    -0.165 F 
ATOM     34  F   UNL A   1      28.549  29.654  23.858  1.00  0.00    -0.165 F 
ENDBRANCH  20  31
ENDBRANCH   5   8
ENDBRANCH   3   4
ENDBRANCH   2   3
ENDBRANCH   1   2
BRANCH   1  35
ATOM     35  C   UNL A   1      38.594  22.679  26.127  1.00  0.00     0.116 C 
BRANCH  35  36
ATOM     36  N   UNL A   1      39.932  22.098  26.059  1.00  0.00    -0.352 N 
ATOM     37  C   UNL A   1      41.145  22.752  26.145  1.00  0.00     0.251 C 
ATOM     38  H   UNL A   1      39.973  21.123  25.936  1.00  0.00     0.163 HD
ATOM     39  O   UNL A   1      42.159  22.240  25.701  1.00  0.00    -0.269 OA
BRANCH  37  40
ATOM     40  C   UNL A   1      41.191  24.071  26.802  1.00  0.00     0.039 A 
ATOM     41  C   UNL A   1      40.637  25.195  26.183  1.00  0.00     0.014 A 
ATOM     42  C   UNL A   1      41.815  24.166  28.047  1.00  0.00     0.014 A 
ATOM     43  C   UNL A   1      40.667  26.412  26.858  1.00  0.00     0.010 A 
ATOM     44  C   UNL A   1      41.755  25.343  28.755  1.00  0.00     0.010 A 
ATOM     45  C   UNL A   1      41.224  26.473  28.143  1.00  0.00    -0.014 A 
BRANCH  45  46
ATOM     46  C   UNL A   1      41.235  27.728  28.875  1.00  0.00     0.031 A 
ATOM     47  C   UNL A   1      42.257  28.723  28.457  1.00  0.00     0.074 A 
ATOM     48  C   UNL A   1      40.269  28.058  29.753  1.00  0.00     0.049 A 
ATOM     49  N   UNL A   1      43.329  29.069  29.088  1.00  0.00    -0.248 NA
ATOM     50  C   UNL A   1      42.130  29.320  27.121  1.00  0.00     0.031 C 
ATOM     51  C   UNL A   1      39.001  27.379  30.036  1.00  0.00     0.029 A 
ATOM     52  N   UNL A   1      40.204  29.163  30.535  1.00  0.00    -0.354 N 
ATOM     53  C   UNL A   1      43.934  30.063  28.318  1.00  0.00     0.074 A 
ATOM     54  C   UNL A   1      43.241  30.059  27.052  1.00  0.00     0.031 C 
ATOM     55  C   UNL A   1      38.208  28.197  30.765  1.00  0.00     0.029 A 
ATOM     56  C   UNL A   1      38.978  29.368  31.144  1.00  0.00     0.049 A 
ATOM     57  H   UNL A   1      40.968  29.771  30.661  1.00  0.00     0.167 HD
ATOM     58  C   UNL A   1      44.844  30.935  28.842  1.00  0.00     0.034 A 
ATOM     59  C   UNL A   1      38.620  30.456  31.866  1.00  0.00     0.034 A 
ATOM     60  C   UNL A   1      45.244  30.540  30.166  1.00  0.00     0.049 A 
ATOM     61  C   UNL A   1      39.869  31.127  32.309  1.00  0.00     0.074 A 
ATOM     62  C   UNL A   1      45.912  29.452  30.691  1.00  0.00     0.029 A 
ATOM     63  N   UNL A   1      44.600  31.135  31.224  1.00  0.00    -0.354 N 
ATOM     64  N   UNL A   1      40.705  30.611  33.168  1.00  0.00    -0.248 NA
ATOM     65  C   UNL A   1      40.417  32.169  31.453  1.00  0.00     0.031 C 
ATOM     66  C   UNL A   1      45.244  29.172  31.919  1.00  0.00     0.029 A 
ATOM     67  C   UNL A   1      44.252  30.140  32.102  1.00  0.00     0.049 A 
ATOM     68  H   UNL A   1      44.421  32.097  31.333  1.00  0.00     0.167 HD
ATOM     69  C   UNL A   1      41.960  30.935  32.674  1.00  0.00     0.074 A 
ATOM     70  C   UNL A   1      41.720  31.978  31.678  1.00  0.00     0.031 C 
ATOM     71  C   UNL A   1      43.046  30.138  32.906  1.00  0.00     0.034 A 
BRANCH  58  72
ATOM     72  C   UNL A   1      45.161  32.300  28.287  1.00  0.00     0.023 A 
ATOM     73  C   UNL A   1      46.372  32.588  27.632  1.00  0.00     0.031 A 
ATOM     74  C   UNL A   1      44.168  33.299  28.214  1.00  0.00     0.131 A 
ATOM     75  C   UNL A   1      46.581  33.811  26.979  1.00  0.00     0.055 A 
ATOM     76  C   UNL A   1      44.352  34.493  27.506  1.00  0.00     0.041 A 
ATOM     77  F   UNL A   1      42.968  33.124  28.790  1.00  0.00    -0.206 F 
ATOM     78  C   UNL A   1      45.566  34.757  26.886  1.00  0.00     0.022 A 
BRANCH  75  79
ATOM     79  S   UNL A   1      48.186  34.177  26.221  1.00  0.00     0.124 S 
ATOM     80  O   UNL A   1      47.794  34.631  24.891  1.00  0.00    -0.237 OA
ATOM     81  O   UNL A   1      48.707  35.208  27.115  1.00  0.00    -0.237 OA
ATOM     82  O   UNL A   1      48.888  32.898  26.276  1.00  0.00    -0.744 OA
ENDBRANCH  75  79
ENDBRANCH  58  72
BRANCH  59  83
ATOM     83  C   UNL A   1      37.331  31.176  31.760  1.00  0.00     0.023 A 
ATOM     84  C   UNL A   1      36.836  31.551  30.498  1.00  0.00     0.031 A 
ATOM     85  C   UNL A   1      36.750  31.779  32.889  1.00  0.00     0.131 A 
ATOM     86  C   UNL A   1      35.854  32.543  30.383  1.00  0.00     0.055 A 
ATOM     87  C   UNL A   1      35.758  32.759  32.774  1.00  0.00     0.041 A 
ATOM     88  F   UNL A   1      37.190  31.481  34.120  1.00  0.00    -0.206 F 
ATOM     89  C   UNL A   1      35.316  33.159  31.515  1.00  0.00     0.022 A 
BRANCH  86  90
ATOM     90  S   UNL A   1      35.316  33.092  28.741  1.00  0.00     0.124 S 
ATOM     91  O   UNL A   1      33.878  32.838  28.777  1.00  0.00    -0.237 OA
ATOM     92  O   UNL A   1      35.708  34.496  28.757  1.00  0.00    -0.237 OA
ATOM     93  O   UNL A   1      36.069  32.230  27.834  1.00  0.00    -0.744 OA
ENDBRANCH  86  90
ENDBRANCH  59  83
BRANCH  71  94
ATOM     94  C   UNL A   1      42.916  28.998  33.892  1.00  0.00     0.023 A 
ATOM     95  C   UNL A   1      43.511  29.166  35.153  1.00  0.00     0.031 A 
ATOM     96  C   UNL A   1      42.467  27.706  33.555  1.00  0.00     0.131 A 
ATOM     97  C   UNL A   1      43.684  28.070  36.006  1.00  0.00     0.055 A 
ATOM     98  C   UNL A   1      42.586  26.625  34.434  1.00  0.00     0.041 A 
ATOM     99  F   UNL A   1      41.983  27.429  32.339  1.00  0.00    -0.206 F 
ATOM    100  C   UNL A   1      43.213  26.801  35.661  1.00  0.00     0.022 A 
BRANCH  97 101
ATOM    101  S   UNL A   1      44.653  28.240  37.525  1.00  0.00     0.124 S 
ATOM    102  O   UNL A   1      44.191  27.103  38.316  1.00  0.00    -0.237 OA
ATOM    103  O   UNL A   1      46.023  28.141  37.028  1.00  0.00    -0.237 OA
ATOM    104  O   UNL A   1      44.274  29.553  38.041  1.00  0.00    -0.744 OA
ENDBRANCH  97 101
ENDBRANCH  71  94
ENDBRANCH  45  46
ENDBRANCH  37  40
ENDBRANCH  35  36
ENDBRANCH   1  35
TORSDOF 18
ENDMDL
MODEL 3
REMARK VINA RESULT:     -12.3      1.813      3.086
REMARK SMILES CCn1nccc1-c1cc(C(=O)NCCCCNC(=O)c2ccc(-c3c4nc(c(-c5cc(S(=O)(=O)[O-])ccc5F)c5ccc([nH]5)c(-c5cc(S(=O)(=O)[O-])ccc5F)c5nc(c(-c6cc(S(=O)(=O)[O-])ccc6F)c6ccc3[nH]6)C=C5)C=C4)cc2)n2nc3nc(C(F)(F)F)cc(C4CC4)c3c2n1
REMARK SMILES IDX 16 1 15 2 14 3 13 4 11 5 12 6 10 8 8 9 9 10 100 11 99 12
REMARK SMILES IDX 84 13 98 14 85 15 86 16 94 17 87 18 93 19 88 20 7 21 3 22
REMARK SMILES IDX 4 23 5 24 6 25 2 26 1 27 95 28 96 29 97 30 89 31 90 32 91 33
REMARK SMILES IDX 92 34 17 35 18 36 19 37 20 39 21 40 22 41 83 42 23 43 82 44
REMARK SMILES IDX 24 45 25 46 26 47 76 48 27 49 81 50 75 51 77 52 28 53 80 54
REMARK SMILES IDX 74 55 73 56 29 58 61 59 41 60 60 61 42 62 45 63 59 64 78 65
REMARK SMILES IDX 43 66 44 67 58 69 79 70 46 71 30 72 31 73 39 74 32 75 38 76
REMARK SMILES IDX 40 77 37 78 33 79 34 80 35 81 36 82 62 83 63 84 71 85 64 86
REMARK SMILES IDX 70 87 72 88 69 89 65 90 66 91 67 92 68 93 47 94 48 95 56 96
REMARK SMILES IDX 49 97 55 98 57 99 54 100 50 101 51 102 52 103 53 104
REMARK H PARENT 13 7 18 38 77 57 45 68
REMARK Flexibility Score: inf
ROOT
ATOM      1  C   UNL A   1      34.722  33.236  27.955  1.00  0.00     0.023 C 
ENDROOT
BRANCH   1   2
ATOM      2  C   UNL A   1      35.091  31.779  27.615  1.00  0.00     0.023 C 
BRANCH   2   3
ATOM      3  C   UNL A   1      34.013  30.736  27.950  1.00  0.00     0.116 C 
BRANCH   3   4
ATOM      4  N   UNL A   1      32.797  30.979  27.181  1.00  0.00    -0.351 N 
ATOM      5  C   UNL A   1      32.225  30.423  26.072  1.00  0.00     0.270 C 
ATOM      6  O   UNL A   1      31.171  30.926  25.689  1.00  0.00    -0.268 OA
ATOM      7  H   UNL A   1      32.263  31.720  27.548  1.00  0.00     0.163 HD
BRANCH   5   8
ATOM      8  C   UNL A   1      32.807  29.246  25.370  1.00  0.00     0.134 A 
ATOM      9  C   UNL A   1      33.435  27.962  23.472  1.00  0.00     0.093 A 
ATOM     10  C   UNL A   1      32.898  29.234  24.024  1.00  0.00     0.065 A 
ATOM     11  N   UNL A   1      34.325  27.268  24.122  1.00  0.00    -0.226 NA
ATOM     12  C   UNL A   1      33.896  27.045  25.406  1.00  0.00     0.166 A 
ATOM     13  N   UNL A   1      33.051  28.006  26.032  1.00  0.00    -0.207 N 
ATOM     14  C   UNL A   1      33.696  25.836  26.052  1.00  0.00     0.069 A 
ATOM     15  N   UNL A   1      32.221  27.376  26.916  1.00  0.00    -0.145 NA
ATOM     16  C   UNL A   1      32.430  26.081  26.683  1.00  0.00     0.184 A 
ATOM     17  C   UNL A   1      34.210  24.574  25.680  1.00  0.00    -0.028 A 
ATOM     18  N   UNL A   1      31.477  25.108  26.768  1.00  0.00    -0.222 NA
ATOM     19  C   UNL A   1      33.244  23.590  25.937  1.00  0.00     0.038 A 
ATOM     20  C   UNL A   1      31.906  23.912  26.245  1.00  0.00     0.147 A 
BRANCH   9  21
ATOM     21  C   UNL A   1      32.758  27.276  22.398  1.00  0.00     0.087 A 
ATOM     22  N   UNL A   1      31.392  27.038  22.341  1.00  0.00    -0.264 N 
ATOM     23  N   UNL A   1      31.051  26.157  21.376  1.00  0.00    -0.181 NA
ATOM     24  C   UNL A   1      32.220  25.739  20.894  1.00  0.00     0.136 A 
ATOM     25  C   UNL A   1      33.305  26.431  21.450  1.00  0.00     0.052 A 
BRANCH  22  26
ATOM     26  C   UNL A   1      30.385  27.381  23.335  1.00  0.00     0.141 C 
ATOM     27  C   UNL A   1      29.463  28.515  22.925  1.00  0.00     0.029 C 
ENDBRANCH  22  26
ENDBRANCH   9  21
BRANCH  17  28
ATOM     28  C   UNL A   1      35.479  24.159  25.005  1.00  0.00     0.020 C 
ATOM     29  C   UNL A   1      35.990  22.746  25.019  1.00  0.00     0.009 C 
ATOM     30  C   UNL A   1      35.585  23.400  23.724  1.00  0.00     0.009 C 
ENDBRANCH  17  28
BRANCH  20  31
ATOM     31  C   UNL A   1      30.922  23.043  25.440  1.00  0.00     0.433 C 
ATOM     32  F   UNL A   1      31.532  22.008  24.787  1.00  0.00    -0.165 F 
ATOM     33  F   UNL A   1      29.896  22.500  26.142  1.00  0.00    -0.165 F 
ATOM     34  F   UNL A   1      30.338  23.785  24.445  1.00  0.00    -0.165 F 
ENDBRANCH  20  31
ENDBRANCH   5   8
ENDBRANCH   3   4
ENDBRANCH   2   3
ENDBRANCH   1   2
BRANCH   1  35
ATOM     35  C   UNL A   1      35.550  33.854  29.077  1.00  0.00     0.116 C 
BRANCH  35  36
ATOM     36  N   UNL A   1      34.949  33.638  30.389  1.00  0.00    -0.352 N 
ATOM     37  C   UNL A   1      35.140  32.571  31.244  1.00  0.00     0.251 C 
ATOM     38  H   UNL A   1      34.331  34.337  30.702  1.00  0.00     0.163 HD
ATOM     39  O   UNL A   1      34.320  32.311  32.108  1.00  0.00    -0.269 OA
BRANCH  37  40
ATOM     40  C   UNL A   1      36.366  31.765  31.102  1.00  0.00     0.039 A 
ATOM     41  C   UNL A   1      36.292  30.392  30.851  1.00  0.00     0.014 A 
ATOM     42  C   UNL A   1      37.599  32.407  31.241  1.00  0.00     0.014 A 
ATOM     43  C   UNL A   1      37.474  29.677  30.685  1.00  0.00     0.010 A 
ATOM     44  C   UNL A   1      38.761  31.723  30.975  1.00  0.00     0.010 A 
ATOM     45  C   UNL A   1      38.701  30.353  30.744  1.00  0.00    -0.014 A 
BRANCH  45  46
ATOM     46  C   UNL A   1      39.944  29.629  30.540  1.00  0.00     0.031 A 
ATOM     47  C   UNL A   1      40.661  29.197  31.768  1.00  0.00     0.074 A 
ATOM     48  C   UNL A   1      40.341  29.207  29.325  1.00  0.00     0.049 A 
ATOM     49  N   UNL A   1      41.753  29.679  32.259  1.00  0.00    -0.248 NA
ATOM     50  C   UNL A   1      40.023  28.179  32.615  1.00  0.00     0.031 C 
ATOM     51  C   UNL A   1      39.609  29.220  28.054  1.00  0.00     0.029 A 
ATOM     52  N   UNL A   1      41.500  28.583  29.003  1.00  0.00    -0.354 N 
ATOM     53  C   UNL A   1      42.048  28.914  33.388  1.00  0.00     0.074 A 
ATOM     54  C   UNL A   1      40.872  28.119  33.644  1.00  0.00     0.031 C 
ATOM     55  C   UNL A   1      40.258  28.444  27.156  1.00  0.00     0.029 A 
ATOM     56  C   UNL A   1      41.526  28.034  27.732  1.00  0.00     0.049 A 
ATOM     57  H   UNL A   1      42.262  28.524  29.622  1.00  0.00     0.167 HD
ATOM     58  C   UNL A   1      43.303  28.863  33.923  1.00  0.00     0.034 A 
ATOM     59  C   UNL A   1      42.510  27.257  27.221  1.00  0.00     0.034 A 
ATOM     60  C   UNL A   1      44.165  29.850  33.330  1.00  0.00     0.049 A 
ATOM     61  C   UNL A   1      43.734  27.502  28.026  1.00  0.00     0.074 A 
ATOM     62  C   UNL A   1      44.181  31.230  33.303  1.00  0.00     0.029 A 
ATOM     63  N   UNL A   1      44.977  29.441  32.299  1.00  0.00    -0.354 N 
ATOM     64  N   UNL A   1      44.386  28.632  28.029  1.00  0.00    -0.248 NA
ATOM     65  C   UNL A   1      43.973  26.640  29.174  1.00  0.00     0.031 C 
ATOM     66  C   UNL A   1      44.593  31.563  31.980  1.00  0.00     0.029 A 
ATOM     67  C   UNL A   1      44.864  30.374  31.298  1.00  0.00     0.049 A 
ATOM     68  H   UNL A   1      45.535  28.631  32.280  1.00  0.00     0.167 HD
ATOM     69  C   UNL A   1      44.758  28.819  29.353  1.00  0.00     0.074 A 
ATOM     70  C   UNL A   1      44.569  27.516  29.989  1.00  0.00     0.031 C 
ATOM     71  C   UNL A   1      44.915  30.069  29.882  1.00  0.00     0.034 A 
BRANCH  58  72
ATOM     72  C   UNL A   1      43.842  27.739  34.771  1.00  0.00     0.023 A 
ATOM     73  C   UNL A   1      43.995  26.429  34.283  1.00  0.00     0.031 A 
ATOM     74  C   UNL A   1      44.415  27.997  36.033  1.00  0.00     0.131 A 
ATOM     75  C   UNL A   1      44.649  25.439  35.029  1.00  0.00     0.055 A 
ATOM     76  C   UNL A   1      45.126  27.026  36.750  1.00  0.00     0.041 A 
ATOM     77  F   UNL A   1      44.343  29.217  36.589  1.00  0.00    -0.206 F 
ATOM     78  C   UNL A   1      45.244  25.736  36.250  1.00  0.00     0.022 A 
BRANCH  75  79
ATOM     79  S   UNL A   1      44.750  23.741  34.401  1.00  0.00     0.124 S 
ATOM     80  O   UNL A   1      46.128  23.384  34.721  1.00  0.00    -0.237 OA
ATOM     81  O   UNL A   1      43.721  23.072  35.192  1.00  0.00    -0.237 OA
ATOM     82  O   UNL A   1      44.443  23.885  32.981  1.00  0.00    -0.744 OA
ENDBRANCH  75  79
ENDBRANCH  58  72
BRANCH  59  83
ATOM     83  C   UNL A   1      42.311  26.012  26.445  1.00  0.00     0.023 A 
ATOM     84  C   UNL A   1      41.340  25.078  26.849  1.00  0.00     0.031 A 
ATOM     85  C   UNL A   1      43.274  25.584  25.515  1.00  0.00     0.131 A 
ATOM     86  C   UNL A   1      41.388  23.756  26.390  1.00  0.00     0.055 A 
ATOM     87  C   UNL A   1      43.311  24.266  25.045  1.00  0.00     0.041 A 
ATOM     88  F   UNL A   1      44.240  26.419  25.104  1.00  0.00    -0.206 F 
ATOM     89  C   UNL A   1      42.375  23.339  25.497  1.00  0.00     0.022 A 
BRANCH  86  90
ATOM     90  S   UNL A   1      40.196  22.541  27.017  1.00  0.00     0.124 S 
ATOM     91  O   UNL A   1      40.916  21.938  28.136  1.00  0.00    -0.237 OA
ATOM     92  O   UNL A   1      39.069  23.393  27.378  1.00  0.00    -0.237 OA
ATOM     93  O   UNL A   1      39.986  21.656  25.874  1.00  0.00    -0.744 OA
ENDBRANCH  86  90
ENDBRANCH  59  83
BRANCH  71  94
ATOM     94  C   UNL A   1      44.886  31.263  28.952  1.00  0.00     0.023 A 
ATOM     95  C   UNL A   1      46.116  31.717  28.449  1.00  0.00     0.031 A 
ATOM     96  C   UNL A   1      43.762  32.089  28.760  1.00  0.00     0.131 A 
ATOM     97  C   UNL A   1      46.207  32.967  27.826  1.00  0.00     0.055 A 
ATOM     98  C   UNL A   1      43.844  33.309  28.081  1.00  0.00     0.041 A 
ATOM     99  F   UNL A   1      42.573  31.788  29.293  1.00  0.00    -0.206 F 
ATOM    100  C   UNL A   1      45.076  33.762  27.625  1.00  0.00     0.022 A 
BRANCH  97 101
ATOM    101  S   UNL A   1      47.824  33.651  27.386  1.00  0.00     0.124 S 
ATOM    102  O   UNL A   1      48.118  32.969  26.128  1.00  0.00    -0.237 OA
ATOM    103  O   UNL A   1      47.532  35.078  27.271  1.00  0.00    -0.237 OA
ATOM    104  O   UNL A   1      48.682  33.283  28.509  1.00  0.00    -0.744 OA
ENDBRANCH  97 101
ENDBRANCH  71  94
ENDBRANCH  45  46
ENDBRANCH  37  40
ENDBRANCH  35  36
ENDBRANCH   1  35
TORSDOF 18
ENDMDL
