MODEL 1
REMARK VINA RESULT:     -11.6      0.000      0.000
REMARK SMILES CC(C)([NH2+]C[C@@H]1COc2ccccc21)C(=O)NCCCCNC(=O)c1ccc(-c2c3nc(c(-c4cc(S(=O)(=O)[O-])ccc4F)c4ccc([nH]4)c(-c4cc(S(=O)(=O)[O-])ccc4F)c4nc(c(-c5cc(S(=O)(=O)[O-])ccc5F)c5ccc2[nH]5)C=C4)C=C3)cc1
REMARK SMILES IDX 19 1 18 2 17 3 15 4 16 5 2 7 1 8 3 9 4 10 5 13 6 14 7 15
REMARK SMILES IDX 14 16 8 17 9 18 13 19 10 20 12 21 11 22 20 23 21 24 22 25
REMARK SMILES IDX 23 26 24 28 25 29 26 30 87 31 27 32 86 33 28 34 29 35 30 36
REMARK SMILES IDX 80 37 31 38 85 39 79 40 81 41 32 42 84 43 78 44 77 45 33 47
REMARK SMILES IDX 65 48 45 49 64 50 46 51 49 52 63 53 82 54 47 55 48 56 62 58
REMARK SMILES IDX 83 59 50 60 34 61 35 62 43 63 36 64 42 65 44 66 41 67 37 68
REMARK SMILES IDX 38 69 39 70 40 71 66 72 67 73 75 74 68 75 74 76 76 77 73 78
REMARK SMILES IDX 69 79 70 80 71 81 72 82 51 83 52 84 60 85 53 86 59 87 61 88
REMARK SMILES IDX 58 89 54 90 55 91 56 92 57 93
REMARK H PARENT 17 6 4 11 4 12 22 27 81 46 49 57
REMARK Flexibility Score: inf
ROOT
ATOM      1  C   UNL A   1      32.247  27.664  27.132  1.00  0.00     0.023 C 
ENDROOT
BRANCH   1   2
ATOM      2  C   UNL A   1      32.246  26.413  26.244  1.00  0.00     0.116 C 
BRANCH   2   3
ATOM      3  N   UNL A   1      31.418  25.379  26.822  1.00  0.00    -0.351 N 
ATOM      4  C   UNL A   1      31.385  24.026  26.699  1.00  0.00     0.280 C 
ATOM      5  O   UNL A   1      30.402  23.500  27.245  1.00  0.00    -0.268 OA
ATOM      6  H   UNL A   1      30.732  25.729  27.435  1.00  0.00     0.163 HD
BRANCH   4   7
ATOM      7  C   UNL A   1      32.494  23.148  26.010  1.00  0.00     0.169 C 
ATOM      8  C   UNL A   1      31.736  21.889  25.479  1.00  0.00     0.090 C 
ATOM      9  C   UNL A   1      33.521  22.604  27.009  1.00  0.00     0.090 C 
BRANCH   7  10
ATOM     10  N   UNL A   1      33.046  23.741  24.760  1.00  0.00    -0.333 N 
ATOM     11  H   UNL A   1      34.033  23.487  24.735  1.00  0.00     0.347 HD
ATOM     12  H   UNL A   1      32.788  24.723  24.858  1.00  0.00     0.347 HD
BRANCH  10  13
ATOM     13  C   UNL A   1      32.507  23.414  23.443  1.00  0.00     0.273 C 
BRANCH  13  14
ATOM     14  C   UNL A   1      32.170  24.589  22.509  1.00  0.00     0.116 C 
ATOM     15  C   UNL A   1      33.335  25.585  22.345  1.00  0.00     0.244 C 
ATOM     16  C   UNL A   1      31.154  25.571  22.993  1.00  0.00     0.006 A 
ATOM     17  O   UNL A   1      32.796  26.888  22.040  1.00  0.00    -0.492 OA
ATOM     18  C   UNL A   1      31.571  26.852  22.650  1.00  0.00     0.123 A 
ATOM     19  C   UNL A   1      29.928  25.375  23.603  1.00  0.00     0.008 A 
ATOM     20  C   UNL A   1      30.804  27.972  22.892  1.00  0.00     0.047 A 
ATOM     21  C   UNL A   1      29.139  26.499  23.874  1.00  0.00     0.001 A 
ATOM     22  C   UNL A   1      29.573  27.789  23.519  1.00  0.00     0.004 A 
ENDBRANCH  13  14
ENDBRANCH  10  13
ENDBRANCH   7  10
ENDBRANCH   4   7
ENDBRANCH   2   3
ENDBRANCH   1   2
BRANCH   1  23
ATOM     23  C   UNL A   1      31.668  28.910  26.478  1.00  0.00     0.023 C 
BRANCH  23  24
ATOM     24  C   UNL A   1      32.712  29.920  26.020  1.00  0.00     0.116 C 
BRANCH  24  25
ATOM     25  N   UNL A   1      32.458  31.286  26.457  1.00  0.00    -0.352 N 
ATOM     26  C   UNL A   1      33.251  32.079  27.264  1.00  0.00     0.251 C 
ATOM     27  H   UNL A   1      31.620  31.693  26.140  1.00  0.00     0.163 HD
ATOM     28  O   UNL A   1      32.875  33.183  27.608  1.00  0.00    -0.269 OA
BRANCH  26  29
ATOM     29  C   UNL A   1      34.537  31.524  27.747  1.00  0.00     0.039 A 
ATOM     30  C   UNL A   1      35.599  32.396  27.990  1.00  0.00     0.014 A 
ATOM     31  C   UNL A   1      34.651  30.166  28.050  1.00  0.00     0.014 A 
ATOM     32  C   UNL A   1      36.751  31.915  28.617  1.00  0.00     0.010 A 
ATOM     33  C   UNL A   1      35.755  29.713  28.761  1.00  0.00     0.010 A 
ATOM     34  C   UNL A   1      36.820  30.581  29.048  1.00  0.00    -0.014 A 
BRANCH  34  35
ATOM     35  C   UNL A   1      38.009  30.054  29.766  1.00  0.00     0.031 A 
ATOM     36  C   UNL A   1      38.283  30.510  31.175  1.00  0.00     0.074 A 
ATOM     37  C   UNL A   1      38.878  29.243  29.132  1.00  0.00     0.049 A 
ATOM     38  N   UNL A   1      39.316  30.271  31.940  1.00  0.00    -0.248 NA
ATOM     39  C   UNL A   1      37.278  31.395  31.783  1.00  0.00     0.031 C 
ATOM     40  C   UNL A   1      38.754  28.781  27.747  1.00  0.00     0.029 A 
ATOM     41  N   UNL A   1      40.045  28.666  29.567  1.00  0.00    -0.354 N 
ATOM     42  C   UNL A   1      39.100  31.000  33.104  1.00  0.00     0.074 A 
ATOM     43  C   UNL A   1      37.876  31.748  32.908  1.00  0.00     0.031 C 
ATOM     44  C   UNL A   1      39.787  27.972  27.459  1.00  0.00     0.029 A 
ATOM     45  C   UNL A   1      40.664  27.884  28.620  1.00  0.00     0.049 A 
ATOM     46  H   UNL A   1      40.405  28.800  30.474  1.00  0.00     0.167 HD
ATOM     47  C   UNL A   1      39.836  31.022  34.243  1.00  0.00     0.034 A 
ATOM     48  C   UNL A   1      41.811  27.178  28.686  1.00  0.00     0.034 A 
ATOM     49  C   UNL A   1      41.030  30.239  34.433  1.00  0.00     0.049 A 
ATOM     50  C   UNL A   1      42.593  27.182  29.975  1.00  0.00     0.074 A 
ATOM     51  C   UNL A   1      41.827  30.135  35.560  1.00  0.00     0.029 A 
ATOM     52  N   UNL A   1      41.597  29.413  33.469  1.00  0.00    -0.354 N 
ATOM     53  N   UNL A   1      42.352  27.842  31.086  1.00  0.00    -0.248 NA
ATOM     54  C   UNL A   1      43.790  26.334  30.026  1.00  0.00     0.031 C 
ATOM     55  C   UNL A   1      42.898  29.285  35.263  1.00  0.00     0.029 A 
ATOM     56  C   UNL A   1      42.736  28.806  33.972  1.00  0.00     0.049 A 
ATOM     57  H   UNL A   1      41.240  29.280  32.561  1.00  0.00     0.167 HD
ATOM     58  C   UNL A   1      43.349  27.458  31.977  1.00  0.00     0.074 A 
ATOM     59  C   UNL A   1      44.185  26.504  31.279  1.00  0.00     0.031 C 
ATOM     60  C   UNL A   1      43.554  27.854  33.259  1.00  0.00     0.034 A 
BRANCH  47  61
ATOM     61  C   UNL A   1      39.364  31.935  35.350  1.00  0.00     0.023 A 
ATOM     62  C   UNL A   1      39.830  33.257  35.461  1.00  0.00     0.031 A 
ATOM     63  C   UNL A   1      38.487  31.463  36.341  1.00  0.00     0.131 A 
ATOM     64  C   UNL A   1      39.498  34.025  36.587  1.00  0.00     0.055 A 
ATOM     65  C   UNL A   1      38.085  32.265  37.411  1.00  0.00     0.041 A 
ATOM     66  F   UNL A   1      38.023  30.203  36.300  1.00  0.00    -0.206 F 
ATOM     67  C   UNL A   1      38.608  33.548  37.551  1.00  0.00     0.022 A 
BRANCH  64  68
ATOM     68  S   UNL A   1      40.381  35.586  36.857  1.00  0.00     0.124 S 
ATOM     69  O   UNL A   1      39.657  36.490  35.966  1.00  0.00    -0.237 OA
ATOM     70  O   UNL A   1      40.195  35.813  38.285  1.00  0.00    -0.237 OA
ATOM     71  O   UNL A   1      41.750  35.282  36.445  1.00  0.00    -0.744 OA
ENDBRANCH  64  68
ENDBRANCH  47  61
BRANCH  48  72
ATOM     72  C   UNL A   1      42.287  26.395  27.510  1.00  0.00     0.023 A 
ATOM     73  C   UNL A   1      41.943  25.042  27.358  1.00  0.00     0.031 A 
ATOM     74  C   UNL A   1      43.128  26.974  26.543  1.00  0.00     0.131 A 
ATOM     75  C   UNL A   1      42.475  24.299  26.293  1.00  0.00     0.055 A 
ATOM     76  C   UNL A   1      43.617  26.243  25.460  1.00  0.00     0.041 A 
ATOM     77  F   UNL A   1      43.478  28.266  26.636  1.00  0.00    -0.206 F 
ATOM     78  C   UNL A   1      43.303  24.893  25.337  1.00  0.00     0.022 A 
BRANCH  75  79
ATOM     79  S   UNL A   1      42.134  22.519  26.221  1.00  0.00     0.124 S 
ATOM     80  O   UNL A   1      42.860  22.126  25.018  1.00  0.00    -0.237 OA
ATOM     81  O   UNL A   1      42.689  22.054  27.487  1.00  0.00    -0.237 OA
ATOM     82  O   UNL A   1      40.677  22.455  26.120  1.00  0.00    -0.744 OA
ENDBRANCH  75  79
ENDBRANCH  48  72
BRANCH  60  83
ATOM     83  C   UNL A   1      44.692  27.203  34.002  1.00  0.00     0.023 A 
ATOM     84  C   UNL A   1      44.529  25.988  34.691  1.00  0.00     0.031 A 
ATOM     85  C   UNL A   1      45.958  27.814  34.024  1.00  0.00     0.131 A 
ATOM     86  C   UNL A   1      45.601  25.450  35.418  1.00  0.00     0.055 A 
ATOM     87  C   UNL A   1      47.035  27.247  34.705  1.00  0.00     0.041 A 
ATOM     88  F   UNL A   1      46.167  28.975  33.381  1.00  0.00    -0.206 F 
ATOM     89  C   UNL A   1      46.857  26.065  35.418  1.00  0.00     0.022 A 
BRANCH  86  90
ATOM     90  S   UNL A   1      45.310  23.980  36.439  1.00  0.00     0.124 S 
ATOM     91  O   UNL A   1      46.528  23.209  36.217  1.00  0.00    -0.237 OA
ATOM     92  O   UNL A   1      45.153  24.553  37.772  1.00  0.00    -0.237 OA
ATOM     93  O   UNL A   1      44.095  23.401  35.868  1.00  0.00    -0.744 OA
ENDBRANCH  86  90
ENDBRANCH  60  83
ENDBRANCH  34  35
ENDBRANCH  26  29
ENDBRANCH  24  25
ENDBRANCH  23  24
ENDBRANCH   1  23
TORSDOF 17
ENDMDL
MODEL 2
REMARK VINA RESULT:     -11.4      2.824      8.263
REMARK SMILES CC(C)([NH2+]C[C@@H]1COc2ccccc21)C(=O)NCCCCNC(=O)c1ccc(-c2c3nc(c(-c4cc(S(=O)(=O)[O-])ccc4F)c4ccc([nH]4)c(-c4cc(S(=O)(=O)[O-])ccc4F)c4nc(c(-c5cc(S(=O)(=O)[O-])ccc5F)c5ccc2[nH]5)C=C4)C=C3)cc1
REMARK SMILES IDX 19 1 18 2 17 3 15 4 16 5 2 7 1 8 3 9 4 10 5 13 6 14 7 15
REMARK SMILES IDX 14 16 8 17 9 18 13 19 10 20 12 21 11 22 20 23 21 24 22 25
REMARK SMILES IDX 23 26 24 28 25 29 26 30 87 31 27 32 86 33 28 34 29 35 30 36
REMARK SMILES IDX 80 37 31 38 85 39 79 40 81 41 32 42 84 43 78 44 77 45 33 47
REMARK SMILES IDX 65 48 45 49 64 50 46 51 49 52 63 53 82 54 47 55 48 56 62 58
REMARK SMILES IDX 83 59 50 60 34 61 35 62 43 63 36 64 42 65 44 66 41 67 37 68
REMARK SMILES IDX 38 69 39 70 40 71 66 72 67 73 75 74 68 75 74 76 76 77 73 78
REMARK SMILES IDX 69 79 70 80 71 81 72 82 51 83 52 84 60 85 53 86 59 87 61 88
REMARK SMILES IDX 58 89 54 90 55 91 56 92 57 93
REMARK H PARENT 17 6 4 11 4 12 22 27 81 46 49 57
REMARK Flexibility Score: inf
ROOT
ATOM      1  C   UNL A   1      34.966  30.719  27.867  1.00  0.00     0.023 C 
ENDROOT
BRANCH   1   2
ATOM      2  C   UNL A   1      34.769  29.235  27.538  1.00  0.00     0.116 C 
BRANCH   2   3
ATOM      3  N   UNL A   1      33.461  28.788  27.958  1.00  0.00    -0.351 N 
ATOM      4  C   UNL A   1      32.439  28.150  27.327  1.00  0.00     0.280 C 
ATOM      5  O   UNL A   1      31.399  28.087  28.001  1.00  0.00    -0.268 OA
ATOM      6  H   UNL A   1      33.267  28.988  28.902  1.00  0.00     0.163 HD
BRANCH   4   7
ATOM      7  C   UNL A   1      32.528  27.471  25.910  1.00  0.00     0.169 C 
ATOM      8  C   UNL A   1      31.230  26.610  25.796  1.00  0.00     0.090 C 
ATOM      9  C   UNL A   1      33.684  26.468  25.809  1.00  0.00     0.090 C 
BRANCH   7  10
ATOM     10  N   UNL A   1      32.385  28.421  24.772  1.00  0.00    -0.333 N 
ATOM     11  H   UNL A   1      32.182  27.854  23.950  1.00  0.00     0.347 HD
ATOM     12  H   UNL A   1      33.262  28.939  24.815  1.00  0.00     0.347 HD
BRANCH  10  13
ATOM     13  C   UNL A   1      31.396  29.495  24.781  1.00  0.00     0.273 C 
BRANCH  13  14
ATOM     14  C   UNL A   1      30.134  29.296  23.924  1.00  0.00     0.116 C 
ATOM     15  C   UNL A   1      30.411  28.555  22.601  1.00  0.00     0.244 C 
ATOM     16  C   UNL A   1      29.520  30.519  23.325  1.00  0.00     0.006 A 
ATOM     17  O   UNL A   1      29.427  28.958  21.625  1.00  0.00    -0.492 OA
ATOM     18  C   UNL A   1      29.111  30.226  22.029  1.00  0.00     0.123 A 
ATOM     19  C   UNL A   1      29.256  31.760  23.878  1.00  0.00     0.008 A 
ATOM     20  C   UNL A   1      28.434  31.134  21.242  1.00  0.00     0.047 A 
ATOM     21  C   UNL A   1      28.585  32.703  23.091  1.00  0.00     0.001 A 
ATOM     22  C   UNL A   1      28.175  32.392  21.783  1.00  0.00     0.004 A 
ENDBRANCH  13  14
ENDBRANCH  10  13
ENDBRANCH   7  10
ENDBRANCH   4   7
ENDBRANCH   2   3
ENDBRANCH   1   2
BRANCH   1  23
ATOM     23  C   UNL A   1      33.705  31.567  27.768  1.00  0.00     0.023 C 
BRANCH  23  24
ATOM     24  C   UNL A   1      33.926  32.951  27.173  1.00  0.00     0.116 C 
BRANCH  24  25
ATOM     25  N   UNL A   1      33.129  34.003  27.787  1.00  0.00    -0.352 N 
ATOM     26  C   UNL A   1      33.314  34.597  29.021  1.00  0.00     0.251 C 
ATOM     27  H   UNL A   1      32.365  34.331  27.259  1.00  0.00     0.163 HD
ATOM     28  O   UNL A   1      32.519  35.419  29.437  1.00  0.00    -0.269 OA
BRANCH  26  29
ATOM     29  C   UNL A   1      34.465  34.159  29.844  1.00  0.00     0.039 A 
ATOM     30  C   UNL A   1      34.232  33.324  30.938  1.00  0.00     0.014 A 
ATOM     31  C   UNL A   1      35.768  34.495  29.472  1.00  0.00     0.014 A 
ATOM     32  C   UNL A   1      35.318  32.756  31.610  1.00  0.00     0.010 A 
ATOM     33  C   UNL A   1      36.840  33.853  30.078  1.00  0.00     0.010 A 
ATOM     34  C   UNL A   1      36.628  32.980  31.157  1.00  0.00    -0.014 A 
BRANCH  34  35
ATOM     35  C   UNL A   1      37.799  32.348  31.817  1.00  0.00     0.031 A 
ATOM     36  C   UNL A   1      38.524  31.228  31.120  1.00  0.00     0.074 A 
ATOM     37  C   UNL A   1      38.155  32.717  33.064  1.00  0.00     0.049 A 
ATOM     38  N   UNL A   1      39.489  30.463  31.557  1.00  0.00    -0.248 NA
ATOM     39  C   UNL A   1      38.063  30.895  29.763  1.00  0.00     0.031 C 
ATOM     40  C   UNL A   1      37.491  33.746  33.867  1.00  0.00     0.029 A 
ATOM     41  N   UNL A   1      39.161  32.262  33.879  1.00  0.00    -0.354 N 
ATOM     42  C   UNL A   1      39.728  29.540  30.544  1.00  0.00     0.074 A 
ATOM     43  C   UNL A   1      38.754  29.798  29.506  1.00  0.00     0.031 C 
ATOM     44  C   UNL A   1      38.125  33.862  35.045  1.00  0.00     0.029 A 
ATOM     45  C   UNL A   1      39.215  32.895  35.099  1.00  0.00     0.049 A 
ATOM     46  H   UNL A   1      39.786  31.548  33.614  1.00  0.00     0.167 HD
ATOM     47  C   UNL A   1      40.690  28.587  30.471  1.00  0.00     0.034 A 
ATOM     48  C   UNL A   1      40.052  32.713  36.140  1.00  0.00     0.034 A 
ATOM     49  C   UNL A   1      41.677  28.373  31.499  1.00  0.00     0.049 A 
ATOM     50  C   UNL A   1      41.141  31.676  36.022  1.00  0.00     0.074 A 
ATOM     51  C   UNL A   1      42.733  27.478  31.512  1.00  0.00     0.029 A 
ATOM     52  N   UNL A   1      41.736  29.073  32.698  1.00  0.00    -0.354 N 
ATOM     53  N   UNL A   1      41.384  30.840  35.038  1.00  0.00    -0.248 NA
ATOM     54  C   UNL A   1      42.078  31.571  37.147  1.00  0.00     0.031 C 
ATOM     55  C   UNL A   1      43.400  27.605  32.736  1.00  0.00     0.029 A 
ATOM     56  C   UNL A   1      42.801  28.623  33.461  1.00  0.00     0.049 A 
ATOM     57  H   UNL A   1      41.111  29.785  32.966  1.00  0.00     0.167 HD
ATOM     58  C   UNL A   1      42.524  30.136  35.413  1.00  0.00     0.074 A 
ATOM     59  C   UNL A   1      42.925  30.652  36.705  1.00  0.00     0.031 C 
ATOM     60  C   UNL A   1      43.185  29.155  34.747  1.00  0.00     0.034 A 
BRANCH  47  61
ATOM     61  C   UNL A   1      40.697  27.707  29.243  1.00  0.00     0.023 A 
ATOM     62  C   UNL A   1      41.627  27.900  28.206  1.00  0.00     0.031 A 
ATOM     63  C   UNL A   1      39.727  26.704  29.077  1.00  0.00     0.131 A 
ATOM     64  C   UNL A   1      41.506  27.173  27.012  1.00  0.00     0.055 A 
ATOM     65  C   UNL A   1      39.670  25.919  27.924  1.00  0.00     0.041 A 
ATOM     66  F   UNL A   1      38.800  26.485  30.024  1.00  0.00    -0.206 F 
ATOM     67  C   UNL A   1      40.550  26.165  26.874  1.00  0.00     0.022 A 
BRANCH  64  68
ATOM     68  S   UNL A   1      42.505  27.683  25.588  1.00  0.00     0.124 S 
ATOM     69  O   UNL A   1      42.279  26.577  24.660  1.00  0.00    -0.237 OA
ATOM     70  O   UNL A   1      41.903  28.959  25.219  1.00  0.00    -0.237 OA
ATOM     71  O   UNL A   1      43.860  27.765  26.130  1.00  0.00    -0.744 OA
ENDBRANCH  64  68
ENDBRANCH  47  61
BRANCH  48  72
ATOM     72  C   UNL A   1      39.912  33.532  37.377  1.00  0.00     0.023 A 
ATOM     73  C   UNL A   1      39.097  33.101  38.438  1.00  0.00     0.031 A 
ATOM     74  C   UNL A   1      40.555  34.775  37.503  1.00  0.00     0.131 A 
ATOM     75  C   UNL A   1      38.906  33.929  39.555  1.00  0.00     0.055 A 
ATOM     76  C   UNL A   1      40.400  35.573  38.637  1.00  0.00     0.041 A 
ATOM     77  F   UNL A   1      41.353  35.227  36.523  1.00  0.00    -0.206 F 
ATOM     78  C   UNL A   1      39.560  35.158  39.666  1.00  0.00     0.022 A 
BRANCH  75  79
ATOM     79  S   UNL A   1      37.725  33.408  40.829  1.00  0.00     0.124 S 
ATOM     80  O   UNL A   1      37.419  34.675  41.486  1.00  0.00    -0.237 OA
ATOM     81  O   UNL A   1      36.654  32.825  40.027  1.00  0.00    -0.237 OA
ATOM     82  O   UNL A   1      38.489  32.456  41.633  1.00  0.00    -0.744 OA
ENDBRANCH  75  79
ENDBRANCH  48  72
BRANCH  60  83
ATOM     83  C   UNL A   1      44.444  28.625  35.385  1.00  0.00     0.023 A 
ATOM     84  C   UNL A   1      44.421  27.542  36.281  1.00  0.00     0.031 A 
ATOM     85  C   UNL A   1      45.683  29.222  35.094  1.00  0.00     0.131 A 
ATOM     86  C   UNL A   1      45.610  27.123  36.897  1.00  0.00     0.055 A 
ATOM     87  C   UNL A   1      46.870  28.766  35.670  1.00  0.00     0.041 A 
ATOM     88  F   UNL A   1      45.759  30.259  34.245  1.00  0.00    -0.206 F 
ATOM     89  C   UNL A   1      46.835  27.719  36.586  1.00  0.00     0.022 A 
BRANCH  86  90
ATOM     90  S   UNL A   1      45.522  25.843  38.179  1.00  0.00     0.124 S 
ATOM     91  O   UNL A   1      45.825  26.601  39.388  1.00  0.00    -0.237 OA
ATOM     92  O   UNL A   1      44.146  25.371  38.052  1.00  0.00    -0.237 OA
ATOM     93  O   UNL A   1      46.546  24.882  37.775  1.00  0.00    -0.744 OA
ENDBRANCH  86  90
ENDBRANCH  60  83
ENDBRANCH  34  35
ENDBRANCH  26  29
ENDBRANCH  24  25
ENDBRANCH  23  24
ENDBRANCH   1  23
TORSDOF 17
ENDMDL
MODEL 3
REMARK VINA RESULT:     -11.1      4.844      9.961
REMARK SMILES CC(C)([NH2+]C[C@@H]1COc2ccccc21)C(=O)NCCCCNC(=O)c1ccc(-c2c3nc(c(-c4cc(S(=O)(=O)[O-])ccc4F)c4ccc([nH]4)c(-c4cc(S(=O)(=O)[O-])ccc4F)c4nc(c(-c5cc(S(=O)(=O)[O-])ccc5F)c5ccc2[nH]5)C=C4)C=C3)cc1
REMARK SMILES IDX 19 1 18 2 17 3 15 4 16 5 2 7 1 8 3 9 4 10 5 13 6 14 7 15
REMARK SMILES IDX 14 16 8 17 9 18 13 19 10 20 12 21 11 22 20 23 21 24 22 25
REMARK SMILES IDX 23 26 24 28 25 29 26 30 87 31 27 32 86 33 28 34 29 35 30 36
REMARK SMILES IDX 80 37 31 38 85 39 79 40 81 41 32 42 84 43 78 44 77 45 33 47
REMARK SMILES IDX 65 48 45 49 64 50 46 51 49 52 63 53 82 54 47 55 48 56 62 58
REMARK SMILES IDX 83 59 50 60 34 61 35 62 43 63 36 64 42 65 44 66 41 67 37 68
REMARK SMILES IDX 38 69 39 70 40 71 66 72 67 73 75 74 68 75 74 76 76 77 73 78
REMARK SMILES IDX 69 79 70 80 71 81 72 82 51 83 52 84 60 85 53 86 59 87 61 88
REMARK SMILES IDX 58 89 54 90 55 91 56 92 57 93
REMARK H PARENT 17 6 4 11 4 12 22 27 81 46 49 57
REMARK Flexibility Score: inf
ROOT
ATOM      1  C   UNL A   1      34.855  20.891  25.379  1.00  0.00     0.023 C 
ENDROOT
BRANCH   1   2
ATOM      2  C   UNL A   1      33.452  21.498  25.257  1.00  0.00     0.116 C 
BRANCH   2   3
ATOM      3  N   UNL A   1      33.037  21.549  23.874  1.00  0.00    -0.351 N 
ATOM      4  C   UNL A   1      32.723  22.563  23.025  1.00  0.00     0.280 C 
ATOM      5  O   UNL A   1      32.250  22.179  21.944  1.00  0.00    -0.268 OA
ATOM      6  H   UNL A   1      32.968  20.660  23.457  1.00  0.00     0.163 HD
BRANCH   4   7
ATOM      7  C   UNL A   1      32.980  24.092  23.300  1.00  0.00     0.169 C 
ATOM      8  C   UNL A   1      32.860  24.776  21.901  1.00  0.00     0.090 C 
ATOM      9  C   UNL A   1      34.414  24.374  23.762  1.00  0.00     0.090 C 
BRANCH   7  10
ATOM     10  N   UNL A   1      31.898  24.757  24.078  1.00  0.00    -0.333 N 
ATOM     11  H   UNL A   1      32.322  25.575  24.515  1.00  0.00     0.347 HD
ATOM     12  H   UNL A   1      31.562  23.997  24.669  1.00  0.00     0.347 HD
BRANCH  10  13
ATOM     13  C   UNL A   1      30.666  25.223  23.449  1.00  0.00     0.273 C 
BRANCH  13  14
ATOM     14  C   UNL A   1      30.224  26.665  23.751  1.00  0.00     0.116 C 
ATOM     15  C   UNL A   1      30.676  27.675  22.678  1.00  0.00     0.244 C 
ATOM     16  C   UNL A   1      30.861  27.340  24.921  1.00  0.00     0.006 A 
ATOM     17  O   UNL A   1      30.816  28.975  23.289  1.00  0.00    -0.492 OA
ATOM     18  C   UNL A   1      31.130  28.662  24.583  1.00  0.00     0.123 A 
ATOM     19  C   UNL A   1      31.113  26.881  26.201  1.00  0.00     0.008 A 
ATOM     20  C   UNL A   1      31.649  29.567  25.485  1.00  0.00     0.047 A 
ATOM     21  C   UNL A   1      31.656  27.777  27.129  1.00  0.00     0.001 A 
ATOM     22  C   UNL A   1      31.920  29.112  26.774  1.00  0.00     0.004 A 
ENDBRANCH  13  14
ENDBRANCH  10  13
ENDBRANCH   7  10
ENDBRANCH   4   7
ENDBRANCH   2   3
ENDBRANCH   1   2
BRANCH   1  23
ATOM     23  C   UNL A   1      35.883  21.790  26.052  1.00  0.00     0.023 C 
BRANCH  23  24
ATOM     24  C   UNL A   1      37.184  21.944  25.276  1.00  0.00     0.116 C 
BRANCH  24  25
ATOM     25  N   UNL A   1      38.170  20.909  25.547  1.00  0.00    -0.352 N 
ATOM     26  C   UNL A   1      39.387  21.043  26.188  1.00  0.00     0.251 C 
ATOM     27  H   UNL A   1      37.944  20.003  25.235  1.00  0.00     0.163 HD
ATOM     28  O   UNL A   1      40.146  20.097  26.280  1.00  0.00    -0.269 OA
BRANCH  26  29
ATOM     29  C   UNL A   1      39.765  22.381  26.701  1.00  0.00     0.039 A 
ATOM     30  C   UNL A   1      40.774  22.474  27.661  1.00  0.00     0.014 A 
ATOM     31  C   UNL A   1      39.192  23.533  26.160  1.00  0.00     0.014 A 
ATOM     32  C   UNL A   1      41.267  23.732  28.018  1.00  0.00     0.010 A 
ATOM     33  C   UNL A   1      39.751  24.773  26.442  1.00  0.00     0.010 A 
ATOM     34  C   UNL A   1      40.791  24.887  27.378  1.00  0.00    -0.014 A 
BRANCH  34  35
ATOM     35  C   UNL A   1      41.333  26.233  27.696  1.00  0.00     0.031 A 
ATOM     36  C   UNL A   1      42.725  26.593  27.249  1.00  0.00     0.074 A 
ATOM     37  C   UNL A   1      40.617  27.091  28.450  1.00  0.00     0.049 A 
ATOM     38  N   UNL A   1      43.435  27.658  27.515  1.00  0.00    -0.248 NA
ATOM     39  C   UNL A   1      43.429  25.592  26.432  1.00  0.00     0.031 C 
ATOM     40  C   UNL A   1      39.282  26.833  28.995  1.00  0.00     0.029 A 
ATOM     41  N   UNL A   1      40.915  28.354  28.896  1.00  0.00    -0.354 N 
ATOM     42  C   UNL A   1      44.676  27.442  26.927  1.00  0.00     0.074 A 
ATOM     43  C   UNL A   1      44.642  26.111  26.358  1.00  0.00     0.031 C 
ATOM     44  C   UNL A   1      38.867  27.914  29.675  1.00  0.00     0.029 A 
ATOM     45  C   UNL A   1      39.916  28.927  29.648  1.00  0.00     0.049 A 
ATOM     46  H   UNL A   1      41.766  28.808  28.695  1.00  0.00     0.167 HD
ATOM     47  C   UNL A   1      45.735  28.284  26.841  1.00  0.00     0.034 A 
ATOM     48  C   UNL A   1      39.858  30.134  30.247  1.00  0.00     0.034 A 
ATOM     49  C   UNL A   1      45.734  29.620  27.380  1.00  0.00     0.049 A 
ATOM     50  C   UNL A   1      41.030  31.072  30.104  1.00  0.00     0.074 A 
ATOM     51  C   UNL A   1      46.724  30.584  27.306  1.00  0.00     0.029 A 
ATOM     52  N   UNL A   1      44.681  30.187  28.089  1.00  0.00    -0.354 N 
ATOM     53  N   UNL A   1      42.182  30.871  29.505  1.00  0.00    -0.248 NA
ATOM     54  C   UNL A   1      40.887  32.405  30.703  1.00  0.00     0.031 C 
ATOM     55  C   UNL A   1      46.290  31.715  28.008  1.00  0.00     0.029 A 
ATOM     56  C   UNL A   1      45.002  31.481  28.465  1.00  0.00     0.049 A 
ATOM     57  H   UNL A   1      43.831  29.735  28.292  1.00  0.00     0.167 HD
ATOM     58  C   UNL A   1      42.884  32.065  29.626  1.00  0.00     0.074 A 
ATOM     59  C   UNL A   1      42.023  32.983  30.344  1.00  0.00     0.031 C 
ATOM     60  C   UNL A   1      44.127  32.380  29.179  1.00  0.00     0.034 A 
BRANCH  47  61
ATOM     61  C   UNL A   1      46.975  27.764  26.152  1.00  0.00     0.023 A 
ATOM     62  C   UNL A   1      47.241  28.055  24.802  1.00  0.00     0.031 A 
ATOM     63  C   UNL A   1      47.870  26.920  26.830  1.00  0.00     0.131 A 
ATOM     64  C   UNL A   1      48.313  27.429  24.148  1.00  0.00     0.055 A 
ATOM     65  C   UNL A   1      48.989  26.374  26.198  1.00  0.00     0.041 A 
ATOM     66  F   UNL A   1      47.659  26.590  28.114  1.00  0.00    -0.206 F 
ATOM     67  C   UNL A   1      49.204  26.611  24.843  1.00  0.00     0.022 A 
BRANCH  64  68
ATOM     68  S   UNL A   1      48.420  27.567  22.343  1.00  0.00     0.124 S 
ATOM     69  O   UNL A   1      47.115  28.135  22.014  1.00  0.00    -0.237 OA
ATOM     70  O   UNL A   1      49.565  28.451  22.160  1.00  0.00    -0.237 OA
ATOM     71  O   UNL A   1      48.619  26.187  21.904  1.00  0.00    -0.744 OA
ENDBRANCH  64  68
ENDBRANCH  47  61
BRANCH  48  72
ATOM     72  C   UNL A   1      38.650  30.537  31.021  1.00  0.00     0.023 A 
ATOM     73  C   UNL A   1      37.578  31.193  30.394  1.00  0.00     0.031 A 
ATOM     74  C   UNL A   1      38.566  30.314  32.406  1.00  0.00     0.131 A 
ATOM     75  C   UNL A   1      36.490  31.646  31.157  1.00  0.00     0.055 A 
ATOM     76  C   UNL A   1      37.461  30.724  33.153  1.00  0.00     0.041 A 
ATOM     77  F   UNL A   1      39.559  29.682  33.052  1.00  0.00    -0.206 F 
ATOM     78  C   UNL A   1      36.420  31.407  32.531  1.00  0.00     0.022 A 
BRANCH  75  79
ATOM     79  S   UNL A   1      35.202  32.624  30.337  1.00  0.00     0.124 S 
ATOM     80  O   UNL A   1      34.779  31.724  29.269  1.00  0.00    -0.237 OA
ATOM     81  O   UNL A   1      34.246  32.831  31.419  1.00  0.00    -0.237 OA
ATOM     82  O   UNL A   1      35.913  33.824  29.898  1.00  0.00    -0.744 OA
ENDBRANCH  75  79
ENDBRANCH  48  72
BRANCH  60  83
ATOM     83  C   UNL A   1      44.596  33.795  29.404  1.00  0.00     0.023 A 
ATOM     84  C   UNL A   1      44.295  34.828  28.498  1.00  0.00     0.031 A 
ATOM     85  C   UNL A   1      45.362  34.109  30.540  1.00  0.00     0.131 A 
ATOM     86  C   UNL A   1      44.805  36.116  28.718  1.00  0.00     0.055 A 
ATOM     87  C   UNL A   1      45.821  35.404  30.781  1.00  0.00     0.041 A 
ATOM     88  F   UNL A   1      45.676  33.158  31.435  1.00  0.00    -0.206 F 
ATOM     89  C   UNL A   1      45.553  36.414  29.861  1.00  0.00     0.022 A 
BRANCH  86  90
ATOM     90  S   UNL A   1      44.549  37.382  27.445  1.00  0.00     0.124 S 
ATOM     91  O   UNL A   1      44.415  38.595  28.244  1.00  0.00    -0.237 OA
ATOM     92  O   UNL A   1      45.769  37.274  26.651  1.00  0.00    -0.237 OA
ATOM     93  O   UNL A   1      43.330  36.946  26.768  1.00  0.00    -0.744 OA
ENDBRANCH  86  90
ENDBRANCH  60  83
ENDBRANCH  34  35
ENDBRANCH  26  29
ENDBRANCH  24  25
ENDBRANCH  23  24
ENDBRANCH   1  23
TORSDOF 17
ENDMDL
