MODEL 1
REMARK VINA RESULT:     -10.7      0.000      0.000
REMARK SMILES CCCCCCNC(=O)Oc1cccc(-c2ccc(CC(=O)NCCCCNC(=O)c3ccc(-c4c5nc(c(-c6cc(S(=O)(=O)[O-])ccc6F)c6ccc([nH]6)c(-c6cc(S(=O)(=O)[O-])ccc6F)c6nc(c(-c7cc(S(=O)(=O)[O-])ccc7F)c7ccc4[nH]7)C=C6)C=C5)cc3)cc2F)c1
REMARK SMILES IDX 21 1 22 2 23 3 20 5 19 6 16 7 17 8 95 9 18 10 94 11 96 12
REMARK SMILES IDX 15 13 11 14 12 15 97 16 13 17 14 18 10 19 8 20 7 21 9 23
REMARK SMILES IDX 6 24 5 25 4 26 3 27 2 28 1 29 24 30 25 31 26 32 27 33 28 34
REMARK SMILES IDX 29 35 30 37 31 38 32 39 93 40 33 41 92 42 34 43 35 44 36 45
REMARK SMILES IDX 86 46 37 47 91 48 85 49 87 50 38 51 90 52 84 53 83 54 39 56
REMARK SMILES IDX 71 57 51 58 70 59 52 60 55 61 69 62 88 63 53 64 54 65 68 67
REMARK SMILES IDX 89 68 56 69 40 70 41 71 49 72 42 73 48 74 50 75 47 76 43 77
REMARK SMILES IDX 44 78 45 79 46 80 72 81 73 82 81 83 74 84 80 85 82 86 79 87
REMARK SMILES IDX 75 88 76 89 77 90 78 91 57 92 58 93 66 94 59 95 65 96 67 97
REMARK SMILES IDX 64 98 60 99 61 100 62 101 63 102
REMARK H PARENT 23 4 7 22 28 36 87 55 55 66
REMARK Flexibility Score: inf
ROOT
ATOM      1  C   UNL A   1      30.467  29.021  23.203  1.00  0.00     0.224 C 
ATOM      2  O   UNL A   1      29.563  29.713  23.674  1.00  0.00    -0.275 OA
ATOM      3  N   UNL A   1      31.747  29.495  23.241  1.00  0.00    -0.356 N 
ATOM      4  H   UNL A   1      31.866  30.354  23.708  1.00  0.00     0.163 HD
ENDROOT
BRANCH   1   5
ATOM      5  C   UNL A   1      30.181  27.643  22.631  1.00  0.00     0.135 C 
BRANCH   5   6
ATOM      6  C   UNL A   1      30.768  26.505  23.430  1.00  0.00    -0.036 A 
ATOM      7  C   UNL A   1      31.813  24.301  24.875  1.00  0.00     0.018 A 
ATOM      8  C   UNL A   1      30.893  25.181  25.467  1.00  0.00     0.012 A 
ATOM      9  C   UNL A   1      32.205  24.564  23.555  1.00  0.00     0.131 A 
ATOM     10  C   UNL A   1      30.379  26.273  24.756  1.00  0.00     0.005 A 
ATOM     11  C   UNL A   1      31.708  25.651  22.845  1.00  0.00     0.044 A 
ATOM     12  F   UNL A   1      33.072  23.753  22.929  1.00  0.00    -0.206 F 
BRANCH   7  13
ATOM     13  C   UNL A   1      32.376  23.165  25.618  1.00  0.00    -0.012 A 
ATOM     14  C   UNL A   1      32.725  20.770  25.833  1.00  0.00     0.133 A 
ATOM     15  C   UNL A   1      33.391  20.948  27.041  1.00  0.00     0.047 A 
ATOM     16  C   UNL A   1      32.206  21.859  25.135  1.00  0.00     0.056 A 
ATOM     17  C   UNL A   1      33.572  22.239  27.535  1.00  0.00     0.004 A 
ATOM     18  C   UNL A   1      33.073  23.339  26.826  1.00  0.00     0.009 A 
BRANCH  14  19
ATOM     19  O   UNL A   1      32.485  19.453  25.407  1.00  0.00    -0.410 OA
BRANCH  19  20
ATOM     20  C   UNL A   1      32.789  19.134  24.093  1.00  0.00     0.412 C 
ATOM     21  N   UNL A   1      34.079  18.719  23.919  1.00  0.00    -0.321 N 
ATOM     22  H   UNL A   1      34.348  18.494  22.998  1.00  0.00     0.167 HD
ATOM     23  O   UNL A   1      32.026  19.202  23.132  1.00  0.00    -0.224 OA
BRANCH  21  24
ATOM     24  C   UNL A   1      35.092  18.575  24.943  1.00  0.00     0.119 C 
BRANCH  24  25
ATOM     25  C   UNL A   1      36.316  19.448  24.666  1.00  0.00     0.021 C 
BRANCH  25  26
ATOM     26  C   UNL A   1      36.223  20.883  25.200  1.00  0.00     0.002 C 
BRANCH  26  27
ATOM     27  C   UNL A   1      35.742  21.934  24.194  1.00  0.00    -0.000 C 
BRANCH  27  28
ATOM     28  C   UNL A   1      36.283  23.348  24.413  1.00  0.00    -0.003 C 
ATOM     29  C   UNL A   1      36.640  23.639  25.863  1.00  0.00     0.004 C 
ENDBRANCH  27  28
ENDBRANCH  26  27
ENDBRANCH  25  26
ENDBRANCH  24  25
ENDBRANCH  21  24
ENDBRANCH  19  20
ENDBRANCH  14  19
ENDBRANCH   7  13
ENDBRANCH   5   6
ENDBRANCH   1   5
BRANCH   3  30
ATOM     30  C   UNL A   1      32.955  28.910  22.692  1.00  0.00     0.116 C 
BRANCH  30  31
ATOM     31  C   UNL A   1      33.904  28.428  23.790  1.00  0.00     0.023 C 
BRANCH  31  32
ATOM     32  C   UNL A   1      33.344  28.543  25.211  1.00  0.00     0.023 C 
BRANCH  32  33
ATOM     33  C   UNL A   1      34.298  29.135  26.242  1.00  0.00     0.116 C 
BRANCH  33  34
ATOM     34  N   UNL A   1      33.891  30.452  26.705  1.00  0.00    -0.352 N 
ATOM     35  C   UNL A   1      34.459  31.234  27.684  1.00  0.00     0.251 C 
ATOM     36  H   UNL A   1      33.102  30.836  26.258  1.00  0.00     0.163 HD
ATOM     37  O   UNL A   1      33.906  32.272  28.034  1.00  0.00    -0.269 OA
BRANCH  35  38
ATOM     38  C   UNL A   1      35.711  30.793  28.339  1.00  0.00     0.039 A 
ATOM     39  C   UNL A   1      35.635  29.868  29.382  1.00  0.00     0.014 A 
ATOM     40  C   UNL A   1      36.954  31.266  27.909  1.00  0.00     0.014 A 
ATOM     41  C   UNL A   1      36.809  29.360  29.944  1.00  0.00     0.010 A 
ATOM     42  C   UNL A   1      38.122  30.708  28.422  1.00  0.00     0.010 A 
ATOM     43  C   UNL A   1      38.062  29.743  29.440  1.00  0.00    -0.014 A 
BRANCH  43  44
ATOM     44  C   UNL A   1      39.318  29.138  29.957  1.00  0.00     0.031 A 
ATOM     45  C   UNL A   1      40.018  29.742  31.143  1.00  0.00     0.074 A 
ATOM     46  C   UNL A   1      39.862  28.083  29.315  1.00  0.00     0.049 A 
ATOM     47  N   UNL A   1      41.160  29.409  31.689  1.00  0.00    -0.248 NA
ATOM     48  C   UNL A   1      39.360  30.892  31.781  1.00  0.00     0.031 C 
ATOM     49  C   UNL A   1      39.298  27.435  28.128  1.00  0.00     0.029 A 
ATOM     50  N   UNL A   1      41.013  27.377  29.561  1.00  0.00    -0.354 N 
ATOM     51  C   UNL A   1      41.362  30.311  32.728  1.00  0.00     0.074 A 
ATOM     52  C   UNL A   1      40.255  31.243  32.692  1.00  0.00     0.031 C 
ATOM     53  C   UNL A   1      40.094  26.417  27.765  1.00  0.00     0.029 A 
ATOM     54  C   UNL A   1      41.247  26.366  28.657  1.00  0.00     0.049 A 
ATOM     55  H   UNL A   1      41.616  27.576  30.314  1.00  0.00     0.167 HD
ATOM     56  C   UNL A   1      42.364  30.345  33.642  1.00  0.00     0.034 A 
ATOM     57  C   UNL A   1      42.279  25.506  28.550  1.00  0.00     0.034 A 
ATOM     58  C   UNL A   1      43.458  29.403  33.668  1.00  0.00     0.049 A 
ATOM     59  C   UNL A   1      43.398  25.581  29.558  1.00  0.00     0.074 A 
ATOM     60  C   UNL A   1      44.499  29.315  34.577  1.00  0.00     0.029 A 
ATOM     61  N   UNL A   1      43.660  28.391  32.737  1.00  0.00    -0.354 N 
ATOM     62  N   UNL A   1      43.547  26.409  30.567  1.00  0.00    -0.248 NA
ATOM     63  C   UNL A   1      44.480  24.597  29.421  1.00  0.00     0.031 C 
ATOM     64  C   UNL A   1      45.364  28.298  34.158  1.00  0.00     0.029 A 
ATOM     65  C   UNL A   1      44.824  27.696  33.033  1.00  0.00     0.049 A 
ATOM     66  H   UNL A   1      43.065  28.195  31.978  1.00  0.00     0.167 HD
ATOM     67  C   UNL A   1      44.725  26.025  31.200  1.00  0.00     0.074 A 
ATOM     68  C   UNL A   1      45.236  24.882  30.471  1.00  0.00     0.031 C 
ATOM     69  C   UNL A   1      45.330  26.565  32.290  1.00  0.00     0.034 A 
BRANCH  56  70
ATOM     70  C   UNL A   1      42.331  31.451  34.670  1.00  0.00     0.023 A 
ATOM     71  C   UNL A   1      41.367  31.477  35.694  1.00  0.00     0.031 A 
ATOM     72  C   UNL A   1      43.256  32.507  34.614  1.00  0.00     0.131 A 
ATOM     73  C   UNL A   1      41.301  32.572  36.569  1.00  0.00     0.055 A 
ATOM     74  C   UNL A   1      43.239  33.552  35.540  1.00  0.00     0.041 A 
ATOM     75  F   UNL A   1      44.188  32.550  33.648  1.00  0.00    -0.206 F 
ATOM     76  C   UNL A   1      42.247  33.597  36.515  1.00  0.00     0.022 A 
BRANCH  73  77
ATOM     77  S   UNL A   1      39.874  32.708  37.679  1.00  0.00     0.124 S 
ATOM     78  O   UNL A   1      39.376  34.044  37.357  1.00  0.00    -0.237 OA
ATOM     79  O   UNL A   1      39.035  31.594  37.254  1.00  0.00    -0.237 OA
ATOM     80  O   UNL A   1      40.462  32.575  39.010  1.00  0.00    -0.744 OA
ENDBRANCH  73  77
ENDBRANCH  56  70
BRANCH  57  81
ATOM     81  C   UNL A   1      42.320  24.509  27.440  1.00  0.00     0.023 A 
ATOM     82  C   UNL A   1      41.556  23.332  27.494  1.00  0.00     0.031 A 
ATOM     83  C   UNL A   1      43.162  24.697  26.330  1.00  0.00     0.131 A 
ATOM     84  C   UNL A   1      41.686  22.367  26.483  1.00  0.00     0.055 A 
ATOM     85  C   UNL A   1      43.246  23.760  25.299  1.00  0.00     0.041 A 
ATOM     86  F   UNL A   1      43.912  25.806  26.226  1.00  0.00    -0.206 F 
ATOM     87  C   UNL A   1      42.515  22.578  25.380  1.00  0.00     0.022 A 
BRANCH  84  88
ATOM     88  S   UNL A   1      40.820  20.784  26.679  1.00  0.00     0.124 S 
ATOM     89  O   UNL A   1      41.699  19.873  25.952  1.00  0.00    -0.237 OA
ATOM     90  O   UNL A   1      40.795  20.630  28.130  1.00  0.00    -0.237 OA
ATOM     91  O   UNL A   1      39.521  21.029  26.057  1.00  0.00    -0.744 OA
ENDBRANCH  84  88
ENDBRANCH  57  81
BRANCH  69  92
ATOM     92  C   UNL A   1      46.588  25.891  32.781  1.00  0.00     0.023 A 
ATOM     93  C   UNL A   1      47.840  26.134  32.188  1.00  0.00     0.031 A 
ATOM     94  C   UNL A   1      46.531  24.982  33.853  1.00  0.00     0.131 A 
ATOM     95  C   UNL A   1      48.971  25.432  32.631  1.00  0.00     0.055 A 
ATOM     96  C   UNL A   1      47.670  24.334  34.331  1.00  0.00     0.041 A 
ATOM     97  F   UNL A   1      45.362  24.710  34.456  1.00  0.00    -0.206 F 
ATOM     98  C   UNL A   1      48.898  24.547  33.710  1.00  0.00     0.022 A 
BRANCH  95  99
ATOM     99  S   UNL A   1      50.527  25.621  31.718  1.00  0.00     0.124 S 
ATOM    100  O   UNL A   1      50.185  26.653  30.746  1.00  0.00    -0.237 OA
ATOM    101  O   UNL A   1      51.459  26.018  32.768  1.00  0.00    -0.237 OA
ATOM    102  O   UNL A   1      50.758  24.291  31.156  1.00  0.00    -0.744 OA
ENDBRANCH  95  99
ENDBRANCH  69  92
ENDBRANCH  43  44
ENDBRANCH  35  38
ENDBRANCH  33  34
ENDBRANCH  32  33
ENDBRANCH  31  32
ENDBRANCH  30  31
ENDBRANCH   3  30
TORSDOF 23
ENDMDL
MODEL 2
REMARK VINA RESULT:     -10.3      5.210     10.621
REMARK SMILES CCCCCCNC(=O)Oc1cccc(-c2ccc(CC(=O)NCCCCNC(=O)c3ccc(-c4c5nc(c(-c6cc(S(=O)(=O)[O-])ccc6F)c6ccc([nH]6)c(-c6cc(S(=O)(=O)[O-])ccc6F)c6nc(c(-c7cc(S(=O)(=O)[O-])ccc7F)c7ccc4[nH]7)C=C6)C=C5)cc3)cc2F)c1
REMARK SMILES IDX 21 1 22 2 23 3 20 5 19 6 16 7 17 8 95 9 18 10 94 11 96 12
REMARK SMILES IDX 15 13 11 14 12 15 97 16 13 17 14 18 10 19 8 20 7 21 9 23
REMARK SMILES IDX 6 24 5 25 4 26 3 27 2 28 1 29 24 30 25 31 26 32 27 33 28 34
REMARK SMILES IDX 29 35 30 37 31 38 32 39 93 40 33 41 92 42 34 43 35 44 36 45
REMARK SMILES IDX 86 46 37 47 91 48 85 49 87 50 38 51 90 52 84 53 83 54 39 56
REMARK SMILES IDX 71 57 51 58 70 59 52 60 55 61 69 62 88 63 53 64 54 65 68 67
REMARK SMILES IDX 89 68 56 69 40 70 41 71 49 72 42 73 48 74 50 75 47 76 43 77
REMARK SMILES IDX 44 78 45 79 46 80 72 81 73 82 81 83 74 84 80 85 82 86 79 87
REMARK SMILES IDX 75 88 76 89 77 90 78 91 57 92 58 93 66 94 59 95 65 96 67 97
REMARK SMILES IDX 64 98 60 99 61 100 62 101 63 102
REMARK H PARENT 23 4 7 22 28 36 87 55 55 66
REMARK Flexibility Score: inf
ROOT
ATOM      1  C   UNL A   1      41.749  19.677  26.144  1.00  0.00     0.224 C 
ATOM      2  O   UNL A   1      40.671  19.226  25.752  1.00  0.00    -0.275 OA
ATOM      3  N   UNL A   1      42.818  19.657  25.295  1.00  0.00    -0.356 N 
ATOM      4  H   UNL A   1      42.630  19.329  24.386  1.00  0.00     0.163 HD
ENDROOT
BRANCH   1   5
ATOM      5  C   UNL A   1      41.885  20.291  27.527  1.00  0.00     0.135 C 
BRANCH   5   6
ATOM      6  C   UNL A   1      41.618  21.775  27.577  1.00  0.00    -0.036 A 
ATOM      7  C   UNL A   1      41.118  24.560  27.774  1.00  0.00     0.018 A 
ATOM      8  C   UNL A   1      40.110  23.673  27.362  1.00  0.00     0.012 A 
ATOM      9  C   UNL A   1      42.378  24.019  28.066  1.00  0.00     0.131 A 
ATOM     10  C   UNL A   1      40.356  22.297  27.260  1.00  0.00     0.005 A 
ATOM     11  C   UNL A   1      42.635  22.657  27.956  1.00  0.00     0.044 A 
ATOM     12  F   UNL A   1      43.380  24.812  28.475  1.00  0.00    -0.206 F 
BRANCH   7  13
ATOM     13  C   UNL A   1      40.877  26.006  27.864  1.00  0.00    -0.012 A 
ATOM     14  C   UNL A   1      40.590  28.001  29.222  1.00  0.00     0.133 A 
ATOM     15  C   UNL A   1      40.361  28.772  28.088  1.00  0.00     0.047 A 
ATOM     16  C   UNL A   1      40.827  26.631  29.119  1.00  0.00     0.056 A 
ATOM     17  C   UNL A   1      40.409  28.169  26.832  1.00  0.00     0.004 A 
ATOM     18  C   UNL A   1      40.671  26.798  26.721  1.00  0.00     0.009 A 
BRANCH  14  19
ATOM     19  O   UNL A   1      40.450  28.621  30.474  1.00  0.00    -0.410 OA
BRANCH  19  20
ATOM     20  C   UNL A   1      39.202  28.586  31.077  1.00  0.00     0.412 C 
ATOM     21  N   UNL A   1      38.758  29.814  31.479  1.00  0.00    -0.321 N 
ATOM     22  H   UNL A   1      37.881  29.839  31.927  1.00  0.00     0.167 HD
ATOM     23  O   UNL A   1      38.515  27.585  31.268  1.00  0.00    -0.224 OA
BRANCH  21  24
ATOM     24  C   UNL A   1      39.439  31.081  31.318  1.00  0.00     0.119 C 
BRANCH  24  25
ATOM     25  C   UNL A   1      38.458  32.243  31.161  1.00  0.00     0.021 C 
BRANCH  25  26
ATOM     26  C   UNL A   1      37.170  31.907  30.400  1.00  0.00     0.002 C 
BRANCH  26  27
ATOM     27  C   UNL A   1      37.215  32.145  28.886  1.00  0.00    -0.000 C 
BRANCH  27  28
ATOM     28  C   UNL A   1      36.510  31.086  28.035  1.00  0.00    -0.003 C 
ATOM     29  C   UNL A   1      36.536  29.698  28.656  1.00  0.00     0.004 C 
ENDBRANCH  27  28
ENDBRANCH  26  27
ENDBRANCH  25  26
ENDBRANCH  24  25
ENDBRANCH  21  24
ENDBRANCH  19  20
ENDBRANCH  14  19
ENDBRANCH   7  13
ENDBRANCH   5   6
ENDBRANCH   1   5
BRANCH   3  30
ATOM     30  C   UNL A   1      44.191  20.054  25.544  1.00  0.00     0.116 C 
BRANCH  30  31
ATOM     31  C   UNL A   1      44.463  21.485  25.078  1.00  0.00     0.023 C 
BRANCH  31  32
ATOM     32  C   UNL A   1      45.597  22.193  25.824  1.00  0.00     0.023 C 
BRANCH  32  33
ATOM     33  C   UNL A   1      45.474  23.711  25.907  1.00  0.00     0.116 C 
BRANCH  33  34
ATOM     34  N   UNL A   1      46.382  24.406  25.009  1.00  0.00    -0.352 N 
ATOM     35  C   UNL A   1      46.652  25.752  24.932  1.00  0.00     0.251 C 
ATOM     36  H   UNL A   1      46.869  23.837  24.370  1.00  0.00     0.163 HD
ATOM     37  O   UNL A   1      47.358  26.182  24.024  1.00  0.00    -0.269 OA
BRANCH  35  38
ATOM     38  C   UNL A   1      46.054  26.678  25.919  1.00  0.00     0.039 A 
ATOM     39  C   UNL A   1      44.679  26.921  25.867  1.00  0.00     0.014 A 
ATOM     40  C   UNL A   1      46.836  27.280  26.909  1.00  0.00     0.014 A 
ATOM     41  C   UNL A   1      44.077  27.708  26.852  1.00  0.00     0.010 A 
ATOM     42  C   UNL A   1      46.225  28.006  27.928  1.00  0.00     0.010 A 
ATOM     43  C   UNL A   1      44.838  28.222  27.915  1.00  0.00    -0.014 A 
BRANCH  43  44
ATOM     44  C   UNL A   1      44.199  28.976  29.026  1.00  0.00     0.031 A 
ATOM     45  C   UNL A   1      43.911  30.444  28.877  1.00  0.00     0.074 A 
ATOM     46  C   UNL A   1      43.938  28.349  30.192  1.00  0.00     0.049 A 
ATOM     47  N   UNL A   1      43.434  31.288  29.757  1.00  0.00    -0.248 NA
ATOM     48  C   UNL A   1      44.228  31.049  27.576  1.00  0.00     0.031 C 
ATOM     49  C   UNL A   1      44.212  26.937  30.471  1.00  0.00     0.029 A 
ATOM     50  N   UNL A   1      43.398  28.819  31.363  1.00  0.00    -0.354 N 
ATOM     51  C   UNL A   1      43.402  32.524  29.121  1.00  0.00     0.074 A 
ATOM     52  C   UNL A   1      43.968  32.328  27.802  1.00  0.00     0.031 C 
ATOM     53  C   UNL A   1      43.818  26.653  31.723  1.00  0.00     0.029 A 
ATOM     54  C   UNL A   1      43.311  27.867  32.354  1.00  0.00     0.049 A 
ATOM     55  H   UNL A   1      43.100  29.750  31.484  1.00  0.00     0.167 HD
ATOM     56  C   UNL A   1      42.924  33.706  29.583  1.00  0.00     0.034 A 
ATOM     57  C   UNL A   1      42.886  27.964  33.629  1.00  0.00     0.034 A 
ATOM     58  C   UNL A   1      42.356  33.883  30.898  1.00  0.00     0.049 A 
ATOM     59  C   UNL A   1      42.387  29.295  34.132  1.00  0.00     0.074 A 
ATOM     60  C   UNL A   1      41.798  35.023  31.450  1.00  0.00     0.029 A 
ATOM     61  N   UNL A   1      42.283  32.895  31.873  1.00  0.00    -0.354 N 
ATOM     62  N   UNL A   1      42.316  30.444  33.498  1.00  0.00    -0.248 NA
ATOM     63  C   UNL A   1      41.899  29.340  35.516  1.00  0.00     0.031 C 
ATOM     64  C   UNL A   1      41.451  34.745  32.777  1.00  0.00     0.029 A 
ATOM     65  C   UNL A   1      41.718  33.410  33.032  1.00  0.00     0.049 A 
ATOM     66  H   UNL A   1      42.588  31.966  31.760  1.00  0.00     0.167 HD
ATOM     67  C   UNL A   1      41.748  31.339  34.400  1.00  0.00     0.074 A 
ATOM     68  C   UNL A   1      41.479  30.593  35.613  1.00  0.00     0.031 C 
ATOM     69  C   UNL A   1      41.468  32.658  34.239  1.00  0.00     0.034 A 
BRANCH  56  70
ATOM     70  C   UNL A   1      43.019  34.902  28.663  1.00  0.00     0.023 A 
ATOM     71  C   UNL A   1      44.254  35.501  28.359  1.00  0.00     0.031 A 
ATOM     72  C   UNL A   1      41.860  35.466  28.103  1.00  0.00     0.131 A 
ATOM     73  C   UNL A   1      44.295  36.671  27.585  1.00  0.00     0.055 A 
ATOM     74  C   UNL A   1      41.915  36.581  27.265  1.00  0.00     0.041 A 
ATOM     75  F   UNL A   1      40.649  34.952  28.373  1.00  0.00    -0.206 F 
ATOM     76  C   UNL A   1      43.136  37.200  27.014  1.00  0.00     0.022 A 
BRANCH  73  77
ATOM     77  S   UNL A   1      45.863  37.572  27.461  1.00  0.00     0.124 S 
ATOM     78  O   UNL A   1      46.054  38.023  28.838  1.00  0.00    -0.237 OA
ATOM     79  O   UNL A   1      46.783  36.542  26.992  1.00  0.00    -0.237 OA
ATOM     80  O   UNL A   1      45.573  38.634  26.500  1.00  0.00    -0.744 OA
ENDBRANCH  73  77
ENDBRANCH  56  70
BRANCH  57  81
ATOM     81  C   UNL A   1      42.926  26.777  34.533  1.00  0.00     0.023 A 
ATOM     82  C   UNL A   1      44.139  26.317  35.073  1.00  0.00     0.031 A 
ATOM     83  C   UNL A   1      41.757  26.056  34.831  1.00  0.00     0.131 A 
ATOM     84  C   UNL A   1      44.161  25.143  35.841  1.00  0.00     0.055 A 
ATOM     85  C   UNL A   1      41.776  24.921  35.644  1.00  0.00     0.041 A 
ATOM     86  F   UNL A   1      40.570  26.454  34.345  1.00  0.00    -0.206 F 
ATOM     87  C   UNL A   1      42.987  24.450  36.142  1.00  0.00     0.022 A 
BRANCH  84  88
ATOM     88  S   UNL A   1      45.766  24.483  36.370  1.00  0.00     0.124 S 
ATOM     89  O   UNL A   1      46.256  23.871  35.138  1.00  0.00    -0.237 OA
ATOM     90  O   UNL A   1      46.461  25.689  36.808  1.00  0.00    -0.237 OA
ATOM     91  O   UNL A   1      45.415  23.547  37.435  1.00  0.00    -0.744 OA
ENDBRANCH  84  88
ENDBRANCH  57  81
BRANCH  69  92
ATOM     92  C   UNL A   1      40.797  33.362  35.394  1.00  0.00     0.023 A 
ATOM     93  C   UNL A   1      41.535  34.036  36.383  1.00  0.00     0.031 A 
ATOM     94  C   UNL A   1      39.395  33.348  35.512  1.00  0.00     0.131 A 
ATOM     95  C   UNL A   1      40.873  34.617  37.475  1.00  0.00     0.055 A 
ATOM     96  C   UNL A   1      38.738  33.981  36.568  1.00  0.00     0.041 A 
ATOM     97  F   UNL A   1      38.639  32.717  34.598  1.00  0.00    -0.206 F 
ATOM     98  C   UNL A   1      39.479  34.609  37.565  1.00  0.00     0.022 A 
BRANCH  95  99
ATOM     99  S   UNL A   1      41.865  35.305  38.830  1.00  0.00     0.124 S 
ATOM    100  O   UNL A   1      43.122  35.615  38.158  1.00  0.00    -0.237 OA
ATOM    101  O   UNL A   1      41.066  36.451  39.250  1.00  0.00    -0.237 OA
ATOM    102  O   UNL A   1      41.932  34.209  39.796  1.00  0.00    -0.744 OA
ENDBRANCH  95  99
ENDBRANCH  69  92
ENDBRANCH  43  44
ENDBRANCH  35  38
ENDBRANCH  33  34
ENDBRANCH  32  33
ENDBRANCH  31  32
ENDBRANCH  30  31
ENDBRANCH   3  30
TORSDOF 23
ENDMDL
MODEL 3
REMARK VINA RESULT:      -9.9      6.316     10.279
REMARK SMILES CCCCCCNC(=O)Oc1cccc(-c2ccc(CC(=O)NCCCCNC(=O)c3ccc(-c4c5nc(c(-c6cc(S(=O)(=O)[O-])ccc6F)c6ccc([nH]6)c(-c6cc(S(=O)(=O)[O-])ccc6F)c6nc(c(-c7cc(S(=O)(=O)[O-])ccc7F)c7ccc4[nH]7)C=C6)C=C5)cc3)cc2F)c1
REMARK SMILES IDX 21 1 22 2 23 3 20 5 19 6 16 7 17 8 95 9 18 10 94 11 96 12
REMARK SMILES IDX 15 13 11 14 12 15 97 16 13 17 14 18 10 19 8 20 7 21 9 23
REMARK SMILES IDX 6 24 5 25 4 26 3 27 2 28 1 29 24 30 25 31 26 32 27 33 28 34
REMARK SMILES IDX 29 35 30 37 31 38 32 39 93 40 33 41 92 42 34 43 35 44 36 45
REMARK SMILES IDX 86 46 37 47 91 48 85 49 87 50 38 51 90 52 84 53 83 54 39 56
REMARK SMILES IDX 71 57 51 58 70 59 52 60 55 61 69 62 88 63 53 64 54 65 68 67
REMARK SMILES IDX 89 68 56 69 40 70 41 71 49 72 42 73 48 74 50 75 47 76 43 77
REMARK SMILES IDX 44 78 45 79 46 80 72 81 73 82 81 83 74 84 80 85 82 86 79 87
REMARK SMILES IDX 75 88 76 89 77 90 78 91 57 92 58 93 66 94 59 95 65 96 67 97
REMARK SMILES IDX 64 98 60 99 61 100 62 101 63 102
REMARK H PARENT 23 4 7 22 28 36 87 55 55 66
REMARK Flexibility Score: inf
ROOT
ATOM      1  C   UNL A   1      35.251  32.870  28.505  1.00  0.00     0.224 C 
ATOM      2  O   UNL A   1      35.410  33.608  27.531  1.00  0.00    -0.275 OA
ATOM      3  N   UNL A   1      34.751  33.402  29.659  1.00  0.00    -0.356 N 
ATOM      4  H   UNL A   1      34.491  34.350  29.610  1.00  0.00     0.163 HD
ENDROOT
BRANCH   1   5
ATOM      5  C   UNL A   1      35.556  31.384  28.420  1.00  0.00     0.135 C 
BRANCH   5   6
ATOM      6  C   UNL A   1      34.502  30.573  27.708  1.00  0.00    -0.036 A 
ATOM      7  C   UNL A   1      32.575  29.058  26.282  1.00  0.00     0.018 A 
ATOM      8  C   UNL A   1      32.297  30.369  26.699  1.00  0.00     0.012 A 
ATOM      9  C   UNL A   1      33.829  28.524  26.612  1.00  0.00     0.131 A 
ATOM     10  C   UNL A   1      33.246  31.118  27.408  1.00  0.00     0.005 A 
ATOM     11  C   UNL A   1      34.773  29.256  27.324  1.00  0.00     0.044 A 
ATOM     12  F   UNL A   1      34.160  27.280  26.232  1.00  0.00    -0.206 F 
BRANCH   7  13
ATOM     13  C   UNL A   1      31.580  28.255  25.558  1.00  0.00    -0.012 A 
ATOM     14  C   UNL A   1      30.350  26.175  25.305  1.00  0.00     0.133 A 
ATOM     15  C   UNL A   1      29.717  26.656  24.164  1.00  0.00     0.047 A 
ATOM     16  C   UNL A   1      31.285  26.952  25.987  1.00  0.00     0.056 A 
ATOM     17  C   UNL A   1      29.996  27.950  23.725  1.00  0.00     0.004 A 
ATOM     18  C   UNL A   1      30.916  28.744  24.420  1.00  0.00     0.009 A 
BRANCH  14  19
ATOM     19  O   UNL A   1      30.111  24.840  25.671  1.00  0.00    -0.410 OA
BRANCH  19  20
ATOM     20  C   UNL A   1      31.173  24.110  26.182  1.00  0.00     0.412 C 
ATOM     21  N   UNL A   1      31.774  23.304  25.256  1.00  0.00    -0.321 N 
ATOM     22  H   UNL A   1      32.526  22.754  25.575  1.00  0.00     0.167 HD
ATOM     23  O   UNL A   1      31.581  24.133  27.341  1.00  0.00    -0.224 OA
BRANCH  21  24
ATOM     24  C   UNL A   1      31.422  23.173  23.858  1.00  0.00     0.119 C 
BRANCH  24  25
ATOM     25  C   UNL A   1      32.649  23.248  22.949  1.00  0.00     0.021 C 
BRANCH  25  26
ATOM     26  C   UNL A   1      33.551  24.468  23.175  1.00  0.00     0.002 C 
BRANCH  26  27
ATOM     27  C   UNL A   1      32.986  25.808  22.691  1.00  0.00    -0.000 C 
BRANCH  27  28
ATOM     28  C   UNL A   1      33.766  27.047  23.133  1.00  0.00    -0.003 C 
ATOM     29  C   UNL A   1      33.908  28.093  22.037  1.00  0.00     0.004 C 
ENDBRANCH  27  28
ENDBRANCH  26  27
ENDBRANCH  25  26
ENDBRANCH  24  25
ENDBRANCH  21  24
ENDBRANCH  19  20
ENDBRANCH  14  19
ENDBRANCH   7  13
ENDBRANCH   5   6
ENDBRANCH   1   5
BRANCH   3  30
ATOM     30  C   UNL A   1      34.547  32.765  30.946  1.00  0.00     0.116 C 
BRANCH  30  31
ATOM     31  C   UNL A   1      35.009  33.655  32.101  1.00  0.00     0.023 C 
BRANCH  31  32
ATOM     32  C   UNL A   1      35.597  32.896  33.294  1.00  0.00     0.023 C 
BRANCH  32  33
ATOM     33  C   UNL A   1      36.905  32.162  33.019  1.00  0.00     0.116 C 
BRANCH  33  34
ATOM     34  N   UNL A   1      36.782  30.717  33.129  1.00  0.00    -0.352 N 
ATOM     35  C   UNL A   1      37.617  29.742  32.635  1.00  0.00     0.251 C 
ATOM     36  H   UNL A   1      35.995  30.393  33.623  1.00  0.00     0.163 HD
ATOM     37  O   UNL A   1      37.291  28.561  32.715  1.00  0.00    -0.269 OA
BRANCH  35  38
ATOM     38  C   UNL A   1      38.882  30.128  31.972  1.00  0.00     0.039 A 
ATOM     39  C   UNL A   1      38.896  30.275  30.583  1.00  0.00     0.014 A 
ATOM     40  C   UNL A   1      40.040  30.372  32.715  1.00  0.00     0.014 A 
ATOM     41  C   UNL A   1      40.050  30.739  29.947  1.00  0.00     0.010 A 
ATOM     42  C   UNL A   1      41.167  30.900  32.089  1.00  0.00     0.010 A 
ATOM     43  C   UNL A   1      41.181  31.096  30.699  1.00  0.00    -0.014 A 
BRANCH  43  44
ATOM     44  C   UNL A   1      42.383  31.687  30.051  1.00  0.00     0.031 A 
ATOM     45  C   UNL A   1      43.557  30.817  29.696  1.00  0.00     0.074 A 
ATOM     46  C   UNL A   1      42.439  33.018  29.842  1.00  0.00     0.049 A 
ATOM     47  N   UNL A   1      44.720  31.157  29.202  1.00  0.00    -0.248 NA
ATOM     48  C   UNL A   1      43.413  29.378  29.960  1.00  0.00     0.031 C 
ATOM     49  C   UNL A   1      41.381  33.972  30.183  1.00  0.00     0.029 A 
ATOM     50  N   UNL A   1      43.431  33.803  29.307  1.00  0.00    -0.354 N 
ATOM     51  C   UNL A   1      45.450  29.977  29.103  1.00  0.00     0.074 A 
ATOM     52  C   UNL A   1      44.619  28.925  29.650  1.00  0.00     0.031 C 
ATOM     53  C   UNL A   1      41.771  35.207  29.829  1.00  0.00     0.029 A 
ATOM     54  C   UNL A   1      43.123  35.144  29.282  1.00  0.00     0.049 A 
ATOM     55  H   UNL A   1      44.282  33.440  28.972  1.00  0.00     0.167 HD
ATOM     56  C   UNL A   1      46.689  29.785  28.583  1.00  0.00     0.034 A 
ATOM     57  C   UNL A   1      43.851  36.204  28.881  1.00  0.00     0.034 A 
ATOM     58  C   UNL A   1      47.502  30.845  28.036  1.00  0.00     0.049 A 
ATOM     59  C   UNL A   1      45.237  35.971  28.334  1.00  0.00     0.074 A 
ATOM     60  C   UNL A   1      48.749  30.754  27.440  1.00  0.00     0.029 A 
ATOM     61  N   UNL A   1      47.156  32.191  28.027  1.00  0.00    -0.354 N 
ATOM     62  N   UNL A   1      45.893  34.841  28.200  1.00  0.00    -0.248 NA
ATOM     63  C   UNL A   1      45.976  37.154  27.874  1.00  0.00     0.031 C 
ATOM     64  C   UNL A   1      49.185  32.048  27.134  1.00  0.00     0.029 A 
ATOM     65  C   UNL A   1      48.178  32.942  27.464  1.00  0.00     0.049 A 
ATOM     66  H   UNL A   1      46.310  32.558  28.369  1.00  0.00     0.167 HD
ATOM     67  C   UNL A   1      47.109  35.177  27.612  1.00  0.00     0.074 A 
ATOM     68  C   UNL A   1      47.088  36.610  27.402  1.00  0.00     0.031 C 
ATOM     69  C   UNL A   1      48.150  34.373  27.272  1.00  0.00     0.034 A 
BRANCH  56  70
ATOM     70  C   UNL A   1      47.242  28.379  28.607  1.00  0.00     0.023 A 
ATOM     71  C   UNL A   1      47.067  27.500  27.523  1.00  0.00     0.031 A 
ATOM     72  C   UNL A   1      47.932  27.902  29.734  1.00  0.00     0.131 A 
ATOM     73  C   UNL A   1      47.504  26.170  27.621  1.00  0.00     0.055 A 
ATOM     74  C   UNL A   1      48.440  26.602  29.792  1.00  0.00     0.041 A 
ATOM     75  F   UNL A   1      48.114  28.687  30.809  1.00  0.00    -0.206 F 
ATOM     76  C   UNL A   1      48.213  25.722  28.737  1.00  0.00     0.022 A 
BRANCH  73  77
ATOM     77  S   UNL A   1      47.003  24.998  26.332  1.00  0.00     0.124 S 
ATOM     78  O   UNL A   1      45.650  25.458  26.025  1.00  0.00    -0.237 OA
ATOM     79  O   UNL A   1      48.004  25.221  25.295  1.00  0.00    -0.237 OA
ATOM     80  O   UNL A   1      47.075  23.701  27.001  1.00  0.00    -0.744 OA
ENDBRANCH  73  77
ENDBRANCH  56  70
BRANCH  57  81
ATOM     81  C   UNL A   1      43.300  37.587  28.991  1.00  0.00     0.023 A 
ATOM     82  C   UNL A   1      43.601  38.402  30.095  1.00  0.00     0.031 A 
ATOM     83  C   UNL A   1      42.425  38.097  28.016  1.00  0.00     0.131 A 
ATOM     84  C   UNL A   1      42.994  39.661  30.221  1.00  0.00     0.055 A 
ATOM     85  C   UNL A   1      41.868  39.373  28.117  1.00  0.00     0.041 A 
ATOM     86  F   UNL A   1      42.106  37.362  26.938  1.00  0.00    -0.206 F 
ATOM     87  C   UNL A   1      42.141  40.157  29.234  1.00  0.00     0.022 A 
BRANCH  84  88
ATOM     88  S   UNL A   1      43.267  40.606  31.745  1.00  0.00     0.124 S 
ATOM     89  O   UNL A   1      41.980  41.272  31.916  1.00  0.00    -0.237 OA
ATOM     90  O   UNL A   1      43.577  39.552  32.705  1.00  0.00    -0.237 OA
ATOM     91  O   UNL A   1      44.384  41.484  31.405  1.00  0.00    -0.744 OA
ENDBRANCH  84  88
ENDBRANCH  57  81
BRANCH  69  92
ATOM     92  C   UNL A   1      49.330  35.027  26.595  1.00  0.00     0.023 A 
ATOM     93  C   UNL A   1      50.494  35.373  27.304  1.00  0.00     0.031 A 
ATOM     94  C   UNL A   1      49.282  35.321  25.220  1.00  0.00     0.131 A 
ATOM     95  C   UNL A   1      51.538  36.043  26.649  1.00  0.00     0.055 A 
ATOM     96  C   UNL A   1      50.349  35.932  24.560  1.00  0.00     0.041 A 
ATOM     97  F   UNL A   1      48.194  35.016  24.494  1.00  0.00    -0.206 F 
ATOM     98  C   UNL A   1      51.480  36.309  25.278  1.00  0.00     0.022 A 
BRANCH  95  99
ATOM     99  S   UNL A   1      52.938  36.649  27.631  1.00  0.00     0.124 S 
ATOM    100  O   UNL A   1      53.791  35.468  27.702  1.00  0.00    -0.237 OA
ATOM    101  O   UNL A   1      53.438  37.750  26.816  1.00  0.00    -0.237 OA
ATOM    102  O   UNL A   1      52.322  37.046  28.897  1.00  0.00    -0.744 OA
ENDBRANCH  95  99
ENDBRANCH  69  92
ENDBRANCH  43  44
ENDBRANCH  35  38
ENDBRANCH  33  34
ENDBRANCH  32  33
ENDBRANCH  31  32
ENDBRANCH  30  31
ENDBRANCH   3  30
TORSDOF 23
ENDMDL
