MODEL 1
REMARK VINA RESULT:     -12.5      0.000      0.000
REMARK SMILES NC(=O)[C@H]1CC(C(=O)NCCCCNC(=O)c2ccc(-c3c4nc(c(-c5cc(S(=O)(=O)[O-])ccc5F)c5ccc([nH]5)c(-c5cc(S(=O)(=O)[O-])ccc5F)c5nc(c(-c6cc(S(=O)(=O)[O-])ccc6F)c6ccc3[nH]6)C=C5)C=C4)cc2)=NN1c1ccc(F)cc1
REMARK SMILES IDX 12 1 11 2 10 3 9 4 7 5 8 6 6 8 4 9 5 10 81 11 80 12 2 13
REMARK SMILES IDX 1 14 3 17 82 18 83 19 88 20 84 21 87 22 85 23 86 24 13 25
REMARK SMILES IDX 14 26 15 27 16 29 17 30 18 31 79 32 19 33 78 34 20 35 21 36
REMARK SMILES IDX 22 37 72 38 23 39 77 40 71 41 73 42 24 43 76 44 70 45 69 46
REMARK SMILES IDX 25 48 57 49 37 50 56 51 38 52 41 53 55 54 74 55 39 56 40 57
REMARK SMILES IDX 54 59 75 60 42 61 26 62 27 63 35 64 28 65 34 66 36 67 33 68
REMARK SMILES IDX 29 69 30 70 31 71 32 72 58 73 59 74 67 75 60 76 66 77 68 78
REMARK SMILES IDX 65 79 61 80 62 81 63 82 64 83 43 84 44 85 52 86 45 87 51 88
REMARK SMILES IDX 53 89 50 90 46 91 47 92 48 93 49 94
REMARK H PARENT 9 7 1 15 1 16 14 28 73 47 41 58
REMARK Flexibility Score: inf
ROOT
ATOM      1  C   UNL A   1      31.592  28.731  25.746  1.00  0.00     0.023 C 
ENDROOT
BRANCH   1   2
ATOM      2  C   UNL A   1      31.599  27.446  26.577  1.00  0.00     0.023 C 
BRANCH   2   3
ATOM      3  C   UNL A   1      31.262  26.193  25.777  1.00  0.00     0.116 C 
BRANCH   3   4
ATOM      4  N   UNL A   1      30.808  25.117  26.636  1.00  0.00    -0.351 N 
ATOM      5  C   UNL A   1      31.069  23.770  26.697  1.00  0.00     0.267 C 
ATOM      6  O   UNL A   1      30.460  23.106  27.532  1.00  0.00    -0.268 OA
ATOM      7  H   UNL A   1      30.175  25.417  27.328  1.00  0.00     0.163 HD
BRANCH   5   8
ATOM      8  C   UNL A   1      32.098  23.069  25.822  1.00  0.00     0.128 C 
ATOM      9  C   UNL A   1      34.078  22.535  24.723  1.00  0.00     0.203 C 
ATOM     10  C   UNL A   1      33.390  23.696  25.421  1.00  0.00     0.101 C 
ATOM     11  N   UNL A   1      33.074  21.482  24.777  1.00  0.00    -0.252 N 
ATOM     12  N   UNL A   1      31.932  21.841  25.426  1.00  0.00    -0.171 NA
BRANCH   9  13
ATOM     13  C   UNL A   1      34.410  22.891  23.268  1.00  0.00     0.242 C 
ATOM     14  N   UNL A   1      33.339  23.016  22.426  1.00  0.00    -0.368 N 
ATOM     15  H   UNL A   1      33.482  23.242  21.478  1.00  0.00     0.159 HD
ATOM     16  H   UNL A   1      32.426  22.880  22.767  1.00  0.00     0.159 HD
ATOM     17  O   UNL A   1      35.546  23.043  22.827  1.00  0.00    -0.273 OA
ENDBRANCH   9  13
BRANCH  11  18
ATOM     18  C   UNL A   1      33.279  20.175  24.368  1.00  0.00     0.061 A 
ATOM     19  C   UNL A   1      32.363  19.552  23.508  1.00  0.00     0.031 A 
ATOM     20  C   UNL A   1      34.401  19.440  24.784  1.00  0.00     0.031 A 
ATOM     21  C   UNL A   1      32.585  18.258  23.031  1.00  0.00     0.041 A 
ATOM     22  C   UNL A   1      34.614  18.135  24.334  1.00  0.00     0.041 A 
ATOM     23  C   UNL A   1      33.711  17.562  23.450  1.00  0.00     0.123 A 
ATOM     24  F   UNL A   1      33.929  16.320  22.998  1.00  0.00    -0.207 F 
ENDBRANCH  11  18
ENDBRANCH   5   8
ENDBRANCH   3   4
ENDBRANCH   2   3
ENDBRANCH   1   2
BRANCH   1  25
ATOM     25  C   UNL A   1      32.836  29.603  25.895  1.00  0.00     0.116 C 
BRANCH  25  26
ATOM     26  N   UNL A   1      32.530  30.984  26.235  1.00  0.00    -0.352 N 
ATOM     27  C   UNL A   1      33.178  31.816  27.114  1.00  0.00     0.251 C 
ATOM     28  H   UNL A   1      31.754  31.375  25.773  1.00  0.00     0.163 HD
ATOM     29  O   UNL A   1      32.696  32.914  27.378  1.00  0.00    -0.269 OA
BRANCH  27  30
ATOM     30  C   UNL A   1      34.430  31.365  27.759  1.00  0.00     0.039 A 
ATOM     31  C   UNL A   1      35.480  32.275  27.899  1.00  0.00     0.014 A 
ATOM     32  C   UNL A   1      34.560  30.059  28.239  1.00  0.00     0.014 A 
ATOM     33  C   UNL A   1      36.645  31.882  28.561  1.00  0.00     0.010 A 
ATOM     34  C   UNL A   1      35.684  29.700  28.974  1.00  0.00     0.010 A 
ATOM     35  C   UNL A   1      36.747  30.601  29.128  1.00  0.00    -0.014 A 
BRANCH  35  36
ATOM     36  C   UNL A   1      37.979  30.186  29.847  1.00  0.00     0.031 A 
ATOM     37  C   UNL A   1      38.245  30.696  31.240  1.00  0.00     0.074 A 
ATOM     38  C   UNL A   1      38.866  29.374  29.241  1.00  0.00     0.049 A 
ATOM     39  N   UNL A   1      39.258  30.454  32.031  1.00  0.00    -0.248 NA
ATOM     40  C   UNL A   1      37.256  31.627  31.804  1.00  0.00     0.031 C 
ATOM     41  C   UNL A   1      38.743  28.857  27.875  1.00  0.00     0.029 A 
ATOM     42  N   UNL A   1      40.044  28.833  29.692  1.00  0.00    -0.354 N 
ATOM     43  C   UNL A   1      39.032  31.205  33.180  1.00  0.00     0.074 A 
ATOM     44  C   UNL A   1      37.827  31.972  32.946  1.00  0.00     0.031 C 
ATOM     45  C   UNL A   1      39.778  28.041  27.618  1.00  0.00     0.029 A 
ATOM     46  C   UNL A   1      40.661  28.010  28.778  1.00  0.00     0.049 A 
ATOM     47  H   UNL A   1      40.412  29.017  30.586  1.00  0.00     0.167 HD
ATOM     48  C   UNL A   1      39.742  31.229  34.335  1.00  0.00     0.034 A 
ATOM     49  C   UNL A   1      41.809  27.308  28.868  1.00  0.00     0.034 A 
ATOM     50  C   UNL A   1      40.936  30.449  34.552  1.00  0.00     0.049 A 
ATOM     51  C   UNL A   1      42.590  27.361  30.157  1.00  0.00     0.074 A 
ATOM     52  C   UNL A   1      41.712  30.360  35.695  1.00  0.00     0.029 A 
ATOM     53  N   UNL A   1      41.535  29.629  33.604  1.00  0.00    -0.354 N 
ATOM     54  N   UNL A   1      42.329  28.029  31.257  1.00  0.00    -0.248 NA
ATOM     55  C   UNL A   1      43.808  26.545  30.223  1.00  0.00     0.031 C 
ATOM     56  C   UNL A   1      42.816  29.548  35.414  1.00  0.00     0.029 A 
ATOM     57  C   UNL A   1      42.685  29.054  34.126  1.00  0.00     0.049 A 
ATOM     58  H   UNL A   1      41.193  29.477  32.693  1.00  0.00     0.167 HD
ATOM     59  C   UNL A   1      43.334  27.686  32.157  1.00  0.00     0.074 A 
ATOM     60  C   UNL A   1      44.188  26.734  31.476  1.00  0.00     0.031 C 
ATOM     61  C   UNL A   1      43.535  28.115  33.431  1.00  0.00     0.034 A 
BRANCH  48  62
ATOM     62  C   UNL A   1      39.252  32.146  35.434  1.00  0.00     0.023 A 
ATOM     63  C   UNL A   1      39.642  33.497  35.499  1.00  0.00     0.031 A 
ATOM     64  C   UNL A   1      38.413  31.657  36.450  1.00  0.00     0.131 A 
ATOM     65  C   UNL A   1      39.263  34.284  36.597  1.00  0.00     0.055 A 
ATOM     66  C   UNL A   1      37.964  32.472  37.492  1.00  0.00     0.041 A 
ATOM     67  F   UNL A   1      38.026  30.372  36.458  1.00  0.00    -0.206 F 
ATOM     68  C   UNL A   1      38.403  33.790  37.579  1.00  0.00     0.022 A 
BRANCH  65  69
ATOM     69  S   UNL A   1      40.041  35.911  36.804  1.00  0.00     0.124 S 
ATOM     70  O   UNL A   1      39.711  36.558  35.536  1.00  0.00    -0.237 OA
ATOM     71  O   UNL A   1      39.366  36.436  37.985  1.00  0.00    -0.237 OA
ATOM     72  O   UNL A   1      41.456  35.594  36.983  1.00  0.00    -0.744 OA
ENDBRANCH  65  69
ENDBRANCH  48  62
BRANCH  49  73
ATOM     73  C   UNL A   1      42.292  26.492  27.715  1.00  0.00     0.023 A 
ATOM     74  C   UNL A   1      41.851  25.171  27.526  1.00  0.00     0.031 A 
ATOM     75  C   UNL A   1      43.240  27.003  26.813  1.00  0.00     0.131 A 
ATOM     76  C   UNL A   1      42.399  24.391  26.496  1.00  0.00     0.055 A 
ATOM     77  C   UNL A   1      43.738  26.243  25.754  1.00  0.00     0.041 A 
ATOM     78  F   UNL A   1      43.692  28.261  26.943  1.00  0.00    -0.206 F 
ATOM     79  C   UNL A   1      43.329  24.923  25.600  1.00  0.00     0.022 A 
BRANCH  76  80
ATOM     80  S   UNL A   1      41.952  22.636  26.404  1.00  0.00     0.124 S 
ATOM     81  O   UNL A   1      42.596  22.229  25.160  1.00  0.00    -0.237 OA
ATOM     82  O   UNL A   1      42.537  22.109  27.633  1.00  0.00    -0.237 OA
ATOM     83  O   UNL A   1      40.491  22.658  26.374  1.00  0.00    -0.744 OA
ENDBRANCH  76  80
ENDBRANCH  49  73
BRANCH  61  84
ATOM     84  C   UNL A   1      44.700  27.510  34.181  1.00  0.00     0.023 A 
ATOM     85  C   UNL A   1      44.566  26.328  34.931  1.00  0.00     0.031 A 
ATOM     86  C   UNL A   1      45.953  28.147  34.175  1.00  0.00     0.131 A 
ATOM     87  C   UNL A   1      45.639  25.867  35.708  1.00  0.00     0.055 A 
ATOM     88  C   UNL A   1      47.040  27.641  34.888  1.00  0.00     0.041 A 
ATOM     89  F   UNL A   1      46.142  29.280  33.479  1.00  0.00    -0.206 F 
ATOM     90  C   UNL A   1      46.881  26.505  35.677  1.00  0.00     0.022 A 
BRANCH  87  91
ATOM     91  S   UNL A   1      45.348  24.504  36.869  1.00  0.00     0.124 S 
ATOM     92  O   UNL A   1      44.620  23.549  36.039  1.00  0.00    -0.237 OA
ATOM     93  O   UNL A   1      46.706  24.119  37.242  1.00  0.00    -0.237 OA
ATOM     94  O   UNL A   1      44.565  25.124  37.936  1.00  0.00    -0.744 OA
ENDBRANCH  87  91
ENDBRANCH  61  84
ENDBRANCH  35  36
ENDBRANCH  27  30
ENDBRANCH  25  26
ENDBRANCH   1  25
TORSDOF 16
ENDMDL
MODEL 2
REMARK VINA RESULT:     -12.4      2.439      3.111
REMARK SMILES NC(=O)[C@H]1CC(C(=O)NCCCCNC(=O)c2ccc(-c3c4nc(c(-c5cc(S(=O)(=O)[O-])ccc5F)c5ccc([nH]5)c(-c5cc(S(=O)(=O)[O-])ccc5F)c5nc(c(-c6cc(S(=O)(=O)[O-])ccc6F)c6ccc3[nH]6)C=C5)C=C4)cc2)=NN1c1ccc(F)cc1
REMARK SMILES IDX 12 1 11 2 10 3 9 4 7 5 8 6 6 8 4 9 5 10 81 11 80 12 2 13
REMARK SMILES IDX 1 14 3 17 82 18 83 19 88 20 84 21 87 22 85 23 86 24 13 25
REMARK SMILES IDX 14 26 15 27 16 29 17 30 18 31 79 32 19 33 78 34 20 35 21 36
REMARK SMILES IDX 22 37 72 38 23 39 77 40 71 41 73 42 24 43 76 44 70 45 69 46
REMARK SMILES IDX 25 48 57 49 37 50 56 51 38 52 41 53 55 54 74 55 39 56 40 57
REMARK SMILES IDX 54 59 75 60 42 61 26 62 27 63 35 64 28 65 34 66 36 67 33 68
REMARK SMILES IDX 29 69 30 70 31 71 32 72 58 73 59 74 67 75 60 76 66 77 68 78
REMARK SMILES IDX 65 79 61 80 62 81 63 82 64 83 43 84 44 85 52 86 45 87 51 88
REMARK SMILES IDX 53 89 50 90 46 91 47 92 48 93 49 94
REMARK H PARENT 9 7 1 15 1 16 14 28 73 47 41 58
REMARK Flexibility Score: inf
ROOT
ATOM      1  C   UNL A   1      32.754  27.956  27.206  1.00  0.00     0.023 C 
ENDROOT
BRANCH   1   2
ATOM      2  C   UNL A   1      31.488  27.483  26.487  1.00  0.00     0.023 C 
BRANCH   2   3
ATOM      3  C   UNL A   1      31.627  26.113  25.832  1.00  0.00     0.116 C 
BRANCH   3   4
ATOM      4  N   UNL A   1      30.998  25.076  26.626  1.00  0.00    -0.351 N 
ATOM      5  C   UNL A   1      31.189  23.722  26.750  1.00  0.00     0.267 C 
ATOM      6  O   UNL A   1      30.429  23.101  27.489  1.00  0.00    -0.268 OA
ATOM      7  H   UNL A   1      30.276  25.416  27.203  1.00  0.00     0.163 HD
BRANCH   5   8
ATOM      8  C   UNL A   1      32.315  22.961  26.063  1.00  0.00     0.128 C 
ATOM      9  C   UNL A   1      34.428  22.236  25.417  1.00  0.00     0.203 C 
ATOM     10  C   UNL A   1      33.736  23.412  26.085  1.00  0.00     0.101 C 
ATOM     11  N   UNL A   1      33.319  21.359  25.071  1.00  0.00    -0.252 N 
ATOM     12  N   UNL A   1      32.102  21.825  25.464  1.00  0.00    -0.171 NA
BRANCH   9  13
ATOM     13  C   UNL A   1      35.175  22.687  24.154  1.00  0.00     0.242 C 
ATOM     14  N   UNL A   1      34.406  23.267  23.183  1.00  0.00    -0.368 N 
ATOM     15  H   UNL A   1      34.823  23.578  22.346  1.00  0.00     0.159 HD
ATOM     16  H   UNL A   1      33.438  23.373  23.319  1.00  0.00     0.159 HD
ATOM     17  O   UNL A   1      36.380  22.542  23.965  1.00  0.00    -0.273 OA
ENDBRANCH   9  13
BRANCH  11  18
ATOM     18  C   UNL A   1      33.456  20.087  24.540  1.00  0.00     0.061 A 
ATOM     19  C   UNL A   1      34.611  19.334  24.798  1.00  0.00     0.031 A 
ATOM     20  C   UNL A   1      32.453  19.508  23.746  1.00  0.00     0.031 A 
ATOM     21  C   UNL A   1      34.740  18.025  24.328  1.00  0.00     0.041 A 
ATOM     22  C   UNL A   1      32.589  18.210  23.248  1.00  0.00     0.041 A 
ATOM     23  C   UNL A   1      33.725  17.476  23.557  1.00  0.00     0.123 A 
ATOM     24  F   UNL A   1      33.843  16.222  23.102  1.00  0.00    -0.207 F 
ENDBRANCH  11  18
ENDBRANCH   5   8
ENDBRANCH   3   4
ENDBRANCH   2   3
ENDBRANCH   1   2
BRANCH   1  25
ATOM     25  C   UNL A   1      33.633  28.913  26.404  1.00  0.00     0.116 C 
BRANCH  25  26
ATOM     26  N   UNL A   1      33.513  30.298  26.834  1.00  0.00    -0.352 N 
ATOM     27  C   UNL A   1      34.338  31.013  27.665  1.00  0.00     0.251 C 
ATOM     28  H   UNL A   1      32.735  30.787  26.480  1.00  0.00     0.163 HD
ATOM     29  O   UNL A   1      34.005  32.139  28.027  1.00  0.00    -0.269 OA
BRANCH  27  30
ATOM     30  C   UNL A   1      35.599  30.408  28.142  1.00  0.00     0.039 A 
ATOM     31  C   UNL A   1      36.753  30.559  27.371  1.00  0.00     0.014 A 
ATOM     32  C   UNL A   1      35.647  29.709  29.352  1.00  0.00     0.014 A 
ATOM     33  C   UNL A   1      37.964  30.046  27.838  1.00  0.00     0.010 A 
ATOM     34  C   UNL A   1      36.869  29.278  29.855  1.00  0.00     0.010 A 
ATOM     35  C   UNL A   1      38.039  29.424  29.096  1.00  0.00    -0.014 A 
BRANCH  35  36
ATOM     36  C   UNL A   1      39.329  28.892  29.604  1.00  0.00     0.031 A 
ATOM     37  C   UNL A   1      39.988  29.530  30.800  1.00  0.00     0.074 A 
ATOM     38  C   UNL A   1      39.919  27.856  28.976  1.00  0.00     0.049 A 
ATOM     39  N   UNL A   1      41.111  29.215  31.392  1.00  0.00    -0.248 NA
ATOM     40  C   UNL A   1      39.309  30.695  31.387  1.00  0.00     0.031 C 
ATOM     41  C   UNL A   1      39.402  27.189  27.778  1.00  0.00     0.029 A 
ATOM     42  N   UNL A   1      41.075  27.174  29.259  1.00  0.00    -0.354 N 
ATOM     43  C   UNL A   1      41.275  30.145  32.414  1.00  0.00     0.074 A 
ATOM     44  C   UNL A   1      40.177  31.081  32.307  1.00  0.00     0.031 C 
ATOM     45  C   UNL A   1      40.214  26.170  27.456  1.00  0.00     0.029 A 
ATOM     46  C   UNL A   1      41.331  26.135  28.394  1.00  0.00     0.049 A 
ATOM     47  H   UNL A   1      41.667  27.407  30.011  1.00  0.00     0.167 HD
ATOM     48  C   UNL A   1      42.233  30.195  33.373  1.00  0.00     0.034 A 
ATOM     49  C   UNL A   1      42.350  25.254  28.363  1.00  0.00     0.034 A 
ATOM     50  C   UNL A   1      43.315  29.246  33.469  1.00  0.00     0.049 A 
ATOM     51  C   UNL A   1      43.412  25.337  29.432  1.00  0.00     0.074 A 
ATOM     52  C   UNL A   1      44.316  29.172  34.422  1.00  0.00     0.029 A 
ATOM     53  N   UNL A   1      43.546  28.208  32.574  1.00  0.00    -0.354 N 
ATOM     54  N   UNL A   1      43.519  26.185  30.428  1.00  0.00    -0.248 NA
ATOM     55  C   UNL A   1      44.476  24.328  29.382  1.00  0.00     0.031 C 
ATOM     56  C   UNL A   1      45.189  28.140  34.062  1.00  0.00     0.029 A 
ATOM     57  C   UNL A   1      44.688  27.508  32.937  1.00  0.00     0.049 A 
ATOM     58  H   UNL A   1      42.980  27.999  31.796  1.00  0.00     0.167 HD
ATOM     59  C   UNL A   1      44.645  25.789  31.144  1.00  0.00     0.074 A 
ATOM     60  C   UNL A   1      45.164  24.612  30.477  1.00  0.00     0.031 C 
ATOM     61  C   UNL A   1      45.201  26.343  32.254  1.00  0.00     0.034 A 
BRANCH  48  62
ATOM     62  C   UNL A   1      42.157  31.327  34.374  1.00  0.00     0.023 A 
ATOM     63  C   UNL A   1      41.206  31.335  35.411  1.00  0.00     0.031 A 
ATOM     64  C   UNL A   1      43.022  32.430  34.270  1.00  0.00     0.131 A 
ATOM     65  C   UNL A   1      41.087  32.456  36.247  1.00  0.00     0.055 A 
ATOM     66  C   UNL A   1      42.959  33.502  35.164  1.00  0.00     0.041 A 
ATOM     67  F   UNL A   1      43.934  32.494  33.288  1.00  0.00    -0.206 F 
ATOM     68  C   UNL A   1      41.976  33.527  36.149  1.00  0.00     0.022 A 
BRANCH  65  69
ATOM     69  S   UNL A   1      39.655  32.561  37.355  1.00  0.00     0.124 S 
ATOM     70  O   UNL A   1      39.038  33.812  36.921  1.00  0.00    -0.237 OA
ATOM     71  O   UNL A   1      38.919  31.342  37.039  1.00  0.00    -0.237 OA
ATOM     72  O   UNL A   1      40.254  32.601  38.687  1.00  0.00    -0.744 OA
ENDBRANCH  65  69
ENDBRANCH  48  62
BRANCH  49  73
ATOM     73  C   UNL A   1      42.422  24.213  27.295  1.00  0.00     0.023 A 
ATOM     74  C   UNL A   1      41.623  23.059  27.351  1.00  0.00     0.031 A 
ATOM     75  C   UNL A   1      43.328  24.334  26.226  1.00  0.00     0.131 A 
ATOM     76  C   UNL A   1      41.785  22.047  26.392  1.00  0.00     0.055 A 
ATOM     77  C   UNL A   1      43.442  23.352  25.240  1.00  0.00     0.041 A 
ATOM     78  F   UNL A   1      44.111  25.419  26.120  1.00  0.00    -0.206 F 
ATOM     79  C   UNL A   1      42.679  22.193  25.328  1.00  0.00     0.022 A 
BRANCH  76  80
ATOM     80  S   UNL A   1      40.879  20.491  26.608  1.00  0.00     0.124 S 
ATOM     81  O   UNL A   1      40.947  20.306  28.053  1.00  0.00    -0.237 OA
ATOM     82  O   UNL A   1      39.567  20.827  26.065  1.00  0.00    -0.237 OA
ATOM     83  O   UNL A   1      41.651  19.535  25.817  1.00  0.00    -0.744 OA
ENDBRANCH  76  80
ENDBRANCH  49  73
BRANCH  61  84
ATOM     84  C   UNL A   1      46.407  25.642  32.838  1.00  0.00     0.023 A 
ATOM     85  C   UNL A   1      47.704  25.863  32.345  1.00  0.00     0.031 A 
ATOM     86  C   UNL A   1      46.248  24.711  33.879  1.00  0.00     0.131 A 
ATOM     87  C   UNL A   1      48.778  25.102  32.834  1.00  0.00     0.055 A 
ATOM     88  C   UNL A   1      47.331  24.014  34.416  1.00  0.00     0.041 A 
ATOM     89  F   UNL A   1      45.032  24.455  34.390  1.00  0.00    -0.206 F 
ATOM     90  C   UNL A   1      48.602  24.193  33.879  1.00  0.00     0.022 A 
BRANCH  87  91
ATOM     91  S   UNL A   1      50.379  25.216  31.990  1.00  0.00     0.124 S 
ATOM     92  O   UNL A   1      51.174  25.975  32.950  1.00  0.00    -0.237 OA
ATOM     93  O   UNL A   1      50.744  23.812  31.827  1.00  0.00    -0.237 OA
ATOM     94  O   UNL A   1      50.064  25.923  30.750  1.00  0.00    -0.744 OA
ENDBRANCH  87  91
ENDBRANCH  61  84
ENDBRANCH  35  36
ENDBRANCH  27  30
ENDBRANCH  25  26
ENDBRANCH   1  25
TORSDOF 16
ENDMDL
MODEL 3
REMARK VINA RESULT:     -12.1      5.162     10.411
REMARK SMILES NC(=O)[C@H]1CC(C(=O)NCCCCNC(=O)c2ccc(-c3c4nc(c(-c5cc(S(=O)(=O)[O-])ccc5F)c5ccc([nH]5)c(-c5cc(S(=O)(=O)[O-])ccc5F)c5nc(c(-c6cc(S(=O)(=O)[O-])ccc6F)c6ccc3[nH]6)C=C5)C=C4)cc2)=NN1c1ccc(F)cc1
REMARK SMILES IDX 12 1 11 2 10 3 9 4 7 5 8 6 6 8 4 9 5 10 81 11 80 12 2 13
REMARK SMILES IDX 1 14 3 17 82 18 83 19 88 20 84 21 87 22 85 23 86 24 13 25
REMARK SMILES IDX 14 26 15 27 16 29 17 30 18 31 79 32 19 33 78 34 20 35 21 36
REMARK SMILES IDX 22 37 72 38 23 39 77 40 71 41 73 42 24 43 76 44 70 45 69 46
REMARK SMILES IDX 25 48 57 49 37 50 56 51 38 52 41 53 55 54 74 55 39 56 40 57
REMARK SMILES IDX 54 59 75 60 42 61 26 62 27 63 35 64 28 65 34 66 36 67 33 68
REMARK SMILES IDX 29 69 30 70 31 71 32 72 58 73 59 74 67 75 60 76 66 77 68 78
REMARK SMILES IDX 65 79 61 80 62 81 63 82 64 83 43 84 44 85 52 86 45 87 51 88
REMARK SMILES IDX 53 89 50 90 46 91 47 92 48 93 49 94
REMARK H PARENT 9 7 1 15 1 16 14 28 73 47 41 58
REMARK Flexibility Score: inf
ROOT
ATOM      1  C   UNL A   1      35.000  21.554  25.300  1.00  0.00     0.023 C 
ENDROOT
BRANCH   1   2
ATOM      2  C   UNL A   1      33.816  22.067  26.123  1.00  0.00     0.023 C 
BRANCH   2   3
ATOM      3  C   UNL A   1      32.463  21.861  25.451  1.00  0.00     0.116 C 
BRANCH   3   4
ATOM      4  N   UNL A   1      31.368  22.167  26.351  1.00  0.00    -0.351 N 
ATOM      5  C   UNL A   1      30.738  23.329  26.726  1.00  0.00     0.267 C 
ATOM      6  O   UNL A   1      29.856  23.252  27.578  1.00  0.00    -0.268 OA
ATOM      7  H   UNL A   1      30.994  21.369  26.788  1.00  0.00     0.163 HD
BRANCH   5   8
ATOM      8  C   UNL A   1      31.040  24.689  26.114  1.00  0.00     0.128 C 
ATOM      9  C   UNL A   1      30.912  26.610  24.808  1.00  0.00     0.203 C 
ATOM     10  C   UNL A   1      30.393  25.184  24.865  1.00  0.00     0.101 C 
ATOM     11  N   UNL A   1      31.797  26.680  25.961  1.00  0.00    -0.252 N 
ATOM     12  N   UNL A   1      31.844  25.533  26.693  1.00  0.00    -0.171 NA
BRANCH   9  13
ATOM     13  C   UNL A   1      31.693  26.857  23.511  1.00  0.00     0.242 C 
ATOM     14  N   UNL A   1      31.288  27.932  22.767  1.00  0.00    -0.368 N 
ATOM     15  H   UNL A   1      31.747  28.147  21.923  1.00  0.00     0.159 HD
ATOM     16  H   UNL A   1      30.539  28.490  23.076  1.00  0.00     0.159 HD
ATOM     17  O   UNL A   1      32.617  26.155  23.106  1.00  0.00    -0.273 OA
ENDBRANCH   9  13
BRANCH  11  18
ATOM     18  C   UNL A   1      32.425  27.833  26.405  1.00  0.00     0.061 A 
ATOM     19  C   UNL A   1      33.815  27.853  26.593  1.00  0.00     0.031 A 
ATOM     20  C   UNL A   1      31.705  29.009  26.668  1.00  0.00     0.031 A 
ATOM     21  C   UNL A   1      34.475  29.023  26.976  1.00  0.00     0.041 A 
ATOM     22  C   UNL A   1      32.355  30.174  27.080  1.00  0.00     0.041 A 
ATOM     23  C   UNL A   1      33.737  30.174  27.215  1.00  0.00     0.123 A 
ATOM     24  F   UNL A   1      34.363  31.298  27.585  1.00  0.00    -0.207 F 
ENDBRANCH  11  18
ENDBRANCH   5   8
ENDBRANCH   3   4
ENDBRANCH   2   3
ENDBRANCH   1   2
BRANCH   1  25
ATOM     25  C   UNL A   1      36.371  22.019  25.784  1.00  0.00     0.116 C 
BRANCH  25  26
ATOM     26  N   UNL A   1      37.378  20.969  25.750  1.00  0.00    -0.352 N 
ATOM     27  C   UNL A   1      38.730  21.069  25.961  1.00  0.00     0.251 C 
ATOM     28  H   UNL A   1      37.043  20.065  25.550  1.00  0.00     0.163 HD
ATOM     29  O   UNL A   1      39.449  20.094  25.758  1.00  0.00    -0.269 OA
BRANCH  27  30
ATOM     30  C   UNL A   1      39.310  22.357  26.394  1.00  0.00     0.039 A 
ATOM     31  C   UNL A   1      40.362  22.347  27.313  1.00  0.00     0.014 A 
ATOM     32  C   UNL A   1      38.831  23.568  25.885  1.00  0.00     0.014 A 
ATOM     33  C   UNL A   1      40.960  23.552  27.685  1.00  0.00     0.010 A 
ATOM     34  C   UNL A   1      39.487  24.755  26.189  1.00  0.00     0.010 A 
ATOM     35  C   UNL A   1      40.546  24.764  27.107  1.00  0.00    -0.014 A 
BRANCH  35  36
ATOM     36  C   UNL A   1      41.193  26.046  27.488  1.00  0.00     0.031 A 
ATOM     37  C   UNL A   1      42.588  26.356  27.012  1.00  0.00     0.074 A 
ATOM     38  C   UNL A   1      40.537  26.916  28.281  1.00  0.00     0.049 A 
ATOM     39  N   UNL A   1      43.323  27.415  27.236  1.00  0.00    -0.248 NA
ATOM     40  C   UNL A   1      43.255  25.326  26.202  1.00  0.00     0.031 C 
ATOM     41  C   UNL A   1      39.202  26.702  28.847  1.00  0.00     0.029 A 
ATOM     42  N   UNL A   1      40.896  28.156  28.744  1.00  0.00    -0.354 N 
ATOM     43  C   UNL A   1      44.538  27.175  26.602  1.00  0.00     0.074 A 
ATOM     44  C   UNL A   1      44.467  25.838  26.055  1.00  0.00     0.031 C 
ATOM     45  C   UNL A   1      38.840  27.792  29.543  1.00  0.00     0.029 A 
ATOM     46  C   UNL A   1      39.928  28.762  29.512  1.00  0.00     0.049 A 
ATOM     47  H   UNL A   1      41.765  28.574  28.545  1.00  0.00     0.167 HD
ATOM     48  C   UNL A   1      45.603  28.004  26.460  1.00  0.00     0.034 A 
ATOM     49  C   UNL A   1      39.920  29.966  30.120  1.00  0.00     0.034 A 
ATOM     50  C   UNL A   1      45.651  29.338  27.005  1.00  0.00     0.049 A 
ATOM     51  C   UNL A   1      41.120  30.865  29.960  1.00  0.00     0.074 A 
ATOM     52  C   UNL A   1      46.657  30.283  26.888  1.00  0.00     0.029 A 
ATOM     53  N   UNL A   1      44.655  29.919  27.780  1.00  0.00    -0.354 N 
ATOM     54  N   UNL A   1      42.238  30.647  29.305  1.00  0.00    -0.248 NA
ATOM     55  C   UNL A   1      41.046  32.182  30.603  1.00  0.00     0.031 C 
ATOM     56  C   UNL A   1      46.301  31.400  27.650  1.00  0.00     0.029 A 
ATOM     57  C   UNL A   1      45.034  31.195  28.171  1.00  0.00     0.049 A 
ATOM     58  H   UNL A   1      43.802  29.487  28.018  1.00  0.00     0.167 HD
ATOM     59  C   UNL A   1      42.985  31.815  29.430  1.00  0.00     0.074 A 
ATOM     60  C   UNL A   1      42.178  32.739  30.201  1.00  0.00     0.031 C 
ATOM     61  C   UNL A   1      44.224  32.102  28.951  1.00  0.00     0.034 A 
BRANCH  48  62
ATOM     62  C   UNL A   1      46.802  27.473  25.706  1.00  0.00     0.023 A 
ATOM     63  C   UNL A   1      47.106  27.908  24.402  1.00  0.00     0.031 A 
ATOM     64  C   UNL A   1      47.631  26.495  26.281  1.00  0.00     0.131 A 
ATOM     65  C   UNL A   1      48.156  27.307  23.690  1.00  0.00     0.055 A 
ATOM     66  C   UNL A   1      48.731  25.968  25.599  1.00  0.00     0.041 A 
ATOM     67  F   UNL A   1      47.379  26.022  27.511  1.00  0.00    -0.206 F 
ATOM     68  C   UNL A   1      48.989  26.361  24.289  1.00  0.00     0.022 A 
BRANCH  65  69
ATOM     69  S   UNL A   1      48.314  27.665  21.918  1.00  0.00     0.124 S 
ATOM     70  O   UNL A   1      48.589  26.337  21.373  1.00  0.00    -0.237 OA
ATOM     71  O   UNL A   1      47.012  28.234  21.591  1.00  0.00    -0.237 OA
ATOM     72  O   UNL A   1      49.436  28.599  21.856  1.00  0.00    -0.744 OA
ENDBRANCH  65  69
ENDBRANCH  48  62
BRANCH  49  73
ATOM     73  C   UNL A   1      38.743  30.399  30.930  1.00  0.00     0.023 A 
ATOM     74  C   UNL A   1      37.801  31.304  30.415  1.00  0.00     0.031 A 
ATOM     75  C   UNL A   1      38.571  29.952  32.252  1.00  0.00     0.131 A 
ATOM     76  C   UNL A   1      36.762  31.776  31.232  1.00  0.00     0.055 A 
ATOM     77  C   UNL A   1      37.502  30.378  33.042  1.00  0.00     0.041 A 
ATOM     78  F   UNL A   1      39.439  29.082  32.794  1.00  0.00    -0.206 F 
ATOM     79  C   UNL A   1      36.598  31.308  32.538  1.00  0.00     0.022 A 
BRANCH  76  80
ATOM     80  S   UNL A   1      35.683  33.088  30.597  1.00  0.00     0.124 S 
ATOM     81  O   UNL A   1      36.308  33.392  29.315  1.00  0.00    -0.237 OA
ATOM     82  O   UNL A   1      34.390  32.413  30.537  1.00  0.00    -0.237 OA
ATOM     83  O   UNL A   1      35.790  34.136  31.609  1.00  0.00    -0.744 OA
ENDBRANCH  76  80
ENDBRANCH  49  73
BRANCH  61  84
ATOM     84  C   UNL A   1      44.751  33.495  29.209  1.00  0.00     0.023 A 
ATOM     85  C   UNL A   1      44.336  34.599  28.445  1.00  0.00     0.031 A 
ATOM     86  C   UNL A   1      45.712  33.713  30.212  1.00  0.00     0.131 A 
ATOM     87  C   UNL A   1      44.940  35.851  28.638  1.00  0.00     0.055 A 
ATOM     88  C   UNL A   1      46.253  34.977  30.453  1.00  0.00     0.041 A 
ATOM     89  F   UNL A   1      46.150  32.697  30.974  1.00  0.00    -0.206 F 
ATOM     90  C   UNL A   1      45.881  36.051  29.649  1.00  0.00     0.022 A 
BRANCH  87  91
ATOM     91  S   UNL A   1      44.580  37.180  27.457  1.00  0.00     0.124 S 
ATOM     92  O   UNL A   1      44.369  38.322  28.342  1.00  0.00    -0.237 OA
ATOM     93  O   UNL A   1      45.796  37.216  26.650  1.00  0.00    -0.237 OA
ATOM     94  O   UNL A   1      43.386  36.706  26.760  1.00  0.00    -0.744 OA
ENDBRANCH  87  91
ENDBRANCH  61  84
ENDBRANCH  35  36
ENDBRANCH  27  30
ENDBRANCH  25  26
ENDBRANCH   1  25
TORSDOF 16
ENDMDL
