MODEL 1
REMARK VINA RESULT:     -12.2      0.000      0.000
REMARK SMILES O=C(NCCCCNC(=O)c1cc(Br)ccc1OCc1ccc(O)cc1)c1ccc(-c2c3nc(c(-c4cc(S(=O)(=O)[O-])ccc4F)c4ccc([nH]4)c(-c4cc(S(=O)(=O)[O-])ccc4F)c4nc(c(-c5cc(S(=O)(=O)[O-])ccc5F)c5ccc2[nH]5)C=C4)C=C3)cc1
REMARK SMILES IDX 6 1 5 2 4 3 3 4 1 5 2 6 27 8 28 9 89 10 29 11 88 12 30 13
REMARK SMILES IDX 31 14 32 15 82 16 33 17 87 18 81 19 83 20 34 21 86 22 80 23
REMARK SMILES IDX 79 24 35 26 67 27 47 28 66 29 48 30 51 31 65 32 84 33 49 34
REMARK SMILES IDX 50 35 64 37 85 38 52 39 36 40 37 41 45 42 38 43 44 44 46 45
REMARK SMILES IDX 43 46 39 47 40 48 41 49 42 50 68 51 69 52 77 53 70 54 76 55
REMARK SMILES IDX 78 56 75 57 71 58 72 59 73 60 74 61 53 62 54 63 62 64 55 65
REMARK SMILES IDX 61 66 63 67 60 68 56 69 57 70 58 71 59 72 7 73 8 74 9 75
REMARK SMILES IDX 10 77 11 78 12 79 17 80 13 81 16 82 14 83 15 84 18 85 19 86
REMARK SMILES IDX 20 87 21 88 26 89 22 90 25 91 23 92 24 93
REMARK H PARENT 3 7 83 25 51 36 8 76 24 94
REMARK Flexibility Score: inf
ROOT
ATOM      1  C   UNL A   1      31.543  30.377  26.312  1.00  0.00     0.023 C 
ENDROOT
BRANCH   1   2
ATOM      2  C   UNL A   1      31.499  31.890  26.543  1.00  0.00     0.023 C 
BRANCH   2   3
ATOM      3  C   UNL A   1      32.783  32.569  27.012  1.00  0.00     0.116 C 
BRANCH   3   4
ATOM      4  N   UNL A   1      32.565  33.861  27.635  1.00  0.00    -0.352 N 
ATOM      5  O   UNL A   1      32.818  35.549  29.090  1.00  0.00    -0.269 OA
ATOM      6  C   UNL A   1      33.224  34.464  28.678  1.00  0.00     0.251 C 
ATOM      7  H   UNL A   1      31.828  34.388  27.249  1.00  0.00     0.163 HD
BRANCH   6   8
ATOM      8  C   UNL A   1      34.382  33.815  29.338  1.00  0.00     0.039 A 
ATOM      9  C   UNL A   1      34.232  32.774  30.261  1.00  0.00     0.014 A 
ATOM     10  C   UNL A   1      35.665  34.246  28.981  1.00  0.00     0.014 A 
ATOM     11  C   UNL A   1      35.353  32.249  30.910  1.00  0.00     0.010 A 
ATOM     12  C   UNL A   1      36.788  33.687  29.597  1.00  0.00     0.010 A 
ATOM     13  C   UNL A   1      36.639  32.707  30.591  1.00  0.00    -0.014 A 
BRANCH  13  14
ATOM     14  C   UNL A   1      37.835  32.165  31.284  1.00  0.00     0.031 A 
ATOM     15  C   UNL A   1      38.647  31.068  30.652  1.00  0.00     0.074 A 
ATOM     16  C   UNL A   1      38.167  32.627  32.503  1.00  0.00     0.049 A 
ATOM     17  N   UNL A   1      39.669  30.409  31.137  1.00  0.00    -0.248 NA
ATOM     18  C   UNL A   1      38.243  30.646  29.303  1.00  0.00     0.031 C 
ATOM     19  C   UNL A   1      37.447  33.670  33.235  1.00  0.00     0.029 A 
ATOM     20  N   UNL A   1      39.182  32.262  33.350  1.00  0.00    -0.354 N 
ATOM     21  C   UNL A   1      40.021  29.482  30.163  1.00  0.00     0.074 A 
ATOM     22  C   UNL A   1      39.085  29.649  29.070  1.00  0.00     0.031 C 
ATOM     23  C   UNL A   1      38.035  33.850  34.430  1.00  0.00     0.029 A 
ATOM     24  C   UNL A   1      39.150  32.917  34.557  1.00  0.00     0.049 A 
ATOM     25  H   UNL A   1      39.866  31.594  33.115  1.00  0.00     0.167 HD
ATOM     26  C   UNL A   1      41.035  28.579  30.173  1.00  0.00     0.034 A 
ATOM     27  C   UNL A   1      39.911  32.763  35.656  1.00  0.00     0.034 A 
ATOM     28  C   UNL A   1      41.972  28.424  31.258  1.00  0.00     0.049 A 
ATOM     29  C   UNL A   1      41.014  31.744  35.658  1.00  0.00     0.074 A 
ATOM     30  C   UNL A   1      43.080  27.597  31.334  1.00  0.00     0.029 A 
ATOM     31  N   UNL A   1      41.903  29.104  32.467  1.00  0.00    -0.354 N 
ATOM     32  N   UNL A   1      41.353  30.896  34.718  1.00  0.00    -0.248 NA
ATOM     33  C   UNL A   1      41.834  31.663  36.874  1.00  0.00     0.031 C 
ATOM     34  C   UNL A   1      43.654  27.744  32.605  1.00  0.00     0.029 A 
ATOM     35  C   UNL A   1      42.929  28.693  33.305  1.00  0.00     0.049 A 
ATOM     36  H   UNL A   1      41.225  29.779  32.695  1.00  0.00     0.167 HD
ATOM     37  C   UNL A   1      42.430  30.181  35.226  1.00  0.00     0.074 A 
ATOM     38  C   UNL A   1      42.687  30.698  36.556  1.00  0.00     0.031 C 
ATOM     39  C   UNL A   1      43.150  29.193  34.639  1.00  0.00     0.034 A 
BRANCH  26  40
ATOM     40  C   UNL A   1      41.146  27.666  28.982  1.00  0.00     0.023 A 
ATOM     41  C   UNL A   1      42.125  27.863  27.993  1.00  0.00     0.031 A 
ATOM     42  C   UNL A   1      40.233  26.611  28.810  1.00  0.00     0.131 A 
ATOM     43  C   UNL A   1      42.126  27.062  26.841  1.00  0.00     0.055 A 
ATOM     44  C   UNL A   1      40.277  25.778  27.691  1.00  0.00     0.041 A 
ATOM     45  F   UNL A   1      39.267  26.391  29.716  1.00  0.00    -0.206 F 
ATOM     46  C   UNL A   1      41.218  26.010  26.692  1.00  0.00     0.022 A 
BRANCH  43  47
ATOM     47  S   UNL A   1      43.236  27.504  25.476  1.00  0.00     0.124 S 
ATOM     48  O   UNL A   1      43.712  26.193  25.038  1.00  0.00    -0.237 OA
ATOM     49  O   UNL A   1      42.342  28.198  24.557  1.00  0.00    -0.237 OA
ATOM     50  O   UNL A   1      44.249  28.341  26.115  1.00  0.00    -0.744 OA
ENDBRANCH  43  47
ENDBRANCH  26  40
BRANCH  27  51
ATOM     51  C   UNL A   1      39.607  33.558  36.870  1.00  0.00     0.023 A 
ATOM     52  C   UNL A   1      38.866  33.013  37.928  1.00  0.00     0.031 A 
ATOM     53  C   UNL A   1      40.081  34.876  36.987  1.00  0.00     0.131 A 
ATOM     54  C   UNL A   1      38.607  33.796  39.063  1.00  0.00     0.055 A 
ATOM     55  C   UNL A   1      39.839  35.642  38.126  1.00  0.00     0.041 A 
ATOM     56  F   UNL A   1      40.806  35.424  35.999  1.00  0.00    -0.206 F 
ATOM     57  C   UNL A   1      39.095  35.102  39.172  1.00  0.00     0.022 A 
BRANCH  54  58
ATOM     58  S   UNL A   1      37.630  33.078  40.412  1.00  0.00     0.124 S 
ATOM     59  O   UNL A   1      37.741  34.107  41.440  1.00  0.00    -0.237 OA
ATOM     60  O   UNL A   1      36.316  32.927  39.795  1.00  0.00    -0.237 OA
ATOM     61  O   UNL A   1      38.322  31.824  40.704  1.00  0.00    -0.744 OA
ENDBRANCH  54  58
ENDBRANCH  27  51
BRANCH  39  62
ATOM     62  C   UNL A   1      44.293  28.630  35.435  1.00  0.00     0.023 A 
ATOM     63  C   UNL A   1      44.093  27.609  36.378  1.00  0.00     0.031 A 
ATOM     64  C   UNL A   1      45.592  29.137  35.260  1.00  0.00     0.131 A 
ATOM     65  C   UNL A   1      45.176  27.146  37.140  1.00  0.00     0.055 A 
ATOM     66  C   UNL A   1      46.671  28.652  35.998  1.00  0.00     0.041 A 
ATOM     67  F   UNL A   1      45.826  30.116  34.372  1.00  0.00    -0.206 F 
ATOM     68  C   UNL A   1      46.465  27.655  36.949  1.00  0.00     0.022 A 
BRANCH  65  69
ATOM     69  S   UNL A   1      44.881  25.885  38.411  1.00  0.00     0.124 S 
ATOM     70  O   UNL A   1      46.188  25.794  39.054  1.00  0.00    -0.237 OA
ATOM     71  O   UNL A   1      43.818  26.484  39.210  1.00  0.00    -0.237 OA
ATOM     72  O   UNL A   1      44.484  24.708  37.641  1.00  0.00    -0.744 OA
ENDBRANCH  65  69
ENDBRANCH  39  62
ENDBRANCH  13  14
ENDBRANCH   6   8
ENDBRANCH   3   4
ENDBRANCH   2   3
ENDBRANCH   1   2
BRANCH   1  73
ATOM     73  C   UNL A   1      32.910  29.742  26.077  1.00  0.00     0.116 C 
BRANCH  73  74
ATOM     74  N   UNL A   1      33.346  29.739  24.695  1.00  0.00    -0.352 N 
ATOM     75  C   UNL A   1      32.974  28.848  23.720  1.00  0.00     0.255 C 
ATOM     76  H   UNL A   1      33.974  30.449  24.428  1.00  0.00     0.163 HD
ATOM     77  O   UNL A   1      32.959  29.183  22.542  1.00  0.00    -0.269 OA
BRANCH  75  78
ATOM     78  C   UNL A   1      32.522  27.506  24.107  1.00  0.00     0.082 A 
ATOM     79  C   UNL A   1      33.561  26.607  24.414  1.00  0.00     0.033 A 
ATOM     80  C   UNL A   1      31.181  27.110  24.211  1.00  0.00     0.132 A 
ATOM     81  C   UNL A   1      33.267  25.300  24.785  1.00  0.00     0.019 A 
ATOM     82  C   UNL A   1      30.919  25.778  24.576  1.00  0.00     0.048 A 
ATOM     83  Br  UNL A   1      34.665  24.096  25.189  1.00  0.00    -0.051 Br
ATOM     84  C   UNL A   1      31.946  24.876  24.859  1.00  0.00     0.019 A 
BRANCH  80  85
ATOM     85  O   UNL A   1      30.020  27.808  24.046  1.00  0.00    -0.488 OA
BRANCH  85  86
ATOM     86  C   UNL A   1      29.493  28.163  22.768  1.00  0.00     0.265 C 
BRANCH  86  87
ATOM     87  C   UNL A   1      29.019  29.593  22.626  1.00  0.00    -0.010 A 
ATOM     88  C   UNL A   1      29.154  30.546  23.647  1.00  0.00     0.011 A 
ATOM     89  C   UNL A   1      28.445  29.993  21.405  1.00  0.00     0.011 A 
ATOM     90  C   UNL A   1      28.801  31.880  23.428  1.00  0.00     0.046 A 
ATOM     91  C   UNL A   1      28.075  31.322  21.193  1.00  0.00     0.046 A 
ATOM     92  C   UNL A   1      28.279  32.259  22.196  1.00  0.00     0.115 A 
BRANCH  92  93
ATOM     93  O   UNL A   1      27.965  33.560  21.933  1.00  0.00    -0.508 OA
ATOM     94  H   UNL A   1      27.990  33.878  21.052  1.00  0.00     0.293 HD
ENDBRANCH  92  93
ENDBRANCH  86  87
ENDBRANCH  85  86
ENDBRANCH  80  85
ENDBRANCH  75  78
ENDBRANCH  73  74
ENDBRANCH   1  73
TORSDOF 18
ENDMDL
MODEL 2
REMARK VINA RESULT:     -11.9      6.399     12.317
REMARK SMILES O=C(NCCCCNC(=O)c1cc(Br)ccc1OCc1ccc(O)cc1)c1ccc(-c2c3nc(c(-c4cc(S(=O)(=O)[O-])ccc4F)c4ccc([nH]4)c(-c4cc(S(=O)(=O)[O-])ccc4F)c4nc(c(-c5cc(S(=O)(=O)[O-])ccc5F)c5ccc2[nH]5)C=C4)C=C3)cc1
REMARK SMILES IDX 6 1 5 2 4 3 3 4 1 5 2 6 27 8 28 9 89 10 29 11 88 12 30 13
REMARK SMILES IDX 31 14 32 15 82 16 33 17 87 18 81 19 83 20 34 21 86 22 80 23
REMARK SMILES IDX 79 24 35 26 67 27 47 28 66 29 48 30 51 31 65 32 84 33 49 34
REMARK SMILES IDX 50 35 64 37 85 38 52 39 36 40 37 41 45 42 38 43 44 44 46 45
REMARK SMILES IDX 43 46 39 47 40 48 41 49 42 50 68 51 69 52 77 53 70 54 76 55
REMARK SMILES IDX 78 56 75 57 71 58 72 59 73 60 74 61 53 62 54 63 62 64 55 65
REMARK SMILES IDX 61 66 63 67 60 68 56 69 57 70 58 71 59 72 7 73 8 74 9 75
REMARK SMILES IDX 10 77 11 78 12 79 17 80 13 81 16 82 14 83 15 84 18 85 19 86
REMARK SMILES IDX 20 87 21 88 26 89 22 90 25 91 23 92 24 93
REMARK H PARENT 3 7 83 25 51 36 8 76 24 94
REMARK Flexibility Score: inf
ROOT
ATOM      1  C   UNL A   1      37.119  20.678  24.529  1.00  0.00     0.023 C 
ENDROOT
BRANCH   1   2
ATOM      2  C   UNL A   1      38.106  19.609  25.007  1.00  0.00     0.023 C 
BRANCH   2   3
ATOM      3  C   UNL A   1      39.215  20.049  25.959  1.00  0.00     0.116 C 
BRANCH   3   4
ATOM      4  N   UNL A   1      40.384  19.191  25.927  1.00  0.00    -0.352 N 
ATOM      5  O   UNL A   1      42.551  18.609  25.942  1.00  0.00    -0.269 OA
ATOM      6  C   UNL A   1      41.714  19.500  26.077  1.00  0.00     0.251 C 
ATOM      7  H   UNL A   1      40.195  18.238  25.774  1.00  0.00     0.163 HD
BRANCH   6   8
ATOM      8  C   UNL A   1      42.158  20.888  26.354  1.00  0.00     0.039 A 
ATOM      9  C   UNL A   1      42.336  21.834  25.340  1.00  0.00     0.014 A 
ATOM     10  C   UNL A   1      42.362  21.255  27.689  1.00  0.00     0.014 A 
ATOM     11  C   UNL A   1      42.828  23.106  25.649  1.00  0.00     0.010 A 
ATOM     12  C   UNL A   1      42.809  22.542  28.002  1.00  0.00     0.010 A 
ATOM     13  C   UNL A   1      43.077  23.467  26.981  1.00  0.00    -0.014 A 
BRANCH  13  14
ATOM     14  C   UNL A   1      43.613  24.810  27.319  1.00  0.00     0.031 A 
ATOM     15  C   UNL A   1      42.700  25.879  27.856  1.00  0.00     0.074 A 
ATOM     16  C   UNL A   1      44.912  25.086  27.100  1.00  0.00     0.049 A 
ATOM     17  N   UNL A   1      42.962  27.132  28.128  1.00  0.00    -0.248 NA
ATOM     18  C   UNL A   1      41.306  25.486  28.104  1.00  0.00     0.031 C 
ATOM     19  C   UNL A   1      45.894  24.147  26.558  1.00  0.00     0.029 A 
ATOM     20  N   UNL A   1      45.621  26.245  27.285  1.00  0.00    -0.354 N 
ATOM     21  C   UNL A   1      41.763  27.686  28.562  1.00  0.00     0.074 A 
ATOM     22  C   UNL A   1      40.769  26.634  28.492  1.00  0.00     0.031 C 
ATOM     23  C   UNL A   1      47.077  24.772  26.440  1.00  0.00     0.029 A 
ATOM     24  C   UNL A   1      46.927  26.159  26.869  1.00  0.00     0.049 A 
ATOM     25  H   UNL A   1      45.231  27.059  27.678  1.00  0.00     0.167 HD
ATOM     26  C   UNL A   1      41.514  28.950  28.986  1.00  0.00     0.034 A 
ATOM     27  C   UNL A   1      47.889  27.099  26.808  1.00  0.00     0.034 A 
ATOM     28  C   UNL A   1      42.509  29.991  29.066  1.00  0.00     0.049 A 
ATOM     29  C   UNL A   1      47.589  28.498  27.260  1.00  0.00     0.074 A 
ATOM     30  C   UNL A   1      42.378  31.280  29.556  1.00  0.00     0.029 A 
ATOM     31  N   UNL A   1      43.821  29.866  28.630  1.00  0.00    -0.354 N 
ATOM     32  N   UNL A   1      46.459  28.998  27.696  1.00  0.00    -0.248 NA
ATOM     33  C   UNL A   1      48.699  29.459  27.210  1.00  0.00     0.031 C 
ATOM     34  C   UNL A   1      43.598  31.947  29.375  1.00  0.00     0.029 A 
ATOM     35  C   UNL A   1      44.500  31.061  28.811  1.00  0.00     0.049 A 
ATOM     36  H   UNL A   1      44.212  29.047  28.248  1.00  0.00     0.167 HD
ATOM     37  C   UNL A   1      46.720  30.333  27.977  1.00  0.00     0.074 A 
ATOM     38  C   UNL A   1      48.117  30.562  27.663  1.00  0.00     0.031 C 
ATOM     39  C   UNL A   1      45.882  31.282  28.462  1.00  0.00     0.034 A 
BRANCH  26  40
ATOM     40  C   UNL A   1      40.091  29.277  29.358  1.00  0.00     0.023 A 
ATOM     41  C   UNL A   1      39.671  29.316  30.698  1.00  0.00     0.031 A 
ATOM     42  C   UNL A   1      39.133  29.507  28.356  1.00  0.00     0.131 A 
ATOM     43  C   UNL A   1      38.315  29.512  31.000  1.00  0.00     0.055 A 
ATOM     44  C   UNL A   1      37.795  29.761  28.664  1.00  0.00     0.041 A 
ATOM     45  F   UNL A   1      39.477  29.462  27.059  1.00  0.00    -0.206 F 
ATOM     46  C   UNL A   1      37.377  29.750  29.991  1.00  0.00     0.022 A 
BRANCH  43  47
ATOM     47  S   UNL A   1      37.770  29.305  32.717  1.00  0.00     0.124 S 
ATOM     48  O   UNL A   1      36.502  30.033  32.720  1.00  0.00    -0.237 OA
ATOM     49  O   UNL A   1      37.674  27.855  32.844  1.00  0.00    -0.237 OA
ATOM     50  O   UNL A   1      38.836  29.932  33.494  1.00  0.00    -0.744 OA
ENDBRANCH  43  47
ENDBRANCH  26  40
BRANCH  27  51
ATOM     51  C   UNL A   1      49.211  26.751  26.233  1.00  0.00     0.023 A 
ATOM     52  C   UNL A   1      49.576  27.166  24.945  1.00  0.00     0.031 A 
ATOM     53  C   UNL A   1      50.135  26.010  26.990  1.00  0.00     0.131 A 
ATOM     54  C   UNL A   1      50.839  26.824  24.442  1.00  0.00     0.055 A 
ATOM     55  C   UNL A   1      51.398  25.690  26.493  1.00  0.00     0.041 A 
ATOM     56  F   UNL A   1      49.825  25.608  28.233  1.00  0.00    -0.206 F 
ATOM     57  C   UNL A   1      51.755  26.096  25.210  1.00  0.00     0.022 A 
BRANCH  54  58
ATOM     58  S   UNL A   1      51.283  27.356  22.765  1.00  0.00     0.124 S 
ATOM     59  O   UNL A   1      52.565  26.687  22.571  1.00  0.00    -0.237 OA
ATOM     60  O   UNL A   1      50.168  26.845  21.974  1.00  0.00    -0.237 OA
ATOM     61  O   UNL A   1      51.346  28.812  22.875  1.00  0.00    -0.744 OA
ENDBRANCH  54  58
ENDBRANCH  27  51
BRANCH  39  62
ATOM     62  C   UNL A   1      46.471  32.644  28.697  1.00  0.00     0.023 A 
ATOM     63  C   UNL A   1      46.526  33.603  27.672  1.00  0.00     0.031 A 
ATOM     64  C   UNL A   1      47.001  32.975  29.955  1.00  0.00     0.131 A 
ATOM     65  C   UNL A   1      47.132  34.844  27.915  1.00  0.00     0.055 A 
ATOM     66  C   UNL A   1      47.575  34.222  30.201  1.00  0.00     0.041 A 
ATOM     67  F   UNL A   1      46.973  32.087  30.961  1.00  0.00    -0.206 F 
ATOM     68  C   UNL A   1      47.648  35.163  29.175  1.00  0.00     0.022 A 
BRANCH  65  69
ATOM     69  S   UNL A   1      47.267  36.037  26.554  1.00  0.00     0.124 S 
ATOM     70  O   UNL A   1      45.889  36.498  26.420  1.00  0.00    -0.237 OA
ATOM     71  O   UNL A   1      48.217  37.011  27.080  1.00  0.00    -0.237 OA
ATOM     72  O   UNL A   1      47.764  35.231  25.441  1.00  0.00    -0.744 OA
ENDBRANCH  65  69
ENDBRANCH  39  62
ENDBRANCH  13  14
ENDBRANCH   6   8
ENDBRANCH   3   4
ENDBRANCH   2   3
ENDBRANCH   1   2
BRANCH   1  73
ATOM     73  C   UNL A   1      37.011  21.955  25.357  1.00  0.00     0.116 C 
BRANCH  73  74
ATOM     74  N   UNL A   1      36.148  21.851  26.517  1.00  0.00    -0.352 N 
ATOM     75  C   UNL A   1      34.781  21.967  26.534  1.00  0.00     0.255 C 
ATOM     76  H   UNL A   1      36.588  21.681  27.382  1.00  0.00     0.163 HD
ATOM     77  O   UNL A   1      34.117  21.389  27.386  1.00  0.00    -0.269 OA
BRANCH  75  78
ATOM     78  C   UNL A   1      34.111  22.733  25.476  1.00  0.00     0.082 A 
ATOM     79  C   UNL A   1      34.040  24.118  25.715  1.00  0.00     0.033 A 
ATOM     80  C   UNL A   1      33.598  22.185  24.292  1.00  0.00     0.132 A 
ATOM     81  C   UNL A   1      33.419  24.955  24.794  1.00  0.00     0.019 A 
ATOM     82  C   UNL A   1      32.966  23.057  23.388  1.00  0.00     0.048 A 
ATOM     83  Br  UNL A   1      33.321  26.812  25.124  1.00  0.00    -0.051 Br
ATOM     84  C   UNL A   1      32.872  24.429  23.631  1.00  0.00     0.019 A 
BRANCH  80  85
ATOM     85  O   UNL A   1      33.616  20.910  23.807  1.00  0.00    -0.488 OA
BRANCH  85  86
ATOM     86  C   UNL A   1      32.489  20.035  23.855  1.00  0.00     0.265 C 
BRANCH  86  87
ATOM     87  C   UNL A   1      32.795  18.584  24.155  1.00  0.00    -0.010 A 
ATOM     88  C   UNL A   1      33.336  17.706  23.202  1.00  0.00     0.011 A 
ATOM     89  C   UNL A   1      32.556  18.101  25.454  1.00  0.00     0.011 A 
ATOM     90  C   UNL A   1      33.703  16.406  23.559  1.00  0.00     0.046 A 
ATOM     91  C   UNL A   1      32.906  16.796  25.806  1.00  0.00     0.046 A 
ATOM     92  C   UNL A   1      33.499  15.968  24.864  1.00  0.00     0.115 A 
BRANCH  92  93
ATOM     93  O   UNL A   1      33.886  14.721  25.258  1.00  0.00    -0.508 OA
ATOM     94  H   UNL A   1      34.026  14.539  26.166  1.00  0.00     0.293 HD
ENDBRANCH  92  93
ENDBRANCH  86  87
ENDBRANCH  85  86
ENDBRANCH  80  85
ENDBRANCH  75  78
ENDBRANCH  73  74
ENDBRANCH   1  73
TORSDOF 18
ENDMDL
MODEL 3
REMARK VINA RESULT:     -11.9      6.536     11.946
REMARK SMILES O=C(NCCCCNC(=O)c1cc(Br)ccc1OCc1ccc(O)cc1)c1ccc(-c2c3nc(c(-c4cc(S(=O)(=O)[O-])ccc4F)c4ccc([nH]4)c(-c4cc(S(=O)(=O)[O-])ccc4F)c4nc(c(-c5cc(S(=O)(=O)[O-])ccc5F)c5ccc2[nH]5)C=C4)C=C3)cc1
REMARK SMILES IDX 6 1 5 2 4 3 3 4 1 5 2 6 27 8 28 9 89 10 29 11 88 12 30 13
REMARK SMILES IDX 31 14 32 15 82 16 33 17 87 18 81 19 83 20 34 21 86 22 80 23
REMARK SMILES IDX 79 24 35 26 67 27 47 28 66 29 48 30 51 31 65 32 84 33 49 34
REMARK SMILES IDX 50 35 64 37 85 38 52 39 36 40 37 41 45 42 38 43 44 44 46 45
REMARK SMILES IDX 43 46 39 47 40 48 41 49 42 50 68 51 69 52 77 53 70 54 76 55
REMARK SMILES IDX 78 56 75 57 71 58 72 59 73 60 74 61 53 62 54 63 62 64 55 65
REMARK SMILES IDX 61 66 63 67 60 68 56 69 57 70 58 71 59 72 7 73 8 74 9 75
REMARK SMILES IDX 10 77 11 78 12 79 17 80 13 81 16 82 14 83 15 84 18 85 19 86
REMARK SMILES IDX 20 87 21 88 26 89 22 90 25 91 23 92 24 93
REMARK H PARENT 3 7 83 25 51 36 8 76 24 94
REMARK Flexibility Score: inf
ROOT
ATOM      1  C   UNL A   1      36.197  20.362  25.014  1.00  0.00     0.023 C 
ENDROOT
BRANCH   1   2
ATOM      2  C   UNL A   1      37.566  19.724  24.763  1.00  0.00     0.023 C 
BRANCH   2   3
ATOM      3  C   UNL A   1      38.734  20.199  25.625  1.00  0.00     0.116 C 
BRANCH   3   4
ATOM      4  N   UNL A   1      39.802  19.226  25.745  1.00  0.00    -0.352 N 
ATOM      5  O   UNL A   1      41.875  18.426  26.060  1.00  0.00    -0.269 OA
ATOM      6  C   UNL A   1      41.121  19.397  26.090  1.00  0.00     0.251 C 
ATOM      7  H   UNL A   1      39.542  18.298  25.550  1.00  0.00     0.163 HD
BRANCH   6   8
ATOM      8  C   UNL A   1      41.658  20.731  26.452  1.00  0.00     0.039 A 
ATOM      9  C   UNL A   1      41.959  21.084  27.772  1.00  0.00     0.014 A 
ATOM     10  C   UNL A   1      41.901  21.642  25.418  1.00  0.00     0.014 A 
ATOM     11  C   UNL A   1      42.390  22.381  28.067  1.00  0.00     0.010 A 
ATOM     12  C   UNL A   1      42.378  22.923  25.710  1.00  0.00     0.010 A 
ATOM     13  C   UNL A   1      42.595  23.314  27.040  1.00  0.00    -0.014 A 
BRANCH  13  14
ATOM     14  C   UNL A   1      43.040  24.697  27.344  1.00  0.00     0.031 A 
ATOM     15  C   UNL A   1      42.097  25.674  27.992  1.00  0.00     0.074 A 
ATOM     16  C   UNL A   1      44.280  25.091  26.997  1.00  0.00     0.049 A 
ATOM     17  N   UNL A   1      42.273  26.944  28.257  1.00  0.00    -0.248 NA
ATOM     18  C   UNL A   1      40.777  25.154  28.376  1.00  0.00     0.031 C 
ATOM     19  C   UNL A   1      45.280  24.249  26.341  1.00  0.00     0.029 A 
ATOM     20  N   UNL A   1      44.898  26.308  27.129  1.00  0.00    -0.354 N 
ATOM     21  C   UNL A   1      41.081  27.383  28.821  1.00  0.00     0.074 A 
ATOM     22  C   UNL A   1      40.183  26.246  28.836  1.00  0.00     0.031 C 
ATOM     23  C   UNL A   1      46.384  24.980  26.112  1.00  0.00     0.029 A 
ATOM     24  C   UNL A   1      46.156  26.344  26.579  1.00  0.00     0.049 A 
ATOM     25  H   UNL A   1      44.480  27.080  27.574  1.00  0.00     0.167 HD
ATOM     26  C   UNL A   1      40.765  28.616  29.292  1.00  0.00     0.034 A 
ATOM     27  C   UNL A   1      47.018  27.367  26.435  1.00  0.00     0.034 A 
ATOM     28  C   UNL A   1      41.666  29.742  29.286  1.00  0.00     0.049 A 
ATOM     29  C   UNL A   1      46.643  28.730  26.940  1.00  0.00     0.074 A 
ATOM     30  C   UNL A   1      41.472  31.009  29.809  1.00  0.00     0.029 A 
ATOM     31  N   UNL A   1      42.932  29.740  28.715  1.00  0.00    -0.354 N 
ATOM     32  N   UNL A   1      45.525  29.122  27.499  1.00  0.00    -0.248 NA
ATOM     33  C   UNL A   1      47.651  29.788  26.792  1.00  0.00     0.031 C 
ATOM     34  C   UNL A   1      42.602  31.786  29.515  1.00  0.00     0.029 A 
ATOM     35  C   UNL A   1      43.517  30.990  28.846  1.00  0.00     0.049 A 
ATOM     36  H   UNL A   1      43.352  28.963  28.281  1.00  0.00     0.167 HD
ATOM     37  C   UNL A   1      45.693  30.473  27.775  1.00  0.00     0.074 A 
ATOM     38  C   UNL A   1      47.024  30.830  27.322  1.00  0.00     0.031 C 
ATOM     39  C   UNL A   1      44.829  31.339  28.360  1.00  0.00     0.034 A 
BRANCH  26  40
ATOM     40  C   UNL A   1      39.366  28.809  29.813  1.00  0.00     0.023 A 
ATOM     41  C   UNL A   1      38.349  29.351  29.008  1.00  0.00     0.031 A 
ATOM     42  C   UNL A   1      39.057  28.491  31.146  1.00  0.00     0.131 A 
ATOM     43  C   UNL A   1      37.089  29.622  29.562  1.00  0.00     0.055 A 
ATOM     44  C   UNL A   1      37.783  28.707  31.676  1.00  0.00     0.041 A 
ATOM     45  F   UNL A   1      39.996  27.988  31.963  1.00  0.00    -0.206 F 
ATOM     46  C   UNL A   1      36.795  29.288  30.887  1.00  0.00     0.022 A 
BRANCH  43  47
ATOM     47  S   UNL A   1      35.886  30.550  28.571  1.00  0.00     0.124 S 
ATOM     48  O   UNL A   1      35.179  31.316  29.595  1.00  0.00    -0.237 OA
ATOM     49  O   UNL A   1      36.743  31.318  27.676  1.00  0.00    -0.237 OA
ATOM     50  O   UNL A   1      35.091  29.505  27.931  1.00  0.00    -0.744 OA
ENDBRANCH  43  47
ENDBRANCH  26  40
BRANCH  27  51
ATOM     51  C   UNL A   1      48.299  27.145  25.721  1.00  0.00     0.023 A 
ATOM     52  C   UNL A   1      48.396  27.312  24.332  1.00  0.00     0.031 A 
ATOM     53  C   UNL A   1      49.451  26.782  26.438  1.00  0.00     0.131 A 
ATOM     54  C   UNL A   1      49.628  27.102  23.697  1.00  0.00     0.055 A 
ATOM     55  C   UNL A   1      50.679  26.594  25.804  1.00  0.00     0.041 A 
ATOM     56  F   UNL A   1      49.399  26.628  27.771  1.00  0.00    -0.206 F 
ATOM     57  C   UNL A   1      50.770  26.751  24.424  1.00  0.00     0.022 A 
BRANCH  54  58
ATOM     58  S   UNL A   1      49.725  27.304  21.897  1.00  0.00     0.124 S 
ATOM     59  O   UNL A   1      51.138  27.042  21.644  1.00  0.00    -0.237 OA
ATOM     60  O   UNL A   1      48.790  26.290  21.421  1.00  0.00    -0.237 OA
ATOM     61  O   UNL A   1      49.298  28.686  21.686  1.00  0.00    -0.744 OA
ENDBRANCH  54  58
ENDBRANCH  27  51
BRANCH  39  62
ATOM     62  C   UNL A   1      45.316  32.746  28.557  1.00  0.00     0.023 A 
ATOM     63  C   UNL A   1      46.068  33.107  29.687  1.00  0.00     0.031 A 
ATOM     64  C   UNL A   1      45.005  33.738  27.612  1.00  0.00     0.131 A 
ATOM     65  C   UNL A   1      46.459  34.443  29.862  1.00  0.00     0.055 A 
ATOM     66  C   UNL A   1      45.422  35.059  27.776  1.00  0.00     0.041 A 
ATOM     67  F   UNL A   1      44.285  33.437  26.520  1.00  0.00    -0.206 F 
ATOM     68  C   UNL A   1      46.149  35.418  28.909  1.00  0.00     0.022 A 
BRANCH  65  69
ATOM     69  S   UNL A   1      47.358  34.904  31.370  1.00  0.00     0.124 S 
ATOM     70  O   UNL A   1      46.532  35.989  31.892  1.00  0.00    -0.237 OA
ATOM     71  O   UNL A   1      47.344  33.665  32.139  1.00  0.00    -0.237 OA
ATOM     72  O   UNL A   1      48.672  35.308  30.874  1.00  0.00    -0.744 OA
ENDBRANCH  65  69
ENDBRANCH  39  62
ENDBRANCH  13  14
ENDBRANCH   6   8
ENDBRANCH   3   4
ENDBRANCH   2   3
ENDBRANCH   1   2
BRANCH   1  73
ATOM     73  C   UNL A   1      36.173  21.817  25.469  1.00  0.00     0.116 C 
BRANCH  73  74
ATOM     74  N   UNL A   1      35.492  22.045  26.729  1.00  0.00    -0.352 N 
ATOM     75  C   UNL A   1      34.153  22.282  26.905  1.00  0.00     0.255 C 
ATOM     76  H   UNL A   1      36.049  22.029  27.541  1.00  0.00     0.163 HD
ATOM     77  O   UNL A   1      33.595  21.965  27.949  1.00  0.00    -0.269 OA
BRANCH  75  78
ATOM     78  C   UNL A   1      33.372  22.856  25.801  1.00  0.00     0.082 A 
ATOM     79  C   UNL A   1      33.587  24.231  25.589  1.00  0.00     0.033 A 
ATOM     80  C   UNL A   1      32.500  22.133  24.976  1.00  0.00     0.132 A 
ATOM     81  C   UNL A   1      32.899  24.897  24.581  1.00  0.00     0.019 A 
ATOM     82  C   UNL A   1      31.811  22.839  23.974  1.00  0.00     0.048 A 
ATOM     83  Br  UNL A   1      33.186  26.743  24.304  1.00  0.00    -0.051 Br
ATOM     84  C   UNL A   1      32.002  24.208  23.774  1.00  0.00     0.019 A 
BRANCH  80  85
ATOM     85  O   UNL A   1      32.191  20.804  24.935  1.00  0.00    -0.488 OA
BRANCH  85  86
ATOM     86  C   UNL A   1      32.455  19.972  23.805  1.00  0.00     0.265 C 
BRANCH  86  87
ATOM     87  C   UNL A   1      32.861  18.548  24.117  1.00  0.00    -0.010 A 
ATOM     88  C   UNL A   1      33.546  17.733  23.203  1.00  0.00     0.011 A 
ATOM     89  C   UNL A   1      32.567  18.028  25.391  1.00  0.00     0.011 A 
ATOM     90  C   UNL A   1      33.996  16.464  23.577  1.00  0.00     0.046 A 
ATOM     91  C   UNL A   1      33.001  16.754  25.759  1.00  0.00     0.046 A 
ATOM     92  C   UNL A   1      33.732  15.992  24.859  1.00  0.00     0.115 A 
BRANCH  92  93
ATOM     93  O   UNL A   1      34.194  14.778  25.273  1.00  0.00    -0.508 OA
ATOM     94  H   UNL A   1      35.086  14.684  25.544  1.00  0.00     0.293 HD
ENDBRANCH  92  93
ENDBRANCH  86  87
ENDBRANCH  85  86
ENDBRANCH  80  85
ENDBRANCH  75  78
ENDBRANCH  73  74
ENDBRANCH   1  73
TORSDOF 18
ENDMDL
