MODEL 1
REMARK VINA RESULT:     -11.7      0.000      0.000
REMARK SMILES O=C(NCCCCNC(=O)[C@H]1C[C@@H](O)CN1C(=O)CCc1ccc(Cl)cc1Cl)c1ccc(-c2c3nc(c(-c4cc(S(=O)(=O)[O-])ccc4F)c4ccc([nH]4)c(-c4cc(S(=O)(=O)[O-])ccc4F)c4nc(c(-c5cc(S(=O)(=O)[O-])ccc5F)c5ccc2[nH]5)C=C4)C=C3)cc1
REMARK SMILES IDX 6 1 5 2 4 3 3 4 1 5 2 6 29 8 30 9 91 10 31 11 90 12 32 13
REMARK SMILES IDX 33 14 34 15 84 16 35 17 89 18 83 19 85 20 36 21 88 22 82 23
REMARK SMILES IDX 81 24 37 26 69 27 49 28 68 29 50 30 53 31 67 32 86 33 51 34
REMARK SMILES IDX 52 35 66 37 87 38 54 39 38 40 39 41 47 42 40 43 46 44 48 45
REMARK SMILES IDX 45 46 41 47 42 48 43 49 44 50 70 51 71 52 79 53 72 54 78 55
REMARK SMILES IDX 80 56 77 57 73 58 74 59 75 60 76 61 55 62 56 63 64 64 57 65
REMARK SMILES IDX 63 66 65 67 62 68 58 69 59 70 60 71 61 72 7 73 8 74 9 75
REMARK SMILES IDX 10 77 11 78 12 79 16 80 13 81 15 82 17 83 18 84 19 85 20 86
REMARK SMILES IDX 21 87 22 88 27 89 23 90 26 91 28 92 24 93 25 94 14 95
REMARK H PARENT 3 7 85 25 53 36 8 76 14 96
REMARK Flexibility Score: inf
ROOT
ATOM      1  C   UNL A   1      33.597  27.913  24.285  1.00  0.00     0.023 C 
ENDROOT
BRANCH   1   2
ATOM      2  C   UNL A   1      33.095  29.316  24.612  1.00  0.00     0.023 C 
BRANCH   2   3
ATOM      3  C   UNL A   1      32.795  29.547  26.082  1.00  0.00     0.116 C 
BRANCH   3   4
ATOM      4  N   UNL A   1      32.411  30.916  26.393  1.00  0.00    -0.352 N 
ATOM      5  O   UNL A   1      32.616  32.900  27.467  1.00  0.00    -0.269 OA
ATOM      6  C   UNL A   1      33.085  31.805  27.204  1.00  0.00     0.251 C 
ATOM      7  H   UNL A   1      31.580  31.244  25.980  1.00  0.00     0.163 HD
BRANCH   6   8
ATOM      8  C   UNL A   1      34.372  31.365  27.778  1.00  0.00     0.039 A 
ATOM      9  C   UNL A   1      34.521  30.046  28.213  1.00  0.00     0.014 A 
ATOM     10  C   UNL A   1      35.388  32.303  27.972  1.00  0.00     0.014 A 
ATOM     11  C   UNL A   1      35.625  29.702  28.978  1.00  0.00     0.010 A 
ATOM     12  C   UNL A   1      36.540  31.927  28.664  1.00  0.00     0.010 A 
ATOM     13  C   UNL A   1      36.651  30.634  29.201  1.00  0.00    -0.014 A 
BRANCH  13  14
ATOM     14  C   UNL A   1      37.858  30.209  29.950  1.00  0.00     0.031 A 
ATOM     15  C   UNL A   1      38.101  30.669  31.359  1.00  0.00     0.074 A 
ATOM     16  C   UNL A   1      38.723  29.378  29.339  1.00  0.00     0.049 A 
ATOM     17  N   UNL A   1      39.112  30.409  32.147  1.00  0.00    -0.248 NA
ATOM     18  C   UNL A   1      37.082  31.543  31.958  1.00  0.00     0.031 C 
ATOM     19  C   UNL A   1      38.579  28.876  27.969  1.00  0.00     0.029 A 
ATOM     20  N   UNL A   1      39.881  28.797  29.784  1.00  0.00    -0.354 N 
ATOM     21  C   UNL A   1      38.868  31.103  33.327  1.00  0.00     0.074 A 
ATOM     22  C   UNL A   1      37.621  31.816  33.138  1.00  0.00     0.031 C 
ATOM     23  C   UNL A   1      39.587  28.034  27.701  1.00  0.00     0.029 A 
ATOM     24  C   UNL A   1      40.486  27.996  28.846  1.00  0.00     0.049 A 
ATOM     25  H   UNL A   1      40.244  28.941  30.688  1.00  0.00     0.167 HD
ATOM     26  C   UNL A   1      39.617  31.135  34.458  1.00  0.00     0.034 A 
ATOM     27  C   UNL A   1      41.654  27.329  28.889  1.00  0.00     0.034 A 
ATOM     28  C   UNL A   1      40.855  30.407  34.620  1.00  0.00     0.049 A 
ATOM     29  C   UNL A   1      42.477  27.403  30.142  1.00  0.00     0.074 A 
ATOM     30  C   UNL A   1      41.677  30.336  35.732  1.00  0.00     0.029 A 
ATOM     31  N   UNL A   1      41.457  29.631  33.636  1.00  0.00    -0.354 N 
ATOM     32  N   UNL A   1      42.227  28.056  31.253  1.00  0.00    -0.248 NA
ATOM     33  C   UNL A   1      43.735  26.650  30.148  1.00  0.00     0.031 C 
ATOM     34  C   UNL A   1      42.802  29.573  35.400  1.00  0.00     0.029 A 
ATOM     35  C   UNL A   1      42.653  29.106  34.103  1.00  0.00     0.049 A 
ATOM     36  H   UNL A   1      41.088  29.476  32.736  1.00  0.00     0.167 HD
ATOM     37  C   UNL A   1      43.298  27.787  32.097  1.00  0.00     0.074 A 
ATOM     38  C   UNL A   1      44.180  26.892  31.373  1.00  0.00     0.031 C 
ATOM     39  C   UNL A   1      43.533  28.240  33.355  1.00  0.00     0.034 A 
BRANCH  26  40
ATOM     40  C   UNL A   1      39.143  32.027  35.583  1.00  0.00     0.023 A 
ATOM     41  C   UNL A   1      39.582  33.357  35.715  1.00  0.00     0.031 A 
ATOM     42  C   UNL A   1      38.254  31.530  36.553  1.00  0.00     0.131 A 
ATOM     43  C   UNL A   1      39.185  34.118  36.826  1.00  0.00     0.055 A 
ATOM     44  C   UNL A   1      37.804  32.317  37.616  1.00  0.00     0.041 A 
ATOM     45  F   UNL A   1      37.817  30.262  36.492  1.00  0.00    -0.206 F 
ATOM     46  C   UNL A   1      38.282  33.616  37.765  1.00  0.00     0.022 A 
BRANCH  43  47
ATOM     47  S   UNL A   1      39.978  35.727  37.103  1.00  0.00     0.124 S 
ATOM     48  O   UNL A   1      41.379  35.344  37.263  1.00  0.00    -0.237 OA
ATOM     49  O   UNL A   1      39.651  36.454  35.883  1.00  0.00    -0.237 OA
ATOM     50  O   UNL A   1      39.335  36.222  38.318  1.00  0.00    -0.744 OA
ENDBRANCH  43  47
ENDBRANCH  26  40
BRANCH  27  51
ATOM     51  C   UNL A   1      42.121  26.581  27.690  1.00  0.00     0.023 A 
ATOM     52  C   UNL A   1      41.865  25.211  27.542  1.00  0.00     0.031 A 
ATOM     53  C   UNL A   1      42.830  27.238  26.667  1.00  0.00     0.131 A 
ATOM     54  C   UNL A   1      42.335  24.534  26.407  1.00  0.00     0.055 A 
ATOM     55  C   UNL A   1      43.253  26.570  25.518  1.00  0.00     0.041 A 
ATOM     56  F   UNL A   1      43.092  28.552  26.758  1.00  0.00    -0.206 F 
ATOM     57  C   UNL A   1      43.015  25.207  25.387  1.00  0.00     0.022 A 
BRANCH  54  58
ATOM     58  S   UNL A   1      42.096  22.740  26.305  1.00  0.00     0.124 S 
ATOM     59  O   UNL A   1      42.839  22.273  27.472  1.00  0.00    -0.237 OA
ATOM     60  O   UNL A   1      40.644  22.623  26.381  1.00  0.00    -0.237 OA
ATOM     61  O   UNL A   1      42.681  22.390  25.012  1.00  0.00    -0.744 OA
ENDBRANCH  54  58
ENDBRANCH  27  51
BRANCH  39  62
ATOM     62  C   UNL A   1      44.791  27.743  34.020  1.00  0.00     0.023 A 
ATOM     63  C   UNL A   1      44.801  26.557  34.775  1.00  0.00     0.031 A 
ATOM     64  C   UNL A   1      45.981  28.485  33.929  1.00  0.00     0.131 A 
ATOM     65  C   UNL A   1      45.965  26.177  35.458  1.00  0.00     0.055 A 
ATOM     66  C   UNL A   1      47.151  28.072  34.567  1.00  0.00     0.041 A 
ATOM     67  F   UNL A   1      46.022  29.627  33.225  1.00  0.00    -0.206 F 
ATOM     68  C   UNL A   1      47.144  26.920  35.348  1.00  0.00     0.022 A 
BRANCH  65  69
ATOM     69  S   UNL A   1      45.893  24.748  36.574  1.00  0.00     0.124 S 
ATOM     70  O   UNL A   1      44.685  25.026  37.344  1.00  0.00    -0.237 OA
ATOM     71  O   UNL A   1      45.811  23.629  35.642  1.00  0.00    -0.237 OA
ATOM     72  O   UNL A   1      47.143  24.836  37.326  1.00  0.00    -0.744 OA
ENDBRANCH  65  69
ENDBRANCH  39  62
ENDBRANCH  13  14
ENDBRANCH   6   8
ENDBRANCH   3   4
ENDBRANCH   2   3
ENDBRANCH   1   2
BRANCH   1  73
ATOM     73  C   UNL A   1      33.692  26.954  25.471  1.00  0.00     0.116 C 
BRANCH  73  74
ATOM     74  N   UNL A   1      34.231  25.669  25.094  1.00  0.00    -0.354 N 
ATOM     75  C   UNL A   1      33.631  24.597  24.517  1.00  0.00     0.242 C 
ATOM     76  H   UNL A   1      35.190  25.552  25.286  1.00  0.00     0.163 HD
ATOM     77  O   UNL A   1      34.377  23.654  24.224  1.00  0.00    -0.273 OA
BRANCH  75  78
ATOM     78  C   UNL A   1      32.124  24.552  24.126  1.00  0.00     0.177 C 
ATOM     79  C   UNL A   1      31.863  23.314  23.250  1.00  0.00     0.069 C 
ATOM     80  N   UNL A   1      31.167  24.345  25.214  1.00  0.00    -0.328 N 
ATOM     81  C   UNL A   1      31.641  22.201  24.276  1.00  0.00     0.136 C 
ATOM     82  C   UNL A   1      31.004  22.915  25.472  1.00  0.00     0.152 C 
BRANCH  80  83
ATOM     83  C   UNL A   1      30.363  25.365  25.677  1.00  0.00     0.223 C 
ATOM     84  O   UNL A   1      29.691  25.253  26.703  1.00  0.00    -0.275 OA
BRANCH  83  85
ATOM     85  C   UNL A   1      30.275  26.643  24.860  1.00  0.00     0.105 C 
BRANCH  85  86
ATOM     86  C   UNL A   1      29.241  26.541  23.735  1.00  0.00     0.047 C 
BRANCH  86  87
ATOM     87  C   UNL A   1      28.989  27.886  23.087  1.00  0.00    -0.029 A 
ATOM     88  C   UNL A   1      30.078  28.539  22.477  1.00  0.00     0.007 A 
ATOM     89  C   UNL A   1      27.763  28.567  23.185  1.00  0.00     0.045 A 
ATOM     90  C   UNL A   1      29.962  29.861  22.043  1.00  0.00     0.021 A 
ATOM     91  C   UNL A   1      27.650  29.889  22.750  1.00  0.00     0.041 A 
ATOM     92  Cl  UNL A   1      26.355  27.845  23.875  1.00  0.00    -0.084 Cl
ATOM     93  C   UNL A   1      28.753  30.534  22.199  1.00  0.00     0.042 A 
ATOM     94  Cl  UNL A   1      28.630  32.185  21.734  1.00  0.00    -0.084 Cl
ENDBRANCH  86  87
ENDBRANCH  85  86
ENDBRANCH  83  85
ENDBRANCH  80  83
BRANCH  81  95
ATOM     95  O   UNL A   1      32.848  21.551  24.659  1.00  0.00    -0.391 OA
ATOM     96  H   UNL A   1      33.231  21.102  23.889  1.00  0.00     0.211 HD
ENDBRANCH  81  95
ENDBRANCH  75  78
ENDBRANCH  73  74
ENDBRANCH   1  73
TORSDOF 19
ENDMDL
MODEL 2
REMARK VINA RESULT:     -11.7      5.625      8.397
REMARK SMILES O=C(NCCCCNC(=O)[C@H]1C[C@@H](O)CN1C(=O)CCc1ccc(Cl)cc1Cl)c1ccc(-c2c3nc(c(-c4cc(S(=O)(=O)[O-])ccc4F)c4ccc([nH]4)c(-c4cc(S(=O)(=O)[O-])ccc4F)c4nc(c(-c5cc(S(=O)(=O)[O-])ccc5F)c5ccc2[nH]5)C=C4)C=C3)cc1
REMARK SMILES IDX 6 1 5 2 4 3 3 4 1 5 2 6 29 8 30 9 91 10 31 11 90 12 32 13
REMARK SMILES IDX 33 14 34 15 84 16 35 17 89 18 83 19 85 20 36 21 88 22 82 23
REMARK SMILES IDX 81 24 37 26 69 27 49 28 68 29 50 30 53 31 67 32 86 33 51 34
REMARK SMILES IDX 52 35 66 37 87 38 54 39 38 40 39 41 47 42 40 43 46 44 48 45
REMARK SMILES IDX 45 46 41 47 42 48 43 49 44 50 70 51 71 52 79 53 72 54 78 55
REMARK SMILES IDX 80 56 77 57 73 58 74 59 75 60 76 61 55 62 56 63 64 64 57 65
REMARK SMILES IDX 63 66 65 67 62 68 58 69 59 70 60 71 61 72 7 73 8 74 9 75
REMARK SMILES IDX 10 77 11 78 12 79 16 80 13 81 15 82 17 83 18 84 19 85 20 86
REMARK SMILES IDX 21 87 22 88 27 89 23 90 26 91 28 92 24 93 25 94 14 95
REMARK H PARENT 3 7 85 25 53 36 8 76 14 96
REMARK Flexibility Score: inf
ROOT
ATOM      1  C   UNL A   1      37.522  21.694  24.589  1.00  0.00     0.023 C 
ENDROOT
BRANCH   1   2
ATOM      2  C   UNL A   1      38.083  20.426  25.227  1.00  0.00     0.023 C 
BRANCH   2   3
ATOM      3  C   UNL A   1      39.344  20.641  26.044  1.00  0.00     0.116 C 
BRANCH   3   4
ATOM      4  N   UNL A   1      40.240  19.493  26.051  1.00  0.00    -0.352 N 
ATOM      5  O   UNL A   1      42.268  18.488  26.077  1.00  0.00    -0.269 OA
ATOM      6  C   UNL A   1      41.613  19.511  26.179  1.00  0.00     0.251 C 
ATOM      7  H   UNL A   1      39.820  18.608  25.955  1.00  0.00     0.163 HD
BRANCH   6   8
ATOM      8  C   UNL A   1      42.262  20.819  26.399  1.00  0.00     0.039 A 
ATOM      9  C   UNL A   1      42.540  21.243  27.699  1.00  0.00     0.014 A 
ATOM     10  C   UNL A   1      42.493  21.656  25.306  1.00  0.00     0.014 A 
ATOM     11  C   UNL A   1      42.908  22.562  27.921  1.00  0.00     0.010 A 
ATOM     12  C   UNL A   1      42.952  22.955  25.527  1.00  0.00     0.010 A 
ATOM     13  C   UNL A   1      43.129  23.428  26.837  1.00  0.00    -0.014 A 
BRANCH  13  14
ATOM     14  C   UNL A   1      43.605  24.806  27.105  1.00  0.00     0.031 A 
ATOM     15  C   UNL A   1      42.697  25.838  27.710  1.00  0.00     0.074 A 
ATOM     16  C   UNL A   1      44.884  25.103  26.811  1.00  0.00     0.049 A 
ATOM     17  N   UNL A   1      42.946  27.092  27.989  1.00  0.00    -0.248 NA
ATOM     18  C   UNL A   1      41.328  25.412  28.034  1.00  0.00     0.031 C 
ATOM     19  C   UNL A   1      45.848  24.171  26.218  1.00  0.00     0.029 A 
ATOM     20  N   UNL A   1      45.602  26.257  26.980  1.00  0.00    -0.354 N 
ATOM     21  C   UNL A   1      41.763  27.614  28.499  1.00  0.00     0.074 A 
ATOM     22  C   UNL A   1      40.788  26.542  28.467  1.00  0.00     0.031 C 
ATOM     23  C   UNL A   1      47.037  24.778  26.108  1.00  0.00     0.029 A 
ATOM     24  C   UNL A   1      46.904  26.159  26.550  1.00  0.00     0.049 A 
ATOM     25  H   UNL A   1      45.222  27.077  27.371  1.00  0.00     0.167 HD
ATOM     26  C   UNL A   1      41.520  28.870  28.953  1.00  0.00     0.034 A 
ATOM     27  C   UNL A   1      47.876  27.087  26.487  1.00  0.00     0.034 A 
ATOM     28  C   UNL A   1      42.515  29.918  28.979  1.00  0.00     0.049 A 
ATOM     29  C   UNL A   1      47.574  28.477  26.970  1.00  0.00     0.074 A 
ATOM     30  C   UNL A   1      42.393  31.214  29.450  1.00  0.00     0.029 A 
ATOM     31  N   UNL A   1      43.816  29.793  28.504  1.00  0.00    -0.354 N 
ATOM     32  N   UNL A   1      46.453  28.952  27.459  1.00  0.00    -0.248 NA
ATOM     33  C   UNL A   1      48.667  29.451  26.894  1.00  0.00     0.031 C 
ATOM     34  C   UNL A   1      43.594  31.888  29.201  1.00  0.00     0.029 A 
ATOM     35  C   UNL A   1      44.494  30.996  28.640  1.00  0.00     0.049 A 
ATOM     36  H   UNL A   1      44.201  28.970  28.124  1.00  0.00     0.167 HD
ATOM     37  C   UNL A   1      46.707  30.285  27.757  1.00  0.00     0.074 A 
ATOM     38  C   UNL A   1      48.096  30.527  27.416  1.00  0.00     0.031 C 
ATOM     39  C   UNL A   1      45.869  31.225  28.264  1.00  0.00     0.034 A 
BRANCH  26  40
ATOM     40  C   UNL A   1      40.113  29.189  29.404  1.00  0.00     0.023 A 
ATOM     41  C   UNL A   1      39.773  29.295  30.764  1.00  0.00     0.031 A 
ATOM     42  C   UNL A   1      39.090  29.367  28.455  1.00  0.00     0.131 A 
ATOM     43  C   UNL A   1      38.434  29.504  31.137  1.00  0.00     0.055 A 
ATOM     44  C   UNL A   1      37.774  29.649  28.831  1.00  0.00     0.041 A 
ATOM     45  F   UNL A   1      39.349  29.257  27.142  1.00  0.00    -0.206 F 
ATOM     46  C   UNL A   1      37.438  29.704  30.180  1.00  0.00     0.022 A 
BRANCH  43  47
ATOM     47  S   UNL A   1      37.992  29.368  32.891  1.00  0.00     0.124 S 
ATOM     48  O   UNL A   1      37.406  28.030  32.948  1.00  0.00    -0.237 OA
ATOM     49  O   UNL A   1      39.280  29.528  33.554  1.00  0.00    -0.237 OA
ATOM     50  O   UNL A   1      37.044  30.462  33.092  1.00  0.00    -0.744 OA
ENDBRANCH  43  47
ENDBRANCH  26  40
BRANCH  27  51
ATOM     51  C   UNL A   1      49.198  26.733  25.902  1.00  0.00     0.023 A 
ATOM     52  C   UNL A   1      49.601  27.236  24.658  1.00  0.00     0.031 A 
ATOM     53  C   UNL A   1      50.082  25.883  26.593  1.00  0.00     0.131 A 
ATOM     54  C   UNL A   1      50.847  26.867  24.128  1.00  0.00     0.055 A 
ATOM     55  C   UNL A   1      51.339  25.558  26.084  1.00  0.00     0.041 A 
ATOM     56  F   UNL A   1      49.745  25.383  27.792  1.00  0.00    -0.206 F 
ATOM     57  C   UNL A   1      51.724  26.043  24.839  1.00  0.00     0.022 A 
BRANCH  54  58
ATOM     58  S   UNL A   1      51.285  27.434  22.463  1.00  0.00     0.124 S 
ATOM     59  O   UNL A   1      51.032  28.868  22.560  1.00  0.00    -0.237 OA
ATOM     60  O   UNL A   1      52.685  27.035  22.366  1.00  0.00    -0.237 OA
ATOM     61  O   UNL A   1      50.367  26.695  21.599  1.00  0.00    -0.744 OA
ENDBRANCH  54  58
ENDBRANCH  27  51
BRANCH  39  62
ATOM     62  C   UNL A   1      46.460  32.593  28.495  1.00  0.00     0.023 A 
ATOM     63  C   UNL A   1      46.620  33.509  27.441  1.00  0.00     0.031 A 
ATOM     64  C   UNL A   1      46.901  32.967  29.775  1.00  0.00     0.131 A 
ATOM     65  C   UNL A   1      47.260  34.734  27.675  1.00  0.00     0.055 A 
ATOM     66  C   UNL A   1      47.488  34.210  30.013  1.00  0.00     0.041 A 
ATOM     67  F   UNL A   1      46.776  32.126  30.815  1.00  0.00    -0.206 F 
ATOM     68  C   UNL A   1      47.683  35.096  28.957  1.00  0.00     0.022 A 
BRANCH  65  69
ATOM     69  S   UNL A   1      47.622  35.812  26.261  1.00  0.00     0.124 S 
ATOM     70  O   UNL A   1      47.639  34.863  25.153  1.00  0.00    -0.237 OA
ATOM     71  O   UNL A   1      46.500  36.744  26.285  1.00  0.00    -0.237 OA
ATOM     72  O   UNL A   1      48.918  36.397  26.598  1.00  0.00    -0.744 OA
ENDBRANCH  65  69
ENDBRANCH  39  62
ENDBRANCH  13  14
ENDBRANCH   6   8
ENDBRANCH   3   4
ENDBRANCH   2   3
ENDBRANCH   1   2
BRANCH   1  73
ATOM     73  C   UNL A   1      36.889  22.693  25.557  1.00  0.00     0.116 C 
BRANCH  73  74
ATOM     74  N   UNL A   1      36.021  22.051  26.516  1.00  0.00    -0.354 N 
ATOM     75  C   UNL A   1      34.668  22.071  26.631  1.00  0.00     0.242 C 
ATOM     76  H   UNL A   1      36.485  21.510  27.196  1.00  0.00     0.163 HD
ATOM     77  O   UNL A   1      34.191  21.341  27.509  1.00  0.00    -0.273 OA
BRANCH  75  78
ATOM     78  C   UNL A   1      33.726  22.859  25.673  1.00  0.00     0.177 C 
ATOM     79  C   UNL A   1      33.738  22.192  24.286  1.00  0.00     0.069 C 
ATOM     80  N   UNL A   1      32.298  22.841  25.992  1.00  0.00    -0.328 N 
ATOM     81  C   UNL A   1      32.692  21.085  24.423  1.00  0.00     0.136 C 
ATOM     82  C   UNL A   1      31.671  21.654  25.413  1.00  0.00     0.152 C 
BRANCH  80  83
ATOM     83  C   UNL A   1      31.655  23.947  26.506  1.00  0.00     0.223 C 
ATOM     84  O   UNL A   1      30.663  23.848  27.229  1.00  0.00    -0.275 OA
BRANCH  83  85
ATOM     85  C   UNL A   1      32.167  25.324  26.121  1.00  0.00     0.105 C 
BRANCH  85  86
ATOM     86  C   UNL A   1      31.099  26.408  26.293  1.00  0.00     0.047 C 
BRANCH  86  87
ATOM     87  C   UNL A   1      30.953  27.248  25.042  1.00  0.00    -0.029 A 
ATOM     88  C   UNL A   1      31.269  28.618  25.125  1.00  0.00     0.007 A 
ATOM     89  C   UNL A   1      30.392  26.758  23.849  1.00  0.00     0.045 A 
ATOM     90  C   UNL A   1      30.965  29.484  24.073  1.00  0.00     0.021 A 
ATOM     91  C   UNL A   1      30.090  27.626  22.799  1.00  0.00     0.041 A 
ATOM     92  Cl  UNL A   1      30.007  25.090  23.625  1.00  0.00    -0.084 Cl
ATOM     93  C   UNL A   1      30.361  28.985  22.923  1.00  0.00     0.042 A 
ATOM     94  Cl  UNL A   1      29.919  30.061  21.657  1.00  0.00    -0.084 Cl
ENDBRANCH  86  87
ENDBRANCH  85  86
ENDBRANCH  83  85
ENDBRANCH  80  83
BRANCH  81  95
ATOM     95  O   UNL A   1      33.237  19.862  24.904  1.00  0.00    -0.391 OA
ATOM     96  H   UNL A   1      32.597  19.433  25.493  1.00  0.00     0.211 HD
ENDBRANCH  81  95
ENDBRANCH  75  78
ENDBRANCH  73  74
ENDBRANCH   1  73
TORSDOF 19
ENDMDL
MODEL 3
REMARK VINA RESULT:     -11.4      5.744      8.566
REMARK SMILES O=C(NCCCCNC(=O)[C@H]1C[C@@H](O)CN1C(=O)CCc1ccc(Cl)cc1Cl)c1ccc(-c2c3nc(c(-c4cc(S(=O)(=O)[O-])ccc4F)c4ccc([nH]4)c(-c4cc(S(=O)(=O)[O-])ccc4F)c4nc(c(-c5cc(S(=O)(=O)[O-])ccc5F)c5ccc2[nH]5)C=C4)C=C3)cc1
REMARK SMILES IDX 6 1 5 2 4 3 3 4 1 5 2 6 29 8 30 9 91 10 31 11 90 12 32 13
REMARK SMILES IDX 33 14 34 15 84 16 35 17 89 18 83 19 85 20 36 21 88 22 82 23
REMARK SMILES IDX 81 24 37 26 69 27 49 28 68 29 50 30 53 31 67 32 86 33 51 34
REMARK SMILES IDX 52 35 66 37 87 38 54 39 38 40 39 41 47 42 40 43 46 44 48 45
REMARK SMILES IDX 45 46 41 47 42 48 43 49 44 50 70 51 71 52 79 53 72 54 78 55
REMARK SMILES IDX 80 56 77 57 73 58 74 59 75 60 76 61 55 62 56 63 64 64 57 65
REMARK SMILES IDX 63 66 65 67 62 68 58 69 59 70 60 71 61 72 7 73 8 74 9 75
REMARK SMILES IDX 10 77 11 78 12 79 16 80 13 81 15 82 17 83 18 84 19 85 20 86
REMARK SMILES IDX 21 87 22 88 27 89 23 90 26 91 28 92 24 93 25 94 14 95
REMARK H PARENT 3 7 85 25 53 36 8 76 14 96
REMARK Flexibility Score: inf
ROOT
ATOM      1  C   UNL A   1      37.392  20.682  24.638  1.00  0.00     0.023 C 
ENDROOT
BRANCH   1   2
ATOM      2  C   UNL A   1      38.319  19.631  25.243  1.00  0.00     0.023 C 
BRANCH   2   3
ATOM      3  C   UNL A   1      39.516  20.203  25.981  1.00  0.00     0.116 C 
BRANCH   3   4
ATOM      4  N   UNL A   1      40.683  19.332  25.966  1.00  0.00    -0.352 N 
ATOM      5  O   UNL A   1      42.904  18.896  26.019  1.00  0.00    -0.269 OA
ATOM      6  C   UNL A   1      41.999  19.703  26.146  1.00  0.00     0.251 C 
ATOM      7  H   UNL A   1      40.515  18.375  25.811  1.00  0.00     0.163 HD
BRANCH   6   8
ATOM      8  C   UNL A   1      42.273  21.121  26.453  1.00  0.00     0.039 A 
ATOM      9  C   UNL A   1      42.339  22.053  25.416  1.00  0.00     0.014 A 
ATOM     10  C   UNL A   1      42.564  21.489  27.768  1.00  0.00     0.014 A 
ATOM     11  C   UNL A   1      42.844  23.319  25.669  1.00  0.00     0.010 A 
ATOM     12  C   UNL A   1      42.985  22.793  28.034  1.00  0.00     0.010 A 
ATOM     13  C   UNL A   1      43.161  23.706  26.982  1.00  0.00    -0.014 A 
BRANCH  13  14
ATOM     14  C   UNL A   1      43.617  25.095  27.231  1.00  0.00     0.031 A 
ATOM     15  C   UNL A   1      42.700  26.116  27.842  1.00  0.00     0.074 A 
ATOM     16  C   UNL A   1      44.886  25.412  26.915  1.00  0.00     0.049 A 
ATOM     17  N   UNL A   1      42.931  27.376  28.107  1.00  0.00    -0.248 NA
ATOM     18  C   UNL A   1      41.344  25.668  28.192  1.00  0.00     0.031 C 
ATOM     19  C   UNL A   1      45.856  24.492  26.313  1.00  0.00     0.029 A 
ATOM     20  N   UNL A   1      45.586  26.580  27.062  1.00  0.00    -0.354 N 
ATOM     21  C   UNL A   1      41.747  27.881  28.632  1.00  0.00     0.074 A 
ATOM     22  C   UNL A   1      40.791  26.792  28.624  1.00  0.00     0.031 C 
ATOM     23  C   UNL A   1      47.032  25.119  26.180  1.00  0.00     0.029 A 
ATOM     24  C   UNL A   1      46.882  26.501  26.613  1.00  0.00     0.049 A 
ATOM     25  H   UNL A   1      45.197  27.396  27.453  1.00  0.00     0.167 HD
ATOM     26  C   UNL A   1      41.490  29.136  29.079  1.00  0.00     0.034 A 
ATOM     27  C   UNL A   1      47.837  27.446  26.527  1.00  0.00     0.034 A 
ATOM     28  C   UNL A   1      42.466  30.202  29.082  1.00  0.00     0.049 A 
ATOM     29  C   UNL A   1      47.518  28.833  27.004  1.00  0.00     0.074 A 
ATOM     30  C   UNL A   1      42.328  31.500  29.544  1.00  0.00     0.029 A 
ATOM     31  N   UNL A   1      43.761  30.096  28.587  1.00  0.00    -0.354 N 
ATOM     32  N   UNL A   1      46.395  29.293  27.506  1.00  0.00    -0.248 NA
ATOM     33  C   UNL A   1      48.591  29.826  26.902  1.00  0.00     0.031 C 
ATOM     34  C   UNL A   1      43.513  32.193  29.271  1.00  0.00     0.029 A 
ATOM     35  C   UNL A   1      44.420  31.311  28.702  1.00  0.00     0.049 A 
ATOM     36  H   UNL A   1      44.155  29.277  28.208  1.00  0.00     0.167 HD
ATOM     37  C   UNL A   1      46.631  30.633  27.790  1.00  0.00     0.074 A 
ATOM     38  C   UNL A   1      48.009  30.896  27.424  1.00  0.00     0.031 C 
ATOM     39  C   UNL A   1      45.785  31.562  28.303  1.00  0.00     0.034 A 
BRANCH  26  40
ATOM     40  C   UNL A   1      40.084  29.434  29.550  1.00  0.00     0.023 A 
ATOM     41  C   UNL A   1      39.752  29.490  30.915  1.00  0.00     0.031 A 
ATOM     42  C   UNL A   1      39.054  29.644  28.615  1.00  0.00     0.131 A 
ATOM     43  C   UNL A   1      38.415  29.680  31.304  1.00  0.00     0.055 A 
ATOM     44  C   UNL A   1      37.741  29.907  29.009  1.00  0.00     0.041 A 
ATOM     45  F   UNL A   1      39.306  29.582  27.298  1.00  0.00    -0.206 F 
ATOM     46  C   UNL A   1      37.412  29.912  30.361  1.00  0.00     0.022 A 
BRANCH  43  47
ATOM     47  S   UNL A   1      37.984  29.479  33.055  1.00  0.00     0.124 S 
ATOM     48  O   UNL A   1      39.290  29.601  33.699  1.00  0.00    -0.237 OA
ATOM     49  O   UNL A   1      37.056  30.581  33.279  1.00  0.00    -0.237 OA
ATOM     50  O   UNL A   1      37.394  28.143  33.112  1.00  0.00    -0.744 OA
ENDBRANCH  43  47
ENDBRANCH  26  40
BRANCH  27  51
ATOM     51  C   UNL A   1      49.155  27.110  25.924  1.00  0.00     0.023 A 
ATOM     52  C   UNL A   1      50.265  26.810  26.724  1.00  0.00     0.031 A 
ATOM     53  C   UNL A   1      49.316  27.080  24.526  1.00  0.00     0.131 A 
ATOM     54  C   UNL A   1      51.498  26.515  26.122  1.00  0.00     0.055 A 
ATOM     55  C   UNL A   1      50.531  26.739  23.932  1.00  0.00     0.041 A 
ATOM     56  F   UNL A   1      48.280  27.351  23.717  1.00  0.00    -0.206 F 
ATOM     57  C   UNL A   1      51.634  26.463  24.732  1.00  0.00     0.022 A 
BRANCH  54  58
ATOM     58  S   UNL A   1      52.943  26.254  27.185  1.00  0.00     0.124 S 
ATOM     59  O   UNL A   1      53.791  27.383  26.817  1.00  0.00    -0.237 OA
ATOM     60  O   UNL A   1      52.352  26.304  28.518  1.00  0.00    -0.237 OA
ATOM     61  O   UNL A   1      53.437  24.941  26.773  1.00  0.00    -0.744 OA
ENDBRANCH  54  58
ENDBRANCH  27  51
BRANCH  39  62
ATOM     62  C   UNL A   1      46.355  32.942  28.514  1.00  0.00     0.023 A 
ATOM     63  C   UNL A   1      46.538  33.831  27.440  1.00  0.00     0.031 A 
ATOM     64  C   UNL A   1      46.753  33.355  29.795  1.00  0.00     0.131 A 
ATOM     65  C   UNL A   1      47.158  35.068  27.659  1.00  0.00     0.055 A 
ATOM     66  C   UNL A   1      47.320  34.611  30.016  1.00  0.00     0.041 A 
ATOM     67  F   UNL A   1      46.604  32.542  30.854  1.00  0.00    -0.206 F 
ATOM     68  C   UNL A   1      47.538  35.470  28.943  1.00  0.00     0.022 A 
BRANCH  65  69
ATOM     69  S   UNL A   1      47.551  36.111  26.227  1.00  0.00     0.124 S 
ATOM     70  O   UNL A   1      48.684  36.888  26.719  1.00  0.00    -0.237 OA
ATOM     71  O   UNL A   1      47.855  35.124  25.197  1.00  0.00    -0.237 OA
ATOM     72  O   UNL A   1      46.323  36.872  26.010  1.00  0.00    -0.744 OA
ENDBRANCH  65  69
ENDBRANCH  39  62
ENDBRANCH  13  14
ENDBRANCH   6   8
ENDBRANCH   3   4
ENDBRANCH   2   3
ENDBRANCH   1   2
BRANCH   1  73
ATOM     73  C   UNL A   1      37.192  21.944  25.477  1.00  0.00     0.116 C 
BRANCH  73  74
ATOM     74  N   UNL A   1      36.183  21.770  26.495  1.00  0.00    -0.354 N 
ATOM     75  C   UNL A   1      34.830  21.842  26.415  1.00  0.00     0.242 C 
ATOM     76  H   UNL A   1      36.534  21.566  27.393  1.00  0.00     0.163 HD
ATOM     77  O   UNL A   1      34.213  21.553  27.448  1.00  0.00    -0.273 OA
BRANCH  75  78
ATOM     78  C   UNL A   1      34.053  22.155  25.102  1.00  0.00     0.177 C 
ATOM     79  C   UNL A   1      33.767  20.841  24.355  1.00  0.00     0.069 C 
ATOM     80  N   UNL A   1      32.704  22.704  25.250  1.00  0.00    -0.328 N 
ATOM     81  C   UNL A   1      32.479  20.339  25.011  1.00  0.00     0.136 C 
ATOM     82  C   UNL A   1      31.736  21.619  25.405  1.00  0.00     0.152 C 
BRANCH  80  83
ATOM     83  C   UNL A   1      32.426  24.027  24.980  1.00  0.00     0.223 C 
ATOM     84  O   UNL A   1      31.962  24.390  23.898  1.00  0.00    -0.275 OA
BRANCH  83  85
ATOM     85  C   UNL A   1      32.753  25.065  26.040  1.00  0.00     0.105 C 
BRANCH  85  86
ATOM     86  C   UNL A   1      33.821  26.056  25.571  1.00  0.00     0.047 C 
BRANCH  86  87
ATOM     87  C   UNL A   1      33.390  27.489  25.799  1.00  0.00    -0.029 A 
ATOM     88  C   UNL A   1      32.888  27.834  27.069  1.00  0.00     0.007 A 
ATOM     89  C   UNL A   1      33.339  28.449  24.772  1.00  0.00     0.045 A 
ATOM     90  C   UNL A   1      32.289  29.076  27.285  1.00  0.00     0.021 A 
ATOM     91  C   UNL A   1      32.739  29.690  24.991  1.00  0.00     0.041 A 
ATOM     92  Cl  UNL A   1      33.964  28.146  23.192  1.00  0.00    -0.084 Cl
ATOM     93  C   UNL A   1      32.202  29.990  26.238  1.00  0.00     0.042 A 
ATOM     94  Cl  UNL A   1      31.397  31.490  26.481  1.00  0.00    -0.084 Cl
ENDBRANCH  86  87
ENDBRANCH  85  86
ENDBRANCH  83  85
ENDBRANCH  80  83
BRANCH  81  95
ATOM     95  O   UNL A   1      32.719  19.522  26.150  1.00  0.00    -0.391 OA
ATOM     96  H   UNL A   1      32.516  20.023  26.956  1.00  0.00     0.211 HD
ENDBRANCH  81  95
ENDBRANCH  75  78
ENDBRANCH  73  74
ENDBRANCH   1  73
TORSDOF 19
ENDMDL
