MODEL 1
REMARK VINA RESULT:     -12.4      0.000      0.000
REMARK SMILES Cc1cccc(NC(=O)C[C@H]([NH2+]C(C)C)C(=O)NCCCCNC(=O)c2ccc(-c3c4nc(c(-c5cc(S(=O)(=O)[O-])ccc5F)c5ccc([nH]5)c(-c5cc(S(=O)(=O)[O-])ccc5F)c5nc(c(-c6cc(S(=O)(=O)[O-])ccc6F)c6ccc3[nH]6)C=C5)C=C4)cc2)c1
REMARK SMILES IDX 20 1 19 2 18 3 16 4 17 5 11 7 10 8 8 9 7 10 9 12 6 13 1 14
REMARK SMILES IDX 2 15 3 16 89 17 4 18 5 19 12 20 13 23 14 24 15 25 21 26
REMARK SMILES IDX 22 27 23 28 24 29 25 31 26 32 27 33 88 34 28 35 87 36 29 37
REMARK SMILES IDX 30 38 31 39 81 40 32 41 86 42 80 43 82 44 33 45 85 46 79 47
REMARK SMILES IDX 78 48 34 50 66 51 46 52 65 53 47 54 50 55 64 56 83 57 48 58
REMARK SMILES IDX 49 59 63 61 84 62 51 63 35 64 36 65 44 66 37 67 43 68 45 69
REMARK SMILES IDX 42 70 38 71 39 72 40 73 41 74 67 75 68 76 76 77 69 78 75 79
REMARK SMILES IDX 77 80 74 81 70 82 71 83 72 84 73 85 52 86 53 87 61 88 54 89
REMARK SMILES IDX 60 90 62 91 59 92 55 93 56 94 57 95 58 96
REMARK H PARENT 18 6 7 11 12 21 12 22 23 30 82 49 50 60
REMARK Flexibility Score: inf
ROOT
ATOM      1  C   UNL A   1      39.060  20.762  25.617  1.00  0.00     0.023 C 
ENDROOT
BRANCH   1   2
ATOM      2  C   UNL A   1      37.457  20.485  24.863  1.00  0.00     0.116 C 
BRANCH   2   3
ATOM      3  N   UNL A   1      35.550  20.802  25.631  1.00  0.00    -0.351 N 
ATOM      4  C   UNL A   1      34.158  20.716  25.676  1.00  0.00     0.278 C 
ATOM      5  O   UNL A   1      33.686  21.141  26.752  1.00  0.00    -0.268 OA
ATOM      6  H   UNL A   1      35.746  21.318  26.446  1.00  0.00     0.163 HD
BRANCH   4   7
ATOM      7  C   UNL A   1      33.143  20.235  24.623  1.00  0.00     0.282 C 
BRANCH   7   8
ATOM      8  C   UNL A   1      32.170  21.316  24.074  1.00  0.00     0.175 C 
BRANCH   8   9
ATOM      9  C   UNL A   1      32.150  21.595  22.555  1.00  0.00     0.230 C 
ATOM     10  N   UNL A   1      32.492  22.804  21.998  1.00  0.00    -0.326 N 
ATOM     11  H   UNL A   1      32.317  22.922  21.036  1.00  0.00     0.169 HD
ATOM     12  O   UNL A   1      31.809  20.683  21.789  1.00  0.00    -0.274 OA
BRANCH  10  13
ATOM     13  C   UNL A   1      33.073  23.887  22.685  1.00  0.00     0.041 A 
ATOM     14  C   UNL A   1      36.481  24.082  25.636  1.00  0.00     0.044 C 
ATOM     15  C   UNL A   1      35.172  24.368  24.985  1.00  0.00    -0.049 A 
ATOM     16  C   UNL A   1      33.954  25.403  25.840  1.00  0.00     0.003 A 
ATOM     17  C   UNL A   1      34.701  23.569  23.414  1.00  0.00     0.029 A 
ATOM     18  C   UNL A   1      32.355  25.778  25.049  1.00  0.00     0.002 A 
ATOM     19  C   UNL A   1      31.937  25.064  23.456  1.00  0.00     0.026 A 
ENDBRANCH  10  13
ENDBRANCH   8   9
ENDBRANCH   7   8
BRANCH   7  20
ATOM     20  N   UNL A   1      32.545  18.881  24.935  1.00  0.00    -0.334 N 
ATOM     21  H   UNL A   1      31.556  18.915  24.687  1.00  0.00     0.347 HD
ATOM     22  H   UNL A   1      32.729  18.727  25.926  1.00  0.00     0.347 HD
BRANCH  20  23
ATOM     23  C   UNL A   1      33.141  17.717  24.242  1.00  0.00     0.176 C 
ATOM     24  C   UNL A   1      32.707  17.706  22.764  1.00  0.00     0.075 C 
ATOM     25  C   UNL A   1      34.637  17.478  24.372  1.00  0.00     0.075 C 
ENDBRANCH  20  23
ENDBRANCH   7  20
ENDBRANCH   4   7
ENDBRANCH   2   3
ENDBRANCH   1   2
BRANCH   1  26
ATOM     26  C   UNL A   1      39.307  22.007  26.479  1.00  0.00     0.023 C 
BRANCH  26  27
ATOM     27  C   UNL A   1      40.749  22.415  26.410  1.00  0.00     0.116 C 
BRANCH  27  28
ATOM     28  N   UNL A   1      41.663  21.519  25.758  1.00  0.00    -0.352 N 
ATOM     29  C   UNL A   1      43.032  21.690  25.650  1.00  0.00     0.251 C 
ATOM     30  H   UNL A   1      41.280  20.709  25.350  1.00  0.00     0.163 HD
ATOM     31  O   UNL A   1      43.697  20.930  24.949  1.00  0.00    -0.269 OA
BRANCH  29  32
ATOM     32  C   UNL A   1      43.727  22.657  26.559  1.00  0.00     0.039 A 
ATOM     33  C   UNL A   1      43.575  22.404  27.927  1.00  0.00     0.014 A 
ATOM     34  C   UNL A   1      44.126  23.924  26.140  1.00  0.00     0.014 A 
ATOM     35  C   UNL A   1      43.475  23.474  28.802  1.00  0.00     0.010 A 
ATOM     36  C   UNL A   1      43.853  24.994  26.948  1.00  0.00     0.010 A 
ATOM     37  C   UNL A   1      43.478  24.756  28.260  1.00  0.00    -0.014 A 
BRANCH  37  38
ATOM     38  C   UNL A   1      43.320  25.959  29.039  1.00  0.00     0.031 A 
ATOM     39  C   UNL A   1      42.049  26.642  28.787  1.00  0.00     0.074 A 
ATOM     40  C   UNL A   1      44.281  26.287  29.927  1.00  0.00     0.049 A 
ATOM     41  N   UNL A   1      41.911  27.904  28.644  1.00  0.00    -0.248 NA
ATOM     42  C   UNL A   1      40.814  25.902  28.500  1.00  0.00     0.031 C 
ATOM     43  C   UNL A   1      44.324  27.368  30.903  1.00  0.00     0.029 A 
ATOM     44  N   UNL A   1      45.580  25.772  29.934  1.00  0.00    -0.354 N 
ATOM     45  C   UNL A   1      40.553  28.147  28.671  1.00  0.00     0.074 A 
ATOM     46  C   UNL A   1      39.932  26.893  28.352  1.00  0.00     0.031 C 
ATOM     47  C   UNL A   1      45.618  27.651  31.167  1.00  0.00     0.029 A 
ATOM     48  C   UNL A   1      46.437  26.831  30.283  1.00  0.00     0.049 A 
ATOM     49  H   UNL A   1      45.845  24.846  29.732  1.00  0.00     0.167 HD
ATOM     50  C   UNL A   1      40.125  29.321  29.209  1.00  0.00     0.034 A 
ATOM     51  C   UNL A   1      47.301  27.307  29.337  1.00  0.00     0.034 A 
ATOM     52  C   UNL A   1      41.291  30.084  29.654  1.00  0.00     0.049 A 
ATOM     53  C   UNL A   1      46.892  28.685  28.860  1.00  0.00     0.074 A 
ATOM     54  C   UNL A   1      41.916  30.185  30.886  1.00  0.00     0.029 A 
ATOM     55  N   UNL A   1      42.212  30.505  28.709  1.00  0.00    -0.354 N 
ATOM     56  N   UNL A   1      45.683  29.177  28.961  1.00  0.00    -0.248 NA
ATOM     57  C   UNL A   1      47.841  29.632  28.292  1.00  0.00     0.031 C 
ATOM     58  C   UNL A   1      43.256  30.606  30.654  1.00  0.00     0.029 A 
ATOM     59  C   UNL A   1      43.430  30.785  29.291  1.00  0.00     0.049 A 
ATOM     60  H   UNL A   1      42.020  30.594  27.747  1.00  0.00     0.167 HD
ATOM     61  C   UNL A   1      45.673  30.471  28.501  1.00  0.00     0.074 A 
ATOM     62  C   UNL A   1      47.060  30.712  28.128  1.00  0.00     0.031 C 
ATOM     63  C   UNL A   1      44.535  31.236  28.459  1.00  0.00     0.034 A 
BRANCH  50  64
ATOM     64  C   UNL A   1      38.721  29.659  29.640  1.00  0.00     0.023 A 
ATOM     65  C   UNL A   1      38.175  30.871  29.169  1.00  0.00     0.031 A 
ATOM     66  C   UNL A   1      37.875  28.905  30.476  1.00  0.00     0.131 A 
ATOM     67  C   UNL A   1      36.900  31.312  29.554  1.00  0.00     0.055 A 
ATOM     68  C   UNL A   1      36.607  29.353  30.879  1.00  0.00     0.041 A 
ATOM     69  F   UNL A   1      38.204  27.686  30.915  1.00  0.00    -0.206 F 
ATOM     70  C   UNL A   1      36.112  30.564  30.420  1.00  0.00     0.022 A 
BRANCH  67  71
ATOM     71  S   UNL A   1      36.299  32.884  28.889  1.00  0.00     0.124 S 
ATOM     72  O   UNL A   1      35.702  33.505  30.067  1.00  0.00    -0.237 OA
ATOM     73  O   UNL A   1      37.524  33.496  28.386  1.00  0.00    -0.237 OA
ATOM     74  O   UNL A   1      35.348  32.472  27.858  1.00  0.00    -0.744 OA
ENDBRANCH  67  71
ENDBRANCH  50  64
BRANCH  51  75
ATOM     75  C   UNL A   1      47.849  26.206  28.477  1.00  0.00     0.023 A 
ATOM     76  C   UNL A   1      47.427  26.174  27.127  1.00  0.00     0.031 A 
ATOM     77  C   UNL A   1      49.055  25.569  28.797  1.00  0.00     0.131 A 
ATOM     78  C   UNL A   1      48.298  25.713  26.125  1.00  0.00     0.055 A 
ATOM     79  C   UNL A   1      49.895  25.064  27.795  1.00  0.00     0.041 A 
ATOM     80  F   UNL A   1      49.508  25.552  30.059  1.00  0.00    -0.206 F 
ATOM     81  C   UNL A   1      49.549  25.194  26.451  1.00  0.00     0.022 A 
BRANCH  78  82
ATOM     82  S   UNL A   1      47.872  26.032  24.390  1.00  0.00     0.124 S 
ATOM     83  O   UNL A   1      49.106  26.597  23.858  1.00  0.00    -0.237 OA
ATOM     84  O   UNL A   1      47.527  24.695  23.908  1.00  0.00    -0.237 OA
ATOM     85  O   UNL A   1      46.748  26.964  24.478  1.00  0.00    -0.744 OA
ENDBRANCH  78  82
ENDBRANCH  51  75
BRANCH  63  86
ATOM     86  C   UNL A   1      44.365  32.522  27.667  1.00  0.00     0.023 A 
ATOM     87  C   UNL A   1      43.988  33.724  28.266  1.00  0.00     0.031 A 
ATOM     88  C   UNL A   1      44.642  32.613  26.278  1.00  0.00     0.131 A 
ATOM     89  C   UNL A   1      43.758  34.884  27.514  1.00  0.00     0.055 A 
ATOM     90  C   UNL A   1      44.536  33.801  25.548  1.00  0.00     0.041 A 
ATOM     91  F   UNL A   1      45.041  31.561  25.550  1.00  0.00    -0.206 F 
ATOM     92  C   UNL A   1      44.057  34.945  26.159  1.00  0.00     0.022 A 
BRANCH  89  93
ATOM     93  S   UNL A   1      42.953  36.263  28.359  1.00  0.00     0.124 S 
ATOM     94  O   UNL A   1      44.013  37.269  28.360  1.00  0.00    -0.237 OA
ATOM     95  O   UNL A   1      41.819  36.544  27.485  1.00  0.00    -0.237 OA
ATOM     96  O   UNL A   1      42.615  35.713  29.668  1.00  0.00    -0.744 OA
ENDBRANCH  89  93
ENDBRANCH  63  86
ENDBRANCH  37  38
ENDBRANCH  29  32
ENDBRANCH  27  28
ENDBRANCH  26  27
ENDBRANCH   1  26
TORSDOF 19
ENDMDL
MODEL 2
REMARK VINA RESULT:     -12.4      1.362      2.082
REMARK SMILES Cc1cccc(NC(=O)C[C@H]([NH2+]C(C)C)C(=O)NCCCCNC(=O)c2ccc(-c3c4nc(c(-c5cc(S(=O)(=O)[O-])ccc5F)c5ccc([nH]5)c(-c5cc(S(=O)(=O)[O-])ccc5F)c5nc(c(-c6cc(S(=O)(=O)[O-])ccc6F)c6ccc3[nH]6)C=C5)C=C4)cc2)c1
REMARK SMILES IDX 20 1 19 2 18 3 16 4 17 5 11 7 10 8 8 9 7 10 9 12 6 13 1 14
REMARK SMILES IDX 2 15 3 16 89 17 4 18 5 19 12 20 13 23 14 24 15 25 21 26
REMARK SMILES IDX 22 27 23 28 24 29 25 31 26 32 27 33 88 34 28 35 87 36 29 37
REMARK SMILES IDX 30 38 31 39 81 40 32 41 86 42 80 43 82 44 33 45 85 46 79 47
REMARK SMILES IDX 78 48 34 50 66 51 46 52 65 53 47 54 50 55 64 56 83 57 48 58
REMARK SMILES IDX 49 59 63 61 84 62 51 63 35 64 36 65 44 66 37 67 43 68 45 69
REMARK SMILES IDX 42 70 38 71 39 72 40 73 41 74 67 75 68 76 76 77 69 78 75 79
REMARK SMILES IDX 77 80 74 81 70 82 71 83 72 84 73 85 52 86 53 87 61 88 54 89
REMARK SMILES IDX 60 90 62 91 59 92 55 93 56 94 57 95 58 96
REMARK H PARENT 18 6 7 11 12 21 12 22 23 30 82 49 50 60
REMARK Flexibility Score: inf
ROOT
ATOM      1  C   UNL A   1      37.984  22.756  25.747  1.00  0.00     0.023 C 
ENDROOT
BRANCH   1   2
ATOM      2  C   UNL A   1      36.372  23.503  25.503  1.00  0.00     0.116 C 
BRANCH   2   3
ATOM      3  N   UNL A   1      35.032  23.298  23.926  1.00  0.00    -0.351 N 
ATOM      4  C   UNL A   1      33.818  22.994  23.310  1.00  0.00     0.278 C 
ATOM      5  O   UNL A   1      33.790  23.338  22.109  1.00  0.00    -0.268 OA
ATOM      6  H   UNL A   1      35.578  23.589  23.160  1.00  0.00     0.163 HD
BRANCH   4   7
ATOM      7  C   UNL A   1      32.563  22.284  23.850  1.00  0.00     0.282 C 
BRANCH   7   8
ATOM      8  C   UNL A   1      31.359  23.204  24.196  1.00  0.00     0.175 C 
BRANCH   8   9
ATOM      9  C   UNL A   1      30.886  23.288  25.663  1.00  0.00     0.230 C 
ATOM     10  N   UNL A   1      31.037  24.407  26.449  1.00  0.00    -0.326 N 
ATOM     11  H   UNL A   1      30.827  24.316  27.407  1.00  0.00     0.169 HD
ATOM     12  O   UNL A   1      30.338  22.299  26.168  1.00  0.00    -0.274 OA
BRANCH  10  13
ATOM     13  C   UNL A   1      31.466  25.671  26.001  1.00  0.00     0.041 A 
ATOM     14  C   UNL A   1      29.905  28.384  22.750  1.00  0.00     0.044 C 
ATOM     15  C   UNL A   1      30.862  27.663  23.636  1.00  0.00    -0.049 A 
ATOM     16  C   UNL A   1      32.636  27.724  23.273  1.00  0.00     0.003 A 
ATOM     17  C   UNL A   1      30.276  26.585  24.987  1.00  0.00     0.029 A 
ATOM     18  C   UNL A   1      33.823  26.864  24.357  1.00  0.00     0.002 A 
ATOM     19  C   UNL A   1      33.244  25.882  25.744  1.00  0.00     0.026 A 
ENDBRANCH  10  13
ENDBRANCH   8   9
ENDBRANCH   7   8
BRANCH   7  20
ATOM     20  N   UNL A   1      32.871  21.174  24.830  1.00  0.00    -0.334 N 
ATOM     21  H   UNL A   1      32.110  21.140  25.509  1.00  0.00     0.347 HD
ATOM     22  H   UNL A   1      33.782  21.408  25.225  1.00  0.00     0.347 HD
BRANCH  20  23
ATOM     23  C   UNL A   1      33.029  19.815  24.266  1.00  0.00     0.176 C 
ATOM     24  C   UNL A   1      32.922  18.764  25.387  1.00  0.00     0.075 C 
ATOM     25  C   UNL A   1      32.180  19.419  23.068  1.00  0.00     0.075 C 
ENDBRANCH  20  23
ENDBRANCH   7  20
ENDBRANCH   4   7
ENDBRANCH   2   3
ENDBRANCH   1   2
BRANCH   1  26
ATOM     26  C   UNL A   1      39.091  23.522  26.483  1.00  0.00     0.023 C 
BRANCH  26  27
ATOM     27  C   UNL A   1      39.971  22.573  27.241  1.00  0.00     0.116 C 
BRANCH  27  28
ATOM     28  N   UNL A   1      40.804  21.686  26.476  1.00  0.00    -0.352 N 
ATOM     29  C   UNL A   1      42.131  21.897  26.147  1.00  0.00     0.251 C 
ATOM     30  H   UNL A   1      40.392  20.850  26.158  1.00  0.00     0.163 HD
ATOM     31  O   UNL A   1      42.706  21.137  25.372  1.00  0.00    -0.269 OA
BRANCH  29  32
ATOM     32  C   UNL A   1      42.924  22.917  26.906  1.00  0.00     0.039 A 
ATOM     33  C   UNL A   1      43.014  22.697  28.286  1.00  0.00     0.014 A 
ATOM     34  C   UNL A   1      43.191  24.187  26.400  1.00  0.00     0.014 A 
ATOM     35  C   UNL A   1      43.013  23.786  29.143  1.00  0.00     0.010 A 
ATOM     36  C   UNL A   1      43.009  25.268  27.219  1.00  0.00     0.010 A 
ATOM     37  C   UNL A   1      42.869  25.051  28.581  1.00  0.00    -0.014 A 
BRANCH  37  38
ATOM     38  C   UNL A   1      42.790  26.268  29.350  1.00  0.00     0.031 A 
ATOM     39  C   UNL A   1      41.553  27.016  29.113  1.00  0.00     0.074 A 
ATOM     40  C   UNL A   1      43.783  26.553  30.218  1.00  0.00     0.049 A 
ATOM     41  N   UNL A   1      41.479  28.283  28.959  1.00  0.00    -0.248 NA
ATOM     42  C   UNL A   1      40.274  26.341  28.855  1.00  0.00     0.031 C 
ATOM     43  C   UNL A   1      43.901  27.638  31.181  1.00  0.00     0.029 A 
ATOM     44  N   UNL A   1      45.052  25.969  30.207  1.00  0.00    -0.354 N 
ATOM     45  C   UNL A   1      40.137  28.598  29.007  1.00  0.00     0.074 A 
ATOM     46  C   UNL A   1      39.445  27.376  28.712  1.00  0.00     0.031 C 
ATOM     47  C   UNL A   1      45.213  27.855  31.419  1.00  0.00     0.029 A 
ATOM     48  C   UNL A   1      45.971  26.984  30.529  1.00  0.00     0.049 A 
ATOM     49  H   UNL A   1      45.264  25.028  30.010  1.00  0.00     0.167 HD
ATOM     50  C   UNL A   1      39.782  29.798  29.540  1.00  0.00     0.034 A 
ATOM     51  C   UNL A   1      46.842  27.404  29.564  1.00  0.00     0.034 A 
ATOM     52  C   UNL A   1      40.996  30.502  29.957  1.00  0.00     0.049 A 
ATOM     53  C   UNL A   1      46.498  28.797  29.080  1.00  0.00     0.074 A 
ATOM     54  C   UNL A   1      41.647  30.581  31.177  1.00  0.00     0.029 A 
ATOM     55  N   UNL A   1      41.920  30.864  28.992  1.00  0.00    -0.354 N 
ATOM     56  N   UNL A   1      45.320  29.354  29.197  1.00  0.00    -0.248 NA
ATOM     57  C   UNL A   1      47.486  29.686  28.486  1.00  0.00     0.031 C 
ATOM     58  C   UNL A   1      43.003  30.927  30.917  1.00  0.00     0.029 A 
ATOM     59  C   UNL A   1      43.162  31.083  29.550  1.00  0.00     0.049 A 
ATOM     60  H   UNL A   1      41.717  30.954  28.033  1.00  0.00     0.167 HD
ATOM     61  C   UNL A   1      45.371  30.642  28.724  1.00  0.00     0.074 A 
ATOM     62  C   UNL A   1      46.761  30.805  28.324  1.00  0.00     0.031 C 
ATOM     63  C   UNL A   1      44.274  31.466  28.694  1.00  0.00     0.034 A 
BRANCH  50  64
ATOM     64  C   UNL A   1      38.406  30.215  29.992  1.00  0.00     0.023 A 
ATOM     65  C   UNL A   1      37.864  31.382  29.417  1.00  0.00     0.031 A 
ATOM     66  C   UNL A   1      37.584  29.576  30.940  1.00  0.00     0.131 A 
ATOM     67  C   UNL A   1      36.617  31.894  29.807  1.00  0.00     0.055 A 
ATOM     68  C   UNL A   1      36.345  30.096  31.347  1.00  0.00     0.041 A 
ATOM     69  F   UNL A   1      37.909  28.403  31.495  1.00  0.00    -0.206 F 
ATOM     70  C   UNL A   1      35.854  31.263  30.781  1.00  0.00     0.022 A 
BRANCH  67  71
ATOM     71  S   UNL A   1      36.017  33.400  29.002  1.00  0.00     0.124 S 
ATOM     72  O   UNL A   1      37.136  34.316  29.197  1.00  0.00    -0.237 OA
ATOM     73  O   UNL A   1      35.781  32.948  27.636  1.00  0.00    -0.237 OA
ATOM     74  O   UNL A   1      34.811  33.729  29.760  1.00  0.00    -0.744 OA
ENDBRANCH  67  71
ENDBRANCH  50  64
BRANCH  51  75
ATOM     75  C   UNL A   1      47.314  26.267  28.706  1.00  0.00     0.023 A 
ATOM     76  C   UNL A   1      46.836  26.224  27.375  1.00  0.00     0.031 A 
ATOM     77  C   UNL A   1      48.510  25.592  28.991  1.00  0.00     0.131 A 
ATOM     78  C   UNL A   1      47.649  25.712  26.349  1.00  0.00     0.055 A 
ATOM     79  C   UNL A   1      49.289  25.038  27.966  1.00  0.00     0.041 A 
ATOM     80  F   UNL A   1      49.013  25.585  30.234  1.00  0.00    -0.206 F 
ATOM     81  C   UNL A   1      48.893  25.154  26.635  1.00  0.00     0.022 A 
BRANCH  78  82
ATOM     82  S   UNL A   1      47.163  26.012  24.626  1.00  0.00     0.124 S 
ATOM     83  O   UNL A   1      47.737  27.325  24.358  1.00  0.00    -0.237 OA
ATOM     84  O   UNL A   1      47.793  24.891  23.930  1.00  0.00    -0.237 OA
ATOM     85  O   UNL A   1      45.702  25.968  24.669  1.00  0.00    -0.744 OA
ENDBRANCH  78  82
ENDBRANCH  51  75
BRANCH  63  86
ATOM     86  C   UNL A   1      44.159  32.753  27.892  1.00  0.00     0.023 A 
ATOM     87  C   UNL A   1      43.936  33.991  28.493  1.00  0.00     0.031 A 
ATOM     88  C   UNL A   1      44.336  32.800  26.484  1.00  0.00     0.131 A 
ATOM     89  C   UNL A   1      43.754  35.157  27.738  1.00  0.00     0.055 A 
ATOM     90  C   UNL A   1      44.281  33.984  25.741  1.00  0.00     0.041 A 
ATOM     91  F   UNL A   1      44.585  31.708  25.749  1.00  0.00    -0.206 F 
ATOM     92  C   UNL A   1      43.953  35.173  26.364  1.00  0.00     0.022 A 
BRANCH  89  93
ATOM     93  S   UNL A   1      43.140  36.613  28.613  1.00  0.00     0.124 S 
ATOM     94  O   UNL A   1      44.203  37.583  28.357  1.00  0.00    -0.237 OA
ATOM     95  O   UNL A   1      41.874  36.873  27.937  1.00  0.00    -0.237 OA
ATOM     96  O   UNL A   1      43.030  36.162  29.997  1.00  0.00    -0.744 OA
ENDBRANCH  89  93
ENDBRANCH  63  86
ENDBRANCH  37  38
ENDBRANCH  29  32
ENDBRANCH  27  28
ENDBRANCH  26  27
ENDBRANCH   1  26
TORSDOF 19
ENDMDL
MODEL 3
REMARK VINA RESULT:     -12.2      4.041      9.366
REMARK SMILES Cc1cccc(NC(=O)C[C@H]([NH2+]C(C)C)C(=O)NCCCCNC(=O)c2ccc(-c3c4nc(c(-c5cc(S(=O)(=O)[O-])ccc5F)c5ccc([nH]5)c(-c5cc(S(=O)(=O)[O-])ccc5F)c5nc(c(-c6cc(S(=O)(=O)[O-])ccc6F)c6ccc3[nH]6)C=C5)C=C4)cc2)c1
REMARK SMILES IDX 20 1 19 2 18 3 16 4 17 5 11 7 10 8 8 9 7 10 9 12 6 13 1 14
REMARK SMILES IDX 2 15 3 16 89 17 4 18 5 19 12 20 13 23 14 24 15 25 21 26
REMARK SMILES IDX 22 27 23 28 24 29 25 31 26 32 27 33 88 34 28 35 87 36 29 37
REMARK SMILES IDX 30 38 31 39 81 40 32 41 86 42 80 43 82 44 33 45 85 46 79 47
REMARK SMILES IDX 78 48 34 50 66 51 46 52 65 53 47 54 50 55 64 56 83 57 48 58
REMARK SMILES IDX 49 59 63 61 84 62 51 63 35 64 36 65 44 66 37 67 43 68 45 69
REMARK SMILES IDX 42 70 38 71 39 72 40 73 41 74 67 75 68 76 76 77 69 78 75 79
REMARK SMILES IDX 77 80 74 81 70 82 71 83 72 84 73 85 52 86 53 87 61 88 54 89
REMARK SMILES IDX 60 90 62 91 59 92 55 93 56 94 57 95 58 96
REMARK H PARENT 18 6 7 11 12 21 12 22 23 30 82 49 50 60
REMARK Flexibility Score: inf
ROOT
ATOM      1  C   UNL A   1      34.835  28.974  26.432  1.00  0.00     0.023 C 
ENDROOT
BRANCH   1   2
ATOM      2  C   UNL A   1      33.893  27.505  26.019  1.00  0.00     0.116 C 
BRANCH   2   3
ATOM      3  N   UNL A   1      34.397  25.897  24.800  1.00  0.00    -0.351 N 
ATOM      4  C   UNL A   1      34.672  24.565  24.486  1.00  0.00     0.278 C 
ATOM      5  O   UNL A   1      34.782  24.376  23.256  1.00  0.00    -0.268 OA
ATOM      6  H   UNL A   1      34.508  26.336  23.925  1.00  0.00     0.163 HD
BRANCH   4   7
ATOM      7  C   UNL A   1      34.894  23.342  25.392  1.00  0.00     0.282 C 
BRANCH   7   8
ATOM      8  C   UNL A   1      33.746  23.018  26.390  1.00  0.00     0.175 C 
BRANCH   8   9
ATOM      9  C   UNL A   1      32.954  21.705  26.210  1.00  0.00     0.230 C 
ATOM     10  N   UNL A   1      31.645  21.657  25.788  1.00  0.00    -0.326 N 
ATOM     11  H   UNL A   1      31.189  20.786  25.835  1.00  0.00     0.169 HD
ATOM     12  O   UNL A   1      33.520  20.631  26.454  1.00  0.00    -0.274 OA
BRANCH  10  13
ATOM     13  C   UNL A   1      30.903  22.747  25.295  1.00  0.00     0.041 A 
ATOM     14  C   UNL A   1      31.671  25.590  21.875  1.00  0.00     0.044 C 
ATOM     15  C   UNL A   1      31.251  25.087  23.214  1.00  0.00    -0.049 A 
ATOM     16  C   UNL A   1      30.777  26.267  24.504  1.00  0.00     0.003 A 
ATOM     17  C   UNL A   1      31.358  23.315  23.635  1.00  0.00     0.029 A 
ATOM     18  C   UNL A   1      30.242  25.667  26.141  1.00  0.00     0.002 A 
ATOM     19  C   UNL A   1      30.258  23.912  26.518  1.00  0.00     0.026 A 
ENDBRANCH  10  13
ENDBRANCH   8   9
ENDBRANCH   7   8
BRANCH   7  20
ATOM     20  N   UNL A   1      36.306  23.232  25.925  1.00  0.00    -0.334 N 
ATOM     21  H   UNL A   1      36.269  23.390  26.933  1.00  0.00     0.347 HD
ATOM     22  H   UNL A   1      36.845  23.926  25.406  1.00  0.00     0.347 HD
BRANCH  20  23
ATOM     23  C   UNL A   1      37.003  21.947  25.698  1.00  0.00     0.176 C 
ATOM     24  C   UNL A   1      36.560  21.338  24.355  1.00  0.00     0.075 C 
ATOM     25  C   UNL A   1      38.516  21.903  25.843  1.00  0.00     0.075 C 
ENDBRANCH  20  23
ENDBRANCH   7  20
ENDBRANCH   4   7
ENDBRANCH   2   3
ENDBRANCH   1   2
BRANCH   1  26
ATOM     26  C   UNL A   1      34.222  30.062  27.324  1.00  0.00     0.023 C 
BRANCH  26  27
ATOM     27  C   UNL A   1      34.946  30.135  28.635  1.00  0.00     0.116 C 
BRANCH  27  28
ATOM     28  N   UNL A   1      35.905  31.192  28.807  1.00  0.00    -0.352 N 
ATOM     29  C   UNL A   1      37.260  31.031  29.035  1.00  0.00     0.251 C 
ATOM     30  H   UNL A   1      35.566  32.115  28.758  1.00  0.00     0.163 HD
ATOM     31  O   UNL A   1      37.962  32.002  29.305  1.00  0.00    -0.269 OA
BRANCH  29  32
ATOM     32  C   UNL A   1      37.906  29.713  28.733  1.00  0.00     0.039 A 
ATOM     33  C   UNL A   1      38.162  28.905  29.847  1.00  0.00     0.014 A 
ATOM     34  C   UNL A   1      38.586  29.468  27.541  1.00  0.00     0.014 A 
ATOM     35  C   UNL A   1      39.309  28.127  29.864  1.00  0.00     0.010 A 
ATOM     36  C   UNL A   1      39.807  28.854  27.602  1.00  0.00     0.010 A 
ATOM     37  C   UNL A   1      40.179  28.232  28.783  1.00  0.00    -0.014 A 
BRANCH  37  38
ATOM     38  C   UNL A   1      41.437  27.532  28.692  1.00  0.00     0.031 A 
ATOM     39  C   UNL A   1      41.277  26.092  28.479  1.00  0.00     0.074 A 
ATOM     40  C   UNL A   1      42.580  28.245  28.744  1.00  0.00     0.049 A 
ATOM     41  N   UNL A   1      41.950  25.183  29.073  1.00  0.00    -0.248 NA
ATOM     42  C   UNL A   1      40.182  25.544  27.667  1.00  0.00     0.031 C 
ATOM     43  C   UNL A   1      43.960  27.814  28.571  1.00  0.00     0.029 A 
ATOM     44  N   UNL A   1      42.692  29.554  29.222  1.00  0.00    -0.354 N 
ATOM     45  C   UNL A   1      41.666  24.003  28.417  1.00  0.00     0.074 A 
ATOM     46  C   UNL A   1      40.425  24.234  27.734  1.00  0.00     0.031 C 
ATOM     47  C   UNL A   1      44.763  28.682  29.224  1.00  0.00     0.029 A 
ATOM     48  C   UNL A   1      43.906  29.630  29.926  1.00  0.00     0.049 A 
ATOM     49  H   UNL A   1      42.043  30.283  29.091  1.00  0.00     0.167 HD
ATOM     50  C   UNL A   1      42.648  23.067  28.333  1.00  0.00     0.034 A 
ATOM     51  C   UNL A   1      43.863  29.805  31.281  1.00  0.00     0.034 A 
ATOM     52  C   UNL A   1      43.842  23.580  29.007  1.00  0.00     0.049 A 
ATOM     53  C   UNL A   1      44.292  28.550  32.013  1.00  0.00     0.074 A 
ATOM     54  C   UNL A   1      44.959  24.245  28.530  1.00  0.00     0.029 A 
ATOM     55  N   UNL A   1      43.783  23.832  30.367  1.00  0.00    -0.354 N 
ATOM     56  N   UNL A   1      44.270  27.348  31.499  1.00  0.00    -0.248 NA
ATOM     57  C   UNL A   1      44.841  28.579  33.361  1.00  0.00     0.031 C 
ATOM     58  C   UNL A   1      45.528  24.963  29.620  1.00  0.00     0.029 A 
ATOM     59  C   UNL A   1      44.774  24.708  30.754  1.00  0.00     0.049 A 
ATOM     60  H   UNL A   1      43.120  23.436  30.978  1.00  0.00     0.167 HD
ATOM     61  C   UNL A   1      44.793  26.453  32.401  1.00  0.00     0.074 A 
ATOM     62  C   UNL A   1      45.164  27.287  33.534  1.00  0.00     0.031 C 
ATOM     63  C   UNL A   1      44.874  25.106  32.150  1.00  0.00     0.034 A 
BRANCH  50  64
ATOM     64  C   UNL A   1      42.686  21.875  27.411  1.00  0.00     0.023 A 
ATOM     65  C   UNL A   1      43.713  21.838  26.446  1.00  0.00     0.031 A 
ATOM     66  C   UNL A   1      41.803  20.778  27.390  1.00  0.00     0.131 A 
ATOM     67  C   UNL A   1      43.808  20.806  25.500  1.00  0.00     0.055 A 
ATOM     68  C   UNL A   1      41.883  19.754  26.433  1.00  0.00     0.041 A 
ATOM     69  F   UNL A   1      40.845  20.612  28.308  1.00  0.00    -0.206 F 
ATOM     70  C   UNL A   1      42.889  19.764  25.478  1.00  0.00     0.022 A 
BRANCH  67  71
ATOM     71  S   UNL A   1      45.166  20.859  24.305  1.00  0.00     0.124 S 
ATOM     72  O   UNL A   1      44.670  21.818  23.323  1.00  0.00    -0.237 OA
ATOM     73  O   UNL A   1      46.286  21.297  25.129  1.00  0.00    -0.237 OA
ATOM     74  O   UNL A   1      45.252  19.478  23.831  1.00  0.00    -0.744 OA
ENDBRANCH  67  71
ENDBRANCH  50  64
BRANCH  51  75
ATOM     75  C   UNL A   1      42.748  30.723  31.689  1.00  0.00     0.023 A 
ATOM     76  C   UNL A   1      41.716  30.168  32.481  1.00  0.00     0.031 A 
ATOM     77  C   UNL A   1      42.936  32.111  31.743  1.00  0.00     0.131 A 
ATOM     78  C   UNL A   1      41.061  30.957  33.442  1.00  0.00     0.055 A 
ATOM     79  C   UNL A   1      42.241  32.899  32.670  1.00  0.00     0.041 A 
ATOM     80  F   UNL A   1      43.891  32.703  31.011  1.00  0.00    -0.206 F 
ATOM     81  C   UNL A   1      41.349  32.315  33.568  1.00  0.00     0.022 A 
BRANCH  78  82
ATOM     82  S   UNL A   1      40.021  30.132  34.680  1.00  0.00     0.124 S 
ATOM     83  O   UNL A   1      39.822  31.177  35.676  1.00  0.00    -0.237 OA
ATOM     84  O   UNL A   1      38.840  29.771  33.896  1.00  0.00    -0.237 OA
ATOM     85  O   UNL A   1      40.839  29.002  35.117  1.00  0.00    -0.744 OA
ENDBRANCH  78  82
ENDBRANCH  51  75
BRANCH  63  86
ATOM     86  C   UNL A   1      45.110  24.027  33.193  1.00  0.00     0.023 A 
ATOM     87  C   UNL A   1      46.347  23.842  33.810  1.00  0.00     0.031 A 
ATOM     88  C   UNL A   1      44.078  23.174  33.665  1.00  0.00     0.131 A 
ATOM     89  C   UNL A   1      46.574  22.794  34.713  1.00  0.00     0.055 A 
ATOM     90  C   UNL A   1      44.272  22.210  34.660  1.00  0.00     0.041 A 
ATOM     91  F   UNL A   1      42.823  23.232  33.201  1.00  0.00    -0.206 F 
ATOM     92  C   UNL A   1      45.538  21.989  35.168  1.00  0.00     0.022 A 
BRANCH  89  93
ATOM     93  S   UNL A   1      48.289  22.464  35.172  1.00  0.00     0.124 S 
ATOM     94  O   UNL A   1      48.485  21.118  34.637  1.00  0.00    -0.237 OA
ATOM     95  O   UNL A   1      49.008  23.528  34.479  1.00  0.00    -0.237 OA
ATOM     96  O   UNL A   1      48.279  22.560  36.629  1.00  0.00    -0.744 OA
ENDBRANCH  89  93
ENDBRANCH  63  86
ENDBRANCH  37  38
ENDBRANCH  29  32
ENDBRANCH  27  28
ENDBRANCH  26  27
ENDBRANCH   1  26
TORSDOF 19
ENDMDL
