MODEL 1
REMARK VINA RESULT:     -13.1      0.000      0.000
REMARK SMILES CS(=O)(=O)c1ccc(C(=O)N2C[C@@H](C(=O)NCCCCNC(=O)c3ccc(-c4c5nc(c(-c6cc(S(=O)(=O)[O-])ccc6F)c6ccc([nH]6)c(-c6cc(S(=O)(=O)[O-])ccc6F)c6nc(c(-c7cc(S(=O)(=O)[O-])ccc7F)c7ccc4[nH]7)C=C6)C=C5)cc3)[C@H](c3ccncc3)C2)cc1
REMARK SMILES IDX 18 1 17 2 16 3 14 4 15 5 13 7 11 8 12 9 94 10 87 11 9 12
REMARK SMILES IDX 10 13 8 14 5 15 6 16 96 17 7 18 95 19 2 20 1 21 3 22 4 23
REMARK SMILES IDX 88 24 89 25 93 26 90 27 92 28 91 29 19 30 20 31 21 32 22 33
REMARK SMILES IDX 23 35 24 36 25 37 86 38 26 39 85 40 27 41 28 42 29 43 79 44
REMARK SMILES IDX 30 45 84 46 78 47 80 48 31 49 83 50 77 51 76 52 32 54 64 55
REMARK SMILES IDX 44 56 63 57 45 58 48 59 62 60 81 61 46 62 47 63 61 65 82 66
REMARK SMILES IDX 49 67 33 68 34 69 42 70 35 71 41 72 43 73 40 74 36 75 37 76
REMARK SMILES IDX 38 77 39 78 65 79 66 80 74 81 67 82 73 83 75 84 72 85 68 86
REMARK SMILES IDX 69 87 70 88 71 89 50 90 51 91 59 92 52 93 58 94 60 95 57 96
REMARK SMILES IDX 53 97 54 98 55 99 56 100
REMARK H PARENT 16 6 21 34 80 53 48 64
REMARK Flexibility Score: inf
ROOT
ATOM      1  C   UNL A   1      31.730  30.395  26.037  1.00  0.00     0.023 C 
ENDROOT
BRANCH   1   2
ATOM      2  C   UNL A   1      33.142  29.815  26.057  1.00  0.00     0.116 C 
BRANCH   2   3
ATOM      3  N   UNL A   1      33.653  29.612  24.710  1.00  0.00    -0.356 N 
ATOM      4  C   UNL A   1      33.297  28.710  23.753  1.00  0.00     0.225 C 
ATOM      5  O   UNL A   1      33.890  28.736  22.674  1.00  0.00    -0.275 OA
ATOM      6  H   UNL A   1      34.375  30.227  24.448  1.00  0.00     0.163 HD
BRANCH   4   7
ATOM      7  C   UNL A   1      32.186  27.725  24.021  1.00  0.00     0.107 C 
ATOM      8  N   UNL A   1      31.670  25.487  24.151  1.00  0.00    -0.337 N 
ATOM      9  C   UNL A   1      32.772  26.384  24.426  1.00  0.00     0.134 C 
ATOM     10  C   UNL A   1      31.012  25.893  22.921  1.00  0.00     0.129 C 
ATOM     11  C   UNL A   1      31.347  27.399  22.749  1.00  0.00     0.053 C 
BRANCH   8  12
ATOM     12  C   UNL A   1      31.200  24.406  24.867  1.00  0.00     0.253 C 
ATOM     13  O   UNL A   1      30.338  24.543  25.735  1.00  0.00    -0.269 OA
BRANCH  12  14
ATOM     14  C   UNL A   1      31.852  23.067  24.731  1.00  0.00     0.040 A 
ATOM     15  C   UNL A   1      32.631  20.386  24.455  1.00  0.00     0.067 A 
ATOM     16  C   UNL A   1      32.192  21.096  23.336  1.00  0.00     0.021 A 
ATOM     17  C   UNL A   1      32.687  20.996  25.708  1.00  0.00     0.021 A 
ATOM     18  C   UNL A   1      31.816  22.437  23.476  1.00  0.00     0.015 A 
ATOM     19  C   UNL A   1      32.279  22.326  25.844  1.00  0.00     0.015 A 
BRANCH  15  20
ATOM     20  S   UNL A   1      32.987  18.648  24.317  1.00  0.00     0.175 S 
ATOM     21  C   UNL A   1      32.339  18.220  22.726  1.00  0.00     0.163 C 
ATOM     22  O   UNL A   1      32.200  17.964  25.329  1.00  0.00    -0.224 OA
ATOM     23  O   UNL A   1      34.427  18.500  24.275  1.00  0.00    -0.224 OA
ENDBRANCH  15  20
ENDBRANCH  12  14
ENDBRANCH   8  12
BRANCH  11  24
ATOM     24  C   UNL A   1      30.197  28.389  22.585  1.00  0.00    -0.039 A 
ATOM     25  C   UNL A   1      28.963  28.105  23.196  1.00  0.00     0.024 A 
ATOM     26  C   UNL A   1      30.280  29.583  21.862  1.00  0.00     0.024 A 
ATOM     27  C   UNL A   1      27.892  28.973  23.027  1.00  0.00     0.111 A 
ATOM     28  C   UNL A   1      29.157  30.397  21.761  1.00  0.00     0.111 A 
ATOM     29  N   UNL A   1      27.963  30.113  22.316  1.00  0.00    -0.265 NA
ENDBRANCH  11  24
ENDBRANCH   4   7
ENDBRANCH   2   3
ENDBRANCH   1   2
BRANCH   1  30
ATOM     30  C   UNL A   1      31.525  31.595  26.964  1.00  0.00     0.023 C 
BRANCH  30  31
ATOM     31  C   UNL A   1      32.793  32.363  27.324  1.00  0.00     0.116 C 
BRANCH  31  32
ATOM     32  N   UNL A   1      32.541  33.770  27.595  1.00  0.00    -0.352 N 
ATOM     33  C   UNL A   1      33.126  34.593  28.528  1.00  0.00     0.251 C 
ATOM     34  H   UNL A   1      31.854  34.192  27.030  1.00  0.00     0.163 HD
ATOM     35  O   UNL A   1      32.660  35.713  28.721  1.00  0.00    -0.269 OA
BRANCH  33  36
ATOM     36  C   UNL A   1      34.283  34.115  29.317  1.00  0.00     0.039 A 
ATOM     37  C   UNL A   1      34.049  33.358  30.468  1.00  0.00     0.014 A 
ATOM     38  C   UNL A   1      35.593  34.397  28.923  1.00  0.00     0.014 A 
ATOM     39  C   UNL A   1      35.127  32.824  31.178  1.00  0.00     0.010 A 
ATOM     40  C   UNL A   1      36.664  33.800  29.585  1.00  0.00     0.010 A 
ATOM     41  C   UNL A   1      36.443  33.002  30.719  1.00  0.00    -0.014 A 
BRANCH  41  42
ATOM     42  C   UNL A   1      37.597  32.362  31.410  1.00  0.00     0.031 A 
ATOM     43  C   UNL A   1      38.325  31.213  30.763  1.00  0.00     0.074 A 
ATOM     44  C   UNL A   1      37.959  32.784  32.640  1.00  0.00     0.049 A 
ATOM     45  N   UNL A   1      39.295  30.476  31.239  1.00  0.00    -0.248 NA
ATOM     46  C   UNL A   1      37.886  30.828  29.413  1.00  0.00     0.031 C 
ATOM     47  C   UNL A   1      37.319  33.872  33.383  1.00  0.00     0.029 A 
ATOM     48  N   UNL A   1      38.950  32.348  33.486  1.00  0.00    -0.354 N 
ATOM     49  C   UNL A   1      39.583  29.542  30.250  1.00  0.00     0.074 A 
ATOM     50  C   UNL A   1      38.639  29.763  29.176  1.00  0.00     0.031 C 
ATOM     51  C   UNL A   1      37.948  34.034  34.559  1.00  0.00     0.029 A 
ATOM     52  C   UNL A   1      38.999  33.029  34.682  1.00  0.00     0.049 A 
ATOM     53  H   UNL A   1      39.567  31.616  33.258  1.00  0.00     0.167 HD
ATOM     54  C   UNL A   1      40.563  28.603  30.228  1.00  0.00     0.034 A 
ATOM     55  C   UNL A   1      39.787  32.853  35.762  1.00  0.00     0.034 A 
ATOM     56  C   UNL A   1      41.504  28.396  31.301  1.00  0.00     0.049 A 
ATOM     57  C   UNL A   1      40.829  31.760  35.733  1.00  0.00     0.074 A 
ATOM     58  C   UNL A   1      42.551  27.492  31.363  1.00  0.00     0.029 A 
ATOM     59  N   UNL A   1      41.512  29.095  32.501  1.00  0.00    -0.354 N 
ATOM     60  N   UNL A   1      41.111  30.911  34.771  1.00  0.00    -0.248 NA
ATOM     61  C   UNL A   1      41.668  31.608  36.930  1.00  0.00     0.031 C 
ATOM     62  C   UNL A   1      43.145  27.594  32.625  1.00  0.00     0.029 A 
ATOM     63  C   UNL A   1      42.527  28.622  33.319  1.00  0.00     0.049 A 
ATOM     64  H   UNL A   1      40.890  29.820  32.736  1.00  0.00     0.167 HD
ATOM     65  C   UNL A   1      42.187  30.157  35.234  1.00  0.00     0.074 A 
ATOM     66  C   UNL A   1      42.513  30.663  36.550  1.00  0.00     0.031 C 
ATOM     67  C   UNL A   1      42.848  29.139  34.628  1.00  0.00     0.034 A 
BRANCH  54  68
ATOM     68  C   UNL A   1      40.659  27.721  29.006  1.00  0.00     0.023 A 
ATOM     69  C   UNL A   1      41.587  27.979  27.983  1.00  0.00     0.031 A 
ATOM     70  C   UNL A   1      39.821  26.600  28.869  1.00  0.00     0.131 A 
ATOM     71  C   UNL A   1      41.618  27.162  26.844  1.00  0.00     0.055 A 
ATOM     72  C   UNL A   1      39.912  25.745  27.769  1.00  0.00     0.041 A 
ATOM     73  F   UNL A   1      38.900  26.315  29.803  1.00  0.00    -0.206 F 
ATOM     74  C   UNL A   1      40.806  26.030  26.742  1.00  0.00     0.022 A 
BRANCH  71  75
ATOM     75  S   UNL A   1      42.648  27.672  25.441  1.00  0.00     0.124 S 
ATOM     76  O   UNL A   1      42.667  26.455  24.633  1.00  0.00    -0.237 OA
ATOM     77  O   UNL A   1      41.898  28.793  24.888  1.00  0.00    -0.237 OA
ATOM     78  O   UNL A   1      43.924  28.019  26.062  1.00  0.00    -0.744 OA
ENDBRANCH  71  75
ENDBRANCH  54  68
BRANCH  55  79
ATOM     79  C   UNL A   1      39.623  33.702  36.981  1.00  0.00     0.023 A 
ATOM     80  C   UNL A   1      38.997  33.198  38.133  1.00  0.00     0.031 A 
ATOM     81  C   UNL A   1      40.004  35.056  36.983  1.00  0.00     0.131 A 
ATOM     82  C   UNL A   1      38.699  34.057  39.202  1.00  0.00     0.055 A 
ATOM     83  C   UNL A   1      39.773  35.889  38.079  1.00  0.00     0.041 A 
ATOM     84  F   UNL A   1      40.606  35.595  35.910  1.00  0.00    -0.206 F 
ATOM     85  C   UNL A   1      39.096  35.396  39.190  1.00  0.00     0.022 A 
BRANCH  82  86
ATOM     86  S   UNL A   1      37.653  33.433  40.547  1.00  0.00     0.124 S 
ATOM     87  O   UNL A   1      38.536  32.459  41.179  1.00  0.00    -0.237 OA
ATOM     88  O   UNL A   1      37.386  34.647  41.310  1.00  0.00    -0.237 OA
ATOM     89  O   UNL A   1      36.500  32.871  39.848  1.00  0.00    -0.744 OA
ENDBRANCH  82  86
ENDBRANCH  55  79
BRANCH  67  90
ATOM     90  C   UNL A   1      44.032  28.549  35.357  1.00  0.00     0.023 A 
ATOM     91  C   UNL A   1      43.889  27.516  36.299  1.00  0.00     0.031 A 
ATOM     92  C   UNL A   1      45.327  29.043  35.111  1.00  0.00     0.131 A 
ATOM     93  C   UNL A   1      45.009  27.051  37.003  1.00  0.00     0.055 A 
ATOM     94  C   UNL A   1      46.447  28.528  35.765  1.00  0.00     0.041 A 
ATOM     95  F   UNL A   1      45.525  30.032  34.226  1.00  0.00    -0.206 F 
ATOM     96  C   UNL A   1      46.289  27.536  36.729  1.00  0.00     0.022 A 
BRANCH  93  97
ATOM     97  S   UNL A   1      44.757  25.875  38.361  1.00  0.00     0.124 S 
ATOM     98  O   UNL A   1      45.940  26.102  39.183  1.00  0.00    -0.237 OA
ATOM     99  O   UNL A   1      43.490  26.323  38.931  1.00  0.00    -0.237 OA
ATOM    100  O   UNL A   1      44.707  24.578  37.688  1.00  0.00    -0.744 OA
ENDBRANCH  93  97
ENDBRANCH  67  90
ENDBRANCH  41  42
ENDBRANCH  33  36
ENDBRANCH  31  32
ENDBRANCH  30  31
ENDBRANCH   1  30
TORSDOF 18
ENDMDL
MODEL 2
REMARK VINA RESULT:     -12.8      1.537      7.466
REMARK SMILES CS(=O)(=O)c1ccc(C(=O)N2C[C@@H](C(=O)NCCCCNC(=O)c3ccc(-c4c5nc(c(-c6cc(S(=O)(=O)[O-])ccc6F)c6ccc([nH]6)c(-c6cc(S(=O)(=O)[O-])ccc6F)c6nc(c(-c7cc(S(=O)(=O)[O-])ccc7F)c7ccc4[nH]7)C=C6)C=C5)cc3)[C@H](c3ccncc3)C2)cc1
REMARK SMILES IDX 18 1 17 2 16 3 14 4 15 5 13 7 11 8 12 9 94 10 87 11 9 12
REMARK SMILES IDX 10 13 8 14 5 15 6 16 96 17 7 18 95 19 2 20 1 21 3 22 4 23
REMARK SMILES IDX 88 24 89 25 93 26 90 27 92 28 91 29 19 30 20 31 21 32 22 33
REMARK SMILES IDX 23 35 24 36 25 37 86 38 26 39 85 40 27 41 28 42 29 43 79 44
REMARK SMILES IDX 30 45 84 46 78 47 80 48 31 49 83 50 77 51 76 52 32 54 64 55
REMARK SMILES IDX 44 56 63 57 45 58 48 59 62 60 81 61 46 62 47 63 61 65 82 66
REMARK SMILES IDX 49 67 33 68 34 69 42 70 35 71 41 72 43 73 40 74 36 75 37 76
REMARK SMILES IDX 38 77 39 78 65 79 66 80 74 81 67 82 73 83 75 84 72 85 68 86
REMARK SMILES IDX 69 87 70 88 71 89 50 90 51 91 59 92 52 93 58 94 60 95 57 96
REMARK SMILES IDX 53 97 54 98 55 99 56 100
REMARK H PARENT 16 6 21 34 80 53 48 64
REMARK Flexibility Score: inf
ROOT
ATOM      1  C   UNL A   1      31.513  30.644  25.999  1.00  0.00     0.023 C 
ENDROOT
BRANCH   1   2
ATOM      2  C   UNL A   1      32.889  29.982  26.001  1.00  0.00     0.116 C 
BRANCH   2   3
ATOM      3  N   UNL A   1      33.347  29.704  24.649  1.00  0.00    -0.356 N 
ATOM      4  C   UNL A   1      32.942  28.762  23.752  1.00  0.00     0.225 C 
ATOM      5  O   UNL A   1      33.496  28.723  22.653  1.00  0.00    -0.275 OA
ATOM      6  H   UNL A   1      34.068  30.293  24.330  1.00  0.00     0.163 HD
BRANCH   4   7
ATOM      7  C   UNL A   1      31.827  27.810  24.109  1.00  0.00     0.107 C 
ATOM      8  N   UNL A   1      31.288  25.592  24.395  1.00  0.00    -0.337 N 
ATOM      9  C   UNL A   1      32.407  26.490  24.585  1.00  0.00     0.134 C 
ATOM     10  C   UNL A   1      30.605  25.928  23.156  1.00  0.00     0.129 C 
ATOM     11  C   UNL A   1      30.954  27.415  22.880  1.00  0.00     0.053 C 
BRANCH   8  12
ATOM     12  C   UNL A   1      30.822  24.566  25.189  1.00  0.00     0.253 C 
ATOM     13  O   UNL A   1      30.191  24.795  26.221  1.00  0.00    -0.269 OA
BRANCH  12  14
ATOM     14  C   UNL A   1      31.225  23.152  24.912  1.00  0.00     0.040 A 
ATOM     15  C   UNL A   1      32.411  20.637  24.541  1.00  0.00     0.067 A 
ATOM     16  C   UNL A   1      32.072  21.057  25.828  1.00  0.00     0.021 A 
ATOM     17  C   UNL A   1      32.166  21.455  23.438  1.00  0.00     0.021 A 
ATOM     18  C   UNL A   1      31.469  22.307  26.008  1.00  0.00     0.015 A 
ATOM     19  C   UNL A   1      31.593  22.715  23.631  1.00  0.00     0.015 A 
BRANCH  15  20
ATOM     20  S   UNL A   1      33.295  19.110  24.312  1.00  0.00     0.175 S 
ATOM     21  C   UNL A   1      32.631  18.057  25.571  1.00  0.00     0.163 C 
ATOM     22  O   UNL A   1      34.691  19.367  24.622  1.00  0.00    -0.224 OA
ATOM     23  O   UNL A   1      32.911  18.573  23.023  1.00  0.00    -0.224 OA
ENDBRANCH  15  20
ENDBRANCH  12  14
ENDBRANCH   8  12
BRANCH  11  24
ATOM     24  C   UNL A   1      29.811  28.408  22.680  1.00  0.00    -0.039 A 
ATOM     25  C   UNL A   1      30.067  29.610  21.998  1.00  0.00     0.024 A 
ATOM     26  C   UNL A   1      28.502  28.206  23.129  1.00  0.00     0.024 A 
ATOM     27  C   UNL A   1      29.052  30.544  21.839  1.00  0.00     0.111 A 
ATOM     28  C   UNL A   1      27.548  29.193  22.908  1.00  0.00     0.111 A 
ATOM     29  N   UNL A   1      27.796  30.361  22.286  1.00  0.00    -0.265 NA
ENDBRANCH  11  24
ENDBRANCH   4   7
ENDBRANCH   2   3
ENDBRANCH   1   2
BRANCH   1  30
ATOM     30  C   UNL A   1      31.420  31.914  26.848  1.00  0.00     0.023 C 
BRANCH  30  31
ATOM     31  C   UNL A   1      32.756  32.570  27.185  1.00  0.00     0.116 C 
BRANCH  31  32
ATOM     32  N   UNL A   1      32.610  33.948  27.628  1.00  0.00    -0.352 N 
ATOM     33  C   UNL A   1      33.286  34.617  28.621  1.00  0.00     0.251 C 
ATOM     34  H   UNL A   1      31.930  34.475  27.149  1.00  0.00     0.163 HD
ATOM     35  O   UNL A   1      32.905  35.733  28.964  1.00  0.00    -0.269 OA
BRANCH  33  36
ATOM     36  C   UNL A   1      34.439  33.979  29.293  1.00  0.00     0.039 A 
ATOM     37  C   UNL A   1      34.200  33.084  30.339  1.00  0.00     0.014 A 
ATOM     38  C   UNL A   1      35.750  34.247  28.890  1.00  0.00     0.014 A 
ATOM     39  C   UNL A   1      35.270  32.404  30.929  1.00  0.00     0.010 A 
ATOM     40  C   UNL A   1      36.807  33.511  29.425  1.00  0.00     0.010 A 
ATOM     41  C   UNL A   1      36.578  32.578  30.448  1.00  0.00    -0.014 A 
BRANCH  41  42
ATOM     42  C   UNL A   1      37.716  31.793  31.001  1.00  0.00     0.031 A 
ATOM     43  C   UNL A   1      38.247  32.095  32.378  1.00  0.00     0.074 A 
ATOM     44  C   UNL A   1      38.302  30.840  30.247  1.00  0.00     0.049 A 
ATOM     45  N   UNL A   1      39.276  31.580  33.000  1.00  0.00    -0.248 NA
ATOM     46  C   UNL A   1      37.539  33.130  33.148  1.00  0.00     0.031 C 
ATOM     47  C   UNL A   1      37.897  30.469  28.889  1.00  0.00     0.029 A 
ATOM     48  N   UNL A   1      39.367  30.012  30.509  1.00  0.00    -0.354 N 
ATOM     49  C   UNL A   1      39.342  32.226  34.229  1.00  0.00     0.074 A 
ATOM     50  C   UNL A   1      38.288  33.218  34.238  1.00  0.00     0.031 C 
ATOM     51  C   UNL A   1      38.684  29.472  28.450  1.00  0.00     0.029 A 
ATOM     52  C   UNL A   1      39.685  29.170  29.467  1.00  0.00     0.049 A 
ATOM     53  H   UNL A   1      39.857  30.020  31.363  1.00  0.00     0.167 HD
ATOM     54  C   UNL A   1      40.185  31.995  35.267  1.00  0.00     0.034 A 
ATOM     55  C   UNL A   1      40.681  28.269  29.336  1.00  0.00     0.034 A 
ATOM     56  C   UNL A   1      41.227  30.998  35.250  1.00  0.00     0.049 A 
ATOM     57  C   UNL A   1      41.644  28.077  30.486  1.00  0.00     0.074 A 
ATOM     58  C   UNL A   1      42.115  30.667  36.259  1.00  0.00     0.029 A 
ATOM     59  N   UNL A   1      41.528  30.177  34.172  1.00  0.00    -0.354 N 
ATOM     60  N   UNL A   1      41.664  28.672  31.656  1.00  0.00    -0.248 NA
ATOM     61  C   UNL A   1      42.710  27.083  30.300  1.00  0.00     0.031 C 
ATOM     62  C   UNL A   1      42.997  29.699  35.769  1.00  0.00     0.029 A 
ATOM     63  C   UNL A   1      42.605  29.360  34.484  1.00  0.00     0.049 A 
ATOM     64  H   UNL A   1      41.048  30.173  33.314  1.00  0.00     0.167 HD
ATOM     65  C   UNL A   1      42.718  28.091  32.358  1.00  0.00     0.074 A 
ATOM     66  C   UNL A   1      43.294  27.088  31.488  1.00  0.00     0.031 C 
ATOM     67  C   UNL A   1      43.168  28.358  33.610  1.00  0.00     0.034 A 
BRANCH  54  68
ATOM     68  C   UNL A   1      40.021  32.845  36.504  1.00  0.00     0.023 A 
ATOM     69  C   UNL A   1      39.202  32.439  37.572  1.00  0.00     0.031 A 
ATOM     70  C   UNL A   1      40.702  34.069  36.624  1.00  0.00     0.131 A 
ATOM     71  C   UNL A   1      39.041  33.275  38.686  1.00  0.00     0.055 A 
ATOM     72  C   UNL A   1      40.600  34.858  37.771  1.00  0.00     0.041 A 
ATOM     73  F   UNL A   1      41.481  34.519  35.628  1.00  0.00    -0.206 F 
ATOM     74  C   UNL A   1      39.756  34.468  38.806  1.00  0.00     0.022 A 
BRANCH  71  75
ATOM     75  S   UNL A   1      37.787  32.837  39.922  1.00  0.00     0.124 S 
ATOM     76  O   UNL A   1      36.585  32.737  39.098  1.00  0.00    -0.237 OA
ATOM     77  O   UNL A   1      38.298  31.581  40.459  1.00  0.00    -0.237 OA
ATOM     78  O   UNL A   1      37.809  33.967  40.847  1.00  0.00    -0.744 OA
ENDBRANCH  71  75
ENDBRANCH  54  68
BRANCH  55  79
ATOM     79  C   UNL A   1      40.855  27.491  28.072  1.00  0.00     0.023 A 
ATOM     80  C   UNL A   1      40.549  26.121  28.020  1.00  0.00     0.031 A 
ATOM     81  C   UNL A   1      41.417  28.081  26.925  1.00  0.00     0.131 A 
ATOM     82  C   UNL A   1      40.879  25.372  26.879  1.00  0.00     0.055 A 
ATOM     83  C   UNL A   1      41.674  27.347  25.766  1.00  0.00     0.041 A 
ATOM     84  F   UNL A   1      41.731  29.386  26.916  1.00  0.00    -0.206 F 
ATOM     85  C   UNL A   1      41.425  25.978  25.746  1.00  0.00     0.022 A 
BRANCH  82  86
ATOM     86  S   UNL A   1      40.718  23.567  26.955  1.00  0.00     0.124 S 
ATOM     87  O   UNL A   1      41.322  23.271  28.250  1.00  0.00    -0.237 OA
ATOM     88  O   UNL A   1      39.274  23.388  26.863  1.00  0.00    -0.237 OA
ATOM     89  O   UNL A   1      41.477  23.110  25.793  1.00  0.00    -0.744 OA
ENDBRANCH  82  86
ENDBRANCH  55  79
BRANCH  67  90
ATOM     90  C   UNL A   1      44.301  27.509  34.135  1.00  0.00     0.023 A 
ATOM     91  C   UNL A   1      44.079  26.261  34.742  1.00  0.00     0.031 A 
ATOM     92  C   UNL A   1      45.629  27.967  34.033  1.00  0.00     0.131 A 
ATOM     93  C   UNL A   1      45.157  25.542  35.277  1.00  0.00     0.055 A 
ATOM     94  C   UNL A   1      46.704  27.214  34.506  1.00  0.00     0.041 A 
ATOM     95  F   UNL A   1      45.902  29.152  33.467  1.00  0.00    -0.206 F 
ATOM     96  C   UNL A   1      46.470  26.000  35.146  1.00  0.00     0.022 A 
BRANCH  93  97
ATOM     97  S   UNL A   1      44.812  24.046  36.243  1.00  0.00     0.124 S 
ATOM     98  O   UNL A   1      43.693  23.463  35.509  1.00  0.00    -0.237 OA
ATOM     99  O   UNL A   1      46.076  23.321  36.157  1.00  0.00    -0.237 OA
ATOM    100  O   UNL A   1      44.483  24.561  37.571  1.00  0.00    -0.744 OA
ENDBRANCH  93  97
ENDBRANCH  67  90
ENDBRANCH  41  42
ENDBRANCH  33  36
ENDBRANCH  31  32
ENDBRANCH  30  31
ENDBRANCH   1  30
TORSDOF 18
ENDMDL
MODEL 3
REMARK VINA RESULT:     -12.3      1.506      1.822
REMARK SMILES CS(=O)(=O)c1ccc(C(=O)N2C[C@@H](C(=O)NCCCCNC(=O)c3ccc(-c4c5nc(c(-c6cc(S(=O)(=O)[O-])ccc6F)c6ccc([nH]6)c(-c6cc(S(=O)(=O)[O-])ccc6F)c6nc(c(-c7cc(S(=O)(=O)[O-])ccc7F)c7ccc4[nH]7)C=C6)C=C5)cc3)[C@H](c3ccncc3)C2)cc1
REMARK SMILES IDX 18 1 17 2 16 3 14 4 15 5 13 7 11 8 12 9 94 10 87 11 9 12
REMARK SMILES IDX 10 13 8 14 5 15 6 16 96 17 7 18 95 19 2 20 1 21 3 22 4 23
REMARK SMILES IDX 88 24 89 25 93 26 90 27 92 28 91 29 19 30 20 31 21 32 22 33
REMARK SMILES IDX 23 35 24 36 25 37 86 38 26 39 85 40 27 41 28 42 29 43 79 44
REMARK SMILES IDX 30 45 84 46 78 47 80 48 31 49 83 50 77 51 76 52 32 54 64 55
REMARK SMILES IDX 44 56 63 57 45 58 48 59 62 60 81 61 46 62 47 63 61 65 82 66
REMARK SMILES IDX 49 67 33 68 34 69 42 70 35 71 41 72 43 73 40 74 36 75 37 76
REMARK SMILES IDX 38 77 39 78 65 79 66 80 74 81 67 82 73 83 75 84 72 85 68 86
REMARK SMILES IDX 69 87 70 88 71 89 50 90 51 91 59 92 52 93 58 94 60 95 57 96
REMARK SMILES IDX 53 97 54 98 55 99 56 100
REMARK H PARENT 16 6 21 34 80 53 48 64
REMARK Flexibility Score: inf
ROOT
ATOM      1  C   UNL A   1      32.103  30.759  26.857  1.00  0.00     0.023 C 
ENDROOT
BRANCH   1   2
ATOM      2  C   UNL A   1      31.710  30.095  25.540  1.00  0.00     0.116 C 
BRANCH   2   3
ATOM      3  N   UNL A   1      32.882  29.704  24.772  1.00  0.00    -0.356 N 
ATOM      4  C   UNL A   1      33.318  28.474  24.383  1.00  0.00     0.225 C 
ATOM      5  O   UNL A   1      34.358  28.400  23.729  1.00  0.00    -0.275 OA
ATOM      6  H   UNL A   1      33.453  30.452  24.485  1.00  0.00     0.163 HD
BRANCH   4   7
ATOM      7  C   UNL A   1      32.519  27.243  24.737  1.00  0.00     0.107 C 
ATOM      8  N   UNL A   1      32.629  24.961  25.003  1.00  0.00    -0.337 N 
ATOM      9  C   UNL A   1      33.452  26.136  25.195  1.00  0.00     0.134 C 
ATOM     10  C   UNL A   1      31.866  25.101  23.774  1.00  0.00     0.129 C 
ATOM     11  C   UNL A   1      31.780  26.628  23.511  1.00  0.00     0.053 C 
BRANCH   8  12
ATOM     12  C   UNL A   1      32.480  23.838  25.789  1.00  0.00     0.253 C 
ATOM     13  O   UNL A   1      32.174  23.930  26.979  1.00  0.00    -0.269 OA
BRANCH  12  14
ATOM     14  C   UNL A   1      32.859  22.490  25.264  1.00  0.00     0.040 A 
ATOM     15  C   UNL A   1      33.513  19.815  24.729  1.00  0.00     0.067 A 
ATOM     16  C   UNL A   1      32.176  20.178  24.901  1.00  0.00     0.021 A 
ATOM     17  C   UNL A   1      34.526  20.770  24.820  1.00  0.00     0.021 A 
ATOM     18  C   UNL A   1      31.853  21.515  25.156  1.00  0.00     0.015 A 
ATOM     19  C   UNL A   1      34.196  22.097  25.107  1.00  0.00     0.015 A 
BRANCH  15  20
ATOM     20  S   UNL A   1      33.948  18.101  24.535  1.00  0.00     0.175 S 
ATOM     21  C   UNL A   1      33.205  17.660  22.990  1.00  0.00     0.163 C 
ATOM     22  O   UNL A   1      33.277  17.362  25.591  1.00  0.00    -0.224 OA
ATOM     23  O   UNL A   1      35.386  18.030  24.381  1.00  0.00    -0.224 OA
ENDBRANCH  15  20
ENDBRANCH  12  14
ENDBRANCH   8  12
BRANCH  11  24
ATOM     24  C   UNL A   1      30.402  27.261  23.330  1.00  0.00    -0.039 A 
ATOM     25  C   UNL A   1      30.293  28.455  22.597  1.00  0.00     0.024 A 
ATOM     26  C   UNL A   1      29.216  26.729  23.845  1.00  0.00     0.024 A 
ATOM     27  C   UNL A   1      29.055  29.068  22.454  1.00  0.00     0.111 A 
ATOM     28  C   UNL A   1      28.019  27.406  23.636  1.00  0.00     0.111 A 
ATOM     29  N   UNL A   1      27.914  28.569  22.964  1.00  0.00    -0.265 NA
ENDBRANCH  11  24
ENDBRANCH   4   7
ENDBRANCH   2   3
ENDBRANCH   1   2
BRANCH   1  30
ATOM     30  C   UNL A   1      31.777  32.253  26.934  1.00  0.00     0.023 C 
BRANCH  30  31
ATOM     31  C   UNL A   1      32.980  33.171  27.128  1.00  0.00     0.116 C 
BRANCH  31  32
ATOM     32  N   UNL A   1      32.684  34.314  27.978  1.00  0.00    -0.352 N 
ATOM     33  C   UNL A   1      33.240  34.665  29.186  1.00  0.00     0.251 C 
ATOM     34  H   UNL A   1      31.986  34.922  27.640  1.00  0.00     0.163 HD
ATOM     35  O   UNL A   1      32.740  35.578  29.837  1.00  0.00    -0.269 OA
BRANCH  33  36
ATOM     36  C   UNL A   1      34.408  33.922  29.709  1.00  0.00     0.039 A 
ATOM     37  C   UNL A   1      35.688  34.304  29.301  1.00  0.00     0.014 A 
ATOM     38  C   UNL A   1      34.248  32.862  30.606  1.00  0.00     0.014 A 
ATOM     39  C   UNL A   1      36.808  33.672  29.849  1.00  0.00     0.010 A 
ATOM     40  C   UNL A   1      35.365  32.288  31.210  1.00  0.00     0.010 A 
ATOM     41  C   UNL A   1      36.659  32.689  30.842  1.00  0.00    -0.014 A 
BRANCH  41  42
ATOM     42  C   UNL A   1      37.841  32.073  31.504  1.00  0.00     0.031 A 
ATOM     43  C   UNL A   1      38.601  30.966  30.821  1.00  0.00     0.074 A 
ATOM     44  C   UNL A   1      38.203  32.477  32.740  1.00  0.00     0.049 A 
ATOM     45  N   UNL A   1      39.602  30.252  31.267  1.00  0.00    -0.248 NA
ATOM     46  C   UNL A   1      38.161  30.599  29.466  1.00  0.00     0.031 C 
ATOM     47  C   UNL A   1      37.534  33.522  33.518  1.00  0.00     0.029 A 
ATOM     48  N   UNL A   1      39.218  32.054  33.564  1.00  0.00    -0.354 N 
ATOM     49  C   UNL A   1      39.911  29.353  30.253  1.00  0.00     0.074 A 
ATOM     50  C   UNL A   1      38.947  29.568  29.195  1.00  0.00     0.031 C 
ATOM     51  C   UNL A   1      38.171  33.677  34.690  1.00  0.00     0.029 A 
ATOM     52  C   UNL A   1      39.257  32.707  34.776  1.00  0.00     0.049 A 
ATOM     53  H   UNL A   1      39.858  31.350  33.312  1.00  0.00     0.167 HD
ATOM     54  C   UNL A   1      40.922  28.450  30.196  1.00  0.00     0.034 A 
ATOM     55  C   UNL A   1      40.064  32.532  35.843  1.00  0.00     0.034 A 
ATOM     56  C   UNL A   1      41.882  28.249  31.254  1.00  0.00     0.049 A 
ATOM     57  C   UNL A   1      41.142  31.476  35.776  1.00  0.00     0.074 A 
ATOM     58  C   UNL A   1      42.960  27.381  31.282  1.00  0.00     0.029 A 
ATOM     59  N   UNL A   1      41.880  28.918  32.470  1.00  0.00    -0.354 N 
ATOM     60  N   UNL A   1      41.442  30.662  34.790  1.00  0.00    -0.248 NA
ATOM     61  C   UNL A   1      41.999  31.324  36.960  1.00  0.00     0.031 C 
ATOM     62  C   UNL A   1      43.564  27.471  32.540  1.00  0.00     0.029 A 
ATOM     63  C   UNL A   1      42.920  28.460  33.266  1.00  0.00     0.049 A 
ATOM     64  H   UNL A   1      41.236  29.614  32.731  1.00  0.00     0.167 HD
ATOM     65  C   UNL A   1      42.548  29.934  35.223  1.00  0.00     0.074 A 
ATOM     66  C   UNL A   1      42.872  30.419  36.547  1.00  0.00     0.031 C 
ATOM     67  C   UNL A   1      43.238  28.955  34.583  1.00  0.00     0.034 A 
BRANCH  54  68
ATOM     68  C   UNL A   1      41.034  27.602  28.952  1.00  0.00     0.023 A 
ATOM     69  C   UNL A   1      42.017  27.850  27.979  1.00  0.00     0.031 A 
ATOM     70  C   UNL A   1      40.156  26.524  28.742  1.00  0.00     0.131 A 
ATOM     71  C   UNL A   1      42.064  27.068  26.816  1.00  0.00     0.055 A 
ATOM     72  C   UNL A   1      40.259  25.699  27.620  1.00  0.00     0.041 A 
ATOM     73  F   UNL A   1      39.183  26.251  29.626  1.00  0.00    -0.206 F 
ATOM     74  C   UNL A   1      41.210  25.976  26.642  1.00  0.00     0.022 A 
BRANCH  71  75
ATOM     75  S   UNL A   1      43.176  27.575  25.476  1.00  0.00     0.124 S 
ATOM     76  O   UNL A   1      43.680  26.285  25.010  1.00  0.00    -0.237 OA
ATOM     77  O   UNL A   1      42.277  28.275  24.567  1.00  0.00    -0.237 OA
ATOM     78  O   UNL A   1      44.164  28.414  26.150  1.00  0.00    -0.744 OA
ENDBRANCH  71  75
ENDBRANCH  54  68
BRANCH  55  79
ATOM     79  C   UNL A   1      39.884  33.344  37.085  1.00  0.00     0.023 A 
ATOM     80  C   UNL A   1      40.717  34.441  37.358  1.00  0.00     0.031 A 
ATOM     81  C   UNL A   1      38.939  32.980  38.062  1.00  0.00     0.131 A 
ATOM     82  C   UNL A   1      40.645  35.083  38.604  1.00  0.00     0.055 A 
ATOM     83  C   UNL A   1      38.821  33.670  39.271  1.00  0.00     0.041 A 
ATOM     84  F   UNL A   1      38.115  31.940  37.859  1.00  0.00    -0.206 F 
ATOM     85  C   UNL A   1      39.693  34.716  39.556  1.00  0.00     0.022 A 
BRANCH  82  86
ATOM     86  S   UNL A   1      41.916  36.311  39.018  1.00  0.00     0.124 S 
ATOM     87  O   UNL A   1      42.929  36.040  38.004  1.00  0.00    -0.237 OA
ATOM     88  O   UNL A   1      41.183  37.564  38.875  1.00  0.00    -0.237 OA
ATOM     89  O   UNL A   1      42.292  35.962  40.386  1.00  0.00    -0.744 OA
ENDBRANCH  82  86
ENDBRANCH  55  79
BRANCH  67  90
ATOM     90  C   UNL A   1      44.449  28.390  35.286  1.00  0.00     0.023 A 
ATOM     91  C   UNL A   1      44.374  27.244  36.097  1.00  0.00     0.031 A 
ATOM     92  C   UNL A   1      45.701  29.019  35.147  1.00  0.00     0.131 A 
ATOM     93  C   UNL A   1      45.512  26.799  36.786  1.00  0.00     0.055 A 
ATOM     94  C   UNL A   1      46.844  28.531  35.779  1.00  0.00     0.041 A 
ATOM     95  F   UNL A   1      45.832  30.119  34.389  1.00  0.00    -0.206 F 
ATOM     96  C   UNL A   1      46.751  27.422  36.617  1.00  0.00     0.022 A 
BRANCH  93  97
ATOM     97  S   UNL A   1      45.330  25.454  37.989  1.00  0.00     0.124 S 
ATOM     98  O   UNL A   1      46.460  24.593  37.655  1.00  0.00    -0.237 OA
ATOM     99  O   UNL A   1      45.424  26.161  39.263  1.00  0.00    -0.237 OA
ATOM    100  O   UNL A   1      44.013  24.898  37.686  1.00  0.00    -0.744 OA
ENDBRANCH  93  97
ENDBRANCH  67  90
ENDBRANCH  41  42
ENDBRANCH  33  36
ENDBRANCH  31  32
ENDBRANCH  30  31
ENDBRANCH   1  30
TORSDOF 18
ENDMDL
