MODEL 1
REMARK VINA RESULT:     -11.6      0.000      0.000
REMARK SMILES CCC(CC)NC(=O)NC[C@H]1CC[C@H](C(=O)NCCCCNC(=O)c2ccc(-c3c4nc(c(-c5cc(S(=O)(=O)[O-])ccc5F)c5ccc([nH]5)c(-c5cc(S(=O)(=O)[O-])ccc5F)c5nc(c(-c6cc(S(=O)(=O)[O-])ccc6F)c6ccc3[nH]6)C=C5)C=C4)cc2)O1
REMARK SMILES IDX 19 1 18 2 17 3 15 4 16 5 14 7 11 8 12 9 88 10 13 11 10 12
REMARK SMILES IDX 9 13 6 14 7 15 8 17 3 19 2 20 1 21 4 22 5 23 20 24 21 25
REMARK SMILES IDX 22 26 23 27 24 29 25 30 26 31 87 32 27 33 86 34 28 35 29 36
REMARK SMILES IDX 30 37 80 38 31 39 85 40 79 41 81 42 32 43 84 44 78 45 77 46
REMARK SMILES IDX 33 48 65 49 45 50 64 51 46 52 49 53 63 54 82 55 47 56 48 57
REMARK SMILES IDX 62 59 83 60 50 61 34 62 35 63 43 64 36 65 42 66 44 67 41 68
REMARK SMILES IDX 37 69 38 70 39 71 40 72 66 73 67 74 75 75 68 76 74 77 76 78
REMARK SMILES IDX 73 79 69 80 70 81 71 82 72 83 51 84 52 85 60 86 53 87 59 88
REMARK SMILES IDX 61 89 58 90 54 91 55 92 56 93 57 94
REMARK H PARENT 17 6 6 16 9 18 22 28 81 47 49 58
REMARK Flexibility Score: inf
ROOT
ATOM      1  C   UNL A   1      32.589  29.960  26.276  1.00  0.00     0.023 C 
ENDROOT
BRANCH   1   2
ATOM      2  C   UNL A   1      32.087  29.663  24.864  1.00  0.00     0.116 C 
BRANCH   2   3
ATOM      3  N   UNL A   1      33.176  29.516  23.924  1.00  0.00    -0.354 N 
ATOM      4  C   UNL A   1      33.669  28.400  23.317  1.00  0.00     0.249 C 
ATOM      5  O   UNL A   1      34.608  28.554  22.527  1.00  0.00    -0.272 OA
ATOM      6  H   UNL A   1      33.635  30.354  23.685  1.00  0.00     0.163 HD
BRANCH   4   7
ATOM      7  C   UNL A   1      33.157  26.970  23.641  1.00  0.00     0.207 C 
ATOM      8  C   UNL A   1      31.411  26.157  24.992  1.00  0.00     0.138 C 
ATOM      9  C   UNL A   1      32.655  26.207  25.862  1.00  0.00     0.037 C 
ATOM     10  O   UNL A   1      31.752  26.740  23.721  1.00  0.00    -0.363 OA
ATOM     11  C   UNL A   1      33.795  26.398  24.896  1.00  0.00     0.045 C 
BRANCH   8  12
ATOM     12  C   UNL A   1      30.861  24.726  24.831  1.00  0.00     0.149 C 
BRANCH  12  13
ATOM     13  N   UNL A   1      30.211  24.274  26.056  1.00  0.00    -0.336 N 
ATOM     14  N   UNL A   1      31.218  22.231  26.699  1.00  0.00    -0.335 N 
ATOM     15  C   UNL A   1      30.287  23.182  26.823  1.00  0.00     0.315 C 
ATOM     16  H   UNL A   1      31.040  21.440  27.257  1.00  0.00     0.165 HD
ATOM     17  O   UNL A   1      29.445  23.053  27.715  1.00  0.00    -0.249 OA
ATOM     18  H   UNL A   1      29.562  24.930  26.401  1.00  0.00     0.165 HD
BRANCH  14  19
ATOM     19  C   UNL A   1      32.442  22.116  25.913  1.00  0.00     0.083 C 
BRANCH  19  20
ATOM     20  C   UNL A   1      33.658  22.088  26.857  1.00  0.00     0.021 C 
ATOM     21  C   UNL A   1      34.677  23.178  26.560  1.00  0.00     0.006 C 
ENDBRANCH  19  20
BRANCH  19  22
ATOM     22  C   UNL A   1      32.358  20.914  24.950  1.00  0.00     0.021 C 
ATOM     23  C   UNL A   1      32.396  21.250  23.464  1.00  0.00     0.006 C 
ENDBRANCH  19  22
ENDBRANCH  14  19
ENDBRANCH  12  13
ENDBRANCH   8  12
ENDBRANCH   4   7
ENDBRANCH   2   3
ENDBRANCH   1   2
BRANCH   1  24
ATOM     24  C   UNL A   1      32.068  31.250  26.901  1.00  0.00     0.023 C 
BRANCH  24  25
ATOM     25  C   UNL A   1      33.135  32.176  27.471  1.00  0.00     0.116 C 
BRANCH  25  26
ATOM     26  N   UNL A   1      32.696  33.552  27.642  1.00  0.00    -0.352 N 
ATOM     27  C   UNL A   1      33.199  34.507  28.502  1.00  0.00     0.251 C 
ATOM     28  H   UNL A   1      31.946  33.840  27.072  1.00  0.00     0.163 HD
ATOM     29  O   UNL A   1      32.666  35.602  28.589  1.00  0.00    -0.269 OA
BRANCH  27  30
ATOM     30  C   UNL A   1      34.357  34.155  29.353  1.00  0.00     0.039 A 
ATOM     31  C   UNL A   1      34.130  33.493  30.561  1.00  0.00     0.014 A 
ATOM     32  C   UNL A   1      35.659  34.407  28.916  1.00  0.00     0.014 A 
ATOM     33  C   UNL A   1      35.216  33.001  31.289  1.00  0.00     0.010 A 
ATOM     34  C   UNL A   1      36.733  33.848  29.600  1.00  0.00     0.010 A 
ATOM     35  C   UNL A   1      36.521  33.131  30.788  1.00  0.00    -0.014 A 
BRANCH  35  36
ATOM     36  C   UNL A   1      37.685  32.523  31.483  1.00  0.00     0.031 A 
ATOM     37  C   UNL A   1      38.421  31.378  30.844  1.00  0.00     0.074 A 
ATOM     38  C   UNL A   1      38.018  32.940  32.721  1.00  0.00     0.049 A 
ATOM     39  N   UNL A   1      39.384  30.637  31.329  1.00  0.00    -0.248 NA
ATOM     40  C   UNL A   1      37.988  30.994  29.491  1.00  0.00     0.031 C 
ATOM     41  C   UNL A   1      37.342  34.007  33.465  1.00  0.00     0.029 A 
ATOM     42  N   UNL A   1      38.997  32.509  33.579  1.00  0.00    -0.354 N 
ATOM     43  C   UNL A   1      39.657  29.687  30.352  1.00  0.00     0.074 A 
ATOM     44  C   UNL A   1      38.715  29.909  29.275  1.00  0.00     0.031 C 
ATOM     45  C   UNL A   1      37.941  34.158  34.657  1.00  0.00     0.029 A 
ATOM     46  C   UNL A   1      39.012  33.176  34.783  1.00  0.00     0.049 A 
ATOM     47  H   UNL A   1      39.630  31.789  33.355  1.00  0.00     0.167 HD
ATOM     48  C   UNL A   1      40.622  28.734  30.342  1.00  0.00     0.034 A 
ATOM     49  C   UNL A   1      39.792  33.004  35.869  1.00  0.00     0.034 A 
ATOM     50  C   UNL A   1      41.566  28.541  31.415  1.00  0.00     0.049 A 
ATOM     51  C   UNL A   1      40.856  31.938  35.837  1.00  0.00     0.074 A 
ATOM     52  C   UNL A   1      42.623  27.651  31.485  1.00  0.00     0.029 A 
ATOM     53  N   UNL A   1      41.565  29.251  32.610  1.00  0.00    -0.354 N 
ATOM     54  N   UNL A   1      41.137  31.080  34.884  1.00  0.00    -0.248 NA
ATOM     55  C   UNL A   1      41.714  31.822  37.024  1.00  0.00     0.031 C 
ATOM     56  C   UNL A   1      43.225  27.783  32.742  1.00  0.00     0.029 A 
ATOM     57  C   UNL A   1      42.587  28.801  33.432  1.00  0.00     0.049 A 
ATOM     58  H   UNL A   1      40.932  29.969  32.839  1.00  0.00     0.167 HD
ATOM     59  C   UNL A   1      42.225  30.344  35.345  1.00  0.00     0.074 A 
ATOM     60  C   UNL A   1      42.554  30.866  36.656  1.00  0.00     0.031 C 
ATOM     61  C   UNL A   1      42.895  29.329  34.740  1.00  0.00     0.034 A 
BRANCH  48  62
ATOM     62  C   UNL A   1      40.679  27.820  29.142  1.00  0.00     0.023 A 
ATOM     63  C   UNL A   1      41.618  28.013  28.113  1.00  0.00     0.031 A 
ATOM     64  C   UNL A   1      39.757  26.768  29.000  1.00  0.00     0.131 A 
ATOM     65  C   UNL A   1      41.560  27.226  26.953  1.00  0.00     0.055 A 
ATOM     66  C   UNL A   1      39.759  25.933  27.881  1.00  0.00     0.041 A 
ATOM     67  F   UNL A   1      38.824  26.546  29.939  1.00  0.00    -0.206 F 
ATOM     68  C   UNL A   1      40.653  26.170  26.841  1.00  0.00     0.022 A 
BRANCH  65  69
ATOM     69  S   UNL A   1      42.585  27.702  25.535  1.00  0.00     0.124 S 
ATOM     70  O   UNL A   1      42.486  26.514  24.690  1.00  0.00    -0.237 OA
ATOM     71  O   UNL A   1      41.910  28.896  25.042  1.00  0.00    -0.237 OA
ATOM     72  O   UNL A   1      43.903  27.928  26.126  1.00  0.00    -0.744 OA
ENDBRANCH  65  69
ENDBRANCH  48  62
BRANCH  49  73
ATOM     73  C   UNL A   1      39.600  33.852  37.080  1.00  0.00     0.023 A 
ATOM     74  C   UNL A   1      38.963  33.344  38.223  1.00  0.00     0.031 A 
ATOM     75  C   UNL A   1      40.018  35.194  37.099  1.00  0.00     0.131 A 
ATOM     76  C   UNL A   1      38.719  34.184  39.320  1.00  0.00     0.055 A 
ATOM     77  C   UNL A   1      39.817  36.014  38.211  1.00  0.00     0.041 A 
ATOM     78  F   UNL A   1      40.640  35.727  36.035  1.00  0.00    -0.206 F 
ATOM     79  C   UNL A   1      39.151  35.512  39.326  1.00  0.00     0.022 A 
BRANCH  76  80
ATOM     80  S   UNL A   1      37.757  33.535  40.714  1.00  0.00     0.124 S 
ATOM     81  O   UNL A   1      36.573  33.014  40.041  1.00  0.00    -0.237 OA
ATOM     82  O   UNL A   1      38.668  32.543  41.273  1.00  0.00    -0.237 OA
ATOM     83  O   UNL A   1      37.533  34.713  41.549  1.00  0.00    -0.744 OA
ENDBRANCH  76  80
ENDBRANCH  49  73
BRANCH  61  84
ATOM     84  C   UNL A   1      44.077  28.756  35.478  1.00  0.00     0.023 A 
ATOM     85  C   UNL A   1      43.940  27.683  36.376  1.00  0.00     0.031 A 
ATOM     86  C   UNL A   1      45.359  29.299  35.285  1.00  0.00     0.131 A 
ATOM     87  C   UNL A   1      45.058  27.220  37.085  1.00  0.00     0.055 A 
ATOM     88  C   UNL A   1      46.477  28.799  35.951  1.00  0.00     0.041 A 
ATOM     89  F   UNL A   1      45.545  30.327  34.439  1.00  0.00    -0.206 F 
ATOM     90  C   UNL A   1      46.327  27.760  36.867  1.00  0.00     0.022 A 
BRANCH  87  91
ATOM     91  S   UNL A   1      44.818  25.950  38.357  1.00  0.00     0.124 S 
ATOM     92  O   UNL A   1      43.998  24.968  37.655  1.00  0.00    -0.237 OA
ATOM     93  O   UNL A   1      46.187  25.542  38.655  1.00  0.00    -0.237 OA
ATOM     94  O   UNL A   1      44.139  26.668  39.435  1.00  0.00    -0.744 OA
ENDBRANCH  87  91
ENDBRANCH  61  84
ENDBRANCH  35  36
ENDBRANCH  27  30
ENDBRANCH  25  26
ENDBRANCH  24  25
ENDBRANCH   1  24
TORSDOF 19
ENDMDL
MODEL 2
REMARK VINA RESULT:     -11.2      2.145      3.014
REMARK SMILES CCC(CC)NC(=O)NC[C@H]1CC[C@H](C(=O)NCCCCNC(=O)c2ccc(-c3c4nc(c(-c5cc(S(=O)(=O)[O-])ccc5F)c5ccc([nH]5)c(-c5cc(S(=O)(=O)[O-])ccc5F)c5nc(c(-c6cc(S(=O)(=O)[O-])ccc6F)c6ccc3[nH]6)C=C5)C=C4)cc2)O1
REMARK SMILES IDX 19 1 18 2 17 3 15 4 16 5 14 7 11 8 12 9 88 10 13 11 10 12
REMARK SMILES IDX 9 13 6 14 7 15 8 17 3 19 2 20 1 21 4 22 5 23 20 24 21 25
REMARK SMILES IDX 22 26 23 27 24 29 25 30 26 31 87 32 27 33 86 34 28 35 29 36
REMARK SMILES IDX 30 37 80 38 31 39 85 40 79 41 81 42 32 43 84 44 78 45 77 46
REMARK SMILES IDX 33 48 65 49 45 50 64 51 46 52 49 53 63 54 82 55 47 56 48 57
REMARK SMILES IDX 62 59 83 60 50 61 34 62 35 63 43 64 36 65 42 66 44 67 41 68
REMARK SMILES IDX 37 69 38 70 39 71 40 72 66 73 67 74 75 75 68 76 74 77 76 78
REMARK SMILES IDX 73 79 69 80 70 81 71 82 72 83 51 84 52 85 60 86 53 87 59 88
REMARK SMILES IDX 61 89 58 90 54 91 55 92 56 93 57 94
REMARK H PARENT 17 6 6 16 9 18 22 28 81 47 49 58
REMARK Flexibility Score: inf
ROOT
ATOM      1  C   UNL A   1      32.335  29.116  24.305  1.00  0.00     0.023 C 
ENDROOT
BRANCH   1   2
ATOM      2  C   UNL A   1      32.331  27.617  24.599  1.00  0.00     0.116 C 
BRANCH   2   3
ATOM      3  N   UNL A   1      31.167  27.219  25.359  1.00  0.00    -0.354 N 
ATOM      4  C   UNL A   1      30.816  26.001  25.859  1.00  0.00     0.249 C 
ATOM      5  O   UNL A   1      29.762  25.936  26.501  1.00  0.00    -0.272 OA
ATOM      6  H   UNL A   1      30.525  27.943  25.545  1.00  0.00     0.163 HD
BRANCH   4   7
ATOM      7  C   UNL A   1      31.636  24.711  25.583  1.00  0.00     0.207 C 
ATOM      8  C   UNL A   1      31.175  22.741  24.383  1.00  0.00     0.138 C 
ATOM      9  C   UNL A   1      30.747  22.493  25.820  1.00  0.00     0.037 C 
ATOM     10  O   UNL A   1      31.579  24.119  24.287  1.00  0.00    -0.363 OA
ATOM     11  C   UNL A   1      31.362  23.622  26.606  1.00  0.00     0.045 C 
BRANCH   8  12
ATOM     12  C   UNL A   1      32.297  21.788  23.929  1.00  0.00     0.149 C 
BRANCH  12  13
ATOM     13  N   UNL A   1      32.153  20.475  24.549  1.00  0.00    -0.336 N 
ATOM     14  N   UNL A   1      34.275  19.826  25.371  1.00  0.00    -0.335 N 
ATOM     15  C   UNL A   1      32.989  19.588  25.095  1.00  0.00     0.315 C 
ATOM     16  H   UNL A   1      34.769  19.020  25.645  1.00  0.00     0.165 HD
ATOM     17  O   UNL A   1      32.536  18.475  25.376  1.00  0.00    -0.249 OA
ATOM     18  H   UNL A   1      31.217  20.172  24.572  1.00  0.00     0.165 HD
BRANCH  14  19
ATOM     19  C   UNL A   1      35.103  21.028  25.354  1.00  0.00     0.083 C 
BRANCH  19  20
ATOM     20  C   UNL A   1      34.877  21.827  26.652  1.00  0.00     0.021 C 
ATOM     21  C   UNL A   1      35.001  23.331  26.463  1.00  0.00     0.006 C 
ENDBRANCH  19  20
BRANCH  19  22
ATOM     22  C   UNL A   1      36.577  20.669  25.079  1.00  0.00     0.021 C 
ATOM     23  C   UNL A   1      37.363  21.678  24.251  1.00  0.00     0.006 C 
ENDBRANCH  19  22
ENDBRANCH  14  19
ENDBRANCH  12  13
ENDBRANCH   8  12
ENDBRANCH   4   7
ENDBRANCH   2   3
ENDBRANCH   1   2
BRANCH   1  24
ATOM     24  C   UNL A   1      31.514  29.975  25.261  1.00  0.00     0.023 C 
BRANCH  24  25
ATOM     25  C   UNL A   1      32.253  30.458  26.502  1.00  0.00     0.116 C 
BRANCH  25  26
ATOM     26  N   UNL A   1      32.060  31.870  26.795  1.00  0.00    -0.352 N 
ATOM     27  C   UNL A   1      32.903  32.721  27.480  1.00  0.00     0.251 C 
ATOM     28  H   UNL A   1      31.224  32.269  26.463  1.00  0.00     0.163 HD
ATOM     29  O   UNL A   1      32.561  33.869  27.719  1.00  0.00    -0.269 OA
BRANCH  27  30
ATOM     30  C   UNL A   1      34.199  32.197  27.967  1.00  0.00     0.039 A 
ATOM     31  C   UNL A   1      35.270  33.079  28.113  1.00  0.00     0.014 A 
ATOM     32  C   UNL A   1      34.322  30.860  28.352  1.00  0.00     0.014 A 
ATOM     33  C   UNL A   1      36.442  32.639  28.734  1.00  0.00     0.010 A 
ATOM     34  C   UNL A   1      35.457  30.446  29.040  1.00  0.00     0.010 A 
ATOM     35  C   UNL A   1      36.525  31.334  29.246  1.00  0.00    -0.014 A 
BRANCH  35  36
ATOM     36  C   UNL A   1      37.713  30.872  30.008  1.00  0.00     0.031 A 
ATOM     37  C   UNL A   1      38.679  29.911  29.372  1.00  0.00     0.074 A 
ATOM     38  C   UNL A   1      37.871  31.245  31.294  1.00  0.00     0.049 A 
ATOM     39  N   UNL A   1      39.709  29.301  29.899  1.00  0.00    -0.248 NA
ATOM     40  C   UNL A   1      38.427  29.562  27.966  1.00  0.00     0.031 C 
ATOM     41  C   UNL A   1      36.969  32.132  32.034  1.00  0.00     0.029 A 
ATOM     42  N   UNL A   1      38.836  30.916  32.211  1.00  0.00    -0.354 N 
ATOM     43  C   UNL A   1      40.215  28.481  28.897  1.00  0.00     0.074 A 
ATOM     44  C   UNL A   1      39.339  28.627  27.753  1.00  0.00     0.031 C 
ATOM     45  C   UNL A   1      37.436  32.290  33.283  1.00  0.00     0.029 A 
ATOM     46  C   UNL A   1      38.642  31.486  33.449  1.00  0.00     0.049 A 
ATOM     47  H   UNL A   1      39.596  30.326  32.004  1.00  0.00     0.167 HD
ATOM     48  C   UNL A   1      41.323  27.699  28.919  1.00  0.00     0.034 A 
ATOM     49  C   UNL A   1      39.349  31.363  34.589  1.00  0.00     0.034 A 
ATOM     50  C   UNL A   1      42.197  27.583  30.061  1.00  0.00     0.049 A 
ATOM     51  C   UNL A   1      40.576  30.487  34.592  1.00  0.00     0.074 A 
ATOM     52  C   UNL A   1      43.378  26.871  30.175  1.00  0.00     0.029 A 
ATOM     53  N   UNL A   1      41.981  28.194  31.290  1.00  0.00    -0.354 N 
ATOM     54  N   UNL A   1      41.072  29.758  33.620  1.00  0.00    -0.248 NA
ATOM     55  C   UNL A   1      41.342  30.425  35.844  1.00  0.00     0.031 C 
ATOM     56  C   UNL A   1      43.846  27.006  31.487  1.00  0.00     0.029 A 
ATOM     57  C   UNL A   1      42.994  27.855  32.175  1.00  0.00     0.049 A 
ATOM     58  H   UNL A   1      41.220  28.782  31.502  1.00  0.00     0.167 HD
ATOM     59  C   UNL A   1      42.226  29.175  34.134  1.00  0.00     0.074 A 
ATOM     60  C   UNL A   1      42.357  29.646  35.498  1.00  0.00     0.031 C 
ATOM     61  C   UNL A   1      43.102  28.328  33.534  1.00  0.00     0.034 A 
BRANCH  48  62
ATOM     62  C   UNL A   1      41.629  26.896  27.677  1.00  0.00     0.023 A 
ATOM     63  C   UNL A   1      41.311  25.529  27.587  1.00  0.00     0.031 A 
ATOM     64  C   UNL A   1      42.283  27.492  26.585  1.00  0.00     0.131 A 
ATOM     65  C   UNL A   1      41.724  24.785  26.472  1.00  0.00     0.055 A 
ATOM     66  C   UNL A   1      42.616  26.764  25.441  1.00  0.00     0.041 A 
ATOM     67  F   UNL A   1      42.630  28.789  26.620  1.00  0.00    -0.206 F 
ATOM     68  C   UNL A   1      42.351  25.399  25.386  1.00  0.00     0.022 A 
BRANCH  65  69
ATOM     69  S   UNL A   1      41.563  22.980  26.531  1.00  0.00     0.124 S 
ATOM     70  O   UNL A   1      42.224  22.668  27.797  1.00  0.00    -0.237 OA
ATOM     71  O   UNL A   1      40.118  22.790  26.500  1.00  0.00    -0.237 OA
ATOM     72  O   UNL A   1      42.278  22.533  25.337  1.00  0.00    -0.744 OA
ENDBRANCH  65  69
ENDBRANCH  48  62
BRANCH  49  73
ATOM     73  C   UNL A   1      38.922  32.078  35.826  1.00  0.00     0.023 A 
ATOM     74  C   UNL A   1      38.214  31.410  36.836  1.00  0.00     0.031 A 
ATOM     75  C   UNL A   1      39.183  33.449  35.997  1.00  0.00     0.131 A 
ATOM     76  C   UNL A   1      37.749  32.122  37.953  1.00  0.00     0.055 A 
ATOM     77  C   UNL A   1      38.761  34.143  37.133  1.00  0.00     0.041 A 
ATOM     78  F   UNL A   1      39.865  34.133  35.064  1.00  0.00    -0.206 F 
ATOM     79  C   UNL A   1      38.028  33.482  38.113  1.00  0.00     0.022 A 
BRANCH  76  80
ATOM     80  S   UNL A   1      36.707  31.260  39.161  1.00  0.00     0.124 S 
ATOM     81  O   UNL A   1      35.556  32.152  39.251  1.00  0.00    -0.237 OA
ATOM     82  O   UNL A   1      36.477  29.979  38.501  1.00  0.00    -0.237 OA
ATOM     83  O   UNL A   1      37.546  31.202  40.355  1.00  0.00    -0.744 OA
ENDBRANCH  76  80
ENDBRANCH  49  73
BRANCH  61  84
ATOM     84  C   UNL A   1      44.301  27.901  34.343  1.00  0.00     0.023 A 
ATOM     85  C   UNL A   1      44.250  26.800  35.215  1.00  0.00     0.031 A 
ATOM     86  C   UNL A   1      45.509  28.613  34.243  1.00  0.00     0.131 A 
ATOM     87  C   UNL A   1      45.371  26.473  35.992  1.00  0.00     0.055 A 
ATOM     88  C   UNL A   1      46.638  28.250  34.976  1.00  0.00     0.041 A 
ATOM     89  F   UNL A   1      45.611  29.674  33.424  1.00  0.00    -0.206 F 
ATOM     90  C   UNL A   1      46.569  27.181  35.866  1.00  0.00     0.022 A 
BRANCH  87  91
ATOM     91  S   UNL A   1      45.220  25.155  37.228  1.00  0.00     0.124 S 
ATOM     92  O   UNL A   1      46.100  24.126  36.684  1.00  0.00    -0.237 OA
ATOM     93  O   UNL A   1      45.686  25.813  38.445  1.00  0.00    -0.237 OA
ATOM     94  O   UNL A   1      43.795  24.828  37.209  1.00  0.00    -0.744 OA
ENDBRANCH  87  91
ENDBRANCH  61  84
ENDBRANCH  35  36
ENDBRANCH  27  30
ENDBRANCH  25  26
ENDBRANCH  24  25
ENDBRANCH   1  24
TORSDOF 19
ENDMDL
MODEL 3
REMARK VINA RESULT:     -11.1      5.750     11.144
REMARK SMILES CCC(CC)NC(=O)NC[C@H]1CC[C@H](C(=O)NCCCCNC(=O)c2ccc(-c3c4nc(c(-c5cc(S(=O)(=O)[O-])ccc5F)c5ccc([nH]5)c(-c5cc(S(=O)(=O)[O-])ccc5F)c5nc(c(-c6cc(S(=O)(=O)[O-])ccc6F)c6ccc3[nH]6)C=C5)C=C4)cc2)O1
REMARK SMILES IDX 19 1 18 2 17 3 15 4 16 5 14 7 11 8 12 9 88 10 13 11 10 12
REMARK SMILES IDX 9 13 6 14 7 15 8 17 3 19 2 20 1 21 4 22 5 23 20 24 21 25
REMARK SMILES IDX 22 26 23 27 24 29 25 30 26 31 87 32 27 33 86 34 28 35 29 36
REMARK SMILES IDX 30 37 80 38 31 39 85 40 79 41 81 42 32 43 84 44 78 45 77 46
REMARK SMILES IDX 33 48 65 49 45 50 64 51 46 52 49 53 63 54 82 55 47 56 48 57
REMARK SMILES IDX 62 59 83 60 50 61 34 62 35 63 43 64 36 65 42 66 44 67 41 68
REMARK SMILES IDX 37 69 38 70 39 71 40 72 66 73 67 74 75 75 68 76 74 77 76 78
REMARK SMILES IDX 73 79 69 80 70 81 71 82 72 83 51 84 52 85 60 86 53 87 59 88
REMARK SMILES IDX 61 89 58 90 54 91 55 92 56 93 57 94
REMARK H PARENT 17 6 6 16 9 18 22 28 81 47 49 58
REMARK Flexibility Score: inf
ROOT
ATOM      1  C   UNL A   1      35.108  20.303  25.011  1.00  0.00     0.023 C 
ENDROOT
BRANCH   1   2
ATOM      2  C   UNL A   1      33.630  20.369  25.391  1.00  0.00     0.116 C 
BRANCH   2   3
ATOM      3  N   UNL A   1      33.436  20.957  26.698  1.00  0.00    -0.354 N 
ATOM      4  C   UNL A   1      32.889  22.154  27.051  1.00  0.00     0.249 C 
ATOM      5  O   UNL A   1      32.821  22.410  28.259  1.00  0.00    -0.272 OA
ATOM      6  H   UNL A   1      33.747  20.406  27.452  1.00  0.00     0.163 HD
BRANCH   4   7
ATOM      7  C   UNL A   1      32.437  23.213  26.009  1.00  0.00     0.207 C 
ATOM      8  C   UNL A   1      33.525  24.254  24.202  1.00  0.00     0.138 C 
ATOM      9  C   UNL A   1      33.742  25.139  25.417  1.00  0.00     0.037 C 
ATOM     10  O   UNL A   1      32.847  23.066  24.651  1.00  0.00    -0.363 OA
ATOM     11  C   UNL A   1      32.765  24.630  26.445  1.00  0.00     0.045 C 
BRANCH   8  12
ATOM     12  C   UNL A   1      32.739  24.967  23.084  1.00  0.00     0.149 C 
BRANCH  12  13
ATOM     13  N   UNL A   1      33.512  26.068  22.520  1.00  0.00    -0.336 N 
ATOM     14  N   UNL A   1      32.450  28.090  23.136  1.00  0.00    -0.335 N 
ATOM     15  C   UNL A   1      33.368  27.394  22.459  1.00  0.00     0.315 C 
ATOM     16  H   UNL A   1      32.403  29.036  22.867  1.00  0.00     0.165 HD
ATOM     17  O   UNL A   1      34.148  28.020  21.735  1.00  0.00    -0.249 OA
ATOM     18  H   UNL A   1      34.338  25.760  22.080  1.00  0.00     0.165 HD
BRANCH  14  19
ATOM     19  C   UNL A   1      31.501  27.747  24.191  1.00  0.00     0.083 C 
BRANCH  19  20
ATOM     20  C   UNL A   1      31.561  28.811  25.303  1.00  0.00     0.021 C 
ATOM     21  C   UNL A   1      32.767  28.661  26.217  1.00  0.00     0.006 C 
ENDBRANCH  19  20
BRANCH  19  22
ATOM     22  C   UNL A   1      30.093  27.521  23.603  1.00  0.00     0.021 C 
ATOM     23  C   UNL A   1      29.596  28.593  22.641  1.00  0.00     0.006 C 
ENDBRANCH  19  22
ENDBRANCH  14  19
ENDBRANCH  12  13
ENDBRANCH   8  12
ENDBRANCH   4   7
ENDBRANCH   2   3
ENDBRANCH   1   2
BRANCH   1  24
ATOM     24  C   UNL A   1      36.011  21.319  25.703  1.00  0.00     0.023 C 
BRANCH  24  25
ATOM     25  C   UNL A   1      37.395  21.486  25.089  1.00  0.00     0.116 C 
BRANCH  25  26
ATOM     26  N   UNL A   1      38.322  20.413  25.418  1.00  0.00    -0.352 N 
ATOM     27  C   UNL A   1      39.521  20.501  26.095  1.00  0.00     0.251 C 
ATOM     28  H   UNL A   1      38.061  19.512  25.120  1.00  0.00     0.163 HD
ATOM     29  O   UNL A   1      40.232  19.515  26.221  1.00  0.00    -0.269 OA
BRANCH  27  30
ATOM     30  C   UNL A   1      39.951  21.819  26.611  1.00  0.00     0.039 A 
ATOM     31  C   UNL A   1      40.913  21.867  27.622  1.00  0.00     0.014 A 
ATOM     32  C   UNL A   1      39.463  22.996  26.039  1.00  0.00     0.014 A 
ATOM     33  C   UNL A   1      41.455  23.099  27.996  1.00  0.00     0.010 A 
ATOM     34  C   UNL A   1      40.060  24.211  26.357  1.00  0.00     0.010 A 
ATOM     35  C   UNL A   1      41.068  24.273  27.331  1.00  0.00    -0.014 A 
BRANCH  35  36
ATOM     36  C   UNL A   1      41.706  25.581  27.630  1.00  0.00     0.031 A 
ATOM     37  C   UNL A   1      40.947  26.622  28.407  1.00  0.00     0.074 A 
ATOM     38  C   UNL A   1      42.925  25.862  27.127  1.00  0.00     0.049 A 
ATOM     39  N   UNL A   1      41.275  27.859  28.674  1.00  0.00    -0.248 NA
ATOM     40  C   UNL A   1      39.626  26.224  28.917  1.00  0.00     0.031 C 
ATOM     41  C   UNL A   1      43.735  24.951  26.313  1.00  0.00     0.029 A 
ATOM     42  N   UNL A   1      43.690  26.997  27.211  1.00  0.00    -0.354 N 
ATOM     43  C   UNL A   1      40.194  28.395  29.365  1.00  0.00     0.074 A 
ATOM     44  C   UNL A   1      39.178  27.364  29.418  1.00  0.00     0.031 C 
ATOM     45  C   UNL A   1      44.889  25.557  25.992  1.00  0.00     0.029 A 
ATOM     46  C   UNL A   1      44.887  26.910  26.537  1.00  0.00     0.049 A 
ATOM     47  H   UNL A   1      43.409  27.800  27.708  1.00  0.00     0.167 HD
ATOM     48  C   UNL A   1      40.070  29.623  29.926  1.00  0.00     0.034 A 
ATOM     49  C   UNL A   1      45.864  27.823  26.368  1.00  0.00     0.034 A 
ATOM     50  C   UNL A   1      41.103  30.630  29.882  1.00  0.00     0.049 A 
ATOM     51  C   UNL A   1      45.705  29.183  26.998  1.00  0.00     0.074 A 
ATOM     52  C   UNL A   1      41.111  31.883  30.468  1.00  0.00     0.029 A 
ATOM     53  N   UNL A   1      42.311  30.497  29.210  1.00  0.00    -0.354 N 
ATOM     54  N   UNL A   1      44.698  29.657  27.693  1.00  0.00    -0.248 NA
ATOM     55  C   UNL A   1      46.818  30.126  26.828  1.00  0.00     0.031 C 
ATOM     56  C   UNL A   1      42.298  32.529  30.104  1.00  0.00     0.029 A 
ATOM     57  C   UNL A   1      43.061  31.655  29.346  1.00  0.00     0.049 A 
ATOM     58  H   UNL A   1      42.594  29.698  28.710  1.00  0.00     0.167 HD
ATOM     59  C   UNL A   1      45.070  30.945  28.070  1.00  0.00     0.074 A 
ATOM     60  C   UNL A   1      46.398  31.167  27.533  1.00  0.00     0.031 C 
ATOM     61  C   UNL A   1      44.380  31.862  28.796  1.00  0.00     0.034 A 
BRANCH  48  62
ATOM     62  C   UNL A   1      38.763  29.942  30.611  1.00  0.00     0.023 A 
ATOM     63  C   UNL A   1      37.759  30.691  29.970  1.00  0.00     0.031 A 
ATOM     64  C   UNL A   1      38.530  29.531  31.935  1.00  0.00     0.131 A 
ATOM     65  C   UNL A   1      36.613  31.079  30.678  1.00  0.00     0.055 A 
ATOM     66  C   UNL A   1      37.349  29.848  32.607  1.00  0.00     0.041 A 
ATOM     67  F   UNL A   1      39.459  28.831  32.606  1.00  0.00    -0.206 F 
ATOM     68  C   UNL A   1      36.388  30.640  31.985  1.00  0.00     0.022 A 
BRANCH  65  69
ATOM     69  S   UNL A   1      35.495  32.286  29.917  1.00  0.00     0.124 S 
ATOM     70  O   UNL A   1      36.363  33.457  29.802  1.00  0.00    -0.237 OA
ATOM     71  O   UNL A   1      35.129  31.635  28.665  1.00  0.00    -0.237 OA
ATOM     72  O   UNL A   1      34.414  32.415  30.893  1.00  0.00    -0.744 OA
ENDBRANCH  65  69
ENDBRANCH  48  62
BRANCH  49  73
ATOM     73  C   UNL A   1      47.077  27.493  25.566  1.00  0.00     0.023 A 
ATOM     74  C   UNL A   1      47.166  27.850  24.212  1.00  0.00     0.031 A 
ATOM     75  C   UNL A   1      48.150  26.784  26.134  1.00  0.00     0.131 A 
ATOM     76  C   UNL A   1      48.281  27.457  23.456  1.00  0.00     0.055 A 
ATOM     77  C   UNL A   1      49.280  26.436  25.391  1.00  0.00     0.041 A 
ATOM     78  F   UNL A   1      48.119  26.426  27.428  1.00  0.00    -0.206 F 
ATOM     79  C   UNL A   1      49.343  26.761  24.039  1.00  0.00     0.022 A 
BRANCH  76  80
ATOM     80  S   UNL A   1      48.289  27.801  21.675  1.00  0.00     0.124 S 
ATOM     81  O   UNL A   1      46.940  28.317  21.467  1.00  0.00    -0.237 OA
ATOM     82  O   UNL A   1      49.373  28.770  21.560  1.00  0.00    -0.237 OA
ATOM     83  O   UNL A   1      48.556  26.494  21.078  1.00  0.00    -0.744 OA
ENDBRANCH  76  80
ENDBRANCH  49  73
BRANCH  61  84
ATOM     84  C   UNL A   1      45.076  33.166  29.086  1.00  0.00     0.023 A 
ATOM     85  C   UNL A   1      44.832  34.321  28.323  1.00  0.00     0.031 A 
ATOM     86  C   UNL A   1      46.004  33.251  30.139  1.00  0.00     0.131 A 
ATOM     87  C   UNL A   1      45.545  35.499  28.591  1.00  0.00     0.055 A 
ATOM     88  C   UNL A   1      46.671  34.440  30.436  1.00  0.00     0.041 A 
ATOM     89  F   UNL A   1      46.276  32.176  30.898  1.00  0.00    -0.206 F 
ATOM     90  C   UNL A   1      46.451  35.569  29.652  1.00  0.00     0.022 A 
BRANCH  87  91
ATOM     91  S   UNL A   1      45.331  36.918  27.484  1.00  0.00     0.124 S 
ATOM     92  O   UNL A   1      44.116  36.558  26.759  1.00  0.00    -0.237 OA
ATOM     93  O   UNL A   1      45.207  38.031  28.420  1.00  0.00    -0.237 OA
ATOM     94  O   UNL A   1      46.555  36.917  26.684  1.00  0.00    -0.744 OA
ENDBRANCH  87  91
ENDBRANCH  61  84
ENDBRANCH  35  36
ENDBRANCH  27  30
ENDBRANCH  25  26
ENDBRANCH  24  25
ENDBRANCH   1  24
TORSDOF 19
ENDMDL
