MODEL 1
REMARK VINA RESULT:     -13.0      0.000      0.000
REMARK SMILES CC(C)(C)c1ccc(C(=O)N/C(=C/c2ccc(O)cc2)C(=O)NCCCCNC(=O)c2ccc(-c3c4nc(c(-c5cc(S(=O)(=O)[O-])ccc5F)c5ccc([nH]5)c(-c5cc(S(=O)(=O)[O-])ccc5F)c5nc(c(-c6cc(S(=O)(=O)[O-])ccc6F)c6ccc3[nH]6)C=C5)C=C4)cc2)cc1
REMARK SMILES IDX 25 1 24 2 23 3 21 4 22 5 12 7 13 8 11 9 9 10 10 11 8 13 5 14
REMARK SMILES IDX 6 15 95 16 7 17 94 18 2 19 1 20 3 21 4 22 14 23 15 24 20 25
REMARK SMILES IDX 16 26 19 27 17 28 18 29 26 31 27 32 28 33 29 34 30 36 31 37
REMARK SMILES IDX 32 38 93 39 33 40 92 41 34 42 35 43 36 44 86 45 37 46 91 47
REMARK SMILES IDX 85 48 87 49 38 50 90 51 84 52 83 53 39 55 71 56 51 57 70 58
REMARK SMILES IDX 52 59 55 60 69 61 88 62 53 63 54 64 68 66 89 67 56 68 40 69
REMARK SMILES IDX 41 70 49 71 42 72 48 73 50 74 47 75 43 76 44 77 45 78 46 79
REMARK SMILES IDX 72 80 73 81 81 82 74 83 80 84 82 85 79 86 75 87 76 88 77 89
REMARK SMILES IDX 78 90 57 91 58 92 66 93 59 94 65 95 67 96 64 97 60 98 61 99
REMARK SMILES IDX 62 100 63 101
REMARK H PARENT 23 6 11 12 18 30 28 35 87 54 55 65
REMARK Flexibility Score: inf
ROOT
ATOM      1  C   UNL A   1      33.710  28.690  25.100  1.00  0.00     0.023 C 
ENDROOT
BRANCH   1   2
ATOM      2  C   UNL A   1      33.138  27.281  24.981  1.00  0.00     0.116 C 
BRANCH   2   3
ATOM      3  N   UNL A   1      32.570  26.771  26.203  1.00  0.00    -0.351 N 
ATOM      4  C   UNL A   1      31.237  26.731  26.494  1.00  0.00     0.267 C 
ATOM      5  O   UNL A   1      30.881  27.259  27.553  1.00  0.00    -0.268 OA
ATOM      6  H   UNL A   1      33.192  26.424  26.883  1.00  0.00     0.163 HD
BRANCH   4   7
ATOM      7  C   UNL A   1      30.216  25.912  25.692  1.00  0.00     0.107 C 
ATOM      8  C   UNL A   1      29.510  26.216  24.579  1.00  0.00     0.040 C 
BRANCH   7   9
ATOM      9  N   UNL A   1      29.898  24.665  26.237  1.00  0.00    -0.317 N 
ATOM     10  C   UNL A   1      30.698  23.624  26.669  1.00  0.00     0.255 C 
ATOM     11  O   UNL A   1      30.203  22.739  27.369  1.00  0.00    -0.269 OA
ATOM     12  H   UNL A   1      28.933  24.498  26.329  1.00  0.00     0.170 HD
BRANCH  10  13
ATOM     13  C   UNL A   1      32.098  23.466  26.191  1.00  0.00     0.040 A 
ATOM     14  C   UNL A   1      34.734  23.099  25.208  1.00  0.00    -0.043 A 
ATOM     15  C   UNL A   1      33.647  23.279  24.335  1.00  0.00     0.005 A 
ATOM     16  C   UNL A   1      34.468  23.162  26.589  1.00  0.00     0.005 A 
ATOM     17  C   UNL A   1      32.346  23.463  24.818  1.00  0.00     0.014 A 
ATOM     18  C   UNL A   1      33.175  23.373  27.076  1.00  0.00     0.014 A 
BRANCH  14  19
ATOM     19  C   UNL A   1      36.152  22.772  24.706  1.00  0.00    -0.013 C 
ATOM     20  C   UNL A   1      36.316  22.919  23.176  1.00  0.00     0.016 C 
ATOM     21  C   UNL A   1      36.464  21.307  25.077  1.00  0.00     0.016 C 
ATOM     22  C   UNL A   1      37.210  23.692  25.357  1.00  0.00     0.016 C 
ENDBRANCH  14  19
ENDBRANCH  10  13
ENDBRANCH   7   9
BRANCH   8  23
ATOM     23  C   UNL A   1      29.573  27.338  23.646  1.00  0.00    -0.023 A 
ATOM     24  C   UNL A   1      28.463  28.150  23.392  1.00  0.00     0.012 A 
ATOM     25  C   UNL A   1      30.790  27.606  22.997  1.00  0.00     0.012 A 
ATOM     26  C   UNL A   1      28.604  29.282  22.584  1.00  0.00     0.047 A 
ATOM     27  C   UNL A   1      30.928  28.738  22.188  1.00  0.00     0.047 A 
ATOM     28  C   UNL A   1      29.840  29.584  22.017  1.00  0.00     0.115 A 
BRANCH  28  29
ATOM     29  O   UNL A   1      29.938  30.741  21.307  1.00  0.00    -0.508 OA
ATOM     30  H   UNL A   1      29.785  30.737  20.382  1.00  0.00     0.293 HD
ENDBRANCH  28  29
ENDBRANCH   8  23
ENDBRANCH   4   7
ENDBRANCH   2   3
ENDBRANCH   1   2
BRANCH   1  31
ATOM     31  C   UNL A   1      32.696  29.791  25.381  1.00  0.00     0.023 C 
BRANCH  31  32
ATOM     32  C   UNL A   1      32.491  30.161  26.847  1.00  0.00     0.116 C 
BRANCH  32  33
ATOM     33  N   UNL A   1      32.476  31.594  27.129  1.00  0.00    -0.352 N 
ATOM     34  C   UNL A   1      33.522  32.376  27.572  1.00  0.00     0.251 C 
ATOM     35  H   UNL A   1      31.618  32.055  26.989  1.00  0.00     0.163 HD
ATOM     36  O   UNL A   1      33.406  33.594  27.654  1.00  0.00    -0.269 OA
BRANCH  34  37
ATOM     37  C   UNL A   1      34.779  31.699  27.951  1.00  0.00     0.039 A 
ATOM     38  C   UNL A   1      35.955  32.444  28.067  1.00  0.00     0.014 A 
ATOM     39  C   UNL A   1      34.732  30.365  28.359  1.00  0.00     0.014 A 
ATOM     40  C   UNL A   1      37.066  31.876  28.699  1.00  0.00     0.010 A 
ATOM     41  C   UNL A   1      35.812  29.831  29.050  1.00  0.00     0.010 A 
ATOM     42  C   UNL A   1      36.979  30.588  29.252  1.00  0.00    -0.014 A 
BRANCH  42  43
ATOM     43  C   UNL A   1      38.069  30.004  30.082  1.00  0.00     0.031 A 
ATOM     44  C   UNL A   1      38.280  30.509  31.480  1.00  0.00     0.074 A 
ATOM     45  C   UNL A   1      38.941  29.133  29.535  1.00  0.00     0.049 A 
ATOM     46  N   UNL A   1      39.288  30.316  32.291  1.00  0.00    -0.248 NA
ATOM     47  C   UNL A   1      37.232  31.390  32.016  1.00  0.00     0.031 C 
ATOM     48  C   UNL A   1      38.864  28.594  28.175  1.00  0.00     0.029 A 
ATOM     49  N   UNL A   1      40.084  28.567  30.046  1.00  0.00    -0.354 N 
ATOM     50  C   UNL A   1      39.013  31.080  33.420  1.00  0.00     0.074 A 
ATOM     51  C   UNL A   1      37.768  31.775  33.163  1.00  0.00     0.031 C 
ATOM     52  C   UNL A   1      39.906  27.773  27.964  1.00  0.00     0.029 A 
ATOM     53  C   UNL A   1      40.756  27.766  29.151  1.00  0.00     0.049 A 
ATOM     54  H   UNL A   1      40.393  28.720  30.968  1.00  0.00     0.167 HD
ATOM     55  C   UNL A   1      39.726  31.180  34.570  1.00  0.00     0.034 A 
ATOM     56  C   UNL A   1      41.934  27.120  29.262  1.00  0.00     0.034 A 
ATOM     57  C   UNL A   1      40.952  30.460  34.815  1.00  0.00     0.049 A 
ATOM     58  C   UNL A   1      42.709  27.239  30.551  1.00  0.00     0.074 A 
ATOM     59  C   UNL A   1      41.736  30.452  35.955  1.00  0.00     0.029 A 
ATOM     60  N   UNL A   1      41.570  29.614  33.902  1.00  0.00    -0.354 N 
ATOM     61  N   UNL A   1      42.427  27.949  31.619  1.00  0.00    -0.248 NA
ATOM     62  C   UNL A   1      43.954  26.465  30.655  1.00  0.00     0.031 C 
ATOM     63  C   UNL A   1      42.851  29.641  35.715  1.00  0.00     0.029 A 
ATOM     64  C   UNL A   1      42.730  29.091  34.448  1.00  0.00     0.049 A 
ATOM     65  H   UNL A   1      41.232  29.415  32.999  1.00  0.00     0.167 HD
ATOM     66  C   UNL A   1      43.439  27.675  32.535  1.00  0.00     0.074 A 
ATOM     67  C   UNL A   1      44.338  26.738  31.894  1.00  0.00     0.031 C 
ATOM     68  C   UNL A   1      43.605  28.146  33.796  1.00  0.00     0.034 A 
BRANCH  55  69
ATOM     69  C   UNL A   1      39.205  32.125  35.625  1.00  0.00     0.023 A 
ATOM     70  C   UNL A   1      39.601  33.473  35.664  1.00  0.00     0.031 A 
ATOM     71  C   UNL A   1      38.344  31.664  36.636  1.00  0.00     0.131 A 
ATOM     72  C   UNL A   1      39.215  34.286  36.741  1.00  0.00     0.055 A 
ATOM     73  C   UNL A   1      37.890  32.502  37.656  1.00  0.00     0.041 A 
ATOM     74  F   UNL A   1      37.948  30.382  36.664  1.00  0.00    -0.206 F 
ATOM     75  C   UNL A   1      38.342  33.818  37.724  1.00  0.00     0.022 A 
BRANCH  72  76
ATOM     76  S   UNL A   1      40.006  35.907  36.922  1.00  0.00     0.124 S 
ATOM     77  O   UNL A   1      41.412  35.532  37.069  1.00  0.00    -0.237 OA
ATOM     78  O   UNL A   1      39.651  36.574  35.675  1.00  0.00    -0.237 OA
ATOM     79  O   UNL A   1      39.387  36.459  38.125  1.00  0.00    -0.744 OA
ENDBRANCH  72  76
ENDBRANCH  55  69
BRANCH  56  80
ATOM     80  C   UNL A   1      42.467  26.314  28.128  1.00  0.00     0.023 A 
ATOM     81  C   UNL A   1      41.974  25.027  27.864  1.00  0.00     0.031 A 
ATOM     82  C   UNL A   1      43.503  26.804  27.311  1.00  0.00     0.131 A 
ATOM     83  C   UNL A   1      42.543  24.255  26.838  1.00  0.00     0.055 A 
ATOM     84  C   UNL A   1      44.033  26.050  26.261  1.00  0.00     0.041 A 
ATOM     85  F   UNL A   1      44.005  28.032  27.514  1.00  0.00    -0.206 F 
ATOM     86  C   UNL A   1      43.561  24.763  26.028  1.00  0.00     0.022 A 
BRANCH  83  87
ATOM     87  S   UNL A   1      41.981  22.543  26.626  1.00  0.00     0.124 S 
ATOM     88  O   UNL A   1      42.578  21.890  27.786  1.00  0.00    -0.237 OA
ATOM     89  O   UNL A   1      40.530  22.697  26.652  1.00  0.00    -0.237 OA
ATOM     90  O   UNL A   1      42.542  22.158  25.333  1.00  0.00    -0.744 OA
ENDBRANCH  83  87
ENDBRANCH  56  80
BRANCH  68  91
ATOM     91  C   UNL A   1      44.760  27.597  34.591  1.00  0.00     0.023 A 
ATOM     92  C   UNL A   1      44.663  26.398  35.314  1.00  0.00     0.031 A 
ATOM     93  C   UNL A   1      45.987  28.286  34.601  1.00  0.00     0.131 A 
ATOM     94  C   UNL A   1      45.767  25.939  36.049  1.00  0.00     0.055 A 
ATOM     95  C   UNL A   1      47.093  27.800  35.297  1.00  0.00     0.041 A 
ATOM     96  F   UNL A   1      46.129  29.436  33.924  1.00  0.00    -0.206 F 
ATOM     97  C   UNL A   1      46.984  26.624  36.032  1.00  0.00     0.022 A 
BRANCH  94  98
ATOM     98  S   UNL A   1      45.579  24.450  37.069  1.00  0.00     0.124 S 
ATOM     99  O   UNL A   1      44.698  23.627  36.246  1.00  0.00    -0.237 OA
ATOM    100  O   UNL A   1      46.955  23.981  37.195  1.00  0.00    -0.237 OA
ATOM    101  O   UNL A   1      44.982  24.954  38.305  1.00  0.00    -0.744 OA
ENDBRANCH  94  98
ENDBRANCH  68  91
ENDBRANCH  42  43
ENDBRANCH  34  37
ENDBRANCH  32  33
ENDBRANCH  31  32
ENDBRANCH   1  31
TORSDOF 19
ENDMDL
MODEL 2
REMARK VINA RESULT:     -12.8      2.342      3.024
REMARK SMILES CC(C)(C)c1ccc(C(=O)N/C(=C/c2ccc(O)cc2)C(=O)NCCCCNC(=O)c2ccc(-c3c4nc(c(-c5cc(S(=O)(=O)[O-])ccc5F)c5ccc([nH]5)c(-c5cc(S(=O)(=O)[O-])ccc5F)c5nc(c(-c6cc(S(=O)(=O)[O-])ccc6F)c6ccc3[nH]6)C=C5)C=C4)cc2)cc1
REMARK SMILES IDX 25 1 24 2 23 3 21 4 22 5 12 7 13 8 11 9 9 10 10 11 8 13 5 14
REMARK SMILES IDX 6 15 95 16 7 17 94 18 2 19 1 20 3 21 4 22 14 23 15 24 20 25
REMARK SMILES IDX 16 26 19 27 17 28 18 29 26 31 27 32 28 33 29 34 30 36 31 37
REMARK SMILES IDX 32 38 93 39 33 40 92 41 34 42 35 43 36 44 86 45 37 46 91 47
REMARK SMILES IDX 85 48 87 49 38 50 90 51 84 52 83 53 39 55 71 56 51 57 70 58
REMARK SMILES IDX 52 59 55 60 69 61 88 62 53 63 54 64 68 66 89 67 56 68 40 69
REMARK SMILES IDX 41 70 49 71 42 72 48 73 50 74 47 75 43 76 44 77 45 78 46 79
REMARK SMILES IDX 72 80 73 81 81 82 74 83 80 84 82 85 79 86 75 87 76 88 77 89
REMARK SMILES IDX 78 90 57 91 58 92 66 93 59 94 65 95 67 96 64 97 60 98 61 99
REMARK SMILES IDX 62 100 63 101
REMARK H PARENT 23 6 11 12 18 30 28 35 87 54 55 65
REMARK Flexibility Score: inf
ROOT
ATOM      1  C   UNL A   1      33.812  28.453  25.117  1.00  0.00     0.023 C 
ENDROOT
BRANCH   1   2
ATOM      2  C   UNL A   1      33.290  27.019  25.101  1.00  0.00     0.116 C 
BRANCH   2   3
ATOM      3  N   UNL A   1      32.672  26.604  26.335  1.00  0.00    -0.351 N 
ATOM      4  C   UNL A   1      31.331  26.629  26.589  1.00  0.00     0.267 C 
ATOM      5  O   UNL A   1      30.966  27.232  27.604  1.00  0.00    -0.268 OA
ATOM      6  H   UNL A   1      33.262  26.278  27.052  1.00  0.00     0.163 HD
BRANCH   4   7
ATOM      7  C   UNL A   1      30.302  25.800  25.808  1.00  0.00     0.107 C 
ATOM      8  C   UNL A   1      29.622  26.070  24.671  1.00  0.00     0.040 C 
BRANCH   7   9
ATOM      9  N   UNL A   1      29.944  24.587  26.404  1.00  0.00    -0.317 N 
ATOM     10  C   UNL A   1      30.707  23.515  26.827  1.00  0.00     0.255 C 
ATOM     11  O   UNL A   1      30.200  22.678  27.575  1.00  0.00    -0.269 OA
ATOM     12  H   UNL A   1      28.977  24.477  26.546  1.00  0.00     0.170 HD
BRANCH  10  13
ATOM     13  C   UNL A   1      32.071  23.267  26.288  1.00  0.00     0.040 A 
ATOM     14  C   UNL A   1      34.710  22.861  25.329  1.00  0.00    -0.043 A 
ATOM     15  C   UNL A   1      34.430  22.894  26.707  1.00  0.00     0.005 A 
ATOM     16  C   UNL A   1      33.619  22.984  24.447  1.00  0.00     0.005 A 
ATOM     17  C   UNL A   1      33.127  23.091  27.181  1.00  0.00     0.014 A 
ATOM     18  C   UNL A   1      32.314  23.154  24.917  1.00  0.00     0.014 A 
BRANCH  14  19
ATOM     19  C   UNL A   1      36.145  22.770  24.780  1.00  0.00    -0.013 C 
ATOM     20  C   UNL A   1      37.123  23.773  25.434  1.00  0.00     0.016 C 
ATOM     21  C   UNL A   1      36.098  23.071  23.267  1.00  0.00     0.016 C 
ATOM     22  C   UNL A   1      36.745  21.361  24.994  1.00  0.00     0.016 C 
ENDBRANCH  14  19
ENDBRANCH  10  13
ENDBRANCH   7   9
BRANCH   8  23
ATOM     23  C   UNL A   1      29.728  27.146  23.688  1.00  0.00    -0.023 A 
ATOM     24  C   UNL A   1      28.664  28.016  23.429  1.00  0.00     0.012 A 
ATOM     25  C   UNL A   1      30.940  27.308  22.997  1.00  0.00     0.012 A 
ATOM     26  C   UNL A   1      28.852  29.102  22.569  1.00  0.00     0.047 A 
ATOM     27  C   UNL A   1      31.125  28.395  22.137  1.00  0.00     0.047 A 
ATOM     28  C   UNL A   1      30.087  29.300  21.957  1.00  0.00     0.115 A 
BRANCH  28  29
ATOM     29  O   UNL A   1      30.237  30.418  21.196  1.00  0.00    -0.508 OA
ATOM     30  H   UNL A   1      30.381  31.249  21.606  1.00  0.00     0.293 HD
ENDBRANCH  28  29
ENDBRANCH   8  23
ENDBRANCH   4   7
ENDBRANCH   2   3
ENDBRANCH   1   2
BRANCH   1  31
ATOM     31  C   UNL A   1      32.897  29.479  25.771  1.00  0.00     0.023 C 
BRANCH  31  32
ATOM     32  C   UNL A   1      33.235  29.867  27.207  1.00  0.00     0.116 C 
BRANCH  32  33
ATOM     33  N   UNL A   1      33.706  31.237  27.386  1.00  0.00    -0.352 N 
ATOM     34  C   UNL A   1      34.979  31.655  27.713  1.00  0.00     0.251 C 
ATOM     35  H   UNL A   1      33.035  31.947  27.260  1.00  0.00     0.163 HD
ATOM     36  O   UNL A   1      35.270  32.846  27.713  1.00  0.00    -0.269 OA
BRANCH  34  37
ATOM     37  C   UNL A   1      35.974  30.623  28.070  1.00  0.00     0.039 A 
ATOM     38  C   UNL A   1      37.094  30.435  27.256  1.00  0.00     0.014 A 
ATOM     39  C   UNL A   1      35.869  29.981  29.305  1.00  0.00     0.014 A 
ATOM     40  C   UNL A   1      38.169  29.680  27.735  1.00  0.00     0.010 A 
ATOM     41  C   UNL A   1      36.968  29.293  29.805  1.00  0.00     0.010 A 
ATOM     42  C   UNL A   1      38.138  29.158  29.039  1.00  0.00    -0.014 A 
BRANCH  42  43
ATOM     43  C   UNL A   1      39.319  28.496  29.658  1.00  0.00     0.031 A 
ATOM     44  C   UNL A   1      39.929  29.087  30.897  1.00  0.00     0.074 A 
ATOM     45  C   UNL A   1      39.917  27.460  29.034  1.00  0.00     0.049 A 
ATOM     46  N   UNL A   1      41.073  28.820  31.469  1.00  0.00    -0.248 NA
ATOM     47  C   UNL A   1      39.160  30.157  31.549  1.00  0.00     0.031 C 
ATOM     48  C   UNL A   1      39.442  26.820  27.806  1.00  0.00     0.029 A 
ATOM     49  N   UNL A   1      41.073  26.779  29.332  1.00  0.00    -0.354 N 
ATOM     50  C   UNL A   1      41.180  29.713  32.530  1.00  0.00     0.074 A 
ATOM     51  C   UNL A   1      40.005  30.559  32.485  1.00  0.00     0.031 C 
ATOM     52  C   UNL A   1      40.291  25.839  27.461  1.00  0.00     0.029 A 
ATOM     53  C   UNL A   1      41.400  25.811  28.410  1.00  0.00     0.049 A 
ATOM     54  H   UNL A   1      41.615  26.967  30.132  1.00  0.00     0.167 HD
ATOM     55  C   UNL A   1      42.161  29.809  33.462  1.00  0.00     0.034 A 
ATOM     56  C   UNL A   1      42.482  25.011  28.323  1.00  0.00     0.034 A 
ATOM     57  C   UNL A   1      43.312  28.941  33.502  1.00  0.00     0.049 A 
ATOM     58  C   UNL A   1      43.559  25.128  29.373  1.00  0.00     0.074 A 
ATOM     59  C   UNL A   1      44.346  28.918  34.422  1.00  0.00     0.029 A 
ATOM     60  N   UNL A   1      43.578  27.934  32.581  1.00  0.00    -0.354 N 
ATOM     61  N   UNL A   1      43.638  25.964  30.383  1.00  0.00    -0.248 NA
ATOM     62  C   UNL A   1      44.687  24.191  29.279  1.00  0.00     0.031 C 
ATOM     63  C   UNL A   1      45.260  27.933  34.030  1.00  0.00     0.029 A 
ATOM     64  C   UNL A   1      44.764  27.296  32.903  1.00  0.00     0.049 A 
ATOM     65  H   UNL A   1      43.007  27.708  31.812  1.00  0.00     0.167 HD
ATOM     66  C   UNL A   1      44.803  25.626  31.065  1.00  0.00     0.074 A 
ATOM     67  C   UNL A   1      45.395  24.514  30.352  1.00  0.00     0.031 C 
ATOM     68  C   UNL A   1      45.330  26.179  32.186  1.00  0.00     0.034 A 
BRANCH  55  69
ATOM     69  C   UNL A   1      42.036  30.911  34.485  1.00  0.00     0.023 A 
ATOM     70  C   UNL A   1      42.620  32.173  34.282  1.00  0.00     0.031 A 
ATOM     71  C   UNL A   1      41.370  30.684  35.703  1.00  0.00     0.131 A 
ATOM     72  C   UNL A   1      42.611  33.124  35.313  1.00  0.00     0.055 A 
ATOM     73  C   UNL A   1      41.286  31.667  36.690  1.00  0.00     0.041 A 
ATOM     74  F   UNL A   1      40.810  29.492  35.963  1.00  0.00    -0.206 F 
ATOM     75  C   UNL A   1      41.925  32.890  36.507  1.00  0.00     0.022 A 
BRANCH  72  76
ATOM     76  S   UNL A   1      43.647  34.601  35.133  1.00  0.00     0.124 S 
ATOM     77  O   UNL A   1      42.639  35.652  35.009  1.00  0.00    -0.237 OA
ATOM     78  O   UNL A   1      44.419  34.599  36.369  1.00  0.00    -0.237 OA
ATOM     79  O   UNL A   1      44.413  34.336  33.916  1.00  0.00    -0.744 OA
ENDBRANCH  72  76
ENDBRANCH  55  69
BRANCH  56  80
ATOM     80  C   UNL A   1      42.617  24.037  27.203  1.00  0.00     0.023 A 
ATOM     81  C   UNL A   1      42.031  22.764  27.280  1.00  0.00     0.031 A 
ATOM     82  C   UNL A   1      43.362  24.351  26.052  1.00  0.00     0.131 A 
ATOM     83  C   UNL A   1      42.234  21.835  26.248  1.00  0.00     0.055 A 
ATOM     84  C   UNL A   1      43.522  23.440  25.006  1.00  0.00     0.041 A 
ATOM     85  F   UNL A   1      43.936  25.558  25.923  1.00  0.00    -0.206 F 
ATOM     86  C   UNL A   1      42.966  22.169  25.106  1.00  0.00     0.022 A 
BRANCH  83  87
ATOM     87  S   UNL A   1      41.588  20.153  26.454  1.00  0.00     0.124 S 
ATOM     88  O   UNL A   1      42.117  19.790  27.764  1.00  0.00    -0.237 OA
ATOM     89  O   UNL A   1      40.147  20.372  26.382  1.00  0.00    -0.237 OA
ATOM     90  O   UNL A   1      42.163  19.426  25.324  1.00  0.00    -0.744 OA
ENDBRANCH  83  87
ENDBRANCH  56  80
BRANCH  68  91
ATOM     91  C   UNL A   1      46.569  25.538  32.753  1.00  0.00     0.023 A 
ATOM     92  C   UNL A   1      47.848  25.805  32.237  1.00  0.00     0.031 A 
ATOM     93  C   UNL A   1      46.460  24.658  33.845  1.00  0.00     0.131 A 
ATOM     94  C   UNL A   1      48.968  25.171  32.795  1.00  0.00     0.055 A 
ATOM     95  C   UNL A   1      47.583  24.065  34.423  1.00  0.00     0.041 A 
ATOM     96  F   UNL A   1      45.260  24.372  34.373  1.00  0.00    -0.206 F 
ATOM     97  C   UNL A   1      48.845  24.315  33.893  1.00  0.00     0.022 A 
BRANCH  94  98
ATOM     98  S   UNL A   1      50.594  25.441  32.036  1.00  0.00     0.124 S 
ATOM     99  O   UNL A   1      50.483  26.818  31.563  1.00  0.00    -0.237 OA
ATOM    100  O   UNL A   1      51.503  25.224  33.157  1.00  0.00    -0.237 OA
ATOM    101  O   UNL A   1      50.655  24.427  30.985  1.00  0.00    -0.744 OA
ENDBRANCH  94  98
ENDBRANCH  68  91
ENDBRANCH  42  43
ENDBRANCH  34  37
ENDBRANCH  32  33
ENDBRANCH  31  32
ENDBRANCH   1  31
TORSDOF 19
ENDMDL
MODEL 3
REMARK VINA RESULT:     -12.5      1.963      2.676
REMARK SMILES CC(C)(C)c1ccc(C(=O)N/C(=C/c2ccc(O)cc2)C(=O)NCCCCNC(=O)c2ccc(-c3c4nc(c(-c5cc(S(=O)(=O)[O-])ccc5F)c5ccc([nH]5)c(-c5cc(S(=O)(=O)[O-])ccc5F)c5nc(c(-c6cc(S(=O)(=O)[O-])ccc6F)c6ccc3[nH]6)C=C5)C=C4)cc2)cc1
REMARK SMILES IDX 25 1 24 2 23 3 21 4 22 5 12 7 13 8 11 9 9 10 10 11 8 13 5 14
REMARK SMILES IDX 6 15 95 16 7 17 94 18 2 19 1 20 3 21 4 22 14 23 15 24 20 25
REMARK SMILES IDX 16 26 19 27 17 28 18 29 26 31 27 32 28 33 29 34 30 36 31 37
REMARK SMILES IDX 32 38 93 39 33 40 92 41 34 42 35 43 36 44 86 45 37 46 91 47
REMARK SMILES IDX 85 48 87 49 38 50 90 51 84 52 83 53 39 55 71 56 51 57 70 58
REMARK SMILES IDX 52 59 55 60 69 61 88 62 53 63 54 64 68 66 89 67 56 68 40 69
REMARK SMILES IDX 41 70 49 71 42 72 48 73 50 74 47 75 43 76 44 77 45 78 46 79
REMARK SMILES IDX 72 80 73 81 81 82 74 83 80 84 82 85 79 86 75 87 76 88 77 89
REMARK SMILES IDX 78 90 57 91 58 92 66 93 59 94 65 95 67 96 64 97 60 98 61 99
REMARK SMILES IDX 62 100 63 101
REMARK H PARENT 23 6 11 12 18 30 28 35 87 54 55 65
REMARK Flexibility Score: inf
ROOT
ATOM      1  C   UNL A   1      33.472  28.246  24.983  1.00  0.00     0.023 C 
ENDROOT
BRANCH   1   2
ATOM      2  C   UNL A   1      33.313  26.750  25.240  1.00  0.00     0.116 C 
BRANCH   2   3
ATOM      3  N   UNL A   1      32.573  26.433  26.435  1.00  0.00    -0.351 N 
ATOM      4  C   UNL A   1      31.218  26.525  26.569  1.00  0.00     0.267 C 
ATOM      5  O   UNL A   1      30.795  27.201  27.513  1.00  0.00    -0.268 OA
ATOM      6  H   UNL A   1      33.085  26.127  27.218  1.00  0.00     0.163 HD
BRANCH   4   7
ATOM      7  C   UNL A   1      30.225  25.692  25.748  1.00  0.00     0.107 C 
ATOM      8  C   UNL A   1      29.567  25.971  24.599  1.00  0.00     0.040 C 
BRANCH   7   9
ATOM      9  N   UNL A   1      29.876  24.461  26.311  1.00  0.00    -0.317 N 
ATOM     10  C   UNL A   1      30.650  23.408  26.760  1.00  0.00     0.255 C 
ATOM     11  O   UNL A   1      30.133  22.547  27.473  1.00  0.00    -0.269 OA
ATOM     12  H   UNL A   1      28.906  24.320  26.405  1.00  0.00     0.170 HD
BRANCH  10  13
ATOM     13  C   UNL A   1      32.045  23.208  26.286  1.00  0.00     0.040 A 
ATOM     14  C   UNL A   1      34.673  22.753  25.318  1.00  0.00    -0.043 A 
ATOM     15  C   UNL A   1      33.575  22.823  24.444  1.00  0.00     0.005 A 
ATOM     16  C   UNL A   1      34.423  22.972  26.686  1.00  0.00     0.005 A 
ATOM     17  C   UNL A   1      32.277  23.050  24.919  1.00  0.00     0.014 A 
ATOM     18  C   UNL A   1      33.133  23.226  27.161  1.00  0.00     0.014 A 
BRANCH  14  19
ATOM     19  C   UNL A   1      36.089  22.382  24.839  1.00  0.00    -0.013 C 
ATOM     20  C   UNL A   1      36.402  20.872  24.945  1.00  0.00     0.016 C 
ATOM     21  C   UNL A   1      37.105  23.140  25.719  1.00  0.00     0.016 C 
ATOM     22  C   UNL A   1      36.308  22.778  23.361  1.00  0.00     0.016 C 
ENDBRANCH  14  19
ENDBRANCH  10  13
ENDBRANCH   7   9
BRANCH   8  23
ATOM     23  C   UNL A   1      29.676  27.067  23.640  1.00  0.00    -0.023 A 
ATOM     24  C   UNL A   1      28.643  27.992  23.457  1.00  0.00     0.012 A 
ATOM     25  C   UNL A   1      30.859  27.193  22.893  1.00  0.00     0.012 A 
ATOM     26  C   UNL A   1      28.840  29.092  22.616  1.00  0.00     0.047 A 
ATOM     27  C   UNL A   1      31.053  28.293  22.053  1.00  0.00     0.047 A 
ATOM     28  C   UNL A   1      30.052  29.250  21.948  1.00  0.00     0.115 A 
BRANCH  28  29
ATOM     29  O   UNL A   1      30.218  30.380  21.209  1.00  0.00    -0.508 OA
ATOM     30  H   UNL A   1      30.991  30.492  20.691  1.00  0.00     0.293 HD
ENDBRANCH  28  29
ENDBRANCH   8  23
ENDBRANCH   4   7
ENDBRANCH   2   3
ENDBRANCH   1   2
BRANCH   1  31
ATOM     31  C   UNL A   1      34.176  29.031  26.081  1.00  0.00     0.023 C 
BRANCH  31  32
ATOM     32  C   UNL A   1      33.276  29.811  27.035  1.00  0.00     0.116 C 
BRANCH  32  33
ATOM     33  N   UNL A   1      33.692  31.187  27.295  1.00  0.00    -0.352 N 
ATOM     34  C   UNL A   1      34.935  31.630  27.696  1.00  0.00     0.251 C 
ATOM     35  H   UNL A   1      33.003  31.880  27.171  1.00  0.00     0.163 HD
ATOM     36  O   UNL A   1      35.184  32.829  27.762  1.00  0.00    -0.269 OA
BRANCH  34  37
ATOM     37  C   UNL A   1      35.949  30.615  28.051  1.00  0.00     0.039 A 
ATOM     38  C   UNL A   1      37.076  30.456  27.242  1.00  0.00     0.014 A 
ATOM     39  C   UNL A   1      35.850  29.962  29.281  1.00  0.00     0.014 A 
ATOM     40  C   UNL A   1      38.163  29.718  27.721  1.00  0.00     0.010 A 
ATOM     41  C   UNL A   1      36.959  29.292  29.781  1.00  0.00     0.010 A 
ATOM     42  C   UNL A   1      38.136  29.186  29.021  1.00  0.00    -0.014 A 
BRANCH  42  43
ATOM     43  C   UNL A   1      39.326  28.543  29.641  1.00  0.00     0.031 A 
ATOM     44  C   UNL A   1      39.985  29.198  30.822  1.00  0.00     0.074 A 
ATOM     45  C   UNL A   1      39.887  27.461  29.064  1.00  0.00     0.049 A 
ATOM     46  N   UNL A   1      41.144  28.947  31.373  1.00  0.00    -0.248 NA
ATOM     47  C   UNL A   1      39.254  30.319  31.431  1.00  0.00     0.031 C 
ATOM     48  C   UNL A   1      39.363  26.755  27.893  1.00  0.00     0.029 A 
ATOM     49  N   UNL A   1      41.042  26.780  29.366  1.00  0.00    -0.354 N 
ATOM     50  C   UNL A   1      41.299  29.901  32.373  1.00  0.00     0.074 A 
ATOM     51  C   UNL A   1      40.135  30.763  32.314  1.00  0.00     0.031 C 
ATOM     52  C   UNL A   1      40.186  25.741  27.582  1.00  0.00     0.029 A 
ATOM     53  C   UNL A   1      41.325  25.753  28.495  1.00  0.00     0.049 A 
ATOM     54  H   UNL A   1      41.614  27.007  30.135  1.00  0.00     0.167 HD
ATOM     55  C   UNL A   1      42.311  30.037  33.265  1.00  0.00     0.034 A 
ATOM     56  C   UNL A   1      42.391  24.930  28.423  1.00  0.00     0.034 A 
ATOM     57  C   UNL A   1      43.450  29.153  33.322  1.00  0.00     0.049 A 
ATOM     58  C   UNL A   1      43.504  25.092  29.429  1.00  0.00     0.074 A 
ATOM     59  C   UNL A   1      44.513  29.169  34.208  1.00  0.00     0.029 A 
ATOM     60  N   UNL A   1      43.670  28.088  32.456  1.00  0.00    -0.354 N 
ATOM     61  N   UNL A   1      43.628  25.987  30.382  1.00  0.00    -0.248 NA
ATOM     62  C   UNL A   1      44.613  24.133  29.357  1.00  0.00     0.031 C 
ATOM     63  C   UNL A   1      45.399  28.146  33.849  1.00  0.00     0.029 A 
ATOM     64  C   UNL A   1      44.856  27.451  32.779  1.00  0.00     0.049 A 
ATOM     65  H   UNL A   1      43.071  27.825  31.722  1.00  0.00     0.167 HD
ATOM     66  C   UNL A   1      44.810  25.671  31.047  1.00  0.00     0.074 A 
ATOM     67  C   UNL A   1      45.361  24.508  30.385  1.00  0.00     0.031 C 
ATOM     68  C   UNL A   1      45.381  26.282  32.115  1.00  0.00     0.034 A 
BRANCH  55  69
ATOM     69  C   UNL A   1      42.236  31.201  34.223  1.00  0.00     0.023 A 
ATOM     70  C   UNL A   1      41.289  31.239  35.260  1.00  0.00     0.031 A 
ATOM     71  C   UNL A   1      43.083  32.312  34.067  1.00  0.00     0.131 A 
ATOM     72  C   UNL A   1      41.147  32.398  36.038  1.00  0.00     0.055 A 
ATOM     73  C   UNL A   1      42.999  33.426  34.903  1.00  0.00     0.041 A 
ATOM     74  F   UNL A   1      43.994  32.342  33.081  1.00  0.00    -0.206 F 
ATOM     75  C   UNL A   1      42.013  33.483  35.884  1.00  0.00     0.022 A 
BRANCH  72  76
ATOM     76  S   UNL A   1      39.711  32.527  37.138  1.00  0.00     0.124 S 
ATOM     77  O   UNL A   1      40.353  32.597  38.449  1.00  0.00    -0.237 OA
ATOM     78  O   UNL A   1      39.068  33.752  36.676  1.00  0.00    -0.237 OA
ATOM     79  O   UNL A   1      38.969  31.295  36.880  1.00  0.00    -0.744 OA
ENDBRANCH  72  76
ENDBRANCH  55  69
BRANCH  56  80
ATOM     80  C   UNL A   1      42.474  23.888  27.362  1.00  0.00     0.023 A 
ATOM     81  C   UNL A   1      41.912  22.616  27.553  1.00  0.00     0.031 A 
ATOM     82  C   UNL A   1      43.148  24.134  26.151  1.00  0.00     0.131 A 
ATOM     83  C   UNL A   1      42.067  21.625  26.572  1.00  0.00     0.055 A 
ATOM     84  C   UNL A   1      43.259  23.160  25.157  1.00  0.00     0.041 A 
ATOM     85  F   UNL A   1      43.696  25.336  25.912  1.00  0.00    -0.206 F 
ATOM     86  C   UNL A   1      42.727  21.892  25.370  1.00  0.00     0.022 A 
BRANCH  83  87
ATOM     87  S   UNL A   1      41.457  19.953  26.922  1.00  0.00     0.124 S 
ATOM     88  O   UNL A   1      40.804  20.140  28.212  1.00  0.00    -0.237 OA
ATOM     89  O   UNL A   1      40.576  19.709  25.785  1.00  0.00    -0.237 OA
ATOM     90  O   UNL A   1      42.675  19.145  26.949  1.00  0.00    -0.744 OA
ENDBRANCH  83  87
ENDBRANCH  56  80
BRANCH  68  91
ATOM     91  C   UNL A   1      46.629  25.656  32.680  1.00  0.00     0.023 A 
ATOM     92  C   UNL A   1      46.581  24.681  33.689  1.00  0.00     0.031 A 
ATOM     93  C   UNL A   1      47.887  26.035  32.176  1.00  0.00     0.131 A 
ATOM     94  C   UNL A   1      47.776  24.140  34.189  1.00  0.00     0.055 A 
ATOM     95  C   UNL A   1      49.067  25.460  32.646  1.00  0.00     0.041 A 
ATOM     96  F   UNL A   1      47.983  26.962  31.210  1.00  0.00    -0.206 F 
ATOM     97  C   UNL A   1      49.016  24.512  33.663  1.00  0.00     0.022 A 
BRANCH  94  98
ATOM     98  S   UNL A   1      47.693  22.970  35.573  1.00  0.00     0.124 S 
ATOM     99  O   UNL A   1      48.542  21.880  35.101  1.00  0.00    -0.237 OA
ATOM    100  O   UNL A   1      48.225  23.758  36.681  1.00  0.00    -0.237 OA
ATOM    101  O   UNL A   1      46.270  22.651  35.669  1.00  0.00    -0.744 OA
ENDBRANCH  94  98
ENDBRANCH  68  91
ENDBRANCH  42  43
ENDBRANCH  34  37
ENDBRANCH  32  33
ENDBRANCH  31  32
ENDBRANCH   1  31
TORSDOF 19
ENDMDL
