MODEL 1
REMARK VINA RESULT:     -11.9      0.000      0.000
REMARK SMILES O=C(NCCCCNC(=O)[C@H]1CSC2(CCCCC2)[NH2+]1)c1ccc(-c2c3nc(c(-c4cc(S(=O)(=O)[O-])ccc4F)c4ccc([nH]4)c(-c4cc(S(=O)(=O)[O-])ccc4F)c4nc(c(-c5cc(S(=O)(=O)[O-])ccc5F)c5ccc2[nH]5)C=C4)C=C3)cc1
REMARK SMILES IDX 4 1 3 2 1 3 2 4 21 6 22 7 83 8 23 9 82 10 24 11 25 12 26 13
REMARK SMILES IDX 76 14 27 15 81 16 75 17 77 18 28 19 80 20 74 21 73 22 29 24
REMARK SMILES IDX 61 25 41 26 60 27 42 28 45 29 59 30 78 31 43 32 44 33 58 35
REMARK SMILES IDX 79 36 46 37 30 38 31 39 39 40 32 41 38 42 40 43 37 44 33 45
REMARK SMILES IDX 34 46 35 47 36 48 62 49 63 50 71 51 64 52 70 53 72 54 69 55
REMARK SMILES IDX 65 56 66 57 67 58 68 59 47 60 48 61 56 62 49 63 55 64 57 65
REMARK SMILES IDX 54 66 50 67 51 68 52 69 53 70 5 71 6 72 7 73 8 74 9 75 10 77
REMARK SMILES IDX 11 78 12 79 20 80 13 81 14 82 15 85 19 86 16 87 18 88 17 89
REMARK H PARENT 3 5 77 23 45 34 8 76 20 83 20 84
REMARK Flexibility Score: inf
ROOT
ATOM      1  C   UNL A   1      33.170  32.572  27.156  1.00  0.00     0.116 C 
ENDROOT
BRANCH   1   2
ATOM      2  N   UNL A   1      32.651  33.859  27.592  1.00  0.00    -0.352 N 
ATOM      3  O   UNL A   1      32.591  35.675  28.954  1.00  0.00    -0.269 OA
ATOM      4  C   UNL A   1      33.130  34.627  28.637  1.00  0.00     0.251 C 
ATOM      5  H   UNL A   1      31.882  34.219  27.093  1.00  0.00     0.163 HD
BRANCH   4   6
ATOM      6  C   UNL A   1      34.296  34.110  29.390  1.00  0.00     0.039 A 
ATOM      7  C   UNL A   1      35.589  34.433  28.971  1.00  0.00     0.014 A 
ATOM      8  C   UNL A   1      34.091  33.210  30.437  1.00  0.00     0.014 A 
ATOM      9  C   UNL A   1      36.672  33.745  29.502  1.00  0.00     0.010 A 
ATOM     10  C   UNL A   1      35.192  32.583  31.029  1.00  0.00     0.010 A 
ATOM     11  C   UNL A   1      36.489  32.825  30.548  1.00  0.00    -0.014 A 
BRANCH  11  12
ATOM     12  C   UNL A   1      37.679  32.207  31.185  1.00  0.00     0.031 A 
ATOM     13  C   UNL A   1      38.438  31.090  30.522  1.00  0.00     0.074 A 
ATOM     14  C   UNL A   1      38.069  32.684  32.385  1.00  0.00     0.049 A 
ATOM     15  N   UNL A   1      39.475  30.428  30.967  1.00  0.00    -0.248 NA
ATOM     16  C   UNL A   1      37.976  30.657  29.195  1.00  0.00     0.031 C 
ATOM     17  C   UNL A   1      37.396  33.763  33.116  1.00  0.00     0.029 A 
ATOM     18  N   UNL A   1      39.114  32.337  33.199  1.00  0.00    -0.354 N 
ATOM     19  C   UNL A   1      39.775  29.481  29.993  1.00  0.00     0.074 A 
ATOM     20  C   UNL A   1      38.805  29.653  28.932  1.00  0.00     0.031 C 
ATOM     21  C   UNL A   1      38.060  34.007  34.253  1.00  0.00     0.029 A 
ATOM     22  C   UNL A   1      39.152  33.051  34.375  1.00  0.00     0.049 A 
ATOM     23  H   UNL A   1      39.774  31.644  32.966  1.00  0.00     0.167 HD
ATOM     24  C   UNL A   1      40.769  28.557  29.995  1.00  0.00     0.034 A 
ATOM     25  C   UNL A   1      39.945  32.922  35.456  1.00  0.00     0.034 A 
ATOM     26  C   UNL A   1      41.739  28.422  31.057  1.00  0.00     0.049 A 
ATOM     27  C   UNL A   1      41.008  31.859  35.441  1.00  0.00     0.074 A 
ATOM     28  C   UNL A   1      42.839  27.583  31.114  1.00  0.00     0.029 A 
ATOM     29  N   UNL A   1      41.715  29.126  32.253  1.00  0.00    -0.354 N 
ATOM     30  N   UNL A   1      41.306  31.008  34.488  1.00  0.00    -0.248 NA
ATOM     31  C   UNL A   1      41.833  31.734  36.647  1.00  0.00     0.031 C 
ATOM     32  C   UNL A   1      43.435  27.726  32.372  1.00  0.00     0.029 A 
ATOM     33  C   UNL A   1      42.748  28.703  33.075  1.00  0.00     0.049 A 
ATOM     34  H   UNL A   1      41.060  29.824  32.484  1.00  0.00     0.167 HD
ATOM     35  C   UNL A   1      42.358  30.245  34.981  1.00  0.00     0.074 A 
ATOM     36  C   UNL A   1      42.662  30.762  36.300  1.00  0.00     0.031 C 
ATOM     37  C   UNL A   1      43.011  29.207  34.400  1.00  0.00     0.034 A 
BRANCH  24  38
ATOM     38  C   UNL A   1      40.840  27.583  28.845  1.00  0.00     0.023 A 
ATOM     39  C   UNL A   1      41.771  27.719  27.803  1.00  0.00     0.031 A 
ATOM     40  C   UNL A   1      39.983  26.466  28.825  1.00  0.00     0.131 A 
ATOM     41  C   UNL A   1      41.804  26.770  26.767  1.00  0.00     0.055 A 
ATOM     42  C   UNL A   1      40.058  25.497  27.822  1.00  0.00     0.041 A 
ATOM     43  F   UNL A   1      39.064  26.295  29.788  1.00  0.00    -0.206 F 
ATOM     44  C   UNL A   1      40.968  25.650  26.782  1.00  0.00     0.022 A 
BRANCH  41  45
ATOM     45  S   UNL A   1      42.906  27.054  25.355  1.00  0.00     0.124 S 
ATOM     46  O   UNL A   1      44.178  27.323  26.022  1.00  0.00    -0.237 OA
ATOM     47  O   UNL A   1      42.821  25.792  24.629  1.00  0.00    -0.237 OA
ATOM     48  O   UNL A   1      42.310  28.204  24.678  1.00  0.00    -0.744 OA
ENDBRANCH  41  45
ENDBRANCH  24  38
BRANCH  25  49
ATOM     49  C   UNL A   1      39.713  33.766  36.661  1.00  0.00     0.023 A 
ATOM     50  C   UNL A   1      39.129  33.234  37.819  1.00  0.00     0.031 A 
ATOM     51  C   UNL A   1      40.044  35.134  36.656  1.00  0.00     0.131 A 
ATOM     52  C   UNL A   1      38.854  34.075  38.909  1.00  0.00     0.055 A 
ATOM     53  C   UNL A   1      39.823  35.952  37.764  1.00  0.00     0.041 A 
ATOM     54  F   UNL A   1      40.607  35.694  35.572  1.00  0.00    -0.206 F 
ATOM     55  C   UNL A   1      39.210  35.425  38.895  1.00  0.00     0.022 A 
BRANCH  52  56
ATOM     56  S   UNL A   1      37.927  33.396  40.313  1.00  0.00     0.124 S 
ATOM     57  O   UNL A   1      38.823  32.342  40.780  1.00  0.00    -0.237 OA
ATOM     58  O   UNL A   1      37.800  34.561  41.181  1.00  0.00    -0.237 OA
ATOM     59  O   UNL A   1      36.682  32.932  39.705  1.00  0.00    -0.744 OA
ENDBRANCH  52  56
ENDBRANCH  25  49
BRANCH  37  60
ATOM     60  C   UNL A   1      44.119  28.581  35.206  1.00  0.00     0.023 A 
ATOM     61  C   UNL A   1      43.869  27.497  36.067  1.00  0.00     0.031 A 
ATOM     62  C   UNL A   1      45.426  29.092  35.140  1.00  0.00     0.131 A 
ATOM     63  C   UNL A   1      44.900  26.996  36.873  1.00  0.00     0.055 A 
ATOM     64  C   UNL A   1      46.462  28.550  35.903  1.00  0.00     0.041 A 
ATOM     65  F   UNL A   1      45.716  30.128  34.337  1.00  0.00    -0.206 F 
ATOM     66  C   UNL A   1      46.199  27.505  36.785  1.00  0.00     0.022 A 
BRANCH  63  67
ATOM     67  S   UNL A   1      44.502  25.722  38.100  1.00  0.00     0.124 S 
ATOM     68  O   UNL A   1      44.177  26.524  39.275  1.00  0.00    -0.237 OA
ATOM     69  O   UNL A   1      43.382  25.023  37.477  1.00  0.00    -0.237 OA
ATOM     70  O   UNL A   1      45.736  24.945  38.200  1.00  0.00    -0.744 OA
ENDBRANCH  63  67
ENDBRANCH  37  60
ENDBRANCH  11  12
ENDBRANCH   4   6
ENDBRANCH   1   2
BRANCH   1  71
ATOM     71  C   UNL A   1      32.111  31.506  26.902  1.00  0.00     0.023 C 
BRANCH  71  72
ATOM     72  C   UNL A   1      32.492  30.090  27.331  1.00  0.00     0.023 C 
BRANCH  72  73
ATOM     73  C   UNL A   1      32.662  29.108  26.172  1.00  0.00     0.116 C 
BRANCH  73  74
ATOM     74  N   UNL A   1      31.705  28.027  26.155  1.00  0.00    -0.351 N 
ATOM     75  C   UNL A   1      31.055  27.393  25.144  1.00  0.00     0.279 C 
ATOM     76  H   UNL A   1      31.477  27.683  27.050  1.00  0.00     0.163 HD
ATOM     77  O   UNL A   1      30.532  26.309  25.441  1.00  0.00    -0.268 OA
BRANCH  75  78
ATOM     78  C   UNL A   1      30.809  27.976  23.736  1.00  0.00     0.283 C 
ATOM     79  C   UNL A   1      29.598  27.313  23.100  1.00  0.00     0.151 C 
ATOM     80  N   UNL A   1      30.796  29.454  23.604  1.00  0.00    -0.322 N 
ATOM     81  S   UNL A   1      28.320  28.569  23.176  1.00  0.00    -0.089 SA
ATOM     82  C   UNL A   1      29.517  29.944  23.066  1.00  0.00     0.143 C 
ATOM     83  H   UNL A   1      31.549  29.735  22.976  1.00  0.00     0.348 HD
ATOM     84  H   UNL A   1      30.924  29.856  24.533  1.00  0.00     0.348 HD
ATOM     85  C   UNL A   1      29.038  31.208  23.813  1.00  0.00     0.081 C 
ATOM     86  C   UNL A   1      29.696  30.325  21.577  1.00  0.00     0.081 C 
ATOM     87  C   UNL A   1      27.745  31.794  23.251  1.00  0.00     0.007 C 
ATOM     88  C   UNL A   1      28.428  30.935  20.955  1.00  0.00     0.007 C 
ATOM     89  C   UNL A   1      27.872  32.105  21.766  1.00  0.00     0.001 C 
ENDBRANCH  75  78
ENDBRANCH  73  74
ENDBRANCH  72  73
ENDBRANCH  71  72
ENDBRANCH   1  71
TORSDOF 14
ENDMDL
MODEL 2
REMARK VINA RESULT:     -11.9      1.391      1.683
REMARK SMILES O=C(NCCCCNC(=O)[C@H]1CSC2(CCCCC2)[NH2+]1)c1ccc(-c2c3nc(c(-c4cc(S(=O)(=O)[O-])ccc4F)c4ccc([nH]4)c(-c4cc(S(=O)(=O)[O-])ccc4F)c4nc(c(-c5cc(S(=O)(=O)[O-])ccc5F)c5ccc2[nH]5)C=C4)C=C3)cc1
REMARK SMILES IDX 4 1 3 2 1 3 2 4 21 6 22 7 83 8 23 9 82 10 24 11 25 12 26 13
REMARK SMILES IDX 76 14 27 15 81 16 75 17 77 18 28 19 80 20 74 21 73 22 29 24
REMARK SMILES IDX 61 25 41 26 60 27 42 28 45 29 59 30 78 31 43 32 44 33 58 35
REMARK SMILES IDX 79 36 46 37 30 38 31 39 39 40 32 41 38 42 40 43 37 44 33 45
REMARK SMILES IDX 34 46 35 47 36 48 62 49 63 50 71 51 64 52 70 53 72 54 69 55
REMARK SMILES IDX 65 56 66 57 67 58 68 59 47 60 48 61 56 62 49 63 55 64 57 65
REMARK SMILES IDX 54 66 50 67 51 68 52 69 53 70 5 71 6 72 7 73 8 74 9 75 10 77
REMARK SMILES IDX 11 78 12 79 20 80 13 81 14 82 15 85 19 86 16 87 18 88 17 89
REMARK H PARENT 3 5 77 23 45 34 8 76 20 83 20 84
REMARK Flexibility Score: inf
ROOT
ATOM      1  C   UNL A   1      32.900  32.556  27.394  1.00  0.00     0.116 C 
ENDROOT
BRANCH   1   2
ATOM      2  N   UNL A   1      32.519  33.926  27.699  1.00  0.00    -0.352 N 
ATOM      3  O   UNL A   1      32.695  35.882  28.838  1.00  0.00    -0.269 OA
ATOM      4  C   UNL A   1      33.122  34.760  28.622  1.00  0.00     0.251 C 
ATOM      5  H   UNL A   1      31.757  34.296  27.198  1.00  0.00     0.163 HD
BRANCH   4   6
ATOM      6  C   UNL A   1      34.282  34.227  29.374  1.00  0.00     0.039 A 
ATOM      7  C   UNL A   1      35.579  34.513  28.941  1.00  0.00     0.014 A 
ATOM      8  C   UNL A   1      34.064  33.348  30.436  1.00  0.00     0.014 A 
ATOM      9  C   UNL A   1      36.649  33.807  29.474  1.00  0.00     0.010 A 
ATOM     10  C   UNL A   1      35.154  32.704  31.030  1.00  0.00     0.010 A 
ATOM     11  C   UNL A   1      36.453  32.908  30.535  1.00  0.00    -0.014 A 
BRANCH  11  12
ATOM     12  C   UNL A   1      37.633  32.271  31.173  1.00  0.00     0.031 A 
ATOM     13  C   UNL A   1      38.386  31.156  30.502  1.00  0.00     0.074 A 
ATOM     14  C   UNL A   1      38.019  32.731  32.380  1.00  0.00     0.049 A 
ATOM     15  N   UNL A   1      39.414  30.478  30.946  1.00  0.00    -0.248 NA
ATOM     16  C   UNL A   1      37.929  30.742  29.167  1.00  0.00     0.031 C 
ATOM     17  C   UNL A   1      37.351  33.808  33.120  1.00  0.00     0.029 A 
ATOM     18  N   UNL A   1      39.056  32.365  33.197  1.00  0.00    -0.354 N 
ATOM     19  C   UNL A   1      39.711  29.540  29.962  1.00  0.00     0.074 A 
ATOM     20  C   UNL A   1      38.750  29.733  28.898  1.00  0.00     0.031 C 
ATOM     21  C   UNL A   1      38.010  34.032  34.264  1.00  0.00     0.029 A 
ATOM     22  C   UNL A   1      39.092  33.064  34.382  1.00  0.00     0.049 A 
ATOM     23  H   UNL A   1      39.710  31.668  32.961  1.00  0.00     0.167 HD
ATOM     24  C   UNL A   1      40.696  28.607  29.960  1.00  0.00     0.034 A 
ATOM     25  C   UNL A   1      39.877  32.915  35.466  1.00  0.00     0.034 A 
ATOM     26  C   UNL A   1      41.658  28.450  31.026  1.00  0.00     0.049 A 
ATOM     27  C   UNL A   1      40.930  31.842  35.446  1.00  0.00     0.074 A 
ATOM     28  C   UNL A   1      42.750  27.600  31.081  1.00  0.00     0.029 A 
ATOM     29  N   UNL A   1      41.633  29.140  32.230  1.00  0.00    -0.354 N 
ATOM     30  N   UNL A   1      41.226  31.000  34.484  1.00  0.00    -0.248 NA
ATOM     31  C   UNL A   1      41.746  31.696  36.656  1.00  0.00     0.031 C 
ATOM     32  C   UNL A   1      43.339  27.723  32.344  1.00  0.00     0.029 A 
ATOM     33  C   UNL A   1      42.656  28.699  33.055  1.00  0.00     0.049 A 
ATOM     34  H   UNL A   1      40.983  29.842  32.465  1.00  0.00     0.167 HD
ATOM     35  C   UNL A   1      42.269  30.222  34.976  1.00  0.00     0.074 A 
ATOM     36  C   UNL A   1      42.568  30.720  36.303  1.00  0.00     0.031 C 
ATOM     37  C   UNL A   1      42.915  29.185  34.387  1.00  0.00     0.034 A 
BRANCH  24  38
ATOM     38  C   UNL A   1      40.766  27.646  28.800  1.00  0.00     0.023 A 
ATOM     39  C   UNL A   1      41.725  27.767  27.781  1.00  0.00     0.031 A 
ATOM     40  C   UNL A   1      39.878  26.555  28.744  1.00  0.00     0.131 A 
ATOM     41  C   UNL A   1      41.754  26.830  26.734  1.00  0.00     0.055 A 
ATOM     42  C   UNL A   1      39.947  25.597  27.731  1.00  0.00     0.041 A 
ATOM     43  F   UNL A   1      38.931  26.399  29.683  1.00  0.00    -0.206 F 
ATOM     44  C   UNL A   1      40.886  25.735  26.715  1.00  0.00     0.022 A 
BRANCH  41  45
ATOM     45  S   UNL A   1      42.898  27.099  25.352  1.00  0.00     0.124 S 
ATOM     46  O   UNL A   1      42.258  28.210  24.650  1.00  0.00    -0.237 OA
ATOM     47  O   UNL A   1      44.149  27.412  26.033  1.00  0.00    -0.237 OA
ATOM     48  O   UNL A   1      42.880  25.825  24.636  1.00  0.00    -0.744 OA
ENDBRANCH  41  45
ENDBRANCH  24  38
BRANCH  25  49
ATOM     49  C   UNL A   1      39.645  33.747  36.680  1.00  0.00     0.023 A 
ATOM     50  C   UNL A   1      40.481  34.829  36.991  1.00  0.00     0.031 A 
ATOM     51  C   UNL A   1      38.597  33.444  37.569  1.00  0.00     0.131 A 
ATOM     52  C   UNL A   1      40.281  35.543  38.182  1.00  0.00     0.055 A 
ATOM     53  C   UNL A   1      38.366  34.195  38.722  1.00  0.00     0.041 A 
ATOM     54  F   UNL A   1      37.766  32.419  37.318  1.00  0.00    -0.206 F 
ATOM     55  C   UNL A   1      39.221  35.244  39.041  1.00  0.00     0.022 A 
BRANCH  52  56
ATOM     56  S   UNL A   1      41.492  36.811  38.645  1.00  0.00     0.124 S 
ATOM     57  O   UNL A   1      42.327  36.091  39.601  1.00  0.00    -0.237 OA
ATOM     58  O   UNL A   1      42.110  37.121  37.360  1.00  0.00    -0.237 OA
ATOM     59  O   UNL A   1      40.668  37.876  39.214  1.00  0.00    -0.744 OA
ENDBRANCH  52  56
ENDBRANCH  25  49
BRANCH  37  60
ATOM     60  C   UNL A   1      44.012  28.539  35.192  1.00  0.00     0.023 A 
ATOM     61  C   UNL A   1      43.741  27.465  36.060  1.00  0.00     0.031 A 
ATOM     62  C   UNL A   1      45.330  29.021  35.120  1.00  0.00     0.131 A 
ATOM     63  C   UNL A   1      44.764  26.945  36.865  1.00  0.00     0.055 A 
ATOM     64  C   UNL A   1      46.356  28.461  35.883  1.00  0.00     0.041 A 
ATOM     65  F   UNL A   1      45.639  30.047  34.311  1.00  0.00    -0.206 F 
ATOM     66  C   UNL A   1      46.073  27.426  36.771  1.00  0.00     0.022 A 
BRANCH  63  67
ATOM     67  S   UNL A   1      44.342  25.686  38.100  1.00  0.00     0.124 S 
ATOM     68  O   UNL A   1      43.293  24.935  37.419  1.00  0.00    -0.237 OA
ATOM     69  O   UNL A   1      45.610  24.987  38.282  1.00  0.00    -0.237 OA
ATOM     70  O   UNL A   1      43.897  26.470  39.250  1.00  0.00    -0.744 OA
ENDBRANCH  63  67
ENDBRANCH  37  60
ENDBRANCH  11  12
ENDBRANCH   4   6
ENDBRANCH   1   2
BRANCH   1  71
ATOM     71  C   UNL A   1      31.825  31.732  26.695  1.00  0.00     0.023 C 
BRANCH  71  72
ATOM     72  C   UNL A   1      32.014  30.217  26.762  1.00  0.00     0.023 C 
BRANCH  72  73
ATOM     73  C   UNL A   1      32.939  29.653  25.684  1.00  0.00     0.116 C 
BRANCH  73  74
ATOM     74  N   UNL A   1      32.766  28.243  25.421  1.00  0.00    -0.351 N 
ATOM     75  C   UNL A   1      32.460  27.552  24.293  1.00  0.00     0.279 C 
ATOM     76  H   UNL A   1      32.893  27.673  26.214  1.00  0.00     0.163 HD
ATOM     77  O   UNL A   1      32.684  26.334  24.334  1.00  0.00    -0.268 OA
BRANCH  75  78
ATOM     78  C   UNL A   1      31.744  28.135  23.055  1.00  0.00     0.283 C 
ATOM     79  C   UNL A   1      30.565  27.254  22.671  1.00  0.00     0.151 C 
ATOM     80  N   UNL A   1      31.403  29.579  23.082  1.00  0.00    -0.322 N 
ATOM     81  S   UNL A   1      29.129  28.196  23.185  1.00  0.00    -0.089 SA
ATOM     82  C   UNL A   1      29.958  29.802  22.927  1.00  0.00     0.143 C 
ATOM     83  H   UNL A   1      31.894  30.047  22.320  1.00  0.00     0.348 HD
ATOM     84  H   UNL A   1      31.687  29.954  23.987  1.00  0.00     0.348 HD
ATOM     85  C   UNL A   1      29.449  30.895  23.894  1.00  0.00     0.081 C 
ATOM     86  C   UNL A   1      29.661  30.284  21.487  1.00  0.00     0.081 C 
ATOM     87  C   UNL A   1      27.964  31.210  23.729  1.00  0.00     0.007 C 
ATOM     88  C   UNL A   1      28.180  30.632  21.260  1.00  0.00     0.007 C 
ATOM     89  C   UNL A   1      27.634  31.612  22.298  1.00  0.00     0.001 C 
ENDBRANCH  75  78
ENDBRANCH  73  74
ENDBRANCH  72  73
ENDBRANCH  71  72
ENDBRANCH   1  71
TORSDOF 14
ENDMDL
MODEL 3
REMARK VINA RESULT:     -11.9      6.654     12.413
REMARK SMILES O=C(NCCCCNC(=O)[C@H]1CSC2(CCCCC2)[NH2+]1)c1ccc(-c2c3nc(c(-c4cc(S(=O)(=O)[O-])ccc4F)c4ccc([nH]4)c(-c4cc(S(=O)(=O)[O-])ccc4F)c4nc(c(-c5cc(S(=O)(=O)[O-])ccc5F)c5ccc2[nH]5)C=C4)C=C3)cc1
REMARK SMILES IDX 4 1 3 2 1 3 2 4 21 6 22 7 83 8 23 9 82 10 24 11 25 12 26 13
REMARK SMILES IDX 76 14 27 15 81 16 75 17 77 18 28 19 80 20 74 21 73 22 29 24
REMARK SMILES IDX 61 25 41 26 60 27 42 28 45 29 59 30 78 31 43 32 44 33 58 35
REMARK SMILES IDX 79 36 46 37 30 38 31 39 39 40 32 41 38 42 40 43 37 44 33 45
REMARK SMILES IDX 34 46 35 47 36 48 62 49 63 50 71 51 64 52 70 53 72 54 69 55
REMARK SMILES IDX 65 56 66 57 67 58 68 59 47 60 48 61 56 62 49 63 55 64 57 65
REMARK SMILES IDX 54 66 50 67 51 68 52 69 53 70 5 71 6 72 7 73 8 74 9 75 10 77
REMARK SMILES IDX 11 78 12 79 20 80 13 81 14 82 15 85 19 86 16 87 18 88 17 89
REMARK H PARENT 3 5 77 23 45 34 8 76 20 83 20 84
REMARK Flexibility Score: inf
ROOT
ATOM      1  C   UNL A   1      39.191  20.625  26.084  1.00  0.00     0.116 C 
ENDROOT
BRANCH   1   2
ATOM      2  N   UNL A   1      40.104  19.500  25.963  1.00  0.00    -0.352 N 
ATOM      3  O   UNL A   1      42.165  18.547  25.914  1.00  0.00    -0.269 OA
ATOM      4  C   UNL A   1      41.481  19.543  26.082  1.00  0.00     0.251 C 
ATOM      5  H   UNL A   1      39.703  18.620  25.778  1.00  0.00     0.163 HD
BRANCH   4   6
ATOM      6  C   UNL A   1      42.103  20.855  26.376  1.00  0.00     0.039 A 
ATOM      7  C   UNL A   1      42.299  21.247  27.702  1.00  0.00     0.014 A 
ATOM      8  C   UNL A   1      42.377  21.734  25.326  1.00  0.00     0.014 A 
ATOM      9  C   UNL A   1      42.629  22.566  27.984  1.00  0.00     0.010 A 
ATOM     10  C   UNL A   1      42.795  23.037  25.613  1.00  0.00     0.010 A 
ATOM     11  C   UNL A   1      42.897  23.472  26.944  1.00  0.00    -0.014 A 
BRANCH  11  12
ATOM     12  C   UNL A   1      43.379  24.836  27.279  1.00  0.00     0.031 A 
ATOM     13  C   UNL A   1      42.454  25.885  27.833  1.00  0.00     0.074 A 
ATOM     14  C   UNL A   1      44.683  25.109  27.075  1.00  0.00     0.049 A 
ATOM     15  N   UNL A   1      42.718  27.128  28.143  1.00  0.00    -0.248 NA
ATOM     16  C   UNL A   1      41.056  25.494  28.068  1.00  0.00     0.031 C 
ATOM     17  C   UNL A   1      45.664  24.161  26.535  1.00  0.00     0.029 A 
ATOM     18  N   UNL A   1      45.414  26.247  27.297  1.00  0.00    -0.354 N 
ATOM     19  C   UNL A   1      41.519  27.680  28.581  1.00  0.00     0.074 A 
ATOM     20  C   UNL A   1      40.522  26.634  28.492  1.00  0.00     0.031 C 
ATOM     21  C   UNL A   1      46.867  24.746  26.494  1.00  0.00     0.029 A 
ATOM     22  C   UNL A   1      46.732  26.133  26.922  1.00  0.00     0.049 A 
ATOM     23  H   UNL A   1      45.032  27.067  27.684  1.00  0.00     0.167 HD
ATOM     24  C   UNL A   1      41.281  28.944  29.012  1.00  0.00     0.034 A 
ATOM     25  C   UNL A   1      47.717  27.050  26.880  1.00  0.00     0.034 A 
ATOM     26  C   UNL A   1      42.299  29.964  29.112  1.00  0.00     0.049 A 
ATOM     27  C   UNL A   1      47.407  28.453  27.324  1.00  0.00     0.074 A 
ATOM     28  C   UNL A   1      42.185  31.247  29.622  1.00  0.00     0.029 A 
ATOM     29  N   UNL A   1      43.610  29.827  28.676  1.00  0.00    -0.354 N 
ATOM     30  N   UNL A   1      46.278  28.939  27.782  1.00  0.00    -0.248 NA
ATOM     31  C   UNL A   1      48.499  29.428  27.238  1.00  0.00     0.031 C 
ATOM     32  C   UNL A   1      43.403  31.907  29.427  1.00  0.00     0.029 A 
ATOM     33  C   UNL A   1      44.300  31.017  28.857  1.00  0.00     0.049 A 
ATOM     34  H   UNL A   1      43.995  29.005  28.295  1.00  0.00     0.167 HD
ATOM     35  C   UNL A   1      46.526  30.282  28.042  1.00  0.00     0.074 A 
ATOM     36  C   UNL A   1      47.920  30.516  27.721  1.00  0.00     0.031 C 
ATOM     37  C   UNL A   1      45.678  31.238  28.498  1.00  0.00     0.034 A 
BRANCH  24  38
ATOM     38  C   UNL A   1      39.865  29.324  29.364  1.00  0.00     0.023 A 
ATOM     39  C   UNL A   1      39.418  29.407  30.693  1.00  0.00     0.031 A 
ATOM     40  C   UNL A   1      38.958  29.659  28.341  1.00  0.00     0.131 A 
ATOM     41  C   UNL A   1      38.092  29.785  30.962  1.00  0.00     0.055 A 
ATOM     42  C   UNL A   1      37.658  30.086  28.616  1.00  0.00     0.041 A 
ATOM     43  F   UNL A   1      39.327  29.582  27.052  1.00  0.00    -0.206 F 
ATOM     44  C   UNL A   1      37.216  30.145  29.934  1.00  0.00     0.022 A 
BRANCH  41  45
ATOM     45  S   UNL A   1      37.497  29.731  32.675  1.00  0.00     0.124 S 
ATOM     46  O   UNL A   1      37.460  28.292  32.930  1.00  0.00    -0.237 OA
ATOM     47  O   UNL A   1      38.525  30.478  33.390  1.00  0.00    -0.237 OA
ATOM     48  O   UNL A   1      36.189  30.379  32.607  1.00  0.00    -0.744 OA
ENDBRANCH  41  45
ENDBRANCH  24  38
BRANCH  25  49
ATOM     49  C   UNL A   1      49.054  26.692  26.330  1.00  0.00     0.023 A 
ATOM     50  C   UNL A   1      49.486  27.183  25.090  1.00  0.00     0.031 A 
ATOM     51  C   UNL A   1      49.908  25.817  27.028  1.00  0.00     0.131 A 
ATOM     52  C   UNL A   1      50.718  26.764  24.565  1.00  0.00     0.055 A 
ATOM     53  C   UNL A   1      51.158  25.451  26.529  1.00  0.00     0.041 A 
ATOM     54  F   UNL A   1      49.543  25.318  28.220  1.00  0.00    -0.206 F 
ATOM     55  C   UNL A   1      51.563  25.914  25.283  1.00  0.00     0.022 A 
BRANCH  52  56
ATOM     56  S   UNL A   1      51.158  27.269  22.880  1.00  0.00     0.124 S 
ATOM     57  O   UNL A   1      51.150  28.724  22.992  1.00  0.00    -0.237 OA
ATOM     58  O   UNL A   1      52.466  26.645  22.711  1.00  0.00    -0.237 OA
ATOM     59  O   UNL A   1      50.086  26.700  22.065  1.00  0.00    -0.744 OA
ENDBRANCH  52  56
ENDBRANCH  25  49
BRANCH  37  60
ATOM     60  C   UNL A   1      46.259  32.617  28.674  1.00  0.00     0.023 A 
ATOM     61  C   UNL A   1      46.387  33.496  27.584  1.00  0.00     0.031 A 
ATOM     62  C   UNL A   1      46.720  33.042  29.931  1.00  0.00     0.131 A 
ATOM     63  C   UNL A   1      47.016  34.737  27.760  1.00  0.00     0.055 A 
ATOM     64  C   UNL A   1      47.294  34.301  30.112  1.00  0.00     0.041 A 
ATOM     65  F   UNL A   1      46.626  32.237  31.002  1.00  0.00    -0.206 F 
ATOM     66  C   UNL A   1      47.456  35.151  29.020  1.00  0.00     0.022 A 
BRANCH  63  67
ATOM     67  S   UNL A   1      47.326  35.768  26.302  1.00  0.00     0.124 S 
ATOM     68  O   UNL A   1      48.594  36.404  26.645  1.00  0.00    -0.237 OA
ATOM     69  O   UNL A   1      47.377  34.785  25.225  1.00  0.00    -0.237 OA
ATOM     70  O   UNL A   1      46.172  36.665  26.265  1.00  0.00    -0.744 OA
ENDBRANCH  63  67
ENDBRANCH  37  60
ENDBRANCH  11  12
ENDBRANCH   4   6
ENDBRANCH   1   2
BRANCH   1  71
ATOM     71  C   UNL A   1      37.984  20.573  25.155  1.00  0.00     0.023 C 
BRANCH  71  72
ATOM     72  C   UNL A   1      37.365  21.927  24.811  1.00  0.00     0.023 C 
BRANCH  72  73
ATOM     73  C   UNL A   1      35.936  21.846  24.276  1.00  0.00     0.116 C 
BRANCH  73  74
ATOM     74  N   UNL A   1      35.027  22.819  24.837  1.00  0.00    -0.351 N 
ATOM     75  C   UNL A   1      34.001  22.713  25.720  1.00  0.00     0.279 C 
ATOM     76  H   UNL A   1      35.182  23.737  24.516  1.00  0.00     0.163 HD
ATOM     77  O   UNL A   1      33.617  23.777  26.226  1.00  0.00    -0.268 OA
BRANCH  75  78
ATOM     78  C   UNL A   1      33.210  21.421  26.019  1.00  0.00     0.283 C 
ATOM     79  C   UNL A   1      32.030  21.298  25.068  1.00  0.00     0.151 C 
ATOM     80  N   UNL A   1      33.986  20.161  26.145  1.00  0.00    -0.322 N 
ATOM     81  S   UNL A   1      32.520  20.006  23.926  1.00  0.00    -0.089 SA
ATOM     82  C   UNL A   1      33.550  19.151  25.168  1.00  0.00     0.143 C 
ATOM     83  H   UNL A   1      33.858  19.789  27.086  1.00  0.00     0.348 HD
ATOM     84  H   UNL A   1      34.966  20.374  25.964  1.00  0.00     0.348 HD
ATOM     85  C   UNL A   1      34.755  18.419  24.538  1.00  0.00     0.081 C 
ATOM     86  C   UNL A   1      32.682  18.086  25.880  1.00  0.00     0.081 C 
ATOM     87  C   UNL A   1      34.354  17.315  23.561  1.00  0.00     0.007 C 
ATOM     88  C   UNL A   1      32.256  16.937  24.950  1.00  0.00     0.007 C 
ATOM     89  C   UNL A   1      33.435  16.296  24.219  1.00  0.00     0.001 C 
ENDBRANCH  75  78
ENDBRANCH  73  74
ENDBRANCH  72  73
ENDBRANCH  71  72
ENDBRANCH   1  71
TORSDOF 14
ENDMDL
