MODEL 1
REMARK VINA RESULT:     -11.2      0.000      0.000
REMARK SMILES CC(C)([NH2+]C[C@@H]1CCCO1)C(=O)NCCCCNC(=O)c1ccc(-c2c3nc(c(-c4cc(S(=O)(=O)[O-])ccc4F)c4ccc([nH]4)c(-c4cc(S(=O)(=O)[O-])ccc4F)c4nc(c(-c5cc(S(=O)(=O)[O-])ccc5F)c5ccc2[nH]5)C=C4)C=C3)cc1
REMARK SMILES IDX 15 1 14 2 13 3 11 4 12 5 2 7 1 8 3 9 4 10 5 13 6 14 7 15
REMARK SMILES IDX 10 16 8 17 9 18 16 19 17 20 18 21 19 22 20 24 21 25 22 26
REMARK SMILES IDX 83 27 23 28 82 29 24 30 25 31 26 32 76 33 27 34 81 35 75 36
REMARK SMILES IDX 77 37 28 38 80 39 74 40 73 41 29 43 61 44 41 45 60 46 42 47
REMARK SMILES IDX 45 48 59 49 78 50 43 51 44 52 58 54 79 55 46 56 30 57 31 58
REMARK SMILES IDX 39 59 32 60 38 61 40 62 37 63 33 64 34 65 35 66 36 67 62 68
REMARK SMILES IDX 63 69 71 70 64 71 70 72 72 73 69 74 65 75 66 76 67 77 68 78
REMARK SMILES IDX 47 79 48 80 56 81 49 82 55 83 57 84 54 85 50 86 51 87 52 88
REMARK SMILES IDX 53 89
REMARK H PARENT 13 6 4 11 4 12 18 23 77 42 45 53
REMARK Flexibility Score: inf
ROOT
ATOM      1  C   UNL A   1      35.236  22.755  23.679  1.00  0.00     0.023 C 
ENDROOT
BRANCH   1   2
ATOM      2  C   UNL A   1      34.726  23.764  24.714  1.00  0.00     0.116 C 
BRANCH   2   3
ATOM      3  N   UNL A   1      33.346  24.107  24.451  1.00  0.00    -0.351 N 
ATOM      4  C   UNL A   1      32.162  23.598  24.890  1.00  0.00     0.280 C 
ATOM      5  O   UNL A   1      31.174  24.035  24.278  1.00  0.00    -0.268 OA
ATOM      6  H   UNL A   1      33.240  24.862  23.827  1.00  0.00     0.163 HD
BRANCH   4   7
ATOM      7  C   UNL A   1      31.991  22.619  26.109  1.00  0.00     0.169 C 
ATOM      8  C   UNL A   1      30.585  22.957  26.703  1.00  0.00     0.090 C 
ATOM      9  C   UNL A   1      32.978  22.904  27.244  1.00  0.00     0.090 C 
BRANCH   7  10
ATOM     10  N   UNL A   1      31.813  21.183  25.764  1.00  0.00    -0.332 N 
ATOM     11  H   UNL A   1      30.864  21.096  25.401  1.00  0.00     0.347 HD
ATOM     12  H   UNL A   1      32.063  20.729  26.643  1.00  0.00     0.347 HD
BRANCH  10  13
ATOM     13  C   UNL A   1      32.671  20.486  24.820  1.00  0.00     0.293 C 
BRANCH  13  14
ATOM     14  C   UNL A   1      33.101  19.023  25.072  1.00  0.00     0.173 C 
ATOM     15  C   UNL A   1      34.503  18.665  24.609  1.00  0.00     0.040 C 
ATOM     16  O   UNL A   1      32.225  18.055  24.479  1.00  0.00    -0.372 OA
ATOM     17  C   UNL A   1      34.414  17.160  24.505  1.00  0.00     0.031 C 
ATOM     18  C   UNL A   1      33.008  16.960  23.986  1.00  0.00     0.161 C 
ENDBRANCH  13  14
ENDBRANCH  10  13
ENDBRANCH   7  10
ENDBRANCH   4   7
ENDBRANCH   2   3
ENDBRANCH   1   2
BRANCH   1  19
ATOM     19  C   UNL A   1      36.658  22.266  23.913  1.00  0.00     0.023 C 
BRANCH  19  20
ATOM     20  C   UNL A   1      37.000  22.003  25.372  1.00  0.00     0.116 C 
BRANCH  20  21
ATOM     21  N   UNL A   1      38.045  21.005  25.558  1.00  0.00    -0.352 N 
ATOM     22  C   UNL A   1      39.287  21.169  26.134  1.00  0.00     0.251 C 
ATOM     23  H   UNL A   1      37.839  20.099  25.231  1.00  0.00     0.163 HD
ATOM     24  O   UNL A   1      40.097  20.254  26.139  1.00  0.00    -0.269 OA
BRANCH  22  25
ATOM     25  C   UNL A   1      39.632  22.493  26.696  1.00  0.00     0.039 A 
ATOM     26  C   UNL A   1      40.641  22.578  27.656  1.00  0.00     0.014 A 
ATOM     27  C   UNL A   1      39.033  23.648  26.189  1.00  0.00     0.014 A 
ATOM     28  C   UNL A   1      41.116  23.834  28.040  1.00  0.00     0.010 A 
ATOM     29  C   UNL A   1      39.571  24.891  26.500  1.00  0.00     0.010 A 
ATOM     30  C   UNL A   1      40.622  24.997  27.423  1.00  0.00    -0.014 A 
BRANCH  30  31
ATOM     31  C   UNL A   1      41.198  26.334  27.724  1.00  0.00     0.031 A 
ATOM     32  C   UNL A   1      42.600  26.662  27.287  1.00  0.00     0.074 A 
ATOM     33  C   UNL A   1      40.493  27.214  28.461  1.00  0.00     0.049 A 
ATOM     34  N   UNL A   1      43.310  27.736  27.517  1.00  0.00    -0.248 NA
ATOM     35  C   UNL A   1      43.310  25.624  26.526  1.00  0.00     0.031 C 
ATOM     36  C   UNL A   1      39.153  26.983  29.006  1.00  0.00     0.029 A 
ATOM     37  N   UNL A   1      40.808  28.480  28.891  1.00  0.00    -0.354 N 
ATOM     38  C   UNL A   1      44.556  27.495  26.949  1.00  0.00     0.074 A 
ATOM     39  C   UNL A   1      44.523  26.144  26.429  1.00  0.00     0.031 C 
ATOM     40  C   UNL A   1      38.749  28.079  29.668  1.00  0.00     0.029 A 
ATOM     41  C   UNL A   1      39.814  29.076  29.633  1.00  0.00     0.049 A 
ATOM     42  H   UNL A   1      41.663  28.920  28.687  1.00  0.00     0.167 HD
ATOM     43  C   UNL A   1      45.618  28.331  26.844  1.00  0.00     0.034 A 
ATOM     44  C   UNL A   1      39.767  30.287  30.222  1.00  0.00     0.034 A 
ATOM     45  C   UNL A   1      45.622  29.683  27.348  1.00  0.00     0.049 A 
ATOM     46  C   UNL A   1      40.951  31.207  30.080  1.00  0.00     0.074 A 
ATOM     47  C   UNL A   1      46.610  30.644  27.232  1.00  0.00     0.029 A 
ATOM     48  N   UNL A   1      44.587  30.264  28.072  1.00  0.00    -0.354 N 
ATOM     49  N   UNL A   1      42.098  30.992  29.477  1.00  0.00    -0.248 NA
ATOM     50  C   UNL A   1      40.830  32.540  30.685  1.00  0.00     0.031 C 
ATOM     51  C   UNL A   1      46.200  31.782  27.937  1.00  0.00     0.029 A 
ATOM     52  C   UNL A   1      44.925  31.559  28.433  1.00  0.00     0.049 A 
ATOM     53  H   UNL A   1      43.737  29.819  28.296  1.00  0.00     0.167 HD
ATOM     54  C   UNL A   1      42.824  32.172  29.610  1.00  0.00     0.074 A 
ATOM     55  C   UNL A   1      41.978  33.099  30.334  1.00  0.00     0.031 C 
ATOM     56  C   UNL A   1      44.076  32.464  29.172  1.00  0.00     0.034 A 
BRANCH  43  57
ATOM     57  C   UNL A   1      46.860  27.790  26.174  1.00  0.00     0.023 A 
ATOM     58  C   UNL A   1      47.144  28.056  24.822  1.00  0.00     0.031 A 
ATOM     59  C   UNL A   1      47.746  26.957  26.879  1.00  0.00     0.131 A 
ATOM     60  C   UNL A   1      48.227  27.421  24.195  1.00  0.00     0.055 A 
ATOM     61  C   UNL A   1      48.874  26.400  26.271  1.00  0.00     0.041 A 
ATOM     62  F   UNL A   1      47.519  26.650  28.166  1.00  0.00    -0.206 F 
ATOM     63  C   UNL A   1      49.109  26.615  24.916  1.00  0.00     0.022 A 
BRANCH  60  64
ATOM     64  S   UNL A   1      48.366  27.534  22.390  1.00  0.00     0.124 S 
ATOM     65  O   UNL A   1      49.595  28.310  22.238  1.00  0.00    -0.237 OA
ATOM     66  O   UNL A   1      48.441  26.134  21.990  1.00  0.00    -0.237 OA
ATOM     67  O   UNL A   1      47.145  28.233  21.995  1.00  0.00    -0.744 OA
ENDBRANCH  60  64
ENDBRANCH  43  57
BRANCH  44  68
ATOM     68  C   UNL A   1      38.564  30.704  30.997  1.00  0.00     0.023 A 
ATOM     69  C   UNL A   1      37.476  31.324  30.364  1.00  0.00     0.031 A 
ATOM     70  C   UNL A   1      38.497  30.513  32.388  1.00  0.00     0.131 A 
ATOM     71  C   UNL A   1      36.384  31.768  31.124  1.00  0.00     0.055 A 
ATOM     72  C   UNL A   1      37.388  30.914  33.134  1.00  0.00     0.041 A 
ATOM     73  F   UNL A   1      39.507  29.916  33.041  1.00  0.00    -0.206 F 
ATOM     74  C   UNL A   1      36.327  31.558  32.504  1.00  0.00     0.022 A 
BRANCH  71  75
ATOM     75  S   UNL A   1      35.060  32.689  30.291  1.00  0.00     0.124 S 
ATOM     76  O   UNL A   1      34.049  32.767  31.339  1.00  0.00    -0.237 OA
ATOM     77  O   UNL A   1      35.730  33.940  29.951  1.00  0.00    -0.237 OA
ATOM     78  O   UNL A   1      34.718  31.839  29.153  1.00  0.00    -0.744 OA
ENDBRANCH  71  75
ENDBRANCH  44  68
BRANCH  56  79
ATOM     79  C   UNL A   1      44.582  33.860  29.439  1.00  0.00     0.023 A 
ATOM     80  C   UNL A   1      44.308  34.925  28.562  1.00  0.00     0.031 A 
ATOM     81  C   UNL A   1      45.364  34.123  30.577  1.00  0.00     0.131 A 
ATOM     82  C   UNL A   1      44.860  36.190  28.807  1.00  0.00     0.055 A 
ATOM     83  C   UNL A   1      45.861  35.398  30.847  1.00  0.00     0.041 A 
ATOM     84  F   UNL A   1      45.658  33.143  31.445  1.00  0.00    -0.206 F 
ATOM     85  C   UNL A   1      45.622  36.438  29.953  1.00  0.00     0.022 A 
BRANCH  82  86
ATOM     86  S   UNL A   1      44.648  37.489  27.559  1.00  0.00     0.124 S 
ATOM     87  O   UNL A   1      45.893  37.391  26.804  1.00  0.00    -0.237 OA
ATOM     88  O   UNL A   1      43.442  37.058  26.860  1.00  0.00    -0.237 OA
ATOM     89  O   UNL A   1      44.500  38.708  28.354  1.00  0.00    -0.744 OA
ENDBRANCH  82  86
ENDBRANCH  56  79
ENDBRANCH  30  31
ENDBRANCH  22  25
ENDBRANCH  20  21
ENDBRANCH  19  20
ENDBRANCH   1  19
TORSDOF 17
ENDMDL
MODEL 2
REMARK VINA RESULT:     -11.1      1.146      1.759
REMARK SMILES CC(C)([NH2+]C[C@@H]1CCCO1)C(=O)NCCCCNC(=O)c1ccc(-c2c3nc(c(-c4cc(S(=O)(=O)[O-])ccc4F)c4ccc([nH]4)c(-c4cc(S(=O)(=O)[O-])ccc4F)c4nc(c(-c5cc(S(=O)(=O)[O-])ccc5F)c5ccc2[nH]5)C=C4)C=C3)cc1
REMARK SMILES IDX 15 1 14 2 13 3 11 4 12 5 2 7 1 8 3 9 4 10 5 13 6 14 7 15
REMARK SMILES IDX 10 16 8 17 9 18 16 19 17 20 18 21 19 22 20 24 21 25 22 26
REMARK SMILES IDX 83 27 23 28 82 29 24 30 25 31 26 32 76 33 27 34 81 35 75 36
REMARK SMILES IDX 77 37 28 38 80 39 74 40 73 41 29 43 61 44 41 45 60 46 42 47
REMARK SMILES IDX 45 48 59 49 78 50 43 51 44 52 58 54 79 55 46 56 30 57 31 58
REMARK SMILES IDX 39 59 32 60 38 61 40 62 37 63 33 64 34 65 35 66 36 67 62 68
REMARK SMILES IDX 63 69 71 70 64 71 70 72 72 73 69 74 65 75 66 76 67 77 68 78
REMARK SMILES IDX 47 79 48 80 56 81 49 82 55 83 57 84 54 85 50 86 51 87 52 88
REMARK SMILES IDX 53 89
REMARK H PARENT 13 6 4 11 4 12 18 23 77 42 45 53
REMARK Flexibility Score: inf
ROOT
ATOM      1  C   UNL A   1      36.610  23.198  23.590  1.00  0.00     0.023 C 
ENDROOT
BRANCH   1   2
ATOM      2  C   UNL A   1      35.236  23.877  23.638  1.00  0.00     0.116 C 
BRANCH   2   3
ATOM      3  N   UNL A   1      34.234  23.037  23.021  1.00  0.00    -0.351 N 
ATOM      4  C   UNL A   1      32.875  23.101  22.962  1.00  0.00     0.280 C 
ATOM      5  O   UNL A   1      32.347  22.076  22.503  1.00  0.00    -0.268 OA
ATOM      6  H   UNL A   1      34.610  22.261  22.545  1.00  0.00     0.163 HD
BRANCH   4   7
ATOM      7  C   UNL A   1      32.008  24.359  23.340  1.00  0.00     0.169 C 
ATOM      8  C   UNL A   1      30.526  23.874  23.229  1.00  0.00     0.090 C 
ATOM      9  C   UNL A   1      32.130  25.493  22.319  1.00  0.00     0.090 C 
BRANCH   7  10
ATOM     10  N   UNL A   1      32.063  24.776  24.766  1.00  0.00    -0.332 N 
ATOM     11  H   UNL A   1      31.677  25.720  24.799  1.00  0.00     0.347 HD
ATOM     12  H   UNL A   1      33.047  24.624  24.987  1.00  0.00     0.347 HD
BRANCH  10  13
ATOM     13  C   UNL A   1      31.406  24.036  25.831  1.00  0.00     0.293 C 
BRANCH  13  14
ATOM     14  C   UNL A   1      32.136  22.887  26.563  1.00  0.00     0.173 C 
ATOM     15  C   UNL A   1      33.602  23.136  26.874  1.00  0.00     0.040 C 
ATOM     16  O   UNL A   1      32.083  21.634  25.867  1.00  0.00    -0.372 OA
ATOM     17  C   UNL A   1      34.114  21.729  27.072  1.00  0.00     0.031 C 
ATOM     18  C   UNL A   1      33.335  20.956  26.033  1.00  0.00     0.161 C 
ENDBRANCH  13  14
ENDBRANCH  10  13
ENDBRANCH   7  10
ENDBRANCH   4   7
ENDBRANCH   2   3
ENDBRANCH   1   2
BRANCH   1  19
ATOM     19  C   UNL A   1      36.644  21.789  24.165  1.00  0.00     0.023 C 
BRANCH  19  20
ATOM     20  C   UNL A   1      37.220  21.698  25.570  1.00  0.00     0.116 C 
BRANCH  20  21
ATOM     21  N   UNL A   1      38.314  20.742  25.695  1.00  0.00    -0.352 N 
ATOM     22  C   UNL A   1      39.580  20.957  26.196  1.00  0.00     0.251 C 
ATOM     23  H   UNL A   1      38.124  19.828  25.381  1.00  0.00     0.163 HD
ATOM     24  O   UNL A   1      40.424  20.074  26.153  1.00  0.00    -0.269 OA
BRANCH  22  25
ATOM     25  C   UNL A   1      39.906  22.294  26.736  1.00  0.00     0.039 A 
ATOM     26  C   UNL A   1      40.906  22.409  27.702  1.00  0.00     0.014 A 
ATOM     27  C   UNL A   1      39.297  23.433  26.203  1.00  0.00     0.014 A 
ATOM     28  C   UNL A   1      41.364  23.677  28.066  1.00  0.00     0.010 A 
ATOM     29  C   UNL A   1      39.820  24.687  26.496  1.00  0.00     0.010 A 
ATOM     30  C   UNL A   1      40.862  24.823  27.425  1.00  0.00    -0.014 A 
BRANCH  30  31
ATOM     31  C   UNL A   1      41.421  26.172  27.704  1.00  0.00     0.031 A 
ATOM     32  C   UNL A   1      42.793  26.533  27.206  1.00  0.00     0.074 A 
ATOM     33  C   UNL A   1      40.730  27.032  28.478  1.00  0.00     0.049 A 
ATOM     34  N   UNL A   1      43.488  27.622  27.407  1.00  0.00    -0.248 NA
ATOM     35  C   UNL A   1      43.491  25.514  26.408  1.00  0.00     0.031 C 
ATOM     36  C   UNL A   1      39.422  26.768  29.082  1.00  0.00     0.029 A 
ATOM     37  N   UNL A   1      41.035  28.303  28.899  1.00  0.00    -0.354 N 
ATOM     38  C   UNL A   1      44.712  27.411  26.782  1.00  0.00     0.074 A 
ATOM     39  C   UNL A   1      44.686  26.062  26.258  1.00  0.00     0.031 C 
ATOM     40  C   UNL A   1      39.024  27.852  29.767  1.00  0.00     0.029 A 
ATOM     41  C   UNL A   1      40.063  28.873  29.688  1.00  0.00     0.049 A 
ATOM     42  H   UNL A   1      41.871  28.763  28.658  1.00  0.00     0.167 HD
ATOM     43  C   UNL A   1      45.749  28.272  26.633  1.00  0.00     0.034 A 
ATOM     44  C   UNL A   1      40.016  30.081  30.285  1.00  0.00     0.034 A 
ATOM     45  C   UNL A   1      45.745  29.622  27.142  1.00  0.00     0.049 A 
ATOM     46  C   UNL A   1      41.171  31.029  30.092  1.00  0.00     0.074 A 
ATOM     47  C   UNL A   1      46.705  30.606  26.986  1.00  0.00     0.029 A 
ATOM     48  N   UNL A   1      44.731  30.176  27.916  1.00  0.00    -0.354 N 
ATOM     49  N   UNL A   1      42.294  30.841  29.436  1.00  0.00    -0.248 NA
ATOM     50  C   UNL A   1      41.048  32.356  30.709  1.00  0.00     0.031 C 
ATOM     51  C   UNL A   1      46.301  31.732  27.714  1.00  0.00     0.029 A 
ATOM     52  C   UNL A   1      45.056  31.478  28.267  1.00  0.00     0.049 A 
ATOM     53  H   UNL A   1      43.903  29.711  28.176  1.00  0.00     0.167 HD
ATOM     54  C   UNL A   1      42.999  32.037  29.542  1.00  0.00     0.074 A 
ATOM     55  C   UNL A   1      42.165  32.942  30.308  1.00  0.00     0.031 C 
ATOM     56  C   UNL A   1      44.221  32.360  29.048  1.00  0.00     0.034 A 
BRANCH  43  57
ATOM     57  C   UNL A   1      46.971  27.763  25.904  1.00  0.00     0.023 A 
ATOM     58  C   UNL A   1      47.206  28.072  24.552  1.00  0.00     0.031 A 
ATOM     59  C   UNL A   1      47.886  26.914  26.552  1.00  0.00     0.131 A 
ATOM     60  C   UNL A   1      48.271  27.466  23.869  1.00  0.00     0.055 A 
ATOM     61  C   UNL A   1      48.996  26.385  25.888  1.00  0.00     0.041 A 
ATOM     62  F   UNL A   1      47.705  26.565  27.835  1.00  0.00    -0.206 F 
ATOM     63  C   UNL A   1      49.183  26.645  24.534  1.00  0.00     0.022 A 
BRANCH  60  64
ATOM     64  S   UNL A   1      48.348  27.638  22.064  1.00  0.00     0.124 S 
ATOM     65  O   UNL A   1      48.521  26.250  21.644  1.00  0.00    -0.237 OA
ATOM     66  O   UNL A   1      47.060  28.245  21.750  1.00  0.00    -0.237 OA
ATOM     67  O   UNL A   1      49.512  28.495  21.851  1.00  0.00    -0.744 OA
ENDBRANCH  60  64
ENDBRANCH  43  57
BRANCH  44  68
ATOM     68  C   UNL A   1      38.841  30.467  31.115  1.00  0.00     0.023 A 
ATOM     69  C   UNL A   1      37.750  31.147  30.552  1.00  0.00     0.031 A 
ATOM     70  C   UNL A   1      38.805  30.187  32.493  1.00  0.00     0.131 A 
ATOM     71  C   UNL A   1      36.685  31.560  31.368  1.00  0.00     0.055 A 
ATOM     72  C   UNL A   1      37.722  30.558  33.291  1.00  0.00     0.041 A 
ATOM     73  F   UNL A   1      39.818  29.530  33.079  1.00  0.00    -0.206 F 
ATOM     74  C   UNL A   1      36.659  31.260  32.732  1.00  0.00     0.022 A 
BRANCH  71  75
ATOM     75  S   UNL A   1      35.360  32.556  30.631  1.00  0.00     0.124 S 
ATOM     76  O   UNL A   1      34.276  32.361  31.587  1.00  0.00    -0.237 OA
ATOM     77  O   UNL A   1      35.961  33.886  30.604  1.00  0.00    -0.237 OA
ATOM     78  O   UNL A   1      35.158  31.940  29.321  1.00  0.00    -0.744 OA
ENDBRANCH  71  75
ENDBRANCH  44  68
BRANCH  56  79
ATOM     79  C   UNL A   1      44.707  33.766  29.298  1.00  0.00     0.023 A 
ATOM     80  C   UNL A   1      44.308  34.842  28.485  1.00  0.00     0.031 A 
ATOM     81  C   UNL A   1      45.597  34.030  30.354  1.00  0.00     0.131 A 
ATOM     82  C   UNL A   1      44.842  36.119  28.705  1.00  0.00     0.055 A 
ATOM     83  C   UNL A   1      46.078  35.315  30.606  1.00  0.00     0.041 A 
ATOM     84  F   UNL A   1      46.012  33.040  31.161  1.00  0.00    -0.206 F 
ATOM     85  C   UNL A   1      45.712  36.366  29.770  1.00  0.00     0.022 A 
BRANCH  82  86
ATOM     86  S   UNL A   1      44.457  37.439  27.521  1.00  0.00     0.124 S 
ATOM     87  O   UNL A   1      44.067  38.533  28.404  1.00  0.00    -0.237 OA
ATOM     88  O   UNL A   1      45.725  37.607  26.818  1.00  0.00    -0.237 OA
ATOM     89  O   UNL A   1      43.373  36.874  26.718  1.00  0.00    -0.744 OA
ENDBRANCH  82  86
ENDBRANCH  56  79
ENDBRANCH  30  31
ENDBRANCH  22  25
ENDBRANCH  20  21
ENDBRANCH  19  20
ENDBRANCH   1  19
TORSDOF 17
ENDMDL
MODEL 3
REMARK VINA RESULT:     -11.0      6.207      9.205
REMARK SMILES CC(C)([NH2+]C[C@@H]1CCCO1)C(=O)NCCCCNC(=O)c1ccc(-c2c3nc(c(-c4cc(S(=O)(=O)[O-])ccc4F)c4ccc([nH]4)c(-c4cc(S(=O)(=O)[O-])ccc4F)c4nc(c(-c5cc(S(=O)(=O)[O-])ccc5F)c5ccc2[nH]5)C=C4)C=C3)cc1
REMARK SMILES IDX 15 1 14 2 13 3 11 4 12 5 2 7 1 8 3 9 4 10 5 13 6 14 7 15
REMARK SMILES IDX 10 16 8 17 9 18 16 19 17 20 18 21 19 22 20 24 21 25 22 26
REMARK SMILES IDX 83 27 23 28 82 29 24 30 25 31 26 32 76 33 27 34 81 35 75 36
REMARK SMILES IDX 77 37 28 38 80 39 74 40 73 41 29 43 61 44 41 45 60 46 42 47
REMARK SMILES IDX 45 48 59 49 78 50 43 51 44 52 58 54 79 55 46 56 30 57 31 58
REMARK SMILES IDX 39 59 32 60 38 61 40 62 37 63 33 64 34 65 35 66 36 67 62 68
REMARK SMILES IDX 63 69 71 70 64 71 70 72 72 73 69 74 65 75 66 76 67 77 68 78
REMARK SMILES IDX 47 79 48 80 56 81 49 82 55 83 57 84 54 85 50 86 51 87 52 88
REMARK SMILES IDX 53 89
REMARK H PARENT 13 6 4 11 4 12 18 23 77 42 45 53
REMARK Flexibility Score: inf
ROOT
ATOM      1  C   UNL A   1      32.667  29.285  27.228  1.00  0.00     0.023 C 
ENDROOT
BRANCH   1   2
ATOM      2  C   UNL A   1      31.467  28.342  27.369  1.00  0.00     0.116 C 
BRANCH   2   3
ATOM      3  N   UNL A   1      31.831  26.997  26.980  1.00  0.00    -0.351 N 
ATOM      4  C   UNL A   1      31.858  26.352  25.783  1.00  0.00     0.280 C 
ATOM      5  O   UNL A   1      32.039  25.127  25.880  1.00  0.00    -0.268 OA
ATOM      6  H   UNL A   1      32.117  26.434  27.736  1.00  0.00     0.163 HD
BRANCH   4   7
ATOM      7  C   UNL A   1      31.765  27.046  24.374  1.00  0.00     0.169 C 
ATOM      8  C   UNL A   1      31.680  25.869  23.349  1.00  0.00     0.090 C 
ATOM      9  C   UNL A   1      33.042  27.803  24.000  1.00  0.00     0.090 C 
BRANCH   7  10
ATOM     10  N   UNL A   1      30.493  27.762  24.089  1.00  0.00    -0.332 N 
ATOM     11  H   UNL A   1      30.538  28.636  24.613  1.00  0.00     0.347 HD
ATOM     12  H   UNL A   1      29.800  27.056  24.340  1.00  0.00     0.347 HD
BRANCH  10  13
ATOM     13  C   UNL A   1      30.073  28.120  22.744  1.00  0.00     0.293 C 
BRANCH  13  14
ATOM     14  C   UNL A   1      29.833  29.597  22.357  1.00  0.00     0.173 C 
ATOM     15  C   UNL A   1      29.320  30.490  23.473  1.00  0.00     0.040 C 
ATOM     16  O   UNL A   1      28.924  29.765  21.261  1.00  0.00    -0.372 OA
ATOM     17  C   UNL A   1      28.715  31.634  22.693  1.00  0.00     0.031 C 
ATOM     18  C   UNL A   1      28.117  30.926  21.500  1.00  0.00     0.161 C 
ENDBRANCH  13  14
ENDBRANCH  10  13
ENDBRANCH   7  10
ENDBRANCH   4   7
ENDBRANCH   2   3
ENDBRANCH   1   2
BRANCH   1  19
ATOM     19  C   UNL A   1      32.307  30.736  26.939  1.00  0.00     0.023 C 
BRANCH  19  20
ATOM     20  C   UNL A   1      33.361  31.743  27.372  1.00  0.00     0.116 C 
BRANCH  20  21
ATOM     21  N   UNL A   1      32.849  33.100  27.524  1.00  0.00    -0.352 N 
ATOM     22  C   UNL A   1      33.253  34.069  28.417  1.00  0.00     0.251 C 
ATOM     23  H   UNL A   1      32.122  33.356  26.911  1.00  0.00     0.163 HD
ATOM     24  O   UNL A   1      32.664  35.137  28.486  1.00  0.00    -0.269 OA
BRANCH  22  25
ATOM     25  C   UNL A   1      34.380  33.762  29.324  1.00  0.00     0.039 A 
ATOM     26  C   UNL A   1      34.155  32.941  30.430  1.00  0.00     0.014 A 
ATOM     27  C   UNL A   1      35.670  34.197  29.012  1.00  0.00     0.014 A 
ATOM     28  C   UNL A   1      35.245  32.478  31.171  1.00  0.00     0.010 A 
ATOM     29  C   UNL A   1      36.757  33.659  29.691  1.00  0.00     0.010 A 
ATOM     30  C   UNL A   1      36.556  32.790  30.773  1.00  0.00    -0.014 A 
BRANCH  30  31
ATOM     31  C   UNL A   1      37.733  32.208  31.470  1.00  0.00     0.031 A 
ATOM     32  C   UNL A   1      38.509  31.091  30.827  1.00  0.00     0.074 A 
ATOM     33  C   UNL A   1      38.046  32.624  32.713  1.00  0.00     0.049 A 
ATOM     34  N   UNL A   1      39.513  30.399  31.301  1.00  0.00    -0.248 NA
ATOM     35  C   UNL A   1      38.068  30.670  29.489  1.00  0.00     0.031 C 
ATOM     36  C   UNL A   1      37.323  33.648  33.471  1.00  0.00     0.029 A 
ATOM     37  N   UNL A   1      39.049  32.232  33.565  1.00  0.00    -0.354 N 
ATOM     38  C   UNL A   1      39.809  29.448  30.330  1.00  0.00     0.074 A 
ATOM     39  C   UNL A   1      38.830  29.610  29.276  1.00  0.00     0.031 C 
ATOM     40  C   UNL A   1      37.923  33.825  34.659  1.00  0.00     0.029 A 
ATOM     41  C   UNL A   1      39.047  32.901  34.768  1.00  0.00     0.049 A 
ATOM     42  H   UNL A   1      39.707  31.538  33.337  1.00  0.00     0.167 HD
ATOM     43  C   UNL A   1      40.820  28.545  30.306  1.00  0.00     0.034 A 
ATOM     44  C   UNL A   1      39.856  32.780  35.838  1.00  0.00     0.034 A 
ATOM     45  C   UNL A   1      41.800  28.417  31.356  1.00  0.00     0.049 A 
ATOM     46  C   UNL A   1      40.984  31.782  35.784  1.00  0.00     0.074 A 
ATOM     47  C   UNL A   1      42.910  27.592  31.405  1.00  0.00     0.029 A 
ATOM     48  N   UNL A   1      41.783  29.129  32.550  1.00  0.00    -0.354 N 
ATOM     49  N   UNL A   1      41.295  30.938  34.828  1.00  0.00    -0.248 NA
ATOM     50  C   UNL A   1      41.877  31.730  36.949  1.00  0.00     0.031 C 
ATOM     51  C   UNL A   1      43.528  27.761  32.650  1.00  0.00     0.029 A 
ATOM     52  C   UNL A   1      42.847  28.743  33.352  1.00  0.00     0.049 A 
ATOM     53  H   UNL A   1      41.113  29.810  32.790  1.00  0.00     0.167 HD
ATOM     54  C   UNL A   1      42.436  30.272  35.266  1.00  0.00     0.074 A 
ATOM     55  C   UNL A   1      42.766  30.827  36.564  1.00  0.00     0.031 C 
ATOM     56  C   UNL A   1      43.149  29.294  34.652  1.00  0.00     0.034 A 
BRANCH  43  57
ATOM     57  C   UNL A   1      40.894  27.623  29.111  1.00  0.00     0.023 A 
ATOM     58  C   UNL A   1      41.837  27.817  28.086  1.00  0.00     0.031 A 
ATOM     59  C   UNL A   1      39.978  26.565  28.968  1.00  0.00     0.131 A 
ATOM     60  C   UNL A   1      41.783  27.031  26.925  1.00  0.00     0.055 A 
ATOM     61  C   UNL A   1      39.989  25.728  27.849  1.00  0.00     0.041 A 
ATOM     62  F   UNL A   1      39.041  26.340  29.903  1.00  0.00    -0.206 F 
ATOM     63  C   UNL A   1      40.882  25.971  26.810  1.00  0.00     0.022 A 
BRANCH  60  64
ATOM     64  S   UNL A   1      42.798  27.521  25.503  1.00  0.00     0.124 S 
ATOM     65  O   UNL A   1      44.082  27.802  26.141  1.00  0.00    -0.237 OA
ATOM     66  O   UNL A   1      42.750  26.335  24.657  1.00  0.00    -0.237 OA
ATOM     67  O   UNL A   1      42.105  28.694  24.975  1.00  0.00    -0.744 OA
ENDBRANCH  60  64
ENDBRANCH  43  57
BRANCH  44  68
ATOM     68  C   UNL A   1      39.637  33.621  37.049  1.00  0.00     0.023 A 
ATOM     69  C   UNL A   1      39.087  33.076  38.219  1.00  0.00     0.031 A 
ATOM     70  C   UNL A   1      39.949  34.992  37.043  1.00  0.00     0.131 A 
ATOM     71  C   UNL A   1      38.828  33.903  39.322  1.00  0.00     0.055 A 
ATOM     72  C   UNL A   1      39.733  35.801  38.159  1.00  0.00     0.041 A 
ATOM     73  F   UNL A   1      40.487  35.561  35.952  1.00  0.00    -0.206 F 
ATOM     74  C   UNL A   1      39.158  35.260  39.304  1.00  0.00     0.022 A 
BRANCH  71  75
ATOM     75  S   UNL A   1      37.989  33.191  40.765  1.00  0.00     0.124 S 
ATOM     76  O   UNL A   1      38.610  31.875  40.851  1.00  0.00    -0.237 OA
ATOM     77  O   UNL A   1      38.342  34.137  41.818  1.00  0.00    -0.237 OA
ATOM     78  O   UNL A   1      36.580  33.194  40.376  1.00  0.00    -0.744 OA
ENDBRANCH  71  75
ENDBRANCH  44  68
BRANCH  56  79
ATOM     79  C   UNL A   1      44.377  28.792  35.371  1.00  0.00     0.023 A 
ATOM     80  C   UNL A   1      44.292  27.824  36.389  1.00  0.00     0.031 A 
ATOM     81  C   UNL A   1      45.645  29.302  35.046  1.00  0.00     0.131 A 
ATOM     82  C   UNL A   1      45.448  27.441  37.085  1.00  0.00     0.055 A 
ATOM     83  C   UNL A   1      46.800  28.871  35.702  1.00  0.00     0.041 A 
ATOM     84  F   UNL A   1      45.783  30.228  34.085  1.00  0.00    -0.206 F 
ATOM     85  C   UNL A   1      46.703  27.946  36.737  1.00  0.00     0.022 A 
BRANCH  82  86
ATOM     86  S   UNL A   1      45.277  26.340  38.516  1.00  0.00     0.124 S 
ATOM     87  O   UNL A   1      46.163  26.969  39.490  1.00  0.00    -0.237 OA
ATOM     88  O   UNL A   1      43.849  26.423  38.806  1.00  0.00    -0.237 OA
ATOM     89  O   UNL A   1      45.731  25.045  38.010  1.00  0.00    -0.744 OA
ENDBRANCH  82  86
ENDBRANCH  56  79
ENDBRANCH  30  31
ENDBRANCH  22  25
ENDBRANCH  20  21
ENDBRANCH  19  20
ENDBRANCH   1  19
TORSDOF 17
ENDMDL
