MODEL 1
REMARK VINA RESULT:      -9.8      0.000      0.000
REMARK SMILES CCC[C@@H](C)C[NH2+][C@@](C)(CC)C(=O)NCCCCNC(=O)c1ccc(-c2c3nc(c(-c4cc(S(=O)(=O)[O-])ccc4F)c4ccc([nH]4)c(-c4cc(S(=O)(=O)[O-])ccc4F)c4nc(c(-c5cc(S(=O)(=O)[O-])ccc5F)c5ccc2[nH]5)C=C4)C=C3)cc1
REMARK SMILES IDX 15 1 14 2 12 3 13 4 8 6 9 7 7 8 6 11 4 12 5 13 3 14 2 15
REMARK SMILES IDX 1 16 10 17 11 18 16 19 17 20 18 21 19 22 20 23 21 25 22 26
REMARK SMILES IDX 23 27 84 28 24 29 83 30 25 31 26 32 27 33 77 34 28 35 82 36
REMARK SMILES IDX 76 37 78 38 29 39 81 40 75 41 74 42 30 44 62 45 42 46 61 47
REMARK SMILES IDX 43 48 46 49 60 50 79 51 44 52 45 53 59 55 80 56 47 57 31 58
REMARK SMILES IDX 32 59 40 60 33 61 39 62 41 63 38 64 34 65 35 66 36 67 37 68
REMARK SMILES IDX 63 69 64 70 72 71 65 72 71 73 73 74 70 75 66 76 67 77 68 78
REMARK SMILES IDX 69 79 48 80 49 81 57 82 50 83 56 84 58 85 55 86 51 87 52 88
REMARK SMILES IDX 53 89 54 90
REMARK H PARENT 14 5 7 9 7 10 19 24 78 43 46 54
REMARK Flexibility Score: inf
ROOT
ATOM      1  C   UNL A   1      31.770  26.598  26.581  1.00  0.00     0.116 C 
ENDROOT
BRANCH   1   2
ATOM      2  N   UNL A   1      33.029  26.060  26.107  1.00  0.00    -0.351 N 
ATOM      3  C   UNL A   1      33.425  25.543  24.910  1.00  0.00     0.281 C 
ATOM      4  O   UNL A   1      34.561  25.056  24.911  1.00  0.00    -0.268 OA
ATOM      5  H   UNL A   1      33.741  26.069  26.787  1.00  0.00     0.163 HD
BRANCH   3   6
ATOM      6  C   UNL A   1      32.503  25.559  23.635  1.00  0.00     0.172 C 
ATOM      7  C   UNL A   1      31.330  24.565  23.774  1.00  0.00     0.090 C 
BRANCH   6   8
ATOM      8  N   UNL A   1      31.934  26.924  23.399  1.00  0.00    -0.334 N 
ATOM      9  H   UNL A   1      31.794  27.364  24.309  1.00  0.00     0.347 HD
ATOM     10  H   UNL A   1      32.610  27.402  22.803  1.00  0.00     0.347 HD
BRANCH   8  11
ATOM     11  C   UNL A   1      30.662  26.980  22.674  1.00  0.00     0.264 C 
BRANCH  11  12
ATOM     12  C   UNL A   1      29.591  27.766  23.474  1.00  0.00     0.041 C 
ATOM     13  C   UNL A   1      28.472  26.799  23.883  1.00  0.00     0.013 C 
BRANCH  12  14
ATOM     14  C   UNL A   1      29.035  28.957  22.661  1.00  0.00     0.009 C 
BRANCH  14  15
ATOM     15  C   UNL A   1      29.155  30.334  23.322  1.00  0.00    -0.003 C 
ATOM     16  C   UNL A   1      27.818  31.038  23.495  1.00  0.00     0.004 C 
ENDBRANCH  14  15
ENDBRANCH  12  14
ENDBRANCH  11  12
ENDBRANCH   8  11
ENDBRANCH   6   8
BRANCH   6  17
ATOM     17  C   UNL A   1      33.330  25.226  22.362  1.00  0.00     0.075 C 
ATOM     18  C   UNL A   1      33.358  23.744  21.987  1.00  0.00     0.011 C 
ENDBRANCH   6  17
ENDBRANCH   3   6
ENDBRANCH   1   2
BRANCH   1  19
ATOM     19  C   UNL A   1      31.943  27.979  27.209  1.00  0.00     0.023 C 
BRANCH  19  20
ATOM     20  C   UNL A   1      31.761  29.153  26.244  1.00  0.00     0.023 C 
BRANCH  20  21
ATOM     21  C   UNL A   1      32.980  30.054  26.075  1.00  0.00     0.116 C 
BRANCH  21  22
ATOM     22  N   UNL A   1      32.775  31.401  26.586  1.00  0.00    -0.352 N 
ATOM     23  C   UNL A   1      33.554  32.093  27.485  1.00  0.00     0.251 C 
ATOM     24  H   UNL A   1      31.981  31.875  26.248  1.00  0.00     0.163 HD
ATOM     25  O   UNL A   1      33.198  33.192  27.897  1.00  0.00    -0.269 OA
BRANCH  23  26
ATOM     26  C   UNL A   1      34.801  31.468  27.972  1.00  0.00     0.039 A 
ATOM     27  C   UNL A   1      35.954  32.248  28.076  1.00  0.00     0.014 A 
ATOM     28  C   UNL A   1      34.800  30.136  28.393  1.00  0.00     0.014 A 
ATOM     29  C   UNL A   1      37.095  31.710  28.677  1.00  0.00     0.010 A 
ATOM     30  C   UNL A   1      35.915  29.624  29.045  1.00  0.00     0.010 A 
ATOM     31  C   UNL A   1      37.071  30.409  29.201  1.00  0.00    -0.014 A 
BRANCH  31  32
ATOM     32  C   UNL A   1      38.242  29.821  29.899  1.00  0.00     0.031 A 
ATOM     33  C   UNL A   1      38.608  30.324  31.269  1.00  0.00     0.074 A 
ATOM     34  C   UNL A   1      39.022  28.917  29.276  1.00  0.00     0.049 A 
ATOM     35  N   UNL A   1      39.686  30.102  31.976  1.00  0.00    -0.248 NA
ATOM     36  C   UNL A   1      37.640  31.229  31.908  1.00  0.00     0.031 C 
ATOM     37  C   UNL A   1      38.778  28.362  27.943  1.00  0.00     0.029 A 
ATOM     38  N   UNL A   1      40.192  28.318  29.673  1.00  0.00    -0.354 N 
ATOM     39  C   UNL A   1      39.539  30.860  33.132  1.00  0.00     0.074 A 
ATOM     40  C   UNL A   1      38.291  31.583  33.005  1.00  0.00     0.031 C 
ATOM     41  C   UNL A   1      39.762  27.499  27.639  1.00  0.00     0.029 A 
ATOM     42  C   UNL A   1      40.732  27.475  28.729  1.00  0.00     0.049 A 
ATOM     43  H   UNL A   1      40.606  28.477  30.552  1.00  0.00     0.167 HD
ATOM     44  C   UNL A   1      40.361  30.931  34.209  1.00  0.00     0.034 A 
ATOM     45  C   UNL A   1      41.888  26.783  28.735  1.00  0.00     0.034 A 
ATOM     46  C   UNL A   1      41.592  30.189  34.326  1.00  0.00     0.049 A 
ATOM     47  C   UNL A   1      42.796  26.891  29.935  1.00  0.00     0.074 A 
ATOM     48  C   UNL A   1      42.497  30.174  35.373  1.00  0.00     0.029 A 
ATOM     49  N   UNL A   1      42.085  29.318  33.363  1.00  0.00    -0.354 N 
ATOM     50  N   UNL A   1      42.647  27.616  31.020  1.00  0.00    -0.248 NA
ATOM     51  C   UNL A   1      44.024  26.085  29.914  1.00  0.00     0.031 C 
ATOM     52  C   UNL A   1      43.556  29.329  35.026  1.00  0.00     0.029 A 
ATOM     53  C   UNL A   1      43.282  28.767  33.789  1.00  0.00     0.049 A 
ATOM     54  H   UNL A   1      41.648  29.121  32.503  1.00  0.00     0.167 HD
ATOM     55  C   UNL A   1      43.741  27.315  31.828  1.00  0.00     0.074 A 
ATOM     56  C   UNL A   1      44.540  26.348  31.105  1.00  0.00     0.031 C 
ATOM     57  C   UNL A   1      44.053  27.790  33.060  1.00  0.00     0.034 A 
BRANCH  44  58
ATOM     58  C   UNL A   1      39.957  31.865  35.321  1.00  0.00     0.023 A 
ATOM     59  C   UNL A   1      39.138  31.435  36.380  1.00  0.00     0.031 A 
ATOM     60  C   UNL A   1      40.355  33.214  35.303  1.00  0.00     0.131 A 
ATOM     61  C   UNL A   1      38.676  32.358  37.327  1.00  0.00     0.055 A 
ATOM     62  C   UNL A   1      39.958  34.111  36.297  1.00  0.00     0.041 A 
ATOM     63  F   UNL A   1      41.119  33.688  34.306  1.00  0.00    -0.206 F 
ATOM     64  C   UNL A   1      39.101  33.688  37.309  1.00  0.00     0.022 A 
BRANCH  61  65
ATOM     65  S   UNL A   1      37.396  31.827  38.498  1.00  0.00     0.124 S 
ATOM     66  O   UNL A   1      38.099  31.947  39.774  1.00  0.00    -0.237 OA
ATOM     67  O   UNL A   1      36.331  32.793  38.263  1.00  0.00    -0.237 OA
ATOM     68  O   UNL A   1      37.101  30.457  38.084  1.00  0.00    -0.744 OA
ENDBRANCH  61  65
ENDBRANCH  44  58
BRANCH  45  69
ATOM     69  C   UNL A   1      42.272  25.933  27.572  1.00  0.00     0.023 A 
ATOM     70  C   UNL A   1      41.842  24.600  27.484  1.00  0.00     0.031 A 
ATOM     71  C   UNL A   1      43.123  26.419  26.564  1.00  0.00     0.131 A 
ATOM     72  C   UNL A   1      42.304  23.781  26.442  1.00  0.00     0.055 A 
ATOM     73  C   UNL A   1      43.540  25.615  25.501  1.00  0.00     0.041 A 
ATOM     74  F   UNL A   1      43.560  27.688  26.597  1.00  0.00    -0.206 F 
ATOM     75  C   UNL A   1      43.142  24.282  25.444  1.00  0.00     0.022 A 
BRANCH  72  76
ATOM     76  S   UNL A   1      41.868  22.021  26.465  1.00  0.00     0.124 S 
ATOM     77  O   UNL A   1      40.431  22.066  26.219  1.00  0.00    -0.237 OA
ATOM     78  O   UNL A   1      42.690  21.492  25.382  1.00  0.00    -0.237 OA
ATOM     79  O   UNL A   1      42.257  21.592  27.808  1.00  0.00    -0.744 OA
ENDBRANCH  72  76
ENDBRANCH  45  69
BRANCH  57  80
ATOM     80  C   UNL A   1      45.265  27.203  33.733  1.00  0.00     0.023 A 
ATOM     81  C   UNL A   1      45.184  26.062  34.550  1.00  0.00     0.031 A 
ATOM     82  C   UNL A   1      46.524  27.800  33.544  1.00  0.00     0.131 A 
ATOM     83  C   UNL A   1      46.340  25.576  35.181  1.00  0.00     0.055 A 
ATOM     84  C   UNL A   1      47.677  27.285  34.137  1.00  0.00     0.041 A 
ATOM     85  F   UNL A   1      46.652  28.891  32.771  1.00  0.00    -0.206 F 
ATOM     86  C   UNL A   1      47.586  26.173  34.969  1.00  0.00     0.022 A 
BRANCH  83  87
ATOM     87  S   UNL A   1      46.184  24.184  36.332  1.00  0.00     0.124 S 
ATOM     88  O   UNL A   1      46.721  24.748  37.567  1.00  0.00    -0.237 OA
ATOM     89  O   UNL A   1      44.749  23.926  36.321  1.00  0.00    -0.237 OA
ATOM     90  O   UNL A   1      47.004  23.140  35.720  1.00  0.00    -0.744 OA
ENDBRANCH  83  87
ENDBRANCH  57  80
ENDBRANCH  31  32
ENDBRANCH  23  26
ENDBRANCH  21  22
ENDBRANCH  20  21
ENDBRANCH  19  20
ENDBRANCH   1  19
TORSDOF 20
ENDMDL
MODEL 2
REMARK VINA RESULT:      -9.8      1.896      8.364
REMARK SMILES CCC[C@@H](C)C[NH2+][C@@](C)(CC)C(=O)NCCCCNC(=O)c1ccc(-c2c3nc(c(-c4cc(S(=O)(=O)[O-])ccc4F)c4ccc([nH]4)c(-c4cc(S(=O)(=O)[O-])ccc4F)c4nc(c(-c5cc(S(=O)(=O)[O-])ccc5F)c5ccc2[nH]5)C=C4)C=C3)cc1
REMARK SMILES IDX 15 1 14 2 12 3 13 4 8 6 9 7 7 8 6 11 4 12 5 13 3 14 2 15
REMARK SMILES IDX 1 16 10 17 11 18 16 19 17 20 18 21 19 22 20 23 21 25 22 26
REMARK SMILES IDX 23 27 84 28 24 29 83 30 25 31 26 32 27 33 77 34 28 35 82 36
REMARK SMILES IDX 76 37 78 38 29 39 81 40 75 41 74 42 30 44 62 45 42 46 61 47
REMARK SMILES IDX 43 48 46 49 60 50 79 51 44 52 45 53 59 55 80 56 47 57 31 58
REMARK SMILES IDX 32 59 40 60 33 61 39 62 41 63 38 64 34 65 35 66 36 67 37 68
REMARK SMILES IDX 63 69 64 70 72 71 65 72 71 73 73 74 70 75 66 76 67 77 68 78
REMARK SMILES IDX 69 79 48 80 49 81 57 82 50 83 56 84 58 85 55 86 51 87 52 88
REMARK SMILES IDX 53 89 54 90
REMARK H PARENT 14 5 7 9 7 10 19 24 78 43 46 54
REMARK Flexibility Score: inf
ROOT
ATOM      1  C   UNL A   1      31.453  25.865  26.252  1.00  0.00     0.116 C 
ENDROOT
BRANCH   1   2
ATOM      2  N   UNL A   1      31.145  25.229  24.988  1.00  0.00    -0.351 N 
ATOM      3  C   UNL A   1      31.724  24.206  24.299  1.00  0.00     0.281 C 
ATOM      4  O   UNL A   1      31.256  24.015  23.171  1.00  0.00    -0.268 OA
ATOM      5  H   UNL A   1      30.360  25.614  24.534  1.00  0.00     0.163 HD
BRANCH   3   6
ATOM      6  C   UNL A   1      32.902  23.346  24.892  1.00  0.00     0.172 C 
ATOM      7  C   UNL A   1      32.710  23.090  26.402  1.00  0.00     0.090 C 
BRANCH   6   8
ATOM      8  N   UNL A   1      33.001  22.021  24.201  1.00  0.00    -0.334 N 
ATOM      9  H   UNL A   1      32.697  22.150  23.235  1.00  0.00     0.347 HD
ATOM     10  H   UNL A   1      33.975  21.733  24.300  1.00  0.00     0.347 HD
BRANCH   8  11
ATOM     11  C   UNL A   1      32.209  20.930  24.777  1.00  0.00     0.264 C 
BRANCH  11  12
ATOM     12  C   UNL A   1      33.119  19.793  25.308  1.00  0.00     0.041 C 
ATOM     13  C   UNL A   1      34.564  20.073  24.874  1.00  0.00     0.013 C 
BRANCH  12  14
ATOM     14  C   UNL A   1      32.643  18.407  24.815  1.00  0.00     0.009 C 
BRANCH  14  15
ATOM     15  C   UNL A   1      32.964  18.068  23.355  1.00  0.00    -0.003 C 
ATOM     16  C   UNL A   1      33.946  16.917  23.206  1.00  0.00     0.004 C 
ENDBRANCH  14  15
ENDBRANCH  12  14
ENDBRANCH  11  12
ENDBRANCH   8  11
ENDBRANCH   6   8
BRANCH   6  17
ATOM     17  C   UNL A   1      34.266  24.048  24.644  1.00  0.00     0.075 C 
ATOM     18  C   UNL A   1      35.281  23.893  25.776  1.00  0.00     0.011 C 
ENDBRANCH   6  17
ENDBRANCH   3   6
ENDBRANCH   1   2
BRANCH   1  19
ATOM     19  C   UNL A   1      32.461  27.001  26.086  1.00  0.00     0.023 C 
BRANCH  19  20
ATOM     20  C   UNL A   1      31.863  28.408  26.157  1.00  0.00     0.023 C 
BRANCH  20  21
ATOM     21  C   UNL A   1      32.822  29.542  25.810  1.00  0.00     0.116 C 
BRANCH  21  22
ATOM     22  N   UNL A   1      32.347  30.849  26.240  1.00  0.00    -0.352 N 
ATOM     23  C   UNL A   1      32.951  31.722  27.115  1.00  0.00     0.251 C 
ATOM     24  H   UNL A   1      31.489  31.143  25.859  1.00  0.00     0.163 HD
ATOM     25  O   UNL A   1      32.379  32.752  27.458  1.00  0.00    -0.269 OA
BRANCH  23  26
ATOM     26  C   UNL A   1      34.278  31.375  27.663  1.00  0.00     0.039 A 
ATOM     27  C   UNL A   1      35.250  32.371  27.770  1.00  0.00     0.014 A 
ATOM     28  C   UNL A   1      34.525  30.084  28.137  1.00  0.00     0.014 A 
ATOM     29  C   UNL A   1      36.452  32.091  28.425  1.00  0.00     0.010 A 
ATOM     30  C   UNL A   1      35.695  29.826  28.841  1.00  0.00     0.010 A 
ATOM     31  C   UNL A   1      36.666  30.829  28.999  1.00  0.00    -0.014 A 
BRANCH  31  32
ATOM     32  C   UNL A   1      37.904  30.510  29.754  1.00  0.00     0.031 A 
ATOM     33  C   UNL A   1      38.903  29.556  29.158  1.00  0.00     0.074 A 
ATOM     34  C   UNL A   1      38.085  30.995  30.998  1.00  0.00     0.049 A 
ATOM     35  N   UNL A   1      39.943  28.988  29.711  1.00  0.00    -0.248 NA
ATOM     36  C   UNL A   1      38.672  29.166  27.759  1.00  0.00     0.031 C 
ATOM     37  C   UNL A   1      37.182  31.917  31.689  1.00  0.00     0.029 A 
ATOM     38  N   UNL A   1      39.083  30.764  31.913  1.00  0.00    -0.354 N 
ATOM     39  C   UNL A   1      40.476  28.152  28.737  1.00  0.00     0.074 A 
ATOM     40  C   UNL A   1      39.614  28.253  27.578  1.00  0.00     0.031 C 
ATOM     41  C   UNL A   1      37.671  32.179  32.912  1.00  0.00     0.029 A 
ATOM     42  C   UNL A   1      38.893  31.407  33.114  1.00  0.00     0.049 A 
ATOM     43  H   UNL A   1      39.861  30.190  31.727  1.00  0.00     0.167 HD
ATOM     44  C   UNL A   1      41.593  27.384  28.798  1.00  0.00     0.034 A 
ATOM     45  C   UNL A   1      39.612  31.360  34.254  1.00  0.00     0.034 A 
ATOM     46  C   UNL A   1      42.450  27.309  29.954  1.00  0.00     0.049 A 
ATOM     47  C   UNL A   1      40.840  30.485  34.305  1.00  0.00     0.074 A 
ATOM     48  C   UNL A   1      43.611  26.575  30.125  1.00  0.00     0.029 A 
ATOM     49  N   UNL A   1      42.243  28.005  31.138  1.00  0.00    -0.354 N 
ATOM     50  N   UNL A   1      41.330  29.696  33.377  1.00  0.00    -0.248 NA
ATOM     51  C   UNL A   1      41.615  30.499  35.553  1.00  0.00     0.031 C 
ATOM     52  C   UNL A   1      44.082  26.794  31.424  1.00  0.00     0.029 A 
ATOM     53  C   UNL A   1      43.250  27.713  32.044  1.00  0.00     0.049 A 
ATOM     54  H   UNL A   1      41.491  28.616  31.310  1.00  0.00     0.167 HD
ATOM     55  C   UNL A   1      42.495  29.156  33.917  1.00  0.00     0.074 A 
ATOM     56  C   UNL A   1      42.632  29.707  35.249  1.00  0.00     0.031 C 
ATOM     57  C   UNL A   1      43.377  28.289  33.359  1.00  0.00     0.034 A 
BRANCH  44  58
ATOM     58  C   UNL A   1      41.921  26.551  27.584  1.00  0.00     0.023 A 
ATOM     59  C   UNL A   1      41.523  25.206  27.486  1.00  0.00     0.031 A 
ATOM     60  C   UNL A   1      42.679  27.092  26.530  1.00  0.00     0.131 A 
ATOM     61  C   UNL A   1      41.954  24.426  26.405  1.00  0.00     0.055 A 
ATOM     62  C   UNL A   1      43.034  26.331  25.414  1.00  0.00     0.041 A 
ATOM     63  F   UNL A   1      43.105  28.364  26.576  1.00  0.00    -0.206 F 
ATOM     64  C   UNL A   1      42.685  24.985  25.355  1.00  0.00     0.022 A 
BRANCH  61  65
ATOM     65  S   UNL A   1      41.668  22.636  26.464  1.00  0.00     0.124 S 
ATOM     66  O   UNL A   1      42.507  22.169  25.362  1.00  0.00    -0.237 OA
ATOM     67  O   UNL A   1      42.124  22.286  27.804  1.00  0.00    -0.237 OA
ATOM     68  O   UNL A   1      40.230  22.511  26.240  1.00  0.00    -0.744 OA
ENDBRANCH  61  65
ENDBRANCH  44  58
BRANCH  45  69
ATOM     69  C   UNL A   1      39.196  32.148  35.449  1.00  0.00     0.023 A 
ATOM     70  C   UNL A   1      38.542  31.529  36.526  1.00  0.00     0.031 A 
ATOM     71  C   UNL A   1      39.392  33.539  35.508  1.00  0.00     0.131 A 
ATOM     72  C   UNL A   1      38.059  32.303  37.591  1.00  0.00     0.055 A 
ATOM     73  C   UNL A   1      38.954  34.299  36.595  1.00  0.00     0.041 A 
ATOM     74  F   UNL A   1      40.018  34.180  34.508  1.00  0.00    -0.206 F 
ATOM     75  C   UNL A   1      38.269  33.683  37.638  1.00  0.00     0.022 A 
BRANCH  72  76
ATOM     76  S   UNL A   1      37.063  31.490  38.871  1.00  0.00     0.124 S 
ATOM     77  O   UNL A   1      37.927  31.610  40.041  1.00  0.00    -0.237 OA
ATOM     78  O   UNL A   1      35.855  32.308  38.878  1.00  0.00    -0.237 OA
ATOM     79  O   UNL A   1      36.892  30.132  38.358  1.00  0.00    -0.744 OA
ENDBRANCH  72  76
ENDBRANCH  45  69
BRANCH  57  80
ATOM     80  C   UNL A   1      44.607  27.954  34.160  1.00  0.00     0.023 A 
ATOM     81  C   UNL A   1      44.649  26.858  35.039  1.00  0.00     0.031 A 
ATOM     82  C   UNL A   1      45.759  28.750  34.031  1.00  0.00     0.131 A 
ATOM     83  C   UNL A   1      45.811  26.612  35.787  1.00  0.00     0.055 A 
ATOM     84  C   UNL A   1      46.926  28.473  34.743  1.00  0.00     0.041 A 
ATOM     85  F   UNL A   1      45.768  29.808  33.204  1.00  0.00    -0.206 F 
ATOM     86  C   UNL A   1      46.953  27.404  35.634  1.00  0.00     0.022 A 
BRANCH  83  87
ATOM     87  S   UNL A   1      45.794  25.272  37.008  1.00  0.00     0.124 S 
ATOM     88  O   UNL A   1      45.027  24.239  36.317  1.00  0.00    -0.237 OA
ATOM     89  O   UNL A   1      47.214  24.995  37.191  1.00  0.00    -0.237 OA
ATOM     90  O   UNL A   1      45.127  25.869  38.164  1.00  0.00    -0.744 OA
ENDBRANCH  83  87
ENDBRANCH  57  80
ENDBRANCH  31  32
ENDBRANCH  23  26
ENDBRANCH  21  22
ENDBRANCH  20  21
ENDBRANCH  19  20
ENDBRANCH   1  19
TORSDOF 20
ENDMDL
MODEL 3
REMARK VINA RESULT:      -9.7      1.964      8.289
REMARK SMILES CCC[C@@H](C)C[NH2+][C@@](C)(CC)C(=O)NCCCCNC(=O)c1ccc(-c2c3nc(c(-c4cc(S(=O)(=O)[O-])ccc4F)c4ccc([nH]4)c(-c4cc(S(=O)(=O)[O-])ccc4F)c4nc(c(-c5cc(S(=O)(=O)[O-])ccc5F)c5ccc2[nH]5)C=C4)C=C3)cc1
REMARK SMILES IDX 15 1 14 2 12 3 13 4 8 6 9 7 7 8 6 11 4 12 5 13 3 14 2 15
REMARK SMILES IDX 1 16 10 17 11 18 16 19 17 20 18 21 19 22 20 23 21 25 22 26
REMARK SMILES IDX 23 27 84 28 24 29 83 30 25 31 26 32 27 33 77 34 28 35 82 36
REMARK SMILES IDX 76 37 78 38 29 39 81 40 75 41 74 42 30 44 62 45 42 46 61 47
REMARK SMILES IDX 43 48 46 49 60 50 79 51 44 52 45 53 59 55 80 56 47 57 31 58
REMARK SMILES IDX 32 59 40 60 33 61 39 62 41 63 38 64 34 65 35 66 36 67 37 68
REMARK SMILES IDX 63 69 64 70 72 71 65 72 71 73 73 74 70 75 66 76 67 77 68 78
REMARK SMILES IDX 69 79 48 80 49 81 57 82 50 83 56 84 58 85 55 86 51 87 52 88
REMARK SMILES IDX 53 89 54 90
REMARK H PARENT 14 5 7 9 7 10 19 24 78 43 46 54
REMARK Flexibility Score: inf
ROOT
ATOM      1  C   UNL A   1      33.236  29.382  25.408  1.00  0.00     0.116 C 
ENDROOT
BRANCH   1   2
ATOM      2  N   UNL A   1      33.571  29.184  24.013  1.00  0.00    -0.351 N 
ATOM      3  C   UNL A   1      33.649  28.074  23.227  1.00  0.00     0.281 C 
ATOM      4  O   UNL A   1      34.098  28.276  22.093  1.00  0.00    -0.268 OA
ATOM      5  H   UNL A   1      33.785  30.019  23.537  1.00  0.00     0.163 HD
BRANCH   3   6
ATOM      6  C   UNL A   1      33.213  26.647  23.730  1.00  0.00     0.172 C 
ATOM      7  C   UNL A   1      31.677  26.494  23.731  1.00  0.00     0.090 C 
BRANCH   6   8
ATOM      8  N   UNL A   1      33.791  25.571  22.863  1.00  0.00    -0.334 N 
ATOM      9  H   UNL A   1      34.392  26.020  22.171  1.00  0.00     0.347 HD
ATOM     10  H   UNL A   1      34.281  24.942  23.499  1.00  0.00     0.347 HD
BRANCH   8  11
ATOM     11  C   UNL A   1      32.828  24.733  22.143  1.00  0.00     0.264 C 
BRANCH  11  12
ATOM     12  C   UNL A   1      32.993  23.237  22.518  1.00  0.00     0.041 C 
ATOM     13  C   UNL A   1      31.854  22.837  23.465  1.00  0.00     0.013 C 
BRANCH  12  14
ATOM     14  C   UNL A   1      34.375  22.960  23.152  1.00  0.00     0.009 C 
BRANCH  14  15
ATOM     15  C   UNL A   1      34.358  22.438  24.593  1.00  0.00    -0.003 C 
ATOM     16  C   UNL A   1      35.056  21.096  24.755  1.00  0.00     0.004 C 
ENDBRANCH  14  15
ENDBRANCH  12  14
ENDBRANCH  11  12
ENDBRANCH   8  11
ENDBRANCH   6   8
BRANCH   6  17
ATOM     17  C   UNL A   1      33.772  26.379  25.155  1.00  0.00     0.075 C 
ATOM     18  C   UNL A   1      32.920  25.441  26.010  1.00  0.00     0.011 C 
ENDBRANCH   6  17
ENDBRANCH   3   6
ENDBRANCH   1   2
BRANCH   1  19
ATOM     19  C   UNL A   1      31.889  30.083  25.575  1.00  0.00     0.023 C 
BRANCH  19  20
ATOM     20  C   UNL A   1      31.775  30.974  26.813  1.00  0.00     0.023 C 
BRANCH  20  21
ATOM     21  C   UNL A   1      32.944  31.927  27.041  1.00  0.00     0.116 C 
BRANCH  21  22
ATOM     22  N   UNL A   1      32.528  33.299  27.291  1.00  0.00    -0.352 N 
ATOM     23  C   UNL A   1      33.044  34.186  28.207  1.00  0.00     0.251 C 
ATOM     24  H   UNL A   1      31.786  33.633  26.737  1.00  0.00     0.163 HD
ATOM     25  O   UNL A   1      32.522  35.284  28.370  1.00  0.00    -0.269 OA
BRANCH  23  26
ATOM     26  C   UNL A   1      34.210  33.774  29.016  1.00  0.00     0.039 A 
ATOM     27  C   UNL A   1      34.033  32.826  30.026  1.00  0.00     0.014 A 
ATOM     28  C   UNL A   1      35.481  34.271  28.719  1.00  0.00     0.014 A 
ATOM     29  C   UNL A   1      35.149  32.317  30.694  1.00  0.00     0.010 A 
ATOM     30  C   UNL A   1      36.594  33.719  29.342  1.00  0.00     0.010 A 
ATOM     31  C   UNL A   1      36.439  32.731  30.330  1.00  0.00    -0.014 A 
BRANCH  31  32
ATOM     32  C   UNL A   1      37.655  32.171  30.973  1.00  0.00     0.031 A 
ATOM     33  C   UNL A   1      38.466  31.139  30.238  1.00  0.00     0.074 A 
ATOM     34  C   UNL A   1      37.973  32.512  32.237  1.00  0.00     0.049 A 
ATOM     35  N   UNL A   1      39.437  30.380  30.674  1.00  0.00    -0.248 NA
ATOM     36  C   UNL A   1      38.104  30.912  28.831  1.00  0.00     0.031 C 
ATOM     37  C   UNL A   1      37.256  33.490  33.058  1.00  0.00     0.029 A 
ATOM     38  N   UNL A   1      38.973  32.059  33.062  1.00  0.00    -0.354 N 
ATOM     39  C   UNL A   1      39.786  29.565  29.603  1.00  0.00     0.074 A 
ATOM     40  C   UNL A   1      38.887  29.892  28.515  1.00  0.00     0.031 C 
ATOM     41  C   UNL A   1      37.845  33.570  34.263  1.00  0.00     0.029 A 
ATOM     42  C   UNL A   1      38.947  32.615  34.321  1.00  0.00     0.049 A 
ATOM     43  H   UNL A   1      39.646  31.398  32.779  1.00  0.00     0.167 HD
ATOM     44  C   UNL A   1      40.777  28.642  29.528  1.00  0.00     0.034 A 
ATOM     45  C   UNL A   1      39.711  32.363  35.402  1.00  0.00     0.034 A 
ATOM     46  C   UNL A   1      41.675  28.342  30.615  1.00  0.00     0.049 A 
ATOM     47  C   UNL A   1      40.796  31.319  35.302  1.00  0.00     0.074 A 
ATOM     48  C   UNL A   1      42.721  27.436  30.649  1.00  0.00     0.029 A 
ATOM     49  N   UNL A   1      41.639  28.953  31.861  1.00  0.00    -0.354 N 
ATOM     50  N   UNL A   1      41.112  30.553  34.284  1.00  0.00    -0.248 NA
ATOM     51  C   UNL A   1      41.630  31.111  36.493  1.00  0.00     0.031 C 
ATOM     52  C   UNL A   1      43.289  27.469  31.927  1.00  0.00     0.029 A 
ATOM     53  C   UNL A   1      42.639  28.440  32.672  1.00  0.00     0.049 A 
ATOM     54  H   UNL A   1      40.997  29.648  32.131  1.00  0.00     0.167 HD
ATOM     55  C   UNL A   1      42.210  29.805  34.700  1.00  0.00     0.074 A 
ATOM     56  C   UNL A   1      42.500  30.210  36.060  1.00  0.00     0.031 C 
ATOM     57  C   UNL A   1      42.921  28.872  34.018  1.00  0.00     0.034 A 
BRANCH  44  58
ATOM     58  C   UNL A   1      40.911  27.881  28.232  1.00  0.00     0.023 A 
ATOM     59  C   UNL A   1      40.374  26.591  28.079  1.00  0.00     0.031 A 
ATOM     60  C   UNL A   1      41.623  28.431  27.151  1.00  0.00     0.131 A 
ATOM     61  C   UNL A   1      40.627  25.862  26.909  1.00  0.00     0.055 A 
ATOM     62  C   UNL A   1      41.799  27.732  25.955  1.00  0.00     0.041 A 
ATOM     63  F   UNL A   1      42.176  29.651  27.245  1.00  0.00    -0.206 F 
ATOM     64  C   UNL A   1      41.314  26.433  25.835  1.00  0.00     0.022 A 
BRANCH  61  65
ATOM     65  S   UNL A   1      40.170  24.108  26.870  1.00  0.00     0.124 S 
ATOM     66  O   UNL A   1      38.889  24.154  26.167  1.00  0.00    -0.237 OA
ATOM     67  O   UNL A   1      41.278  23.508  26.136  1.00  0.00    -0.237 OA
ATOM     68  O   UNL A   1      40.085  23.744  28.283  1.00  0.00    -0.744 OA
ENDBRANCH  61  65
ENDBRANCH  44  58
BRANCH  45  69
ATOM     69  C   UNL A   1      39.483  33.094  36.682  1.00  0.00     0.023 A 
ATOM     70  C   UNL A   1      38.650  32.559  37.677  1.00  0.00     0.031 A 
ATOM     71  C   UNL A   1      40.045  34.363  36.905  1.00  0.00     0.131 A 
ATOM     72  C   UNL A   1      38.358  33.309  38.825  1.00  0.00     0.055 A 
ATOM     73  C   UNL A   1      39.792  35.086  38.074  1.00  0.00     0.041 A 
ATOM     74  F   UNL A   1      40.854  34.919  35.989  1.00  0.00    -0.206 F 
ATOM     75  C   UNL A   1      38.931  34.565  39.035  1.00  0.00     0.022 A 
BRANCH  72  76
ATOM     76  S   UNL A   1      37.137  32.659  39.998  1.00  0.00     0.124 S 
ATOM     77  O   UNL A   1      37.772  31.419  40.432  1.00  0.00    -0.237 OA
ATOM     78  O   UNL A   1      37.070  33.728  40.988  1.00  0.00    -0.237 OA
ATOM     79  O   UNL A   1      35.936  32.491  39.181  1.00  0.00    -0.744 OA
ENDBRANCH  72  76
ENDBRANCH  45  69
BRANCH  57  80
ATOM     80  C   UNL A   1      44.129  28.294  34.706  1.00  0.00     0.023 A 
ATOM     81  C   UNL A   1      44.052  27.137  35.499  1.00  0.00     0.031 A 
ATOM     82  C   UNL A   1      45.380  28.917  34.554  1.00  0.00     0.131 A 
ATOM     83  C   UNL A   1      45.203  26.660  36.146  1.00  0.00     0.055 A 
ATOM     84  C   UNL A   1      46.530  28.412  35.162  1.00  0.00     0.041 A 
ATOM     85  F   UNL A   1      45.505  30.025  33.806  1.00  0.00    -0.206 F 
ATOM     86  C   UNL A   1      46.443  27.282  35.971  1.00  0.00     0.022 A 
BRANCH  83  87
ATOM     87  S   UNL A   1      45.049  25.243  37.267  1.00  0.00     0.124 S 
ATOM     88  O   UNL A   1      45.815  25.689  38.427  1.00  0.00    -0.237 OA
ATOM     89  O   UNL A   1      43.606  25.147  37.455  1.00  0.00    -0.237 OA
ATOM     90  O   UNL A   1      45.649  24.142  36.514  1.00  0.00    -0.744 OA
ENDBRANCH  83  87
ENDBRANCH  57  80
ENDBRANCH  31  32
ENDBRANCH  23  26
ENDBRANCH  21  22
ENDBRANCH  20  21
ENDBRANCH  19  20
ENDBRANCH   1  19
TORSDOF 20
ENDMDL
