MODEL 1
REMARK VINA RESULT:     -11.8      0.000      0.000
REMARK SMILES CC(=O)Oc1ccc([C@H]2Nc3c(C(=O)NCCCCNC(=O)c4ccc(-c5c6nc(c(-c7cc(S(=O)(=O)[O-])ccc7F)c7ccc([nH]7)c(-c7cc(S(=O)(=O)[O-])ccc7F)c7nc(c(-c8cc(S(=O)(=O)[O-])ccc8F)c8ccc5[nH]8)C=C7)C=C6)cc4)ccc([N+](=O)[O-])c3[C@H]3C=CC[C@@H]32)cc1
REMARK SMILES IDX 17 1 16 2 15 3 13 4 14 5 12 7 9 8 10 9 97 10 11 11 93 13
REMARK SMILES IDX 96 14 92 15 94 16 95 17 86 18 88 19 87 20 8 21 5 22 6 23
REMARK SMILES IDX 99 24 7 25 98 26 4 27 2 28 1 29 3 30 89 31 90 32 91 33 18 34
REMARK SMILES IDX 19 35 20 36 21 37 22 39 23 40 24 41 85 42 25 43 84 44 26 45
REMARK SMILES IDX 27 46 28 47 78 48 29 49 83 50 77 51 79 52 30 53 82 54 76 55
REMARK SMILES IDX 75 56 31 58 63 59 43 60 62 61 44 62 47 63 61 64 80 65 45 66
REMARK SMILES IDX 46 67 60 69 81 70 48 71 32 72 33 73 41 74 34 75 40 76 42 77
REMARK SMILES IDX 39 78 35 79 36 80 37 81 38 82 64 83 65 84 73 85 66 86 72 87
REMARK SMILES IDX 74 88 71 89 67 90 68 91 69 92 70 93 49 94 50 95 58 96 51 97
REMARK SMILES IDX 57 98 59 99 56 100 52 101 53 102 54 103 55 104
REMARK H PARENT 15 6 10 12 20 38 79 57 47 68
REMARK Flexibility Score: inf
ROOT
ATOM      1  C   UNL A   1      33.348  21.993  26.828  1.00  0.00     0.023 C 
ENDROOT
BRANCH   1   2
ATOM      2  C   UNL A   1      32.720  22.661  28.051  1.00  0.00     0.116 C 
BRANCH   2   3
ATOM      3  N   UNL A   1      31.275  22.908  27.956  1.00  0.00    -0.352 N 
ATOM      4  C   UNL A   1      30.555  23.767  27.126  1.00  0.00     0.253 C 
ATOM      5  O   UNL A   1      29.341  23.880  27.264  1.00  0.00    -0.269 OA
ATOM      6  H   UNL A   1      30.725  22.381  28.579  1.00  0.00     0.163 HD
BRANCH   4   7
ATOM      7  C   UNL A   1      31.271  24.571  26.093  1.00  0.00     0.063 A 
ATOM      8  C   UNL A   1      31.739  22.423  22.932  1.00  0.00     0.114 C 
ATOM      9  N   UNL A   1      31.375  22.819  24.319  1.00  0.00    -0.377 N 
ATOM     10  C   UNL A   1      32.595  23.562  22.353  1.00  0.00     0.031 C 
ATOM     11  C   UNL A   1      31.376  24.174  24.737  1.00  0.00     0.058 A 
ATOM     12  H   UNL A   1      31.126  22.119  24.966  1.00  0.00     0.161 HD
ATOM     13  C   UNL A   1      31.625  24.758  22.336  1.00  0.00     0.056 C 
ATOM     14  C   UNL A   1      33.238  23.506  20.970  1.00  0.00     0.034 C 
ATOM     15  C   UNL A   1      31.622  25.208  23.772  1.00  0.00     0.061 A 
ATOM     16  C   UNL A   1      32.131  25.567  21.194  1.00  0.00    -0.022 C 
ATOM     17  C   UNL A   1      32.994  24.880  20.439  1.00  0.00    -0.030 C 
ATOM     18  C   UNL A   1      31.766  25.823  26.499  1.00  0.00     0.023 A 
ATOM     19  C   UNL A   1      31.894  26.513  24.217  1.00  0.00     0.275 A 
ATOM     20  C   UNL A   1      32.053  26.809  25.567  1.00  0.00     0.087 A 
BRANCH   8  21
ATOM     21  C   UNL A   1      32.286  21.006  22.753  1.00  0.00    -0.025 A 
ATOM     22  C   UNL A   1      32.818  18.222  22.820  1.00  0.00     0.130 A 
ATOM     23  C   UNL A   1      33.265  19.045  23.852  1.00  0.00     0.047 A 
ATOM     24  C   UNL A   1      32.143  18.774  21.738  1.00  0.00     0.047 A 
ATOM     25  C   UNL A   1      33.010  20.423  23.813  1.00  0.00     0.010 A 
ATOM     26  C   UNL A   1      31.912  20.160  21.692  1.00  0.00     0.010 A 
BRANCH  22  27
ATOM     27  O   UNL A   1      33.022  16.834  23.005  1.00  0.00    -0.427 OA
BRANCH  27  28
ATOM     28  C   UNL A   1      33.606  16.295  24.154  1.00  0.00     0.308 C 
ATOM     29  C   UNL A   1      32.558  16.184  25.229  1.00  0.00     0.139 C 
ATOM     30  O   UNL A   1      34.766  15.955  24.299  1.00  0.00    -0.252 OA
ENDBRANCH  27  28
ENDBRANCH  22  27
ENDBRANCH   8  21
BRANCH  19  31
ATOM     31  N   UNL A   1      32.027  27.623  23.302  1.00  0.00     0.063 N 
ATOM     32  O   UNL A   1      30.982  28.127  22.869  1.00  0.00    -0.258 OA
ATOM     33  O   UNL A   1      33.179  27.951  22.989  1.00  0.00    -0.258 OA
ENDBRANCH  19  31
ENDBRANCH   4   7
ENDBRANCH   2   3
ENDBRANCH   1   2
BRANCH   1  34
ATOM     34  C   UNL A   1      34.804  21.556  26.971  1.00  0.00     0.023 C 
BRANCH  34  35
ATOM     35  C   UNL A   1      35.755  21.995  25.856  1.00  0.00     0.116 C 
BRANCH  35  36
ATOM     36  N   UNL A   1      36.804  21.029  25.564  1.00  0.00    -0.352 N 
ATOM     37  C   UNL A   1      38.175  21.155  25.615  1.00  0.00     0.251 C 
ATOM     38  H   UNL A   1      36.482  20.141  25.286  1.00  0.00     0.163 HD
ATOM     39  O   UNL A   1      38.869  20.224  25.213  1.00  0.00    -0.269 OA
BRANCH  37  40
ATOM     40  C   UNL A   1      38.822  22.399  26.105  1.00  0.00     0.039 A 
ATOM     41  C   UNL A   1      39.883  22.293  27.010  1.00  0.00     0.014 A 
ATOM     42  C   UNL A   1      38.388  23.665  25.706  1.00  0.00     0.014 A 
ATOM     43  C   UNL A   1      40.555  23.441  27.446  1.00  0.00     0.010 A 
ATOM     44  C   UNL A   1      39.109  24.803  26.075  1.00  0.00     0.010 A 
ATOM     45  C   UNL A   1      40.205  24.706  26.947  1.00  0.00    -0.014 A 
BRANCH  45  46
ATOM     46  C   UNL A   1      40.980  25.924  27.320  1.00  0.00     0.031 A 
ATOM     47  C   UNL A   1      40.354  27.006  28.162  1.00  0.00     0.074 A 
ATOM     48  C   UNL A   1      42.241  26.079  26.864  1.00  0.00     0.049 A 
ATOM     49  N   UNL A   1      40.859  28.150  28.551  1.00  0.00    -0.248 NA
ATOM     50  C   UNL A   1      38.968  26.783  28.600  1.00  0.00     0.031 C 
ATOM     51  C   UNL A   1      42.950  25.127  26.006  1.00  0.00     0.029 A 
ATOM     52  N   UNL A   1      43.149  27.093  27.050  1.00  0.00    -0.354 N 
ATOM     53  C   UNL A   1      39.853  28.786  29.273  1.00  0.00     0.074 A 
ATOM     54  C   UNL A   1      38.689  27.926  29.208  1.00  0.00     0.031 C 
ATOM     55  C   UNL A   1      44.190  25.584  25.771  1.00  0.00     0.029 A 
ATOM     56  C   UNL A   1      44.353  26.884  26.414  1.00  0.00     0.049 A 
ATOM     57  H   UNL A   1      42.958  27.895  27.588  1.00  0.00     0.167 HD
ATOM     58  C   UNL A   1      39.901  29.962  29.947  1.00  0.00     0.034 A 
ATOM     59  C   UNL A   1      45.459  27.653  26.345  1.00  0.00     0.034 A 
ATOM     60  C   UNL A   1      41.070  30.808  30.008  1.00  0.00     0.049 A 
ATOM     61  C   UNL A   1      45.477  28.974  27.073  1.00  0.00     0.074 A 
ATOM     62  C   UNL A   1      41.240  31.994  30.704  1.00  0.00     0.029 A 
ATOM     63  N   UNL A   1      42.265  30.569  29.340  1.00  0.00    -0.354 N 
ATOM     64  N   UNL A   1      44.534  29.532  27.797  1.00  0.00    -0.248 NA
ATOM     65  C   UNL A   1      46.713  29.760  26.986  1.00  0.00     0.031 C 
ATOM     66  C   UNL A   1      42.503  32.508  30.395  1.00  0.00     0.029 A 
ATOM     67  C   UNL A   1      43.160  31.602  29.580  1.00  0.00     0.049 A 
ATOM     68  H   UNL A   1      42.449  29.781  28.780  1.00  0.00     0.167 HD
ATOM     69  C   UNL A   1      45.079  30.720  28.278  1.00  0.00     0.074 A 
ATOM     70  C   UNL A   1      46.437  30.785  27.779  1.00  0.00     0.031 C 
ATOM     71  C   UNL A   1      44.510  31.668  29.067  1.00  0.00     0.034 A 
BRANCH  58  72
ATOM     72  C   UNL A   1      38.641  30.415  30.652  1.00  0.00     0.023 A 
ATOM     73  C   UNL A   1      37.739  31.311  30.052  1.00  0.00     0.031 A 
ATOM     74  C   UNL A   1      38.346  29.958  31.949  1.00  0.00     0.131 A 
ATOM     75  C   UNL A   1      36.631  31.781  30.774  1.00  0.00     0.055 A 
ATOM     76  C   UNL A   1      37.194  30.362  32.630  1.00  0.00     0.041 A 
ATOM     77  F   UNL A   1      39.179  29.118  32.585  1.00  0.00    -0.206 F 
ATOM     78  C   UNL A   1      36.337  31.290  32.048  1.00  0.00     0.022 A 
BRANCH  75  79
ATOM     79  S   UNL A   1      35.667  33.153  30.084  1.00  0.00     0.124 S 
ATOM     80  O   UNL A   1      34.595  32.441  29.391  1.00  0.00    -0.237 OA
ATOM     81  O   UNL A   1      35.274  33.894  31.277  1.00  0.00    -0.237 OA
ATOM     82  O   UNL A   1      36.617  33.835  29.209  1.00  0.00    -0.744 OA
ENDBRANCH  75  79
ENDBRANCH  58  72
BRANCH  59  83
ATOM     83  C   UNL A   1      46.643  27.209  25.550  1.00  0.00     0.023 A 
ATOM     84  C   UNL A   1      46.908  27.746  24.281  1.00  0.00     0.031 A 
ATOM     85  C   UNL A   1      47.499  26.200  26.029  1.00  0.00     0.131 A 
ATOM     86  C   UNL A   1      47.967  27.238  23.511  1.00  0.00     0.055 A 
ATOM     87  C   UNL A   1      48.587  25.741  25.285  1.00  0.00     0.041 A 
ATOM     88  F   UNL A   1      47.294  25.650  27.236  1.00  0.00    -0.206 F 
ATOM     89  C   UNL A   1      48.818  26.251  24.011  1.00  0.00     0.022 A 
BRANCH  86  90
ATOM     90  S   UNL A   1      48.157  27.819  21.803  1.00  0.00     0.124 S 
ATOM     91  O   UNL A   1      48.377  26.567  21.088  1.00  0.00    -0.237 OA
ATOM     92  O   UNL A   1      46.878  28.477  21.563  1.00  0.00    -0.237 OA
ATOM     93  O   UNL A   1      49.312  28.710  21.873  1.00  0.00    -0.744 OA
ENDBRANCH  86  90
ENDBRANCH  59  83
BRANCH  71  94
ATOM     94  C   UNL A   1      45.378  32.836  29.475  1.00  0.00     0.023 A 
ATOM     95  C   UNL A   1      45.437  34.019  28.717  1.00  0.00     0.031 A 
ATOM     96  C   UNL A   1      46.177  32.753  30.629  1.00  0.00     0.131 A 
ATOM     97  C   UNL A   1      46.325  35.042  29.086  1.00  0.00     0.055 A 
ATOM     98  C   UNL A   1      47.005  33.803  31.029  1.00  0.00     0.041 A 
ATOM     99  F   UNL A   1      46.168  31.647  31.390  1.00  0.00    -0.206 F 
ATOM    100  C   UNL A   1      47.095  34.949  30.247  1.00  0.00     0.022 A 
BRANCH  97 101
ATOM    101  S   UNL A   1      46.546  36.450  27.962  1.00  0.00     0.124 S 
ATOM    102  O   UNL A   1      45.700  36.073  26.834  1.00  0.00    -0.237 OA
ATOM    103  O   UNL A   1      46.072  37.570  28.767  1.00  0.00    -0.237 OA
ATOM    104  O   UNL A   1      47.982  36.448  27.687  1.00  0.00    -0.744 OA
ENDBRANCH  97 101
ENDBRANCH  71  94
ENDBRANCH  45  46
ENDBRANCH  37  40
ENDBRANCH  35  36
ENDBRANCH  34  35
ENDBRANCH   1  34
TORSDOF 18
ENDMDL
MODEL 2
REMARK VINA RESULT:     -11.2      5.740     15.633
REMARK SMILES CC(=O)Oc1ccc([C@H]2Nc3c(C(=O)NCCCCNC(=O)c4ccc(-c5c6nc(c(-c7cc(S(=O)(=O)[O-])ccc7F)c7ccc([nH]7)c(-c7cc(S(=O)(=O)[O-])ccc7F)c7nc(c(-c8cc(S(=O)(=O)[O-])ccc8F)c8ccc5[nH]8)C=C7)C=C6)cc4)ccc([N+](=O)[O-])c3[C@H]3C=CC[C@@H]32)cc1
REMARK SMILES IDX 17 1 16 2 15 3 13 4 14 5 12 7 9 8 10 9 97 10 11 11 93 13
REMARK SMILES IDX 96 14 92 15 94 16 95 17 86 18 88 19 87 20 8 21 5 22 6 23
REMARK SMILES IDX 99 24 7 25 98 26 4 27 2 28 1 29 3 30 89 31 90 32 91 33 18 34
REMARK SMILES IDX 19 35 20 36 21 37 22 39 23 40 24 41 85 42 25 43 84 44 26 45
REMARK SMILES IDX 27 46 28 47 78 48 29 49 83 50 77 51 79 52 30 53 82 54 76 55
REMARK SMILES IDX 75 56 31 58 63 59 43 60 62 61 44 62 47 63 61 64 80 65 45 66
REMARK SMILES IDX 46 67 60 69 81 70 48 71 32 72 33 73 41 74 34 75 40 76 42 77
REMARK SMILES IDX 39 78 35 79 36 80 37 81 38 82 64 83 65 84 73 85 66 86 72 87
REMARK SMILES IDX 74 88 71 89 67 90 68 91 69 92 70 93 49 94 50 95 58 96 51 97
REMARK SMILES IDX 57 98 59 99 56 100 52 101 53 102 54 103 55 104
REMARK H PARENT 15 6 10 12 20 38 79 57 47 68
REMARK Flexibility Score: inf
ROOT
ATOM      1  C   UNL A   1      48.066  36.457  26.693  1.00  0.00     0.023 C 
ENDROOT
BRANCH   1   2
ATOM      2  C   UNL A   1      47.333  37.491  25.839  1.00  0.00     0.116 C 
BRANCH   2   3
ATOM      3  N   UNL A   1      45.902  37.643  26.132  1.00  0.00    -0.352 N 
ATOM      4  C   UNL A   1      45.199  38.713  26.684  1.00  0.00     0.253 C 
ATOM      5  O   UNL A   1      44.000  38.604  26.921  1.00  0.00    -0.269 OA
ATOM      6  H   UNL A   1      45.349  36.862  25.900  1.00  0.00     0.163 HD
BRANCH   4   7
ATOM      7  C   UNL A   1      45.917  39.978  27.017  1.00  0.00     0.063 A 
ATOM      8  C   UNL A   1      44.067  42.936  25.389  1.00  0.00     0.114 C 
ATOM      9  N   UNL A   1      44.433  41.543  25.763  1.00  0.00    -0.377 N 
ATOM     10  C   UNL A   1      45.220  43.841  25.853  1.00  0.00     0.031 C 
ATOM     11  C   UNL A   1      45.366  41.264  26.793  1.00  0.00     0.058 A 
ATOM     12  H   UNL A   1      44.015  40.794  25.280  1.00  0.00     0.161 HD
ATOM     13  C   UNL A   1      45.207  43.671  27.383  1.00  0.00     0.056 C 
ATOM     14  C   UNL A   1      45.268  45.342  25.584  1.00  0.00     0.034 C 
ATOM     15  C   UNL A   1      45.890  42.344  27.580  1.00  0.00     0.061 A 
ATOM     16  C   UNL A   1      45.740  44.977  27.858  1.00  0.00    -0.022 C 
ATOM     17  C   UNL A   1      45.755  45.893  26.884  1.00  0.00    -0.030 C 
ATOM     18  C   UNL A   1      47.154  39.848  27.674  1.00  0.00     0.023 A 
ATOM     19  C   UNL A   1      47.002  42.115  28.407  1.00  0.00     0.275 A 
ATOM     20  C   UNL A   1      47.689  40.905  28.394  1.00  0.00     0.087 A 
BRANCH   8  21
ATOM     21  C   UNL A   1      43.575  43.147  23.956  1.00  0.00    -0.025 A 
ATOM     22  C   UNL A   1      42.707  42.895  21.269  1.00  0.00     0.130 A 
ATOM     23  C   UNL A   1      44.068  42.868  21.570  1.00  0.00     0.047 A 
ATOM     24  C   UNL A   1      41.777  43.083  22.284  1.00  0.00     0.047 A 
ATOM     25  C   UNL A   1      44.496  43.002  22.898  1.00  0.00     0.010 A 
ATOM     26  C   UNL A   1      42.214  43.243  23.611  1.00  0.00     0.010 A 
BRANCH  22  27
ATOM     27  O   UNL A   1      42.368  42.637  19.920  1.00  0.00    -0.427 OA
BRANCH  27  28
ATOM     28  C   UNL A   1      41.685  43.553  19.115  1.00  0.00     0.308 C 
ATOM     29  C   UNL A   1      42.684  44.480  18.475  1.00  0.00     0.139 C 
ATOM     30  O   UNL A   1      40.483  43.619  18.934  1.00  0.00    -0.252 OA
ENDBRANCH  27  28
ENDBRANCH  22  27
ENDBRANCH   8  21
BRANCH  19  31
ATOM     31  N   UNL A   1      47.502  43.121  29.316  1.00  0.00     0.063 N 
ATOM     32  O   UNL A   1      48.420  43.845  28.909  1.00  0.00    -0.258 OA
ATOM     33  O   UNL A   1      47.001  43.145  30.449  1.00  0.00    -0.258 OA
ENDBRANCH  19  31
ENDBRANCH   4   7
ENDBRANCH   2   3
ENDBRANCH   1   2
BRANCH   1  34
ATOM     34  C   UNL A   1      48.952  37.009  27.808  1.00  0.00     0.023 C 
BRANCH  34  35
ATOM     35  C   UNL A   1      48.654  36.506  29.222  1.00  0.00     0.116 C 
BRANCH  35  36
ATOM     36  N   UNL A   1      47.530  37.177  29.860  1.00  0.00    -0.352 N 
ATOM     37  C   UNL A   1      46.229  36.764  30.045  1.00  0.00     0.251 C 
ATOM     38  H   UNL A   1      47.735  38.072  30.217  1.00  0.00     0.163 HD
ATOM     39  O   UNL A   1      45.420  37.558  30.519  1.00  0.00    -0.269 OA
BRANCH  37  40
ATOM     40  C   UNL A   1      45.783  35.405  29.648  1.00  0.00     0.039 A 
ATOM     41  C   UNL A   1      46.028  34.337  30.518  1.00  0.00     0.014 A 
ATOM     42  C   UNL A   1      45.149  35.161  28.427  1.00  0.00     0.014 A 
ATOM     43  C   UNL A   1      45.567  33.053  30.203  1.00  0.00     0.010 A 
ATOM     44  C   UNL A   1      44.618  33.899  28.151  1.00  0.00     0.010 A 
ATOM     45  C   UNL A   1      44.817  32.828  29.038  1.00  0.00    -0.014 A 
BRANCH  45  46
ATOM     46  C   UNL A   1      44.230  31.489  28.744  1.00  0.00     0.031 A 
ATOM     47  C   UNL A   1      42.856  31.126  29.246  1.00  0.00     0.074 A 
ATOM     48  C   UNL A   1      44.954  30.578  28.061  1.00  0.00     0.049 A 
ATOM     49  N   UNL A   1      42.201  29.999  29.124  1.00  0.00    -0.248 NA
ATOM     50  C   UNL A   1      42.137  32.157  30.008  1.00  0.00     0.031 C 
ATOM     51  C   UNL A   1      46.312  30.787  27.556  1.00  0.00     0.029 A 
ATOM     52  N   UNL A   1      44.655  29.293  27.676  1.00  0.00    -0.354 N 
ATOM     53  C   UNL A   1      40.997  30.182  29.798  1.00  0.00     0.074 A 
ATOM     54  C   UNL A   1      41.046  31.506  30.382  1.00  0.00     0.031 C 
ATOM     55  C   UNL A   1      46.713  29.687  26.899  1.00  0.00     0.029 A 
ATOM     56  C   UNL A   1      45.667  28.673  26.978  1.00  0.00     0.049 A 
ATOM     57  H   UNL A   1      43.796  28.856  27.879  1.00  0.00     0.167 HD
ATOM     58  C   UNL A   1      39.940  29.337  29.900  1.00  0.00     0.034 A 
ATOM     59  C   UNL A   1      45.752  27.427  26.468  1.00  0.00     0.034 A 
ATOM     60  C   UNL A   1      39.902  28.020  29.309  1.00  0.00     0.049 A 
ATOM     61  C   UNL A   1      44.578  26.492  26.625  1.00  0.00     0.074 A 
ATOM     62  C   UNL A   1      38.862  27.104  29.310  1.00  0.00     0.029 A 
ATOM     63  N   UNL A   1      40.951  27.423  28.621  1.00  0.00    -0.354 N 
ATOM     64  N   UNL A   1      43.426  26.704  27.218  1.00  0.00    -0.248 NA
ATOM     65  C   UNL A   1      44.712  25.157  26.031  1.00  0.00     0.031 C 
ATOM     66  C   UNL A   1      39.308  25.930  28.695  1.00  0.00     0.029 A 
ATOM     67  C   UNL A   1      40.595  26.140  28.227  1.00  0.00     0.049 A 
ATOM     68  H   UNL A   1      41.821  27.847  28.440  1.00  0.00     0.167 HD
ATOM     69  C   UNL A   1      42.686  25.538  27.037  1.00  0.00     0.074 A 
ATOM     70  C   UNL A   1      43.515  24.637  26.263  1.00  0.00     0.031 C 
ATOM     71  C   UNL A   1      41.433  25.241  27.467  1.00  0.00     0.034 A 
BRANCH  58  72
ATOM     72  C   UNL A   1      38.747  29.805  30.705  1.00  0.00     0.023 A 
ATOM     73  C   UNL A   1      37.754  30.628  30.144  1.00  0.00     0.031 A 
ATOM     74  C   UNL A   1      38.608  29.438  32.055  1.00  0.00     0.131 A 
ATOM     75  C   UNL A   1      36.713  31.119  30.947  1.00  0.00     0.055 A 
ATOM     76  C   UNL A   1      37.522  29.858  32.826  1.00  0.00     0.041 A 
ATOM     77  F   UNL A   1      39.534  28.671  32.654  1.00  0.00    -0.206 F 
ATOM     78  C   UNL A   1      36.574  30.716  32.277  1.00  0.00     0.022 A 
BRANCH  75  79
ATOM     79  S   UNL A   1      35.632  32.408  30.271  1.00  0.00     0.124 S 
ATOM     80  O   UNL A   1      36.472  33.597  30.406  1.00  0.00    -0.237 OA
ATOM     81  O   UNL A   1      35.398  31.943  28.909  1.00  0.00    -0.237 OA
ATOM     82  O   UNL A   1      34.467  32.377  31.151  1.00  0.00    -0.744 OA
ENDBRANCH  75  79
ENDBRANCH  58  72
BRANCH  59  83
ATOM     83  C   UNL A   1      46.992  26.976  25.769  1.00  0.00     0.023 A 
ATOM     84  C   UNL A   1      48.042  26.368  26.475  1.00  0.00     0.031 A 
ATOM     85  C   UNL A   1      47.166  27.194  24.390  1.00  0.00     0.131 A 
ATOM     86  C   UNL A   1      49.238  26.047  25.814  1.00  0.00     0.055 A 
ATOM     87  C   UNL A   1      48.335  26.818  23.725  1.00  0.00     0.041 A 
ATOM     88  F   UNL A   1      46.195  27.771  23.665  1.00  0.00    -0.206 F 
ATOM     89  C   UNL A   1      49.386  26.253  24.441  1.00  0.00     0.022 A 
BRANCH  86  90
ATOM     90  S   UNL A   1      50.641  25.446  26.796  1.00  0.00     0.124 S 
ATOM     91  O   UNL A   1      50.019  24.387  27.582  1.00  0.00    -0.237 OA
ATOM     92  O   UNL A   1      51.572  25.014  25.760  1.00  0.00    -0.237 OA
ATOM     93  O   UNL A   1      51.055  26.625  27.553  1.00  0.00    -0.744 OA
ENDBRANCH  86  90
ENDBRANCH  59  83
BRANCH  71  94
ATOM     94  C   UNL A   1      40.867  23.898  27.065  1.00  0.00     0.023 A 
ATOM     95  C   UNL A   1      41.639  22.723  27.108  1.00  0.00     0.031 A 
ATOM     96  C   UNL A   1      39.540  23.798  26.609  1.00  0.00     0.131 A 
ATOM     97  C   UNL A   1      41.099  21.515  26.640  1.00  0.00     0.055 A 
ATOM     98  C   UNL A   1      38.987  22.579  26.212  1.00  0.00     0.041 A 
ATOM     99  F   UNL A   1      38.757  24.886  26.540  1.00  0.00    -0.206 F 
ATOM    100  C   UNL A   1      39.773  21.431  26.210  1.00  0.00     0.022 A 
BRANCH  97 101
ATOM    101  S   UNL A   1      42.192  20.073  26.491  1.00  0.00     0.124 S 
ATOM    102  O   UNL A   1      42.172  19.537  27.848  1.00  0.00    -0.237 OA
ATOM    103  O   UNL A   1      41.514  19.269  25.479  1.00  0.00    -0.237 OA
ATOM    104  O   UNL A   1      43.467  20.650  26.072  1.00  0.00    -0.744 OA
ENDBRANCH  97 101
ENDBRANCH  71  94
ENDBRANCH  45  46
ENDBRANCH  37  40
ENDBRANCH  35  36
ENDBRANCH  34  35
ENDBRANCH   1  34
TORSDOF 18
ENDMDL
MODEL 3
REMARK VINA RESULT:     -11.1      8.588     14.054
REMARK SMILES CC(=O)Oc1ccc([C@H]2Nc3c(C(=O)NCCCCNC(=O)c4ccc(-c5c6nc(c(-c7cc(S(=O)(=O)[O-])ccc7F)c7ccc([nH]7)c(-c7cc(S(=O)(=O)[O-])ccc7F)c7nc(c(-c8cc(S(=O)(=O)[O-])ccc8F)c8ccc5[nH]8)C=C7)C=C6)cc4)ccc([N+](=O)[O-])c3[C@H]3C=CC[C@@H]32)cc1
REMARK SMILES IDX 17 1 16 2 15 3 13 4 14 5 12 7 9 8 10 9 97 10 11 11 93 13
REMARK SMILES IDX 96 14 92 15 94 16 95 17 86 18 88 19 87 20 8 21 5 22 6 23
REMARK SMILES IDX 99 24 7 25 98 26 4 27 2 28 1 29 3 30 89 31 90 32 91 33 18 34
REMARK SMILES IDX 19 35 20 36 21 37 22 39 23 40 24 41 85 42 25 43 84 44 26 45
REMARK SMILES IDX 27 46 28 47 78 48 29 49 83 50 77 51 79 52 30 53 82 54 76 55
REMARK SMILES IDX 75 56 31 58 63 59 43 60 62 61 44 62 47 63 61 64 80 65 45 66
REMARK SMILES IDX 46 67 60 69 81 70 48 71 32 72 33 73 41 74 34 75 40 76 42 77
REMARK SMILES IDX 39 78 35 79 36 80 37 81 38 82 64 83 65 84 73 85 66 86 72 87
REMARK SMILES IDX 74 88 71 89 67 90 68 91 69 92 70 93 49 94 50 95 58 96 51 97
REMARK SMILES IDX 57 98 59 99 56 100 52 101 53 102 54 103 55 104
REMARK H PARENT 15 6 10 12 20 38 79 57 47 68
REMARK Flexibility Score: inf
ROOT
ATOM      1  C   UNL A   1      45.149  24.026  38.294  1.00  0.00     0.023 C 
ENDROOT
BRANCH   1   2
ATOM      2  C   UNL A   1      44.224  24.622  37.233  1.00  0.00     0.116 C 
BRANCH   2   3
ATOM      3  N   UNL A   1      43.778  23.685  36.194  1.00  0.00    -0.352 N 
ATOM      4  C   UNL A   1      44.511  22.853  35.349  1.00  0.00     0.253 C 
ATOM      5  O   UNL A   1      43.939  22.196  34.485  1.00  0.00    -0.269 OA
ATOM      6  H   UNL A   1      42.802  23.635  36.076  1.00  0.00     0.163 HD
BRANCH   4   7
ATOM      7  C   UNL A   1      45.997  22.791  35.477  1.00  0.00     0.063 A 
ATOM      8  C   UNL A   1      46.947  19.711  37.582  1.00  0.00     0.114 C 
ATOM      9  N   UNL A   1      46.124  20.742  36.895  1.00  0.00    -0.377 N 
ATOM     10  C   UNL A   1      48.403  20.204  37.546  1.00  0.00     0.031 C 
ATOM     11  C   UNL A   1      46.686  21.654  35.967  1.00  0.00     0.058 A 
ATOM     12  H   UNL A   1      45.160  20.793  37.092  1.00  0.00     0.161 HD
ATOM     13  C   UNL A   1      48.726  20.240  36.041  1.00  0.00     0.056 C 
ATOM     14  C   UNL A   1      49.555  19.464  38.220  1.00  0.00     0.034 C 
ATOM     15  C   UNL A   1      48.063  21.512  35.585  1.00  0.00     0.061 A 
ATOM     16  C   UNL A   1      50.194  19.995  36.020  1.00  0.00    -0.022 C 
ATOM     17  C   UNL A   1      50.643  19.554  37.200  1.00  0.00    -0.030 C 
ATOM     18  C   UNL A   1      46.720  23.894  34.987  1.00  0.00     0.023 A 
ATOM     19  C   UNL A   1      48.694  22.555  34.888  1.00  0.00     0.275 A 
ATOM     20  C   UNL A   1      48.063  23.774  34.664  1.00  0.00     0.087 A 
BRANCH   8  21
ATOM     21  C   UNL A   1      46.431  19.221  38.936  1.00  0.00    -0.025 A 
ATOM     22  C   UNL A   1      46.030  17.991  41.458  1.00  0.00     0.130 A 
ATOM     23  C   UNL A   1      45.773  17.282  40.286  1.00  0.00     0.047 A 
ATOM     24  C   UNL A   1      46.448  19.314  41.390  1.00  0.00     0.047 A 
ATOM     25  C   UNL A   1      45.962  17.895  39.039  1.00  0.00     0.010 A 
ATOM     26  C   UNL A   1      46.612  19.931  40.137  1.00  0.00     0.010 A 
BRANCH  22  27
ATOM     27  O   UNL A   1      45.922  17.254  42.661  1.00  0.00    -0.427 OA
BRANCH  27  28
ATOM     28  C   UNL A   1      44.696  16.888  43.225  1.00  0.00     0.308 C 
ATOM     29  C   UNL A   1      44.090  18.091  43.897  1.00  0.00     0.139 C 
ATOM     30  O   UNL A   1      44.171  15.790  43.193  1.00  0.00    -0.252 OA
ENDBRANCH  27  28
ENDBRANCH  22  27
ENDBRANCH   8  21
BRANCH  19  31
ATOM     31  N   UNL A   1      50.035  22.428  34.367  1.00  0.00     0.063 N 
ATOM     32  O   UNL A   1      50.947  22.957  35.015  1.00  0.00    -0.258 OA
ATOM     33  O   UNL A   1      50.158  21.837  33.285  1.00  0.00    -0.258 OA
ENDBRANCH  19  31
ENDBRANCH   4   7
ENDBRANCH   2   3
ENDBRANCH   1   2
BRANCH   1  34
ATOM     34  C   UNL A   1      46.449  24.782  38.558  1.00  0.00     0.023 C 
BRANCH  34  35
ATOM     35  C   UNL A   1      46.426  26.286  38.281  1.00  0.00     0.116 C 
BRANCH  35  36
ATOM     36  N   UNL A   1      47.648  26.791  37.672  1.00  0.00    -0.352 N 
ATOM     37  C   UNL A   1      47.853  27.413  36.460  1.00  0.00     0.251 C 
ATOM     38  H   UNL A   1      48.460  26.669  38.216  1.00  0.00     0.163 HD
ATOM     39  O   UNL A   1      49.005  27.654  36.107  1.00  0.00    -0.269 OA
BRANCH  37  40
ATOM     40  C   UNL A   1      46.720  27.756  35.563  1.00  0.00     0.039 A 
ATOM     41  C   UNL A   1      45.702  26.815  35.377  1.00  0.00     0.014 A 
ATOM     42  C   UNL A   1      46.655  28.978  34.888  1.00  0.00     0.014 A 
ATOM     43  C   UNL A   1      44.590  27.129  34.587  1.00  0.00     0.010 A 
ATOM     44  C   UNL A   1      45.508  29.322  34.168  1.00  0.00     0.010 A 
ATOM     45  C   UNL A   1      44.458  28.403  34.011  1.00  0.00    -0.014 A 
BRANCH  45  46
ATOM     46  C   UNL A   1      43.230  28.786  33.257  1.00  0.00     0.031 A 
ATOM     47  C   UNL A   1      42.146  29.600  33.916  1.00  0.00     0.074 A 
ATOM     48  C   UNL A   1      43.067  28.362  31.986  1.00  0.00     0.049 A 
ATOM     49  N   UNL A   1      40.994  29.993  33.432  1.00  0.00    -0.248 NA
ATOM     50  C   UNL A   1      42.379  30.004  35.310  1.00  0.00     0.031 C 
ATOM     51  C   UNL A   1      44.020  27.532  31.246  1.00  0.00     0.029 A 
ATOM     52  N   UNL A   1      42.043  28.562  31.092  1.00  0.00    -0.354 N 
ATOM     53  C   UNL A   1      40.362  30.682  34.463  1.00  0.00     0.074 A 
ATOM     54  C   UNL A   1      41.233  30.594  35.616  1.00  0.00     0.031 C 
ATOM     55  C   UNL A   1      43.554  27.326  30.004  1.00  0.00     0.029 A 
ATOM     56  C   UNL A   1      42.246  27.961  29.870  1.00  0.00     0.049 A 
ATOM     57  H   UNL A   1      41.238  29.088  31.305  1.00  0.00     0.167 HD
ATOM     58  C   UNL A   1      39.179  31.346  34.443  1.00  0.00     0.034 A 
ATOM     59  C   UNL A   1      41.467  27.914  28.770  1.00  0.00     0.034 A 
ATOM     60  C   UNL A   1      38.322  31.431  33.284  1.00  0.00     0.049 A 
ATOM     61  C   UNL A   1      40.140  28.630  28.784  1.00  0.00     0.074 A 
ATOM     62  C   UNL A   1      37.128  32.120  33.143  1.00  0.00     0.029 A 
ATOM     63  N   UNL A   1      38.556  30.797  32.070  1.00  0.00    -0.354 N 
ATOM     64  N   UNL A   1      39.585  29.324  29.750  1.00  0.00    -0.248 NA
ATOM     65  C   UNL A   1      39.342  28.569  27.553  1.00  0.00     0.031 C 
ATOM     66  C   UNL A   1      36.604  31.840  31.877  1.00  0.00     0.029 A 
ATOM     67  C   UNL A   1      37.512  31.051  31.190  1.00  0.00     0.049 A 
ATOM     68  H   UNL A   1      39.346  30.249  31.863  1.00  0.00     0.167 HD
ATOM     69  C   UNL A   1      38.387  29.809  29.229  1.00  0.00     0.074 A 
ATOM     70  C   UNL A   1      38.314  29.346  27.860  1.00  0.00     0.031 C 
ATOM     71  C   UNL A   1      37.438  30.574  29.828  1.00  0.00     0.034 A 
BRANCH  58  72
ATOM     72  C   UNL A   1      38.732  32.014  35.725  1.00  0.00     0.023 A 
ATOM     73  C   UNL A   1      38.180  31.278  36.789  1.00  0.00     0.031 A 
ATOM     74  C   UNL A   1      38.844  33.407  35.882  1.00  0.00     0.131 A 
ATOM     75  C   UNL A   1      37.690  31.942  37.923  1.00  0.00     0.055 A 
ATOM     76  C   UNL A   1      38.435  34.054  37.051  1.00  0.00     0.041 A 
ATOM     77  F   UNL A   1      39.343  34.168  34.894  1.00  0.00    -0.206 F 
ATOM     78  C   UNL A   1      37.840  33.322  38.074  1.00  0.00     0.022 A 
BRANCH  75  79
ATOM     79  S   UNL A   1      36.719  30.997  39.129  1.00  0.00     0.124 S 
ATOM     80  O   UNL A   1      36.609  29.700  38.466  1.00  0.00    -0.237 OA
ATOM     81  O   UNL A   1      37.565  31.038  40.316  1.00  0.00    -0.237 OA
ATOM     82  O   UNL A   1      35.469  31.746  39.227  1.00  0.00    -0.744 OA
ENDBRANCH  75  79
ENDBRANCH  58  72
BRANCH  59  83
ATOM     83  C   UNL A   1      41.907  27.156  27.561  1.00  0.00     0.023 A 
ATOM     84  C   UNL A   1      41.875  25.753  27.533  1.00  0.00     0.031 A 
ATOM     85  C   UNL A   1      42.416  27.824  26.432  1.00  0.00     0.131 A 
ATOM     86  C   UNL A   1      42.390  25.061  26.425  1.00  0.00     0.055 A 
ATOM     87  C   UNL A   1      42.871  27.133  25.308  1.00  0.00     0.041 A 
ATOM     88  F   UNL A   1      42.470  29.165  26.403  1.00  0.00    -0.206 F 
ATOM     89  C   UNL A   1      42.873  25.742  25.306  1.00  0.00     0.022 A 
BRANCH  86  90
ATOM     90  S   UNL A   1      42.512  23.253  26.509  1.00  0.00     0.124 S 
ATOM     91  O   UNL A   1      41.373  22.919  27.356  1.00  0.00    -0.237 OA
ATOM     92  O   UNL A   1      42.398  22.877  25.104  1.00  0.00    -0.237 OA
ATOM     93  O   UNL A   1      43.825  23.028  27.108  1.00  0.00    -0.744 OA
ENDBRANCH  86  90
ENDBRANCH  59  83
BRANCH  71  94
ATOM     94  C   UNL A   1      36.258  30.994  28.982  1.00  0.00     0.023 A 
ATOM     95  C   UNL A   1      35.351  30.059  28.454  1.00  0.00     0.031 A 
ATOM     96  C   UNL A   1      36.053  32.353  28.681  1.00  0.00     0.131 A 
ATOM     97  C   UNL A   1      34.323  30.487  27.599  1.00  0.00     0.055 A 
ATOM     98  C   UNL A   1      34.986  32.779  27.889  1.00  0.00     0.041 A 
ATOM     99  F   UNL A   1      36.889  33.291  29.152  1.00  0.00    -0.206 F 
ATOM    100  C   UNL A   1      34.123  31.842  27.329  1.00  0.00     0.022 A 
BRANCH  97 101
ATOM    101  S   UNL A   1      33.317  29.236  26.752  1.00  0.00     0.124 S 
ATOM    102  O   UNL A   1      32.115  29.203  27.579  1.00  0.00    -0.237 OA
ATOM    103  O   UNL A   1      33.158  29.813  25.420  1.00  0.00    -0.237 OA
ATOM    104  O   UNL A   1      34.144  28.033  26.811  1.00  0.00    -0.744 OA
ENDBRANCH  97 101
ENDBRANCH  71  94
ENDBRANCH  45  46
ENDBRANCH  37  40
ENDBRANCH  35  36
ENDBRANCH  34  35
ENDBRANCH   1  34
TORSDOF 18
ENDMDL
