MODEL 1
REMARK VINA RESULT:     -11.6      0.000      0.000
REMARK SMILES CCN(Cc1cn(CC)nc1C)C(=O)c1ccn([C@@H](C)C(=O)NCCCCNC(=O)c2ccc(-c3c4nc(c(-c5cc(S(=O)(=O)[O-])ccc5F)c5ccc([nH]5)c(-c5cc(S(=O)(=O)[O-])ccc5F)c5nc(c(-c6cc(S(=O)(=O)[O-])ccc6F)c6ccc3[nH]6)C=C5)C=C4)cc2)n1
REMARK SMILES IDX 24 1 23 2 21 3 22 4 19 6 20 7 18 8 15 9 16 10 94 11 17 12
REMARK SMILES IDX 13 13 14 14 3 15 2 16 1 17 4 18 5 19 6 20 11 21 7 22 10 23
REMARK SMILES IDX 12 24 8 25 9 26 25 27 26 28 27 29 28 30 29 31 30 33 31 34
REMARK SMILES IDX 32 35 93 36 33 37 92 38 34 39 35 40 36 41 86 42 37 43 91 44
REMARK SMILES IDX 85 45 87 46 38 47 90 48 84 49 83 50 39 52 71 53 51 54 70 55
REMARK SMILES IDX 52 56 55 57 69 58 88 59 53 60 54 61 68 63 89 64 56 65 40 66
REMARK SMILES IDX 41 67 49 68 42 69 48 70 50 71 47 72 43 73 44 74 45 75 46 76
REMARK SMILES IDX 72 77 73 78 81 79 74 80 80 81 82 82 79 83 75 84 76 85 77 86
REMARK SMILES IDX 78 87 57 88 58 89 66 90 59 91 65 92 67 93 64 94 60 95 61 96
REMARK SMILES IDX 62 97 63 98
REMARK H PARENT 23 5 28 32 87 51 55 62
REMARK Flexibility Score: inf
ROOT
ATOM      1  C   UNL A   1      33.970  28.104  25.991  1.00  0.00     0.116 C 
ENDROOT
BRANCH   1   2
ATOM      2  N   UNL A   1      32.969  27.200  26.547  1.00  0.00    -0.354 N 
ATOM      3  C   UNL A   1      31.983  26.408  26.030  1.00  0.00     0.244 C 
ATOM      4  O   UNL A   1      31.315  25.800  26.881  1.00  0.00    -0.273 OA
ATOM      5  H   UNL A   1      33.015  27.148  27.528  1.00  0.00     0.163 HD
BRANCH   3   6
ATOM      6  C   UNL A   1      31.665  26.181  24.537  1.00  0.00     0.193 C 
ATOM      7  C   UNL A   1      30.289  25.586  24.276  1.00  0.00     0.044 C 
BRANCH   6   8
ATOM      8  N   UNL A   1      32.736  25.475  23.846  1.00  0.00    -0.260 N 
ATOM      9  C   UNL A   1      34.255  24.022  23.550  1.00  0.00     0.150 A 
ATOM     10  C   UNL A   1      33.407  24.054  22.427  1.00  0.00     0.056 A 
ATOM     11  N   UNL A   1      33.778  24.878  24.487  1.00  0.00    -0.167 NA
ATOM     12  C   UNL A   1      32.821  25.286  22.506  1.00  0.00     0.110 A 
BRANCH   9  13
ATOM     13  C   UNL A   1      35.499  23.235  23.672  1.00  0.00     0.274 C 
ATOM     14  O   UNL A   1      36.142  22.886  22.683  1.00  0.00    -0.267 OA
BRANCH  13  15
ATOM     15  N   UNL A   1      35.929  22.903  24.984  1.00  0.00    -0.333 N 
BRANCH  15  16
ATOM     16  C   UNL A   1      36.572  23.944  25.785  1.00  0.00     0.117 C 
ATOM     17  C   UNL A   1      38.007  23.612  26.172  1.00  0.00     0.027 C 
ENDBRANCH  15  16
BRANCH  15  18
ATOM     18  C   UNL A   1      35.917  21.550  25.554  1.00  0.00     0.159 C 
BRANCH  18  19
ATOM     19  C   UNL A   1      34.598  20.827  25.422  1.00  0.00     0.012 A 
ATOM     20  C   UNL A   1      34.415  19.681  24.656  1.00  0.00     0.114 A 
ATOM     21  C   UNL A   1      33.264  21.157  25.838  1.00  0.00     0.064 A 
ATOM     22  N   UNL A   1      33.070  19.461  24.573  1.00  0.00    -0.272 N 
ATOM     23  N   UNL A   1      32.359  20.318  25.316  1.00  0.00    -0.178 NA
ATOM     24  C   UNL A   1      32.737  22.345  26.559  1.00  0.00     0.069 C 
BRANCH  22  25
ATOM     25  C   UNL A   1      32.391  18.565  23.652  1.00  0.00     0.141 C 
ATOM     26  C   UNL A   1      33.249  17.401  23.186  1.00  0.00     0.029 C 
ENDBRANCH  22  25
ENDBRANCH  18  19
ENDBRANCH  15  18
ENDBRANCH  13  15
ENDBRANCH   9  13
ENDBRANCH   6   8
ENDBRANCH   3   6
ENDBRANCH   1   2
BRANCH   1  27
ATOM     27  C   UNL A   1      34.525  29.094  27.035  1.00  0.00     0.023 C 
BRANCH  27  28
ATOM     28  C   UNL A   1      33.654  30.296  27.409  1.00  0.00     0.023 C 
BRANCH  28  29
ATOM     29  C   UNL A   1      34.388  31.625  27.505  1.00  0.00     0.116 C 
BRANCH  29  30
ATOM     30  N   UNL A   1      34.350  32.215  28.844  1.00  0.00    -0.352 N 
ATOM     31  C   UNL A   1      35.130  31.865  29.940  1.00  0.00     0.251 C 
ATOM     32  H   UNL A   1      33.700  32.940  28.985  1.00  0.00     0.163 HD
ATOM     33  O   UNL A   1      34.773  32.120  31.074  1.00  0.00    -0.269 OA
BRANCH  31  34
ATOM     34  C   UNL A   1      36.416  31.193  29.671  1.00  0.00     0.039 A 
ATOM     35  C   UNL A   1      37.588  31.908  29.416  1.00  0.00     0.014 A 
ATOM     36  C   UNL A   1      36.429  29.806  29.789  1.00  0.00     0.014 A 
ATOM     37  C   UNL A   1      38.798  31.213  29.379  1.00  0.00     0.010 A 
ATOM     38  C   UNL A   1      37.628  29.153  29.904  1.00  0.00     0.010 A 
ATOM     39  C   UNL A   1      38.815  29.836  29.652  1.00  0.00    -0.014 A 
BRANCH  39  40
ATOM     40  C   UNL A   1      40.072  29.109  29.818  1.00  0.00     0.031 A 
ATOM     41  C   UNL A   1      40.413  28.762  31.226  1.00  0.00     0.074 A 
ATOM     42  C   UNL A   1      40.749  28.564  28.782  1.00  0.00     0.049 A 
ATOM     43  N   UNL A   1      41.372  29.241  31.947  1.00  0.00    -0.248 NA
ATOM     44  C   UNL A   1      39.494  27.892  31.980  1.00  0.00     0.031 C 
ATOM     45  C   UNL A   1      40.373  28.542  27.363  1.00  0.00     0.029 A 
ATOM     46  N   UNL A   1      41.867  27.791  28.798  1.00  0.00    -0.354 N 
ATOM     47  C   UNL A   1      41.338  28.544  33.151  1.00  0.00     0.074 A 
ATOM     48  C   UNL A   1      40.047  27.910  33.195  1.00  0.00     0.031 C 
ATOM     49  C   UNL A   1      41.092  27.599  26.716  1.00  0.00     0.029 A 
ATOM     50  C   UNL A   1      42.100  27.080  27.622  1.00  0.00     0.049 A 
ATOM     51  H   UNL A   1      42.466  27.739  29.579  1.00  0.00     0.167 HD
ATOM     52  C   UNL A   1      42.472  28.344  33.882  1.00  0.00     0.034 A 
ATOM     53  C   UNL A   1      43.035  26.115  27.411  1.00  0.00     0.034 A 
ATOM     54  C   UNL A   1      43.532  29.225  33.434  1.00  0.00     0.049 A 
ATOM     55  C   UNL A   1      44.093  26.333  28.430  1.00  0.00     0.074 A 
ATOM     56  C   UNL A   1      43.651  30.596  33.293  1.00  0.00     0.029 A 
ATOM     57  N   UNL A   1      44.537  28.695  32.653  1.00  0.00    -0.354 N 
ATOM     58  N   UNL A   1      44.827  27.414  28.474  1.00  0.00    -0.248 NA
ATOM     59  C   UNL A   1      43.984  25.611  29.690  1.00  0.00     0.031 C 
ATOM     60  C   UNL A   1      44.322  30.773  32.046  1.00  0.00     0.029 A 
ATOM     61  C   UNL A   1      44.669  29.512  31.556  1.00  0.00     0.049 A 
ATOM     62  H   UNL A   1      45.061  27.884  32.845  1.00  0.00     0.167 HD
ATOM     63  C   UNL A   1      44.896  27.748  29.818  1.00  0.00     0.074 A 
ATOM     64  C   UNL A   1      44.437  26.551  30.525  1.00  0.00     0.031 C 
ATOM     65  C   UNL A   1      45.035  29.045  30.230  1.00  0.00     0.034 A 
BRANCH  52  66
ATOM     66  C   UNL A   1      42.766  27.119  34.729  1.00  0.00     0.023 A 
ATOM     67  C   UNL A   1      43.577  26.122  34.151  1.00  0.00     0.031 A 
ATOM     68  C   UNL A   1      42.085  26.739  35.908  1.00  0.00     0.131 A 
ATOM     69  C   UNL A   1      43.582  24.808  34.651  1.00  0.00     0.055 A 
ATOM     70  C   UNL A   1      42.152  25.449  36.445  1.00  0.00     0.041 A 
ATOM     71  F   UNL A   1      41.249  27.553  36.560  1.00  0.00    -0.206 F 
ATOM     72  C   UNL A   1      42.872  24.463  35.795  1.00  0.00     0.022 A 
BRANCH  69  73
ATOM     73  S   UNL A   1      44.374  23.519  33.656  1.00  0.00     0.124 S 
ATOM     74  O   UNL A   1      43.972  22.312  34.372  1.00  0.00    -0.237 OA
ATOM     75  O   UNL A   1      43.759  23.729  32.350  1.00  0.00    -0.237 OA
ATOM     76  O   UNL A   1      45.794  23.852  33.739  1.00  0.00    -0.744 OA
ENDBRANCH  69  73
ENDBRANCH  52  66
BRANCH  53  77
ATOM     77  C   UNL A   1      42.860  24.854  26.629  1.00  0.00     0.023 A 
ATOM     78  C   UNL A   1      43.797  24.393  25.676  1.00  0.00     0.031 A 
ATOM     79  C   UNL A   1      41.838  23.944  26.994  1.00  0.00     0.131 A 
ATOM     80  C   UNL A   1      43.684  23.087  25.136  1.00  0.00     0.055 A 
ATOM     81  C   UNL A   1      41.732  22.659  26.458  1.00  0.00     0.041 A 
ATOM     82  F   UNL A   1      40.948  24.247  27.953  1.00  0.00    -0.206 F 
ATOM     83  C   UNL A   1      42.662  22.220  25.531  1.00  0.00     0.022 A 
BRANCH  80  84
ATOM     84  S   UNL A   1      44.925  22.454  23.957  1.00  0.00     0.124 S 
ATOM     85  O   UNL A   1      45.385  21.236  24.614  1.00  0.00    -0.237 OA
ATOM     86  O   UNL A   1      44.142  22.280  22.739  1.00  0.00    -0.237 OA
ATOM     87  O   UNL A   1      45.918  23.529  23.894  1.00  0.00    -0.744 OA
ENDBRANCH  80  84
ENDBRANCH  53  77
BRANCH  65  88
ATOM     88  C   UNL A   1      45.392  30.111  29.209  1.00  0.00     0.023 A 
ATOM     89  C   UNL A   1      46.702  30.430  28.782  1.00  0.00     0.031 A 
ATOM     90  C   UNL A   1      44.322  30.728  28.534  1.00  0.00     0.131 A 
ATOM     91  C   UNL A   1      46.898  31.338  27.720  1.00  0.00     0.055 A 
ATOM     92  C   UNL A   1      44.519  31.609  27.470  1.00  0.00     0.041 A 
ATOM     93  F   UNL A   1      43.052  30.450  28.873  1.00  0.00    -0.206 F 
ATOM     94  C   UNL A   1      45.809  31.921  27.062  1.00  0.00     0.022 A 
BRANCH  91  95
ATOM     95  S   UNL A   1      48.578  31.796  27.174  1.00  0.00     0.124 S 
ATOM     96  O   UNL A   1      49.049  30.601  26.482  1.00  0.00    -0.237 OA
ATOM     97  O   UNL A   1      48.332  32.966  26.334  1.00  0.00    -0.237 OA
ATOM     98  O   UNL A   1      49.277  32.087  28.427  1.00  0.00    -0.744 OA
ENDBRANCH  91  95
ENDBRANCH  65  88
ENDBRANCH  39  40
ENDBRANCH  31  34
ENDBRANCH  29  30
ENDBRANCH  28  29
ENDBRANCH  27  28
ENDBRANCH   1  27
TORSDOF 21
ENDMDL
MODEL 2
REMARK VINA RESULT:     -11.1      1.783      2.273
REMARK SMILES CCN(Cc1cn(CC)nc1C)C(=O)c1ccn([C@@H](C)C(=O)NCCCCNC(=O)c2ccc(-c3c4nc(c(-c5cc(S(=O)(=O)[O-])ccc5F)c5ccc([nH]5)c(-c5cc(S(=O)(=O)[O-])ccc5F)c5nc(c(-c6cc(S(=O)(=O)[O-])ccc6F)c6ccc3[nH]6)C=C5)C=C4)cc2)n1
REMARK SMILES IDX 24 1 23 2 21 3 22 4 19 6 20 7 18 8 15 9 16 10 94 11 17 12
REMARK SMILES IDX 13 13 14 14 3 15 2 16 1 17 4 18 5 19 6 20 11 21 7 22 10 23
REMARK SMILES IDX 12 24 8 25 9 26 25 27 26 28 27 29 28 30 29 31 30 33 31 34
REMARK SMILES IDX 32 35 93 36 33 37 92 38 34 39 35 40 36 41 86 42 37 43 91 44
REMARK SMILES IDX 85 45 87 46 38 47 90 48 84 49 83 50 39 52 71 53 51 54 70 55
REMARK SMILES IDX 52 56 55 57 69 58 88 59 53 60 54 61 68 63 89 64 56 65 40 66
REMARK SMILES IDX 41 67 49 68 42 69 48 70 50 71 47 72 43 73 44 74 45 75 46 76
REMARK SMILES IDX 72 77 73 78 81 79 74 80 80 81 82 82 79 83 75 84 76 85 77 86
REMARK SMILES IDX 78 87 57 88 58 89 66 90 59 91 65 92 67 93 64 94 60 95 61 96
REMARK SMILES IDX 62 97 63 98
REMARK H PARENT 23 5 28 32 87 51 55 62
REMARK Flexibility Score: inf
ROOT
ATOM      1  C   UNL A   1      34.382  28.992  26.023  1.00  0.00     0.116 C 
ENDROOT
BRANCH   1   2
ATOM      2  N   UNL A   1      33.167  29.606  25.499  1.00  0.00    -0.354 N 
ATOM      3  C   UNL A   1      31.831  29.334  25.576  1.00  0.00     0.244 C 
ATOM      4  O   UNL A   1      31.110  30.119  24.939  1.00  0.00    -0.273 OA
ATOM      5  H   UNL A   1      33.355  30.409  24.962  1.00  0.00     0.163 HD
BRANCH   3   6
ATOM      6  C   UNL A   1      31.162  28.205  26.387  1.00  0.00     0.193 C 
ATOM      7  C   UNL A   1      31.481  28.232  27.875  1.00  0.00     0.044 C 
BRANCH   6   8
ATOM      8  N   UNL A   1      31.363  26.895  25.781  1.00  0.00    -0.260 N 
ATOM      9  C   UNL A   1      31.270  24.783  25.600  1.00  0.00     0.150 A 
ATOM     10  C   UNL A   1      30.804  25.379  24.413  1.00  0.00     0.056 A 
ATOM     11  N   UNL A   1      31.554  25.756  26.500  1.00  0.00    -0.167 NA
ATOM     12  C   UNL A   1      31.351  26.630  24.451  1.00  0.00     0.110 A 
BRANCH   9  13
ATOM     13  C   UNL A   1      31.477  23.337  25.818  1.00  0.00     0.274 C 
ATOM     14  O   UNL A   1      30.561  22.602  26.190  1.00  0.00    -0.267 OA
BRANCH  13  15
ATOM     15  N   UNL A   1      32.778  22.824  25.573  1.00  0.00    -0.333 N 
BRANCH  15  16
ATOM     16  C   UNL A   1      33.798  23.004  26.606  1.00  0.00     0.117 C 
ATOM     17  C   UNL A   1      33.726  21.963  27.716  1.00  0.00     0.027 C 
ENDBRANCH  15  16
BRANCH  15  18
ATOM     18  C   UNL A   1      33.229  22.255  24.297  1.00  0.00     0.159 C 
BRANCH  18  19
ATOM     19  C   UNL A   1      33.502  20.771  24.334  1.00  0.00     0.012 A 
ATOM     20  C   UNL A   1      32.517  19.798  24.210  1.00  0.00     0.114 A 
ATOM     21  C   UNL A   1      34.675  20.008  24.653  1.00  0.00     0.064 A 
ATOM     22  N   UNL A   1      33.086  18.602  24.539  1.00  0.00    -0.272 N 
ATOM     23  N   UNL A   1      34.401  18.701  24.769  1.00  0.00    -0.178 NA
ATOM     24  C   UNL A   1      36.039  20.443  25.053  1.00  0.00     0.069 C 
BRANCH  22  25
ATOM     25  C   UNL A   1      32.392  17.359  24.833  1.00  0.00     0.141 C 
ATOM     26  C   UNL A   1      33.199  16.395  25.686  1.00  0.00     0.029 C 
ENDBRANCH  22  25
ENDBRANCH  18  19
ENDBRANCH  15  18
ENDBRANCH  13  15
ENDBRANCH   9  13
ENDBRANCH   6   8
ENDBRANCH   3   6
ENDBRANCH   1   2
BRANCH   1  27
ATOM     27  C   UNL A   1      34.980  29.770  27.213  1.00  0.00     0.023 C 
BRANCH  27  28
ATOM     28  C   UNL A   1      34.374  31.136  27.546  1.00  0.00     0.023 C 
BRANCH  28  29
ATOM     29  C   UNL A   1      35.379  32.234  27.858  1.00  0.00     0.116 C 
BRANCH  29  30
ATOM     30  N   UNL A   1      35.330  32.690  29.248  1.00  0.00    -0.352 N 
ATOM     31  C   UNL A   1      36.015  32.157  30.332  1.00  0.00     0.251 C 
ATOM     32  H   UNL A   1      34.747  33.460  29.435  1.00  0.00     0.163 HD
ATOM     33  O   UNL A   1      35.626  32.334  31.471  1.00  0.00    -0.269 OA
BRANCH  31  34
ATOM     34  C   UNL A   1      37.243  31.388  30.049  1.00  0.00     0.039 A 
ATOM     35  C   UNL A   1      38.478  32.008  29.852  1.00  0.00     0.014 A 
ATOM     36  C   UNL A   1      37.131  30.001  30.093  1.00  0.00     0.014 A 
ATOM     37  C   UNL A   1      39.622  31.211  29.797  1.00  0.00     0.010 A 
ATOM     38  C   UNL A   1      38.265  29.238  30.193  1.00  0.00     0.010 A 
ATOM     39  C   UNL A   1      39.512  29.826  29.997  1.00  0.00    -0.014 A 
BRANCH  39  40
ATOM     40  C   UNL A   1      40.697  28.981  30.144  1.00  0.00     0.031 A 
ATOM     41  C   UNL A   1      41.085  28.688  31.553  1.00  0.00     0.074 A 
ATOM     42  C   UNL A   1      41.251  28.305  29.112  1.00  0.00     0.049 A 
ATOM     43  N   UNL A   1      42.129  29.108  32.187  1.00  0.00    -0.248 NA
ATOM     44  C   UNL A   1      40.129  27.968  32.412  1.00  0.00     0.031 C 
ATOM     45  C   UNL A   1      40.790  28.235  27.720  1.00  0.00     0.029 A 
ATOM     46  N   UNL A   1      42.284  27.421  29.121  1.00  0.00    -0.354 N 
ATOM     47  C   UNL A   1      42.098  28.494  33.435  1.00  0.00     0.074 A 
ATOM     48  C   UNL A   1      40.754  28.003  33.591  1.00  0.00     0.031 C 
ATOM     49  C   UNL A   1      41.369  27.184  27.101  1.00  0.00     0.029 A 
ATOM     50  C   UNL A   1      42.372  26.618  27.986  1.00  0.00     0.049 A 
ATOM     51  H   UNL A   1      42.920  27.355  29.870  1.00  0.00     0.167 HD
ATOM     52  C   UNL A   1      43.248  28.221  34.116  1.00  0.00     0.034 A 
ATOM     53  C   UNL A   1      43.189  25.549  27.791  1.00  0.00     0.034 A 
ATOM     54  C   UNL A   1      44.362  28.956  33.554  1.00  0.00     0.049 A 
ATOM     55  C   UNL A   1      44.324  25.717  28.735  1.00  0.00     0.074 A 
ATOM     56  C   UNL A   1      44.612  30.296  33.314  1.00  0.00     0.029 A 
ATOM     57  N   UNL A   1      45.260  28.276  32.757  1.00  0.00    -0.354 N 
ATOM     58  N   UNL A   1      45.165  26.715  28.665  1.00  0.00    -0.248 NA
ATOM     59  C   UNL A   1      44.218  25.090  30.044  1.00  0.00     0.031 C 
ATOM     60  C   UNL A   1      45.221  30.324  32.023  1.00  0.00     0.029 A 
ATOM     61  C   UNL A   1      45.407  29.006  31.602  1.00  0.00     0.049 A 
ATOM     62  H   UNL A   1      45.709  27.428  32.976  1.00  0.00     0.167 HD
ATOM     63  C   UNL A   1      45.349  27.123  29.978  1.00  0.00     0.074 A 
ATOM     64  C   UNL A   1      44.814  26.027  30.789  1.00  0.00     0.031 C 
ATOM     65  C   UNL A   1      45.644  28.421  30.293  1.00  0.00     0.034 A 
BRANCH  52  66
ATOM     66  C   UNL A   1      43.466  27.027  35.028  1.00  0.00     0.023 A 
ATOM     67  C   UNL A   1      44.167  25.931  34.487  1.00  0.00     0.031 A 
ATOM     68  C   UNL A   1      42.798  26.778  36.248  1.00  0.00     0.131 A 
ATOM     69  C   UNL A   1      44.078  24.653  35.067  1.00  0.00     0.055 A 
ATOM     70  C   UNL A   1      42.774  25.521  36.861  1.00  0.00     0.041 A 
ATOM     71  F   UNL A   1      42.059  27.699  36.875  1.00  0.00    -0.206 F 
ATOM     72  C   UNL A   1      43.383  24.439  36.251  1.00  0.00     0.022 A 
BRANCH  69  73
ATOM     73  S   UNL A   1      44.721  23.244  34.129  1.00  0.00     0.124 S 
ATOM     74  O   UNL A   1      44.577  22.161  35.097  1.00  0.00    -0.237 OA
ATOM     75  O   UNL A   1      43.818  23.209  32.984  1.00  0.00    -0.237 OA
ATOM     76  O   UNL A   1      46.096  23.635  33.829  1.00  0.00    -0.744 OA
ENDBRANCH  69  73
ENDBRANCH  52  66
BRANCH  53  77
ATOM     77  C   UNL A   1      42.841  24.268  27.106  1.00  0.00     0.023 A 
ATOM     78  C   UNL A   1      43.729  23.574  26.254  1.00  0.00     0.031 A 
ATOM     79  C   UNL A   1      41.664  23.575  27.483  1.00  0.00     0.131 A 
ATOM     80  C   UNL A   1      43.422  22.259  25.818  1.00  0.00     0.055 A 
ATOM     81  C   UNL A   1      41.367  22.281  27.049  1.00  0.00     0.041 A 
ATOM     82  F   UNL A   1      40.794  24.107  28.356  1.00  0.00    -0.206 F 
ATOM     83  C   UNL A   1      42.252  21.613  26.220  1.00  0.00     0.022 A 
BRANCH  80  84
ATOM     84  S   UNL A   1      44.592  21.325  24.773  1.00  0.00     0.124 S 
ATOM     85  O   UNL A   1      43.999  19.994  24.757  1.00  0.00    -0.237 OA
ATOM     86  O   UNL A   1      44.557  22.069  23.519  1.00  0.00    -0.237 OA
ATOM     87  O   UNL A   1      45.858  21.424  25.504  1.00  0.00    -0.744 OA
ENDBRANCH  80  84
ENDBRANCH  53  77
BRANCH  65  88
ATOM     88  C   UNL A   1      46.044  29.378  29.184  1.00  0.00     0.023 A 
ATOM     89  C   UNL A   1      45.164  30.244  28.493  1.00  0.00     0.031 A 
ATOM     90  C   UNL A   1      47.421  29.512  28.926  1.00  0.00     0.131 A 
ATOM     91  C   UNL A   1      45.676  31.193  27.583  1.00  0.00     0.055 A 
ATOM     92  C   UNL A   1      47.925  30.467  28.042  1.00  0.00     0.041 A 
ATOM     93  F   UNL A   1      48.313  28.739  29.567  1.00  0.00    -0.206 F 
ATOM     94  C   UNL A   1      47.053  31.308  27.363  1.00  0.00     0.022 A 
BRANCH  91  95
ATOM     95  S   UNL A   1      44.562  32.297  26.651  1.00  0.00     0.124 S 
ATOM     96  O   UNL A   1      45.470  33.065  25.807  1.00  0.00    -0.237 OA
ATOM     97  O   UNL A   1      43.687  31.355  25.958  1.00  0.00    -0.237 OA
ATOM     98  O   UNL A   1      43.900  33.077  27.700  1.00  0.00    -0.744 OA
ENDBRANCH  91  95
ENDBRANCH  65  88
ENDBRANCH  39  40
ENDBRANCH  31  34
ENDBRANCH  29  30
ENDBRANCH  28  29
ENDBRANCH  27  28
ENDBRANCH   1  27
TORSDOF 21
ENDMDL
MODEL 3
REMARK VINA RESULT:     -11.1      3.337      7.090
REMARK SMILES CCN(Cc1cn(CC)nc1C)C(=O)c1ccn([C@@H](C)C(=O)NCCCCNC(=O)c2ccc(-c3c4nc(c(-c5cc(S(=O)(=O)[O-])ccc5F)c5ccc([nH]5)c(-c5cc(S(=O)(=O)[O-])ccc5F)c5nc(c(-c6cc(S(=O)(=O)[O-])ccc6F)c6ccc3[nH]6)C=C5)C=C4)cc2)n1
REMARK SMILES IDX 24 1 23 2 21 3 22 4 19 6 20 7 18 8 15 9 16 10 94 11 17 12
REMARK SMILES IDX 13 13 14 14 3 15 2 16 1 17 4 18 5 19 6 20 11 21 7 22 10 23
REMARK SMILES IDX 12 24 8 25 9 26 25 27 26 28 27 29 28 30 29 31 30 33 31 34
REMARK SMILES IDX 32 35 93 36 33 37 92 38 34 39 35 40 36 41 86 42 37 43 91 44
REMARK SMILES IDX 85 45 87 46 38 47 90 48 84 49 83 50 39 52 71 53 51 54 70 55
REMARK SMILES IDX 52 56 55 57 69 58 88 59 53 60 54 61 68 63 89 64 56 65 40 66
REMARK SMILES IDX 41 67 49 68 42 69 48 70 50 71 47 72 43 73 44 74 45 75 46 76
REMARK SMILES IDX 72 77 73 78 81 79 74 80 80 81 82 82 79 83 75 84 76 85 77 86
REMARK SMILES IDX 78 87 57 88 58 89 66 90 59 91 65 92 67 93 64 94 60 95 61 96
REMARK SMILES IDX 62 97 63 98
REMARK H PARENT 23 5 28 32 87 51 55 62
REMARK Flexibility Score: inf
ROOT
ATOM      1  C   UNL A   1      34.247  29.180  27.145  1.00  0.00     0.116 C 
ENDROOT
BRANCH   1   2
ATOM      2  N   UNL A   1      32.994  28.593  27.605  1.00  0.00    -0.354 N 
ATOM      3  C   UNL A   1      32.039  27.788  27.053  1.00  0.00     0.244 C 
ATOM      4  O   UNL A   1      31.083  27.537  27.805  1.00  0.00    -0.273 OA
ATOM      5  H   UNL A   1      32.787  28.836  28.536  1.00  0.00     0.163 HD
BRANCH   3   6
ATOM      6  C   UNL A   1      32.062  27.153  25.647  1.00  0.00     0.193 C 
ATOM      7  C   UNL A   1      31.030  27.727  24.687  1.00  0.00     0.044 C 
BRANCH   6   8
ATOM      8  N   UNL A   1      32.053  25.697  25.698  1.00  0.00    -0.260 N 
ATOM      9  C   UNL A   1      32.723  23.748  26.205  1.00  0.00     0.150 A 
ATOM     10  C   UNL A   1      31.357  23.875  26.520  1.00  0.00     0.056 A 
ATOM     11  N   UNL A   1      33.182  24.940  25.750  1.00  0.00    -0.167 NA
ATOM     12  C   UNL A   1      30.946  24.916  25.737  1.00  0.00     0.110 A 
BRANCH   9  13
ATOM     13  C   UNL A   1      33.520  22.508  26.293  1.00  0.00     0.274 C 
ATOM     14  O   UNL A   1      33.986  22.114  27.362  1.00  0.00    -0.267 OA
BRANCH  13  15
ATOM     15  N   UNL A   1      33.723  21.781  25.090  1.00  0.00    -0.333 N 
BRANCH  15  16
ATOM     16  C   UNL A   1      35.082  21.689  24.558  1.00  0.00     0.117 C 
ATOM     17  C   UNL A   1      35.570  22.981  23.917  1.00  0.00     0.027 C 
ENDBRANCH  15  16
BRANCH  15  18
ATOM     18  C   UNL A   1      32.650  21.235  24.250  1.00  0.00     0.159 C 
BRANCH  18  19
ATOM     19  C   UNL A   1      32.520  19.732  24.297  1.00  0.00     0.012 A 
ATOM     20  C   UNL A   1      32.708  18.973  25.447  1.00  0.00     0.114 A 
ATOM     21  C   UNL A   1      32.370  18.738  23.272  1.00  0.00     0.064 A 
ATOM     22  N   UNL A   1      32.759  17.664  25.063  1.00  0.00    -0.272 N 
ATOM     23  N   UNL A   1      32.515  17.497  23.758  1.00  0.00    -0.178 NA
ATOM     24  C   UNL A   1      32.282  18.871  21.794  1.00  0.00     0.069 C 
BRANCH  22  25
ATOM     25  C   UNL A   1      33.223  16.541  25.862  1.00  0.00     0.141 C 
ATOM     26  C   UNL A   1      32.770  15.189  25.337  1.00  0.00     0.029 C 
ENDBRANCH  22  25
ENDBRANCH  18  19
ENDBRANCH  15  18
ENDBRANCH  13  15
ENDBRANCH   9  13
ENDBRANCH   6   8
ENDBRANCH   3   6
ENDBRANCH   1   2
BRANCH   1  27
ATOM     27  C   UNL A   1      34.490  30.593  27.713  1.00  0.00     0.023 C 
BRANCH  27  28
ATOM     28  C   UNL A   1      33.270  31.492  27.929  1.00  0.00     0.023 C 
BRANCH  28  29
ATOM     29  C   UNL A   1      33.235  32.753  27.079  1.00  0.00     0.116 C 
BRANCH  29  30
ATOM     30  N   UNL A   1      32.751  33.930  27.803  1.00  0.00    -0.352 N 
ATOM     31  C   UNL A   1      33.176  34.387  29.044  1.00  0.00     0.251 C 
ATOM     32  H   UNL A   1      32.047  34.456  27.361  1.00  0.00     0.163 HD
ATOM     33  O   UNL A   1      32.472  35.109  29.723  1.00  0.00    -0.269 OA
BRANCH  31  34
ATOM     34  C   UNL A   1      34.521  33.979  29.494  1.00  0.00     0.039 A 
ATOM     35  C   UNL A   1      34.715  33.182  30.624  1.00  0.00     0.014 A 
ATOM     36  C   UNL A   1      35.587  34.339  28.674  1.00  0.00     0.014 A 
ATOM     37  C   UNL A   1      35.989  32.667  30.866  1.00  0.00     0.010 A 
ATOM     38  C   UNL A   1      36.794  33.710  28.827  1.00  0.00     0.010 A 
ATOM     39  C   UNL A   1      37.021  32.912  29.946  1.00  0.00    -0.014 A 
BRANCH  39  40
ATOM     40  C   UNL A   1      38.313  32.235  30.053  1.00  0.00     0.031 A 
ATOM     41  C   UNL A   1      38.328  30.833  29.549  1.00  0.00     0.074 A 
ATOM     42  C   UNL A   1      39.463  32.886  30.338  1.00  0.00     0.049 A 
ATOM     43  N   UNL A   1      38.458  29.748  30.238  1.00  0.00    -0.248 NA
ATOM     44  C   UNL A   1      38.010  30.590  28.131  1.00  0.00     0.031 C 
ATOM     45  C   UNL A   1      39.665  34.326  30.545  1.00  0.00     0.029 A 
ATOM     46  N   UNL A   1      40.734  32.406  30.378  1.00  0.00    -0.354 N 
ATOM     47  C   UNL A   1      38.503  28.706  29.317  1.00  0.00     0.074 A 
ATOM     48  C   UNL A   1      37.999  29.256  28.086  1.00  0.00     0.031 C 
ATOM     49  C   UNL A   1      40.978  34.622  30.431  1.00  0.00     0.029 A 
ATOM     50  C   UNL A   1      41.727  33.383  30.328  1.00  0.00     0.049 A 
ATOM     51  H   UNL A   1      40.937  31.444  30.438  1.00  0.00     0.167 HD
ATOM     52  C   UNL A   1      39.190  27.558  29.583  1.00  0.00     0.034 A 
ATOM     53  C   UNL A   1      43.066  33.194  30.186  1.00  0.00     0.034 A 
ATOM     54  C   UNL A   1      39.501  27.464  30.995  1.00  0.00     0.049 A 
ATOM     55  C   UNL A   1      43.340  31.807  30.641  1.00  0.00     0.074 A 
ATOM     56  C   UNL A   1      38.745  27.492  32.154  1.00  0.00     0.029 A 
ATOM     57  N   UNL A   1      40.790  27.741  31.400  1.00  0.00    -0.354 N 
ATOM     58  N   UNL A   1      43.141  31.408  31.869  1.00  0.00    -0.248 NA
ATOM     59  C   UNL A   1      43.330  30.749  29.640  1.00  0.00     0.031 C 
ATOM     60  C   UNL A   1      39.493  28.310  33.052  1.00  0.00     0.029 A 
ATOM     61  C   UNL A   1      40.702  28.640  32.436  1.00  0.00     0.049 A 
ATOM     62  H   UNL A   1      41.617  27.366  31.019  1.00  0.00     0.167 HD
ATOM     63  C   UNL A   1      42.548  30.160  31.751  1.00  0.00     0.074 A 
ATOM     64  C   UNL A   1      42.776  29.768  30.359  1.00  0.00     0.031 C 
ATOM     65  C   UNL A   1      41.678  29.685  32.694  1.00  0.00     0.034 A 
BRANCH  52  66
ATOM     66  C   UNL A   1      39.915  26.711  28.553  1.00  0.00     0.023 A 
ATOM     67  C   UNL A   1      40.982  27.320  27.863  1.00  0.00     0.031 A 
ATOM     68  C   UNL A   1      39.459  25.488  28.010  1.00  0.00     0.131 A 
ATOM     69  C   UNL A   1      41.448  26.800  26.642  1.00  0.00     0.055 A 
ATOM     70  C   UNL A   1      39.978  24.937  26.834  1.00  0.00     0.041 A 
ATOM     71  F   UNL A   1      38.434  24.801  28.523  1.00  0.00    -0.206 F 
ATOM     72  C   UNL A   1      40.951  25.612  26.120  1.00  0.00     0.022 A 
BRANCH  69  73
ATOM     73  S   UNL A   1      42.573  27.820  25.655  1.00  0.00     0.124 S 
ATOM     74  O   UNL A   1      43.450  28.366  26.687  1.00  0.00    -0.237 OA
ATOM     75  O   UNL A   1      43.168  26.831  24.762  1.00  0.00    -0.237 OA
ATOM     76  O   UNL A   1      41.684  28.784  25.015  1.00  0.00    -0.744 OA
ENDBRANCH  69  73
ENDBRANCH  52  66
BRANCH  53  77
ATOM     77  C   UNL A   1      44.005  34.016  29.364  1.00  0.00     0.023 A 
ATOM     78  C   UNL A   1      44.328  33.718  28.021  1.00  0.00     0.031 A 
ATOM     79  C   UNL A   1      44.429  35.279  29.846  1.00  0.00     0.131 A 
ATOM     80  C   UNL A   1      45.043  34.655  27.232  1.00  0.00     0.055 A 
ATOM     81  C   UNL A   1      45.133  36.197  29.063  1.00  0.00     0.041 A 
ATOM     82  F   UNL A   1      44.101  35.699  31.078  1.00  0.00    -0.206 F 
ATOM     83  C   UNL A   1      45.436  35.892  27.748  1.00  0.00     0.022 A 
BRANCH  80  84
ATOM     84  S   UNL A   1      45.407  34.313  25.476  1.00  0.00     0.124 S 
ATOM     85  O   UNL A   1      45.708  32.886  25.495  1.00  0.00    -0.237 OA
ATOM     86  O   UNL A   1      44.169  34.708  24.816  1.00  0.00    -0.237 OA
ATOM     87  O   UNL A   1      46.554  35.177  25.189  1.00  0.00    -0.744 OA
ENDBRANCH  80  84
ENDBRANCH  53  77
BRANCH  65  88
ATOM     88  C   UNL A   1      41.562  30.409  34.025  1.00  0.00     0.023 A 
ATOM     89  C   UNL A   1      40.647  31.448  34.314  1.00  0.00     0.031 A 
ATOM     90  C   UNL A   1      42.331  29.907  35.091  1.00  0.00     0.131 A 
ATOM     91  C   UNL A   1      40.534  31.944  35.630  1.00  0.00     0.055 A 
ATOM     92  C   UNL A   1      42.200  30.384  36.395  1.00  0.00     0.041 A 
ATOM     93  F   UNL A   1      43.201  28.902  34.890  1.00  0.00    -0.206 F 
ATOM     94  C   UNL A   1      41.303  31.409  36.669  1.00  0.00     0.022 A 
BRANCH  91  95
ATOM     95  S   UNL A   1      39.388  33.308  36.023  1.00  0.00     0.124 S 
ATOM     96  O   UNL A   1      39.605  34.260  34.939  1.00  0.00    -0.237 OA
ATOM     97  O   UNL A   1      38.089  32.640  36.036  1.00  0.00    -0.237 OA
ATOM     98  O   UNL A   1      39.845  33.769  37.337  1.00  0.00    -0.744 OA
ENDBRANCH  91  95
ENDBRANCH  65  88
ENDBRANCH  39  40
ENDBRANCH  31  34
ENDBRANCH  29  30
ENDBRANCH  28  29
ENDBRANCH  27  28
ENDBRANCH   1  27
TORSDOF 21
ENDMDL
