MODEL 1
REMARK VINA RESULT:     -12.5      0.000      0.000
REMARK SMILES O=C(NCCCCNC(=O)[C@@H]1CCCC[C@@H]1C(=O)Nc1cccc(Br)c1)c1ccc(-c2c3nc(c(-c4cc(S(=O)(=O)[O-])ccc4F)c4ccc([nH]4)c(-c4cc(S(=O)(=O)[O-])ccc4F)c4nc(c(-c5cc(S(=O)(=O)[O-])ccc5F)c5ccc2[nH]5)C=C4)C=C3)cc1
REMARK SMILES IDX 5 1 4 2 3 3 1 4 2 5 27 7 28 8 89 9 29 10 88 11 30 12 31 13
REMARK SMILES IDX 32 14 82 15 33 16 87 17 81 18 83 19 34 20 86 21 80 22 79 23
REMARK SMILES IDX 35 25 67 26 47 27 66 28 48 29 51 30 65 31 84 32 49 33 50 34
REMARK SMILES IDX 64 36 85 37 52 38 36 39 37 40 45 41 38 42 44 43 46 44 43 45
REMARK SMILES IDX 39 46 40 47 41 48 42 49 68 50 69 51 77 52 70 53 76 54 78 55
REMARK SMILES IDX 75 56 71 57 72 58 73 59 74 60 53 61 54 62 62 63 55 64 61 65
REMARK SMILES IDX 63 66 60 67 56 68 57 69 58 70 59 71 6 72 7 73 8 74 9 75
REMARK SMILES IDX 10 77 11 78 12 79 16 80 13 81 15 82 14 83 17 84 18 85 19 86
REMARK SMILES IDX 20 88 21 89 26 90 22 91 24 92 23 93 25 94
REMARK H PARENT 3 6 83 24 51 35 8 76 19 87
REMARK Flexibility Score: inf
ROOT
ATOM      1  C   UNL A   1      31.468  32.309  26.610  1.00  0.00     0.023 C 
ENDROOT
BRANCH   1   2
ATOM      2  C   UNL A   1      32.738  32.824  27.279  1.00  0.00     0.116 C 
BRANCH   2   3
ATOM      3  N   UNL A   1      32.619  34.198  27.741  1.00  0.00    -0.352 N 
ATOM      4  O   UNL A   1      33.008  35.971  29.079  1.00  0.00    -0.269 OA
ATOM      5  C   UNL A   1      33.329  34.838  28.729  1.00  0.00     0.251 C 
ATOM      6  H   UNL A   1      31.937  34.743  27.285  1.00  0.00     0.163 HD
BRANCH   5   7
ATOM      7  C   UNL A   1      34.462  34.146  29.383  1.00  0.00     0.039 A 
ATOM      8  C   UNL A   1      34.236  33.218  30.403  1.00  0.00     0.014 A 
ATOM      9  C   UNL A   1      35.765  34.433  28.968  1.00  0.00     0.014 A 
ATOM     10  C   UNL A   1      35.314  32.672  31.091  1.00  0.00     0.010 A 
ATOM     11  C   UNL A   1      36.846  33.828  29.614  1.00  0.00     0.010 A 
ATOM     12  C   UNL A   1      36.630  32.962  30.697  1.00  0.00    -0.014 A 
BRANCH  12  13
ATOM     13  C   UNL A   1      37.764  32.306  31.399  1.00  0.00     0.031 A 
ATOM     14  C   UNL A   1      38.532  31.186  30.755  1.00  0.00     0.074 A 
ATOM     15  C   UNL A   1      38.101  32.741  32.628  1.00  0.00     0.049 A 
ATOM     16  N   UNL A   1      39.541  30.498  31.227  1.00  0.00    -0.248 NA
ATOM     17  C   UNL A   1      38.101  30.775  29.410  1.00  0.00     0.031 C 
ATOM     18  C   UNL A   1      37.413  33.811  33.356  1.00  0.00     0.029 A 
ATOM     19  N   UNL A   1      39.100  32.349  33.480  1.00  0.00    -0.354 N 
ATOM     20  C   UNL A   1      39.859  29.564  30.247  1.00  0.00     0.074 A 
ATOM     21  C   UNL A   1      38.911  29.753  29.169  1.00  0.00     0.031 C 
ATOM     22  C   UNL A   1      38.027  34.006  34.533  1.00  0.00     0.029 A 
ATOM     23  C   UNL A   1      39.108  33.038  34.669  1.00  0.00     0.049 A 
ATOM     24  H   UNL A   1      39.749  31.642  33.262  1.00  0.00     0.167 HD
ATOM     25  C   UNL A   1      40.857  28.642  30.248  1.00  0.00     0.034 A 
ATOM     26  C   UNL A   1      39.880  32.892  35.762  1.00  0.00     0.034 A 
ATOM     27  C   UNL A   1      41.792  28.472  31.336  1.00  0.00     0.049 A 
ATOM     28  C   UNL A   1      40.959  31.845  35.753  1.00  0.00     0.074 A 
ATOM     29  C   UNL A   1      42.869  27.605  31.421  1.00  0.00     0.029 A 
ATOM     30  N   UNL A   1      41.755  29.171  32.537  1.00  0.00    -0.354 N 
ATOM     31  N   UNL A   1      41.270  30.992  34.803  1.00  0.00    -0.248 NA
ATOM     32  C   UNL A   1      41.792  31.745  36.956  1.00  0.00     0.031 C 
ATOM     33  C   UNL A   1      43.438  27.732  32.694  1.00  0.00     0.029 A 
ATOM     34  C   UNL A   1      42.765  28.729  33.381  1.00  0.00     0.049 A 
ATOM     35  H   UNL A   1      41.106  29.877  32.758  1.00  0.00     0.167 HD
ATOM     36  C   UNL A   1      42.346  30.260  35.292  1.00  0.00     0.074 A 
ATOM     37  C   UNL A   1      42.642  30.787  36.610  1.00  0.00     0.031 C 
ATOM     38  C   UNL A   1      43.029  29.245  34.705  1.00  0.00     0.034 A 
BRANCH  25  39
ATOM     39  C   UNL A   1      40.950  27.718  29.057  1.00  0.00     0.023 A 
ATOM     40  C   UNL A   1      41.941  27.872  28.071  1.00  0.00     0.031 A 
ATOM     41  C   UNL A   1      40.015  26.680  28.888  1.00  0.00     0.131 A 
ATOM     42  C   UNL A   1      41.929  27.055  26.929  1.00  0.00     0.055 A 
ATOM     43  C   UNL A   1      40.056  25.819  27.789  1.00  0.00     0.041 A 
ATOM     44  F   UNL A   1      39.034  26.492  29.785  1.00  0.00    -0.206 F 
ATOM     45  C   UNL A   1      41.008  26.015  26.792  1.00  0.00     0.022 A 
BRANCH  42  46
ATOM     46  S   UNL A   1      43.042  27.466  25.557  1.00  0.00     0.124 S 
ATOM     47  O   UNL A   1      42.170  28.264  24.697  1.00  0.00    -0.237 OA
ATOM     48  O   UNL A   1      44.115  28.190  26.227  1.00  0.00    -0.237 OA
ATOM     49  O   UNL A   1      43.412  26.161  25.013  1.00  0.00    -0.744 OA
ENDBRANCH  42  46
ENDBRANCH  25  39
BRANCH  26  50
ATOM     50  C   UNL A   1      39.626  33.732  36.965  1.00  0.00     0.023 A 
ATOM     51  C   UNL A   1      38.949  33.222  38.082  1.00  0.00     0.031 A 
ATOM     52  C   UNL A   1      40.067  35.068  37.009  1.00  0.00     0.131 A 
ATOM     53  C   UNL A   1      38.708  34.052  39.188  1.00  0.00     0.055 A 
ATOM     54  C   UNL A   1      39.866  35.874  38.129  1.00  0.00     0.041 A 
ATOM     55  F   UNL A   1      40.728  35.599  35.968  1.00  0.00    -0.206 F 
ATOM     56  C   UNL A   1      39.173  35.369  39.225  1.00  0.00     0.022 A 
BRANCH  53  57
ATOM     57  S   UNL A   1      37.723  33.400  40.565  1.00  0.00     0.124 S 
ATOM     58  O   UNL A   1      36.536  32.907  39.876  1.00  0.00    -0.237 OA
ATOM     59  O   UNL A   1      38.612  32.385  41.118  1.00  0.00    -0.237 OA
ATOM     60  O   UNL A   1      37.511  34.570  41.415  1.00  0.00    -0.744 OA
ENDBRANCH  53  57
ENDBRANCH  26  50
BRANCH  38  61
ATOM     61  C   UNL A   1      44.179  28.663  35.487  1.00  0.00     0.023 A 
ATOM     62  C   UNL A   1      43.995  27.594  36.383  1.00  0.00     0.031 A 
ATOM     63  C   UNL A   1      45.471  29.200  35.354  1.00  0.00     0.131 A 
ATOM     64  C   UNL A   1      45.075  27.133  37.150  1.00  0.00     0.055 A 
ATOM     65  C   UNL A   1      46.553  28.701  36.080  1.00  0.00     0.041 A 
ATOM     66  F   UNL A   1      45.701  30.224  34.515  1.00  0.00    -0.206 F 
ATOM     67  C   UNL A   1      46.355  27.670  36.994  1.00  0.00     0.022 A 
BRANCH  64  68
ATOM     68  S   UNL A   1      44.766  25.880  38.425  1.00  0.00     0.124 S 
ATOM     69  O   UNL A   1      43.927  24.921  37.710  1.00  0.00    -0.237 OA
ATOM     70  O   UNL A   1      46.114  25.428  38.751  1.00  0.00    -0.237 OA
ATOM     71  O   UNL A   1      44.089  26.626  39.484  1.00  0.00    -0.744 OA
ENDBRANCH  64  68
ENDBRANCH  38  61
ENDBRANCH  12  13
ENDBRANCH   5   7
ENDBRANCH   2   3
ENDBRANCH   1   2
BRANCH   1  72
ATOM     72  C   UNL A   1      31.472  30.822  26.242  1.00  0.00     0.023 C 
BRANCH  72  73
ATOM     73  C   UNL A   1      32.759  30.080  26.603  1.00  0.00     0.116 C 
BRANCH  73  74
ATOM     74  N   UNL A   1      33.503  29.688  25.421  1.00  0.00    -0.356 N 
ATOM     75  C   UNL A   1      33.669  28.480  24.815  1.00  0.00     0.223 C 
ATOM     76  H   UNL A   1      33.974  30.430  24.976  1.00  0.00     0.163 HD
ATOM     77  O   UNL A   1      34.423  28.438  23.844  1.00  0.00    -0.275 OA
BRANCH  75  78
ATOM     78  C   UNL A   1      32.900  27.263  25.310  1.00  0.00     0.091 C 
ATOM     79  C   UNL A   1      33.698  25.964  25.184  1.00  0.00     0.014 C 
ATOM     80  C   UNL A   1      31.497  27.195  24.674  1.00  0.00     0.091 C 
ATOM     81  C   UNL A   1      32.901  24.790  25.756  1.00  0.00     0.001 C 
ATOM     82  C   UNL A   1      30.723  26.009  25.281  1.00  0.00     0.014 C 
ATOM     83  C   UNL A   1      31.495  24.693  25.165  1.00  0.00     0.001 C 
BRANCH  80  84
ATOM     84  C   UNL A   1      31.459  27.073  23.142  1.00  0.00     0.228 C 
ATOM     85  O   UNL A   1      32.209  26.313  22.526  1.00  0.00    -0.274 OA
ATOM     86  N   UNL A   1      30.437  27.625  22.417  1.00  0.00    -0.326 N 
ATOM     87  H   UNL A   1      30.444  27.374  21.464  1.00  0.00     0.169 HD
BRANCH  86  88
ATOM     88  C   UNL A   1      29.383  28.479  22.768  1.00  0.00     0.042 A 
ATOM     89  C   UNL A   1      28.105  28.039  23.114  1.00  0.00     0.026 A 
ATOM     90  C   UNL A   1      29.662  29.850  22.794  1.00  0.00     0.041 A 
ATOM     91  C   UNL A   1      27.091  28.959  23.396  1.00  0.00     0.003 A 
ATOM     92  C   UNL A   1      28.644  30.766  23.060  1.00  0.00     0.020 A 
ATOM     93  C   UNL A   1      27.354  30.327  23.349  1.00  0.00     0.016 A 
ATOM     94  Br  UNL A   1      29.014  32.619  23.002  1.00  0.00    -0.051 Br
ENDBRANCH  86  88
ENDBRANCH  80  84
ENDBRANCH  75  78
ENDBRANCH  73  74
ENDBRANCH  72  73
ENDBRANCH   1  72
TORSDOF 16
ENDMDL
MODEL 2
REMARK VINA RESULT:     -12.5      6.538     12.246
REMARK SMILES O=C(NCCCCNC(=O)[C@@H]1CCCC[C@@H]1C(=O)Nc1cccc(Br)c1)c1ccc(-c2c3nc(c(-c4cc(S(=O)(=O)[O-])ccc4F)c4ccc([nH]4)c(-c4cc(S(=O)(=O)[O-])ccc4F)c4nc(c(-c5cc(S(=O)(=O)[O-])ccc5F)c5ccc2[nH]5)C=C4)C=C3)cc1
REMARK SMILES IDX 5 1 4 2 3 3 1 4 2 5 27 7 28 8 89 9 29 10 88 11 30 12 31 13
REMARK SMILES IDX 32 14 82 15 33 16 87 17 81 18 83 19 34 20 86 21 80 22 79 23
REMARK SMILES IDX 35 25 67 26 47 27 66 28 48 29 51 30 65 31 84 32 49 33 50 34
REMARK SMILES IDX 64 36 85 37 52 38 36 39 37 40 45 41 38 42 44 43 46 44 43 45
REMARK SMILES IDX 39 46 40 47 41 48 42 49 68 50 69 51 77 52 70 53 76 54 78 55
REMARK SMILES IDX 75 56 71 57 72 58 73 59 74 60 53 61 54 62 62 63 55 64 61 65
REMARK SMILES IDX 63 66 60 67 56 68 57 69 58 70 59 71 6 72 7 73 8 74 9 75
REMARK SMILES IDX 10 77 11 78 12 79 16 80 13 81 15 82 14 83 17 84 18 85 19 86
REMARK SMILES IDX 20 88 21 89 26 90 22 91 24 92 23 93 25 94
REMARK H PARENT 3 6 83 24 51 35 8 76 19 87
REMARK Flexibility Score: inf
ROOT
ATOM      1  C   UNL A   1      38.226  19.355  25.030  1.00  0.00     0.023 C 
ENDROOT
BRANCH   1   2
ATOM      2  C   UNL A   1      39.392  19.973  25.795  1.00  0.00     0.116 C 
BRANCH   2   3
ATOM      3  N   UNL A   1      40.494  19.046  25.997  1.00  0.00    -0.352 N 
ATOM      4  O   UNL A   1      42.640  18.414  26.279  1.00  0.00    -0.269 OA
ATOM      5  C   UNL A   1      41.814  19.323  26.264  1.00  0.00     0.251 C 
ATOM      6  H   UNL A   1      40.264  18.091  25.934  1.00  0.00     0.163 HD
BRANCH   5   7
ATOM      7  C   UNL A   1      42.235  20.720  26.506  1.00  0.00     0.039 A 
ATOM      8  C   UNL A   1      42.464  21.591  25.437  1.00  0.00     0.014 A 
ATOM      9  C   UNL A   1      42.402  21.161  27.822  1.00  0.00     0.014 A 
ATOM     10  C   UNL A   1      42.979  22.860  25.678  1.00  0.00     0.010 A 
ATOM     11  C   UNL A   1      42.852  22.462  28.063  1.00  0.00     0.010 A 
ATOM     12  C   UNL A   1      43.169  23.313  26.993  1.00  0.00    -0.014 A 
BRANCH  12  13
ATOM     13  C   UNL A   1      43.647  24.700  27.226  1.00  0.00     0.031 A 
ATOM     14  C   UNL A   1      42.720  25.766  27.737  1.00  0.00     0.074 A 
ATOM     15  C   UNL A   1      44.940  24.987  26.976  1.00  0.00     0.049 A 
ATOM     16  N   UNL A   1      42.969  27.027  27.988  1.00  0.00    -0.248 NA
ATOM     17  C   UNL A   1      41.327  25.368  27.987  1.00  0.00     0.031 C 
ATOM     18  C   UNL A   1      45.925  24.033  26.461  1.00  0.00     0.029 A 
ATOM     19  N   UNL A   1      45.649  26.150  27.124  1.00  0.00    -0.354 N 
ATOM     20  C   UNL A   1      41.764  27.579  28.411  1.00  0.00     0.074 A 
ATOM     21  C   UNL A   1      40.778  26.520  28.348  1.00  0.00     0.031 C 
ATOM     22  C   UNL A   1      47.116  24.644  26.360  1.00  0.00     0.029 A 
ATOM     23  C   UNL A   1      46.965  26.042  26.743  1.00  0.00     0.049 A 
ATOM     24  H   UNL A   1      45.254  26.984  27.469  1.00  0.00     0.167 HD
ATOM     25  C   UNL A   1      41.512  28.849  28.821  1.00  0.00     0.034 A 
ATOM     26  C   UNL A   1      47.939  26.969  26.680  1.00  0.00     0.034 A 
ATOM     27  C   UNL A   1      42.513  29.889  28.875  1.00  0.00     0.049 A 
ATOM     28  C   UNL A   1      47.629  28.376  27.110  1.00  0.00     0.074 A 
ATOM     29  C   UNL A   1      42.378  31.194  29.321  1.00  0.00     0.029 A 
ATOM     30  N   UNL A   1      43.831  29.750  28.458  1.00  0.00    -0.354 N 
ATOM     31  N   UNL A   1      46.492  28.873  27.542  1.00  0.00    -0.248 NA
ATOM     32  C   UNL A   1      48.731  29.342  27.051  1.00  0.00     0.031 C 
ATOM     33  C   UNL A   1      43.592  31.859  29.109  1.00  0.00     0.029 A 
ATOM     34  C   UNL A   1      44.509  30.954  28.599  1.00  0.00     0.049 A 
ATOM     35  H   UNL A   1      44.228  28.919  28.111  1.00  0.00     0.167 HD
ATOM     36  C   UNL A   1      46.747  30.212  27.817  1.00  0.00     0.074 A 
ATOM     37  C   UNL A   1      48.150  30.437  27.524  1.00  0.00     0.031 C 
ATOM     38  C   UNL A   1      45.900  31.169  28.273  1.00  0.00     0.034 A 
BRANCH  25  39
ATOM     39  C   UNL A   1      40.087  29.189  29.192  1.00  0.00     0.023 A 
ATOM     40  C   UNL A   1      39.664  29.258  30.532  1.00  0.00     0.031 A 
ATOM     41  C   UNL A   1      39.128  29.422  28.190  1.00  0.00     0.131 A 
ATOM     42  C   UNL A   1      38.309  29.477  30.829  1.00  0.00     0.055 A 
ATOM     43  C   UNL A   1      37.797  29.717  28.494  1.00  0.00     0.041 A 
ATOM     44  F   UNL A   1      39.466  29.353  26.892  1.00  0.00    -0.206 F 
ATOM     45  C   UNL A   1      37.377  29.730  29.821  1.00  0.00     0.022 A 
BRANCH  42  46
ATOM     46  S   UNL A   1      37.755  29.279  32.545  1.00  0.00     0.124 S 
ATOM     47  O   UNL A   1      38.797  29.994  33.278  1.00  0.00    -0.237 OA
ATOM     48  O   UNL A   1      36.440  29.909  32.527  1.00  0.00    -0.237 OA
ATOM     49  O   UNL A   1      37.751  27.830  32.740  1.00  0.00    -0.744 OA
ENDBRANCH  42  46
ENDBRANCH  25  39
BRANCH  26  50
ATOM     50  C   UNL A   1      49.280  26.599  26.150  1.00  0.00     0.023 A 
ATOM     51  C   UNL A   1      49.726  27.063  24.904  1.00  0.00     0.031 A 
ATOM     52  C   UNL A   1      50.138  25.770  26.896  1.00  0.00     0.131 A 
ATOM     53  C   UNL A   1      50.987  26.672  24.427  1.00  0.00     0.055 A 
ATOM     54  C   UNL A   1      51.409  25.422  26.438  1.00  0.00     0.041 A 
ATOM     55  F   UNL A   1      49.760  25.307  28.098  1.00  0.00    -0.206 F 
ATOM     56  C   UNL A   1      51.836  25.867  25.191  1.00  0.00     0.022 A 
BRANCH  53  57
ATOM     57  S   UNL A   1      51.484  27.187  22.761  1.00  0.00     0.124 S 
ATOM     58  O   UNL A   1      50.352  26.739  21.959  1.00  0.00    -0.237 OA
ATOM     59  O   UNL A   1      51.625  28.631  22.921  1.00  0.00    -0.237 OA
ATOM     60  O   UNL A   1      52.734  26.463  22.539  1.00  0.00    -0.744 OA
ENDBRANCH  53  57
ENDBRANCH  26  50
BRANCH  38  61
ATOM     61  C   UNL A   1      46.488  32.539  28.502  1.00  0.00     0.023 A 
ATOM     62  C   UNL A   1      46.635  33.462  27.452  1.00  0.00     0.031 A 
ATOM     63  C   UNL A   1      46.930  32.915  29.782  1.00  0.00     0.131 A 
ATOM     64  C   UNL A   1      47.259  34.696  27.690  1.00  0.00     0.055 A 
ATOM     65  C   UNL A   1      47.500  34.166  30.024  1.00  0.00     0.041 A 
ATOM     66  F   UNL A   1      46.817  32.070  30.820  1.00  0.00    -0.206 F 
ATOM     67  C   UNL A   1      47.680  35.059  28.971  1.00  0.00     0.022 A 
BRANCH  64  68
ATOM     68  S   UNL A   1      47.597  35.787  26.281  1.00  0.00     0.124 S 
ATOM     69  O   UNL A   1      46.361  36.559  26.192  1.00  0.00    -0.237 OA
ATOM     70  O   UNL A   1      48.776  36.521  26.730  1.00  0.00    -0.237 OA
ATOM     71  O   UNL A   1      47.829  34.860  25.175  1.00  0.00    -0.744 OA
ENDBRANCH  64  68
ENDBRANCH  38  61
ENDBRANCH  12  13
ENDBRANCH   5   7
ENDBRANCH   2   3
ENDBRANCH   1   2
BRANCH   1  72
ATOM     72  C   UNL A   1      37.023  20.275  24.805  1.00  0.00     0.023 C 
BRANCH  72  73
ATOM     73  C   UNL A   1      37.253  21.734  25.198  1.00  0.00     0.116 C 
BRANCH  73  74
ATOM     74  N   UNL A   1      36.359  22.151  26.263  1.00  0.00    -0.356 N 
ATOM     75  C   UNL A   1      35.223  22.901  26.248  1.00  0.00     0.223 C 
ATOM     76  H   UNL A   1      36.622  21.835  27.158  1.00  0.00     0.163 HD
ATOM     77  O   UNL A   1      34.701  23.151  27.334  1.00  0.00    -0.275 OA
BRANCH  75  78
ATOM     78  C   UNL A   1      34.620  23.352  24.925  1.00  0.00     0.091 C 
ATOM     79  C   UNL A   1      33.874  24.683  25.036  1.00  0.00     0.014 C 
ATOM     80  C   UNL A   1      33.790  22.225  24.278  1.00  0.00     0.091 C 
ATOM     81  C   UNL A   1      33.348  25.116  23.666  1.00  0.00     0.001 C 
ATOM     82  C   UNL A   1      33.287  22.694  22.899  1.00  0.00     0.014 C 
ATOM     83  C   UNL A   1      32.532  24.022  22.979  1.00  0.00     0.001 C 
BRANCH  80  84
ATOM     84  C   UNL A   1      32.588  21.724  25.094  1.00  0.00     0.228 C 
ATOM     85  O   UNL A   1      31.874  22.489  25.747  1.00  0.00    -0.274 OA
ATOM     86  N   UNL A   1      32.118  20.447  24.944  1.00  0.00    -0.326 N 
ATOM     87  H   UNL A   1      31.269  20.277  25.414  1.00  0.00     0.169 HD
BRANCH  86  88
ATOM     88  C   UNL A   1      32.612  19.334  24.251  1.00  0.00     0.042 A 
ATOM     89  C   UNL A   1      32.258  19.010  22.941  1.00  0.00     0.026 A 
ATOM     90  C   UNL A   1      33.539  18.530  24.924  1.00  0.00     0.041 A 
ATOM     91  C   UNL A   1      32.752  17.848  22.340  1.00  0.00     0.003 A 
ATOM     92  C   UNL A   1      34.018  17.364  24.328  1.00  0.00     0.020 A 
ATOM     93  C   UNL A   1      33.617  17.011  23.042  1.00  0.00     0.016 A 
ATOM     94  Br  UNL A   1      35.198  16.239  25.285  1.00  0.00    -0.051 Br
ENDBRANCH  86  88
ENDBRANCH  80  84
ENDBRANCH  75  78
ENDBRANCH  73  74
ENDBRANCH  72  73
ENDBRANCH   1  72
TORSDOF 16
ENDMDL
MODEL 3
REMARK VINA RESULT:     -12.3      1.307      1.558
REMARK SMILES O=C(NCCCCNC(=O)[C@@H]1CCCC[C@@H]1C(=O)Nc1cccc(Br)c1)c1ccc(-c2c3nc(c(-c4cc(S(=O)(=O)[O-])ccc4F)c4ccc([nH]4)c(-c4cc(S(=O)(=O)[O-])ccc4F)c4nc(c(-c5cc(S(=O)(=O)[O-])ccc5F)c5ccc2[nH]5)C=C4)C=C3)cc1
REMARK SMILES IDX 5 1 4 2 3 3 1 4 2 5 27 7 28 8 89 9 29 10 88 11 30 12 31 13
REMARK SMILES IDX 32 14 82 15 33 16 87 17 81 18 83 19 34 20 86 21 80 22 79 23
REMARK SMILES IDX 35 25 67 26 47 27 66 28 48 29 51 30 65 31 84 32 49 33 50 34
REMARK SMILES IDX 64 36 85 37 52 38 36 39 37 40 45 41 38 42 44 43 46 44 43 45
REMARK SMILES IDX 39 46 40 47 41 48 42 49 68 50 69 51 77 52 70 53 76 54 78 55
REMARK SMILES IDX 75 56 71 57 72 58 73 59 74 60 53 61 54 62 62 63 55 64 61 65
REMARK SMILES IDX 63 66 60 67 56 68 57 69 58 70 59 71 6 72 7 73 8 74 9 75
REMARK SMILES IDX 10 77 11 78 12 79 16 80 13 81 15 82 14 83 17 84 18 85 19 86
REMARK SMILES IDX 20 88 21 89 26 90 22 91 24 92 23 93 25 94
REMARK H PARENT 3 6 83 24 51 35 8 76 19 87
REMARK Flexibility Score: inf
ROOT
ATOM      1  C   UNL A   1      31.560  32.308  26.818  1.00  0.00     0.023 C 
ENDROOT
BRANCH   1   2
ATOM      2  C   UNL A   1      32.881  32.924  27.268  1.00  0.00     0.116 C 
BRANCH   2   3
ATOM      3  N   UNL A   1      32.726  34.260  27.820  1.00  0.00    -0.352 N 
ATOM      4  O   UNL A   1      33.053  35.943  29.285  1.00  0.00    -0.269 OA
ATOM      5  C   UNL A   1      33.403  34.843  28.865  1.00  0.00     0.251 C 
ATOM      6  H   UNL A   1      32.044  34.823  27.388  1.00  0.00     0.163 HD
BRANCH   5   7
ATOM      7  C   UNL A   1      34.535  34.128  29.495  1.00  0.00     0.039 A 
ATOM      8  C   UNL A   1      34.309  33.176  30.493  1.00  0.00     0.014 A 
ATOM      9  C   UNL A   1      35.837  34.418  29.080  1.00  0.00     0.014 A 
ATOM     10  C   UNL A   1      35.388  32.606  31.160  1.00  0.00     0.010 A 
ATOM     11  C   UNL A   1      36.919  33.790  29.704  1.00  0.00     0.010 A 
ATOM     12  C   UNL A   1      36.704  32.898  30.767  1.00  0.00    -0.014 A 
BRANCH  12  13
ATOM     13  C   UNL A   1      37.837  32.218  31.445  1.00  0.00     0.031 A 
ATOM     14  C   UNL A   1      38.582  31.096  30.777  1.00  0.00     0.074 A 
ATOM     15  C   UNL A   1      38.195  32.633  32.675  1.00  0.00     0.049 A 
ATOM     16  N   UNL A   1      39.587  30.389  31.226  1.00  0.00    -0.248 NA
ATOM     17  C   UNL A   1      38.129  30.710  29.432  1.00  0.00     0.031 C 
ATOM     18  C   UNL A   1      37.532  33.702  33.425  1.00  0.00     0.029 A 
ATOM     19  N   UNL A   1      39.200  32.216  33.509  1.00  0.00    -0.354 N 
ATOM     20  C   UNL A   1      39.881  29.464  30.230  1.00  0.00     0.074 A 
ATOM     21  C   UNL A   1      38.921  29.680  29.167  1.00  0.00     0.031 C 
ATOM     22  C   UNL A   1      38.163  33.873  34.597  1.00  0.00     0.029 A 
ATOM     23  C   UNL A   1      39.233  32.889  34.707  1.00  0.00     0.049 A 
ATOM     24  H   UNL A   1      39.837  31.503  33.273  1.00  0.00     0.167 HD
ATOM     25  C   UNL A   1      40.865  28.528  30.206  1.00  0.00     0.034 A 
ATOM     26  C   UNL A   1      40.017  32.719  35.788  1.00  0.00     0.034 A 
ATOM     27  C   UNL A   1      41.812  28.332  31.280  1.00  0.00     0.049 A 
ATOM     28  C   UNL A   1      41.081  31.657  35.751  1.00  0.00     0.074 A 
ATOM     29  C   UNL A   1      42.879  27.450  31.339  1.00  0.00     0.029 A 
ATOM     30  N   UNL A   1      41.800  29.016  32.490  1.00  0.00    -0.354 N 
ATOM     31  N   UNL A   1      41.368  30.813  34.786  1.00  0.00    -0.248 NA
ATOM     32  C   UNL A   1      41.928  31.530  36.941  1.00  0.00     0.031 C 
ATOM     33  C   UNL A   1      43.466  27.553  32.606  1.00  0.00     0.029 A 
ATOM     34  C   UNL A   1      42.815  28.549  33.315  1.00  0.00     0.049 A 
ATOM     35  H   UNL A   1      41.164  29.727  32.728  1.00  0.00     0.167 HD
ATOM     36  C   UNL A   1      42.440  30.060  35.251  1.00  0.00     0.074 A 
ATOM     37  C   UNL A   1      42.761  30.566  36.572  1.00  0.00     0.031 C 
ATOM     38  C   UNL A   1      43.102  29.044  34.642  1.00  0.00     0.034 A 
BRANCH  25  39
ATOM     39  C   UNL A   1      40.931  27.619  29.002  1.00  0.00     0.023 A 
ATOM     40  C   UNL A   1      41.940  27.743  28.030  1.00  0.00     0.031 A 
ATOM     41  C   UNL A   1      39.952  26.628  28.807  1.00  0.00     0.131 A 
ATOM     42  C   UNL A   1      41.904  26.944  26.876  1.00  0.00     0.055 A 
ATOM     43  C   UNL A   1      39.967  25.783  27.694  1.00  0.00     0.041 A 
ATOM     44  F   UNL A   1      38.953  26.471  29.690  1.00  0.00    -0.206 F 
ATOM     45  C   UNL A   1      40.939  25.949  26.712  1.00  0.00     0.022 A 
BRANCH  42  46
ATOM     46  S   UNL A   1      43.051  27.325  25.522  1.00  0.00     0.124 S 
ATOM     47  O   UNL A   1      44.126  28.017  26.230  1.00  0.00    -0.237 OA
ATOM     48  O   UNL A   1      43.376  26.001  25.003  1.00  0.00    -0.237 OA
ATOM     49  O   UNL A   1      42.260  28.169  24.630  1.00  0.00    -0.744 OA
ENDBRANCH  42  46
ENDBRANCH  25  39
BRANCH  26  50
ATOM     50  C   UNL A   1      39.789  33.545  37.005  1.00  0.00     0.023 A 
ATOM     51  C   UNL A   1      40.558  34.688  37.265  1.00  0.00     0.031 A 
ATOM     52  C   UNL A   1      38.786  33.195  37.928  1.00  0.00     0.131 A 
ATOM     53  C   UNL A   1      40.329  35.428  38.436  1.00  0.00     0.055 A 
ATOM     54  C   UNL A   1      38.531  33.960  39.066  1.00  0.00     0.041 A 
ATOM     55  F   UNL A   1      38.017  32.114  37.718  1.00  0.00    -0.206 F 
ATOM     56  C   UNL A   1      39.313  35.080  39.330  1.00  0.00     0.022 A 
BRANCH  53  57
ATOM     57  S   UNL A   1      41.421  36.829  38.806  1.00  0.00     0.124 S 
ATOM     58  O   UNL A   1      41.945  37.156  37.486  1.00  0.00    -0.237 OA
ATOM     59  O   UNL A   1      40.490  37.792  39.384  1.00  0.00    -0.237 OA
ATOM     60  O   UNL A   1      42.391  36.266  39.743  1.00  0.00    -0.744 OA
ENDBRANCH  53  57
ENDBRANCH  26  50
BRANCH  38  61
ATOM     61  C   UNL A   1      44.254  28.436  35.401  1.00  0.00     0.023 A 
ATOM     62  C   UNL A   1      44.051  27.449  36.382  1.00  0.00     0.031 A 
ATOM     63  C   UNL A   1      45.570  28.868  35.159  1.00  0.00     0.131 A 
ATOM     64  C   UNL A   1      45.141  26.966  37.122  1.00  0.00     0.055 A 
ATOM     65  C   UNL A   1      46.656  28.344  35.860  1.00  0.00     0.041 A 
ATOM     66  F   UNL A   1      45.819  29.811  34.236  1.00  0.00    -0.206 F 
ATOM     67  C   UNL A   1      46.443  27.397  36.858  1.00  0.00     0.022 A 
BRANCH  64  68
ATOM     68  S   UNL A   1      44.823  25.831  38.501  1.00  0.00     0.124 S 
ATOM     69  O   UNL A   1      44.722  24.544  37.817  1.00  0.00    -0.237 OA
ATOM     70  O   UNL A   1      46.004  26.016  39.337  1.00  0.00    -0.237 OA
ATOM     71  O   UNL A   1      43.574  26.327  39.075  1.00  0.00    -0.744 OA
ENDBRANCH  64  68
ENDBRANCH  38  61
ENDBRANCH  12  13
ENDBRANCH   5   7
ENDBRANCH   2   3
ENDBRANCH   1   2
BRANCH   1  72
ATOM     72  C   UNL A   1      31.617  30.823  26.449  1.00  0.00     0.023 C 
BRANCH  72  73
ATOM     73  C   UNL A   1      32.942  30.135  26.773  1.00  0.00     0.116 C 
BRANCH  73  74
ATOM     74  N   UNL A   1      33.623  29.687  25.573  1.00  0.00    -0.356 N 
ATOM     75  C   UNL A   1      33.661  28.475  24.953  1.00  0.00     0.223 C 
ATOM     76  H   UNL A   1      34.155  30.385  25.126  1.00  0.00     0.163 HD
ATOM     77  O   UNL A   1      34.388  28.371  23.967  1.00  0.00    -0.275 OA
BRANCH  75  78
ATOM     78  C   UNL A   1      32.788  27.332  25.452  1.00  0.00     0.091 C 
ATOM     79  C   UNL A   1      33.491  25.975  25.387  1.00  0.00     0.014 C 
ATOM     80  C   UNL A   1      31.405  27.349  24.769  1.00  0.00     0.091 C 
ATOM     81  C   UNL A   1      32.591  24.879  25.961  1.00  0.00     0.001 C 
ATOM     82  C   UNL A   1      30.526  26.240  25.379  1.00  0.00     0.014 C 
ATOM     83  C   UNL A   1      31.202  24.868  25.325  1.00  0.00     0.001 C 
BRANCH  80  84
ATOM     84  C   UNL A   1      31.408  27.187  23.241  1.00  0.00     0.228 C 
ATOM     85  O   UNL A   1      32.178  26.415  22.665  1.00  0.00    -0.274 OA
ATOM     86  N   UNL A   1      30.403  27.714  22.475  1.00  0.00    -0.326 N 
ATOM     87  H   UNL A   1      30.436  27.438  21.530  1.00  0.00     0.169 HD
BRANCH  86  88
ATOM     88  C   UNL A   1      29.336  28.570  22.776  1.00  0.00     0.042 A 
ATOM     89  C   UNL A   1      28.066  28.132  23.150  1.00  0.00     0.026 A 
ATOM     90  C   UNL A   1      29.593  29.945  22.719  1.00  0.00     0.041 A 
ATOM     91  C   UNL A   1      27.037  29.052  23.378  1.00  0.00     0.003 A 
ATOM     92  C   UNL A   1      28.561  30.859  22.931  1.00  0.00     0.020 A 
ATOM     93  C   UNL A   1      27.278  30.418  23.248  1.00  0.00     0.016 A 
ATOM     94  Br  UNL A   1      28.901  32.711  22.760  1.00  0.00    -0.051 Br
ENDBRANCH  86  88
ENDBRANCH  80  84
ENDBRANCH  75  78
ENDBRANCH  73  74
ENDBRANCH  72  73
ENDBRANCH   1  72
TORSDOF 16
ENDMDL
