MODEL 1
REMARK VINA RESULT:     -12.3      0.000      0.000
REMARK SMILES CC(C)N1C[C@@]2(CCCN(c3ccc(C(=O)NCCCCNC(=O)c4ccc(-c5c6nc(c(-c7cc(S(=O)(=O)[O-])ccc7F)c7ccc([nH]7)c(-c7cc(S(=O)(=O)[O-])ccc7F)c7nc(c(-c8cc(S(=O)(=O)[O-])ccc8F)c8ccc5[nH]8)C=C7)C=C6)cc4)cn3)C2)CCC1=O
REMARK SMILES IDX 20 1 19 2 18 3 17 4 15 5 16 6 14 8 11 9 12 10 89 11 13 12
REMARK SMILES IDX 88 13 10 14 4 15 5 16 93 17 6 18 92 19 94 20 7 21 90 22
REMARK SMILES IDX 91 23 8 24 9 25 2 26 1 27 3 28 21 29 22 30 23 31 24 33 25 34
REMARK SMILES IDX 26 35 87 36 27 37 86 38 28 39 29 40 30 41 80 42 31 43 85 44
REMARK SMILES IDX 79 45 81 46 32 47 84 48 78 49 77 50 33 52 65 53 45 54 64 55
REMARK SMILES IDX 46 56 49 57 63 58 82 59 47 60 48 61 62 63 83 64 50 65 34 66
REMARK SMILES IDX 35 67 43 68 36 69 42 70 44 71 41 72 37 73 38 74 39 75 40 76
REMARK SMILES IDX 66 77 67 78 75 79 68 80 74 81 76 82 73 83 69 84 70 85 71 86
REMARK SMILES IDX 72 87 51 88 52 89 60 90 53 91 59 92 61 93 58 94 54 95 55 96
REMARK SMILES IDX 56 97 57 98
REMARK H PARENT 17 7 22 32 81 51 49 62
REMARK Flexibility Score: inf
ROOT
ATOM      1  C   UNL A   1      31.057  31.827  26.597  1.00  0.00     0.023 C 
ENDROOT
BRANCH   1   2
ATOM      2  C   UNL A   1      30.931  31.126  25.245  1.00  0.00     0.023 C 
BRANCH   2   3
ATOM      3  C   UNL A   1      31.431  29.684  25.200  1.00  0.00     0.116 C 
BRANCH   3   4
ATOM      4  N   UNL A   1      30.751  28.879  24.194  1.00  0.00    -0.352 N 
ATOM      5  C   UNL A   1      30.978  27.571  23.836  1.00  0.00     0.252 C 
ATOM      6  O   UNL A   1      30.405  27.067  22.876  1.00  0.00    -0.269 OA
ATOM      7  H   UNL A   1      30.030  29.334  23.702  1.00  0.00     0.163 HD
BRANCH   5   8
ATOM      8  C   UNL A   1      31.954  26.776  24.590  1.00  0.00     0.058 A 
ATOM      9  C   UNL A   1      33.656  24.969  25.802  1.00  0.00     0.128 A 
ATOM     10  C   UNL A   1      34.182  26.052  25.094  1.00  0.00     0.048 A 
ATOM     11  N   UNL A   1      32.322  24.872  26.005  1.00  0.00    -0.239 NA
ATOM     12  C   UNL A   1      33.324  26.956  24.466  1.00  0.00     0.019 A 
ATOM     13  C   UNL A   1      31.499  25.776  25.422  1.00  0.00     0.127 A 
BRANCH   9  14
ATOM     14  N   UNL A   1      34.439  23.905  26.211  1.00  0.00    -0.356 N 
ATOM     15  N   UNL A   1      33.022  20.442  23.726  1.00  0.00    -0.340 N 
ATOM     16  C   UNL A   1      34.393  20.694  24.172  1.00  0.00     0.128 C 
ATOM     17  C   UNL A   1      32.456  21.275  22.762  1.00  0.00     0.222 C 
ATOM     18  C   UNL A   1      34.722  22.163  24.471  1.00  0.00     0.006 C 
ATOM     19  C   UNL A   1      32.864  22.734  22.831  1.00  0.00     0.101 C 
ATOM     20  O   UNL A   1      31.574  20.934  21.977  1.00  0.00    -0.275 OA
ATOM     21  C   UNL A   1      36.256  22.298  24.696  1.00  0.00     0.012 C 
ATOM     22  C   UNL A   1      33.986  22.578  25.778  1.00  0.00     0.127 C 
ATOM     23  C   UNL A   1      34.313  22.963  23.217  1.00  0.00     0.020 C 
ATOM     24  C   UNL A   1      36.674  23.656  25.274  1.00  0.00     0.022 C 
ATOM     25  C   UNL A   1      35.857  24.008  26.516  1.00  0.00     0.118 C 
BRANCH  15  26
ATOM     26  C   UNL A   1      32.404  19.163  24.148  1.00  0.00     0.078 C 
ATOM     27  C   UNL A   1      32.649  17.950  23.245  1.00  0.00     0.031 C 
ATOM     28  C   UNL A   1      32.740  18.791  25.597  1.00  0.00     0.031 C 
ENDBRANCH  15  26
ENDBRANCH   9  14
ENDBRANCH   5   8
ENDBRANCH   3   4
ENDBRANCH   2   3
ENDBRANCH   1   2
BRANCH   1  29
ATOM     29  C   UNL A   1      32.428  32.421  26.913  1.00  0.00     0.116 C 
BRANCH  29  30
ATOM     30  N   UNL A   1      32.363  33.757  27.488  1.00  0.00    -0.352 N 
ATOM     31  C   UNL A   1      33.196  34.349  28.410  1.00  0.00     0.251 C 
ATOM     32  H   UNL A   1      31.616  34.315  27.175  1.00  0.00     0.163 HD
ATOM     33  O   UNL A   1      32.919  35.459  28.855  1.00  0.00    -0.269 OA
BRANCH  31  34
ATOM     34  C   UNL A   1      34.398  33.629  28.892  1.00  0.00     0.039 A 
ATOM     35  C   UNL A   1      35.659  34.180  28.645  1.00  0.00     0.014 A 
ATOM     36  C   UNL A   1      34.283  32.437  29.611  1.00  0.00     0.014 A 
ATOM     37  C   UNL A   1      36.796  33.583  29.198  1.00  0.00     0.010 A 
ATOM     38  C   UNL A   1      35.409  31.885  30.219  1.00  0.00     0.010 A 
ATOM     39  C   UNL A   1      36.676  32.458  30.030  1.00  0.00    -0.014 A 
BRANCH  39  40
ATOM     40  C   UNL A   1      37.856  31.878  30.727  1.00  0.00     0.031 A 
ATOM     41  C   UNL A   1      38.685  30.818  30.054  1.00  0.00     0.074 A 
ATOM     42  C   UNL A   1      38.129  32.242  31.996  1.00  0.00     0.049 A 
ATOM     43  N   UNL A   1      39.678  30.113  30.533  1.00  0.00    -0.248 NA
ATOM     44  C   UNL A   1      38.326  30.487  28.668  1.00  0.00     0.031 C 
ATOM     45  C   UNL A   1      37.375  33.229  32.774  1.00  0.00     0.029 A 
ATOM     46  N   UNL A   1      39.106  31.818  32.864  1.00  0.00    -0.354 N 
ATOM     47  C   UNL A   1      40.052  29.242  29.515  1.00  0.00     0.074 A 
ATOM     48  C   UNL A   1      39.138  29.471  28.414  1.00  0.00     0.031 C 
ATOM     49  C   UNL A   1      37.926  33.345  33.992  1.00  0.00     0.029 A 
ATOM     50  C   UNL A   1      39.042  32.411  34.104  1.00  0.00     0.049 A 
ATOM     51  H   UNL A   1      39.788  31.151  32.620  1.00  0.00     0.167 HD
ATOM     52  C   UNL A   1      41.074  28.351  29.492  1.00  0.00     0.034 A 
ATOM     53  C   UNL A   1      39.786  32.215  35.211  1.00  0.00     0.034 A 
ATOM     54  C   UNL A   1      41.985  28.145  30.592  1.00  0.00     0.049 A 
ATOM     55  C   UNL A   1      40.904  31.204  35.169  1.00  0.00     0.074 A 
ATOM     56  C   UNL A   1      43.090  27.312  30.652  1.00  0.00     0.029 A 
ATOM     57  N   UNL A   1      41.895  28.771  31.828  1.00  0.00    -0.354 N 
ATOM     58  N   UNL A   1      41.275  30.423  34.180  1.00  0.00    -0.248 NA
ATOM     59  C   UNL A   1      41.707  31.053  36.389  1.00  0.00     0.031 C 
ATOM     60  C   UNL A   1      43.627  27.386  31.942  1.00  0.00     0.029 A 
ATOM     61  C   UNL A   1      42.905  28.321  32.666  1.00  0.00     0.049 A 
ATOM     62  H   UNL A   1      41.213  29.437  32.075  1.00  0.00     0.167 HD
ATOM     63  C   UNL A   1      42.375  29.713  34.652  1.00  0.00     0.074 A 
ATOM     64  C   UNL A   1      42.614  30.166  36.007  1.00  0.00     0.031 C 
ATOM     65  C   UNL A   1      43.125  28.774  34.020  1.00  0.00     0.034 A 
BRANCH  52  66
ATOM     66  C   UNL A   1      41.238  27.517  28.242  1.00  0.00     0.023 A 
ATOM     67  C   UNL A   1      40.926  26.147  28.222  1.00  0.00     0.031 A 
ATOM     68  C   UNL A   1      41.745  28.092  27.063  1.00  0.00     0.131 A 
ATOM     69  C   UNL A   1      41.198  25.381  27.078  1.00  0.00     0.055 A 
ATOM     70  C   UNL A   1      41.935  27.342  25.900  1.00  0.00     0.041 A 
ATOM     71  F   UNL A   1      42.080  29.392  27.026  1.00  0.00    -0.206 F 
ATOM     72  C   UNL A   1      41.676  25.975  25.908  1.00  0.00     0.022 A 
BRANCH  69  73
ATOM     73  S   UNL A   1      41.061  23.577  27.193  1.00  0.00     0.124 S 
ATOM     74  O   UNL A   1      41.697  23.314  28.481  1.00  0.00    -0.237 OA
ATOM     75  O   UNL A   1      39.619  23.366  27.138  1.00  0.00    -0.237 OA
ATOM     76  O   UNL A   1      41.807  23.102  26.029  1.00  0.00    -0.744 OA
ENDBRANCH  69  73
ENDBRANCH  52  66
BRANCH  53  77
ATOM     77  C   UNL A   1      39.497  32.975  36.461  1.00  0.00     0.023 A 
ATOM     78  C   UNL A   1      38.630  32.458  37.437  1.00  0.00     0.031 A 
ATOM     79  C   UNL A   1      40.051  34.249  36.680  1.00  0.00     0.131 A 
ATOM     80  C   UNL A   1      38.305  33.229  38.563  1.00  0.00     0.055 A 
ATOM     81  C   UNL A   1      39.766  34.990  37.827  1.00  0.00     0.041 A 
ATOM     82  F   UNL A   1      40.891  34.787  35.780  1.00  0.00    -0.206 F 
ATOM     83  C   UNL A   1      38.876  34.486  38.772  1.00  0.00     0.022 A 
BRANCH  80  84
ATOM     84  S   UNL A   1      37.056  32.596  39.717  1.00  0.00     0.124 S 
ATOM     85  O   UNL A   1      37.087  33.604  40.770  1.00  0.00    -0.237 OA
ATOM     86  O   UNL A   1      35.859  32.572  38.885  1.00  0.00    -0.237 OA
ATOM     87  O   UNL A   1      37.576  31.283  40.094  1.00  0.00    -0.744 OA
ENDBRANCH  80  84
ENDBRANCH  53  77
BRANCH  65  88
ATOM     88  C   UNL A   1      44.302  28.212  34.779  1.00  0.00     0.023 A 
ATOM     89  C   UNL A   1      44.135  27.317  35.850  1.00  0.00     0.031 A 
ATOM     90  C   UNL A   1      45.611  28.586  34.426  1.00  0.00     0.131 A 
ATOM     91  C   UNL A   1      45.255  26.866  36.565  1.00  0.00     0.055 A 
ATOM     92  C   UNL A   1      46.725  28.090  35.105  1.00  0.00     0.041 A 
ATOM     93  F   UNL A   1      45.828  29.439  33.412  1.00  0.00    -0.206 F 
ATOM     94  C   UNL A   1      46.550  27.234  36.188  1.00  0.00     0.022 A 
BRANCH  91  95
ATOM     95  S   UNL A   1      44.995  25.855  38.047  1.00  0.00     0.124 S 
ATOM     96  O   UNL A   1      44.790  24.526  37.476  1.00  0.00    -0.237 OA
ATOM     97  O   UNL A   1      46.242  26.047  38.781  1.00  0.00    -0.237 OA
ATOM     98  O   UNL A   1      43.814  26.451  38.668  1.00  0.00    -0.744 OA
ENDBRANCH  91  95
ENDBRANCH  65  88
ENDBRANCH  39  40
ENDBRANCH  31  34
ENDBRANCH  29  30
ENDBRANCH   1  29
TORSDOF 16
ENDMDL
MODEL 2
REMARK VINA RESULT:     -12.1      5.866     11.315
REMARK SMILES CC(C)N1C[C@@]2(CCCN(c3ccc(C(=O)NCCCCNC(=O)c4ccc(-c5c6nc(c(-c7cc(S(=O)(=O)[O-])ccc7F)c7ccc([nH]7)c(-c7cc(S(=O)(=O)[O-])ccc7F)c7nc(c(-c8cc(S(=O)(=O)[O-])ccc8F)c8ccc5[nH]8)C=C7)C=C6)cc4)cn3)C2)CCC1=O
REMARK SMILES IDX 20 1 19 2 18 3 17 4 15 5 16 6 14 8 11 9 12 10 89 11 13 12
REMARK SMILES IDX 88 13 10 14 4 15 5 16 93 17 6 18 92 19 94 20 7 21 90 22
REMARK SMILES IDX 91 23 8 24 9 25 2 26 1 27 3 28 21 29 22 30 23 31 24 33 25 34
REMARK SMILES IDX 26 35 87 36 27 37 86 38 28 39 29 40 30 41 80 42 31 43 85 44
REMARK SMILES IDX 79 45 81 46 32 47 84 48 78 49 77 50 33 52 65 53 45 54 64 55
REMARK SMILES IDX 46 56 49 57 63 58 82 59 47 60 48 61 62 63 83 64 50 65 34 66
REMARK SMILES IDX 35 67 43 68 36 69 42 70 44 71 41 72 37 73 38 74 39 75 40 76
REMARK SMILES IDX 66 77 67 78 75 79 68 80 74 81 76 82 73 83 69 84 70 85 71 86
REMARK SMILES IDX 72 87 51 88 52 89 60 90 53 91 59 92 61 93 58 94 54 95 55 96
REMARK SMILES IDX 56 97 57 98
REMARK H PARENT 17 7 22 32 81 51 49 62
REMARK Flexibility Score: inf
ROOT
ATOM      1  C   UNL A   1      38.160  20.985  24.955  1.00  0.00     0.023 C 
ENDROOT
BRANCH   1   2
ATOM      2  C   UNL A   1      36.889  20.136  25.002  1.00  0.00     0.023 C 
BRANCH   2   3
ATOM      3  C   UNL A   1      35.640  20.844  25.521  1.00  0.00     0.116 C 
BRANCH   3   4
ATOM      4  N   UNL A   1      34.411  20.126  25.212  1.00  0.00    -0.352 N 
ATOM      5  C   UNL A   1      33.194  20.628  24.815  1.00  0.00     0.252 C 
ATOM      6  O   UNL A   1      32.211  19.903  24.714  1.00  0.00    -0.269 OA
ATOM      7  H   UNL A   1      34.458  19.147  25.298  1.00  0.00     0.163 HD
BRANCH   5   8
ATOM      8  C   UNL A   1      33.059  22.065  24.549  1.00  0.00     0.058 A 
ATOM      9  C   UNL A   1      33.128  24.813  24.276  1.00  0.00     0.128 A 
ATOM     10  C   UNL A   1      33.225  23.999  23.145  1.00  0.00     0.048 A 
ATOM     11  N   UNL A   1      32.871  24.267  25.487  1.00  0.00    -0.239 NA
ATOM     12  C   UNL A   1      33.209  22.611  23.282  1.00  0.00     0.019 A 
ATOM     13  C   UNL A   1      32.820  22.919  25.604  1.00  0.00     0.127 A 
BRANCH   9  14
ATOM     14  N   UNL A   1      33.405  26.167  24.237  1.00  0.00    -0.356 N 
ATOM     15  N   UNL A   1      29.420  28.116  23.535  1.00  0.00    -0.340 N 
ATOM     16  C   UNL A   1      30.519  28.643  24.345  1.00  0.00     0.128 C 
ATOM     17  C   UNL A   1      28.716  27.001  23.984  1.00  0.00     0.222 C 
ATOM     18  C   UNL A   1      31.485  27.586  24.900  1.00  0.00     0.006 C 
ATOM     19  C   UNL A   1      29.533  25.964  24.731  1.00  0.00     0.101 C 
ATOM     20  O   UNL A   1      27.546  26.753  23.701  1.00  0.00    -0.275 OA
ATOM     21  C   UNL A   1      32.440  28.268  25.922  1.00  0.00     0.012 C 
ATOM     22  C   UNL A   1      32.331  27.023  23.721  1.00  0.00     0.127 C 
ATOM     23  C   UNL A   1      30.613  26.542  25.626  1.00  0.00     0.020 C 
ATOM     24  C   UNL A   1      33.624  27.385  26.336  1.00  0.00     0.022 C 
ATOM     25  C   UNL A   1      34.357  26.827  25.117  1.00  0.00     0.118 C 
BRANCH  15  26
ATOM     26  C   UNL A   1      28.962  28.954  22.401  1.00  0.00     0.078 C 
ATOM     27  C   UNL A   1      27.738  29.840  22.652  1.00  0.00     0.031 C 
ATOM     28  C   UNL A   1      30.086  29.804  21.798  1.00  0.00     0.031 C 
ENDBRANCH  15  26
ENDBRANCH   9  14
ENDBRANCH   5   8
ENDBRANCH   3   4
ENDBRANCH   2   3
ENDBRANCH   1   2
BRANCH   1  29
ATOM     29  C   UNL A   1      39.114  20.820  26.134  1.00  0.00     0.116 C 
BRANCH  29  30
ATOM     30  N   UNL A   1      40.034  19.702  25.984  1.00  0.00    -0.352 N 
ATOM     31  C   UNL A   1      41.410  19.694  26.040  1.00  0.00     0.251 C 
ATOM     32  H   UNL A   1      39.614  18.829  25.817  1.00  0.00     0.163 HD
ATOM     33  O   UNL A   1      42.022  18.660  25.786  1.00  0.00    -0.269 OA
BRANCH  31  34
ATOM     34  C   UNL A   1      42.146  20.939  26.364  1.00  0.00     0.039 A 
ATOM     35  C   UNL A   1      42.568  21.764  25.318  1.00  0.00     0.014 A 
ATOM     36  C   UNL A   1      42.387  21.308  27.689  1.00  0.00     0.014 A 
ATOM     37  C   UNL A   1      43.152  23.002  25.605  1.00  0.00     0.010 A 
ATOM     38  C   UNL A   1      42.903  22.571  27.972  1.00  0.00     0.010 A 
ATOM     39  C   UNL A   1      43.280  23.437  26.934  1.00  0.00    -0.014 A 
BRANCH  39  40
ATOM     40  C   UNL A   1      43.785  24.798  27.261  1.00  0.00     0.031 A 
ATOM     41  C   UNL A   1      42.843  25.845  27.791  1.00  0.00     0.074 A 
ATOM     42  C   UNL A   1      45.069  25.116  27.002  1.00  0.00     0.049 A 
ATOM     43  N   UNL A   1      43.062  27.113  28.030  1.00  0.00    -0.248 NA
ATOM     44  C   UNL A   1      41.464  25.412  28.056  1.00  0.00     0.031 C 
ATOM     45  C   UNL A   1      46.072  24.202  26.448  1.00  0.00     0.029 A 
ATOM     46  N   UNL A   1      45.752  26.298  27.154  1.00  0.00    -0.354 N 
ATOM     47  C   UNL A   1      41.845  27.635  28.457  1.00  0.00     0.074 A 
ATOM     48  C   UNL A   1      40.881  26.556  28.386  1.00  0.00     0.031 C 
ATOM     49  C   UNL A   1      47.239  24.851  26.324  1.00  0.00     0.029 A 
ATOM     50  C   UNL A   1      47.064  26.238  26.744  1.00  0.00     0.049 A 
ATOM     51  H   UNL A   1      45.340  27.113  27.523  1.00  0.00     0.167 HD
ATOM     52  C   UNL A   1      41.563  28.890  28.887  1.00  0.00     0.034 A 
ATOM     53  C   UNL A   1      48.013  27.194  26.694  1.00  0.00     0.034 A 
ATOM     54  C   UNL A   1      42.539  29.951  28.966  1.00  0.00     0.049 A 
ATOM     55  C   UNL A   1      47.672  28.587  27.157  1.00  0.00     0.074 A 
ATOM     56  C   UNL A   1      42.374  31.240  29.442  1.00  0.00     0.029 A 
ATOM     57  N   UNL A   1      43.860  29.850  28.550  1.00  0.00    -0.354 N 
ATOM     58  N   UNL A   1      46.528  29.051  27.604  1.00  0.00    -0.248 NA
ATOM     59  C   UNL A   1      48.751  29.582  27.117  1.00  0.00     0.031 C 
ATOM     60  C   UNL A   1      43.574  31.935  29.256  1.00  0.00     0.029 A 
ATOM     61  C   UNL A   1      44.512  31.060  28.731  1.00  0.00     0.049 A 
ATOM     62  H   UNL A   1      44.274  29.037  28.179  1.00  0.00     0.167 HD
ATOM     63  C   UNL A   1      46.761  30.385  27.928  1.00  0.00     0.074 A 
ATOM     64  C   UNL A   1      48.155  30.647  27.636  1.00  0.00     0.031 C 
ATOM     65  C   UNL A   1      45.901  31.310  28.426  1.00  0.00     0.034 A 
BRANCH  52  66
ATOM     66  C   UNL A   1      40.134  29.183  29.281  1.00  0.00     0.023 A 
ATOM     67  C   UNL A   1      39.738  29.249  30.628  1.00  0.00     0.031 A 
ATOM     68  C   UNL A   1      39.146  29.367  28.297  1.00  0.00     0.131 A 
ATOM     69  C   UNL A   1      38.383  29.410  30.955  1.00  0.00     0.055 A 
ATOM     70  C   UNL A   1      37.812  29.611  28.629  1.00  0.00     0.041 A 
ATOM     71  F   UNL A   1      39.458  29.295  26.993  1.00  0.00    -0.206 F 
ATOM     72  C   UNL A   1      37.421  29.617  29.964  1.00  0.00     0.022 A 
BRANCH  69  73
ATOM     73  S   UNL A   1      37.879  29.192  32.682  1.00  0.00     0.124 S 
ATOM     74  O   UNL A   1      39.027  29.745  33.396  1.00  0.00    -0.237 OA
ATOM     75  O   UNL A   1      36.648  29.972  32.753  1.00  0.00    -0.237 OA
ATOM     76  O   UNL A   1      37.711  27.746  32.812  1.00  0.00    -0.744 OA
ENDBRANCH  69  73
ENDBRANCH  52  66
BRANCH  53  77
ATOM     77  C   UNL A   1      49.376  26.880  26.174  1.00  0.00     0.023 A 
ATOM     78  C   UNL A   1      49.765  27.274  24.884  1.00  0.00     0.031 A 
ATOM     79  C   UNL A   1      50.295  26.145  26.944  1.00  0.00     0.131 A 
ATOM     80  C   UNL A   1      51.019  26.892  24.384  1.00  0.00     0.055 A 
ATOM     81  C   UNL A   1      51.561  25.812  26.462  1.00  0.00     0.041 A 
ATOM     82  F   UNL A   1      49.975  25.749  28.187  1.00  0.00    -0.206 F 
ATOM     83  C   UNL A   1      51.925  26.175  25.168  1.00  0.00     0.022 A 
BRANCH  80  84
ATOM     84  S   UNL A   1      51.419  27.278  22.657  1.00  0.00     0.124 S 
ATOM     85  O   UNL A   1      52.537  26.375  22.403  1.00  0.00    -0.237 OA
ATOM     86  O   UNL A   1      50.169  26.959  21.977  1.00  0.00    -0.237 OA
ATOM     87  O   UNL A   1      51.760  28.698  22.697  1.00  0.00    -0.744 OA
ENDBRANCH  80  84
ENDBRANCH  53  77
BRANCH  65  88
ATOM     88  C   UNL A   1      46.465  32.677  28.729  1.00  0.00     0.023 A 
ATOM     89  C   UNL A   1      46.528  33.686  27.752  1.00  0.00     0.031 A 
ATOM     90  C   UNL A   1      46.953  32.968  30.015  1.00  0.00     0.131 A 
ATOM     91  C   UNL A   1      47.115  34.923  28.063  1.00  0.00     0.055 A 
ATOM     92  C   UNL A   1      47.484  34.219  30.334  1.00  0.00     0.041 A 
ATOM     93  F   UNL A   1      46.919  32.040  30.985  1.00  0.00    -0.206 F 
ATOM     94  C   UNL A   1      47.578  35.200  29.352  1.00  0.00     0.022 A 
BRANCH  91  95
ATOM     95  S   UNL A   1      47.339  36.139  26.737  1.00  0.00     0.124 S 
ATOM     96  O   UNL A   1      47.096  35.335  25.543  1.00  0.00    -0.237 OA
ATOM     97  O   UNL A   1      46.321  37.137  27.051  1.00  0.00    -0.237 OA
ATOM     98  O   UNL A   1      48.719  36.588  26.912  1.00  0.00    -0.744 OA
ENDBRANCH  91  95
ENDBRANCH  65  88
ENDBRANCH  39  40
ENDBRANCH  31  34
ENDBRANCH  29  30
ENDBRANCH   1  29
TORSDOF 16
ENDMDL
MODEL 3
REMARK VINA RESULT:     -12.1      1.824      2.771
REMARK SMILES CC(C)N1C[C@@]2(CCCN(c3ccc(C(=O)NCCCCNC(=O)c4ccc(-c5c6nc(c(-c7cc(S(=O)(=O)[O-])ccc7F)c7ccc([nH]7)c(-c7cc(S(=O)(=O)[O-])ccc7F)c7nc(c(-c8cc(S(=O)(=O)[O-])ccc8F)c8ccc5[nH]8)C=C7)C=C6)cc4)cn3)C2)CCC1=O
REMARK SMILES IDX 20 1 19 2 18 3 17 4 15 5 16 6 14 8 11 9 12 10 89 11 13 12
REMARK SMILES IDX 88 13 10 14 4 15 5 16 93 17 6 18 92 19 94 20 7 21 90 22
REMARK SMILES IDX 91 23 8 24 9 25 2 26 1 27 3 28 21 29 22 30 23 31 24 33 25 34
REMARK SMILES IDX 26 35 87 36 27 37 86 38 28 39 29 40 30 41 80 42 31 43 85 44
REMARK SMILES IDX 79 45 81 46 32 47 84 48 78 49 77 50 33 52 65 53 45 54 64 55
REMARK SMILES IDX 46 56 49 57 63 58 82 59 47 60 48 61 62 63 83 64 50 65 34 66
REMARK SMILES IDX 35 67 43 68 36 69 42 70 44 71 41 72 37 73 38 74 39 75 40 76
REMARK SMILES IDX 66 77 67 78 75 79 68 80 74 81 76 82 73 83 69 84 70 85 71 86
REMARK SMILES IDX 72 87 51 88 52 89 60 90 53 91 59 92 61 93 58 94 54 95 55 96
REMARK SMILES IDX 56 97 57 98
REMARK H PARENT 17 7 22 32 81 51 49 62
REMARK Flexibility Score: inf
ROOT
ATOM      1  C   UNL A   1      32.124  30.944  26.480  1.00  0.00     0.023 C 
ENDROOT
BRANCH   1   2
ATOM      2  C   UNL A   1      32.189  29.417  26.518  1.00  0.00     0.023 C 
BRANCH   2   3
ATOM      3  C   UNL A   1      31.763  28.706  25.236  1.00  0.00     0.116 C 
BRANCH   3   4
ATOM      4  N   UNL A   1      32.530  29.127  24.072  1.00  0.00    -0.352 N 
ATOM      5  C   UNL A   1      33.077  28.357  23.072  1.00  0.00     0.252 C 
ATOM      6  O   UNL A   1      33.810  28.849  22.222  1.00  0.00    -0.269 OA
ATOM      7  H   UNL A   1      32.678  30.097  23.989  1.00  0.00     0.163 HD
BRANCH   5   8
ATOM      8  C   UNL A   1      32.814  26.914  23.049  1.00  0.00     0.058 A 
ATOM      9  C   UNL A   1      32.637  24.164  23.239  1.00  0.00     0.128 A 
ATOM     10  C   UNL A   1      31.578  24.961  23.679  1.00  0.00     0.048 A 
ATOM     11  N   UNL A   1      33.691  24.724  22.602  1.00  0.00    -0.239 NA
ATOM     12  C   UNL A   1      31.673  26.350  23.601  1.00  0.00     0.019 A 
ATOM     13  C   UNL A   1      33.757  26.073  22.498  1.00  0.00     0.127 A 
BRANCH   9  14
ATOM     14  N   UNL A   1      32.718  22.815  23.533  1.00  0.00    -0.356 N 
ATOM     15  N   UNL A   1      36.718  22.334  25.519  1.00  0.00    -0.340 N 
ATOM     16  C   UNL A   1      35.493  21.596  25.832  1.00  0.00     0.128 C 
ATOM     17  C   UNL A   1      36.799  23.687  25.842  1.00  0.00     0.222 C 
ATOM     18  C   UNL A   1      34.187  22.315  25.465  1.00  0.00     0.006 C 
ATOM     19  C   UNL A   1      35.509  24.473  25.710  1.00  0.00     0.101 C 
ATOM     20  O   UNL A   1      37.844  24.285  26.086  1.00  0.00    -0.275 OA
ATOM     21  C   UNL A   1      32.992  21.522  26.070  1.00  0.00     0.012 C 
ATOM     22  C   UNL A   1      34.048  22.326  23.914  1.00  0.00     0.127 C 
ATOM     23  C   UNL A   1      34.263  23.710  26.117  1.00  0.00     0.020 C 
ATOM     24  C   UNL A   1      31.625  21.979  25.544  1.00  0.00     0.022 C 
ATOM     25  C   UNL A   1      31.601  22.019  24.017  1.00  0.00     0.118 C 
BRANCH  15  26
ATOM     26  C   UNL A   1      37.893  21.534  25.100  1.00  0.00     0.078 C 
ATOM     27  C   UNL A   1      39.109  21.558  26.033  1.00  0.00     0.031 C 
ATOM     28  C   UNL A   1      37.537  20.080  24.771  1.00  0.00     0.031 C 
ENDBRANCH  15  26
ENDBRANCH   9  14
ENDBRANCH   5   8
ENDBRANCH   3   4
ENDBRANCH   2   3
ENDBRANCH   1   2
BRANCH   1  29
ATOM     29  C   UNL A   1      32.999  31.673  27.497  1.00  0.00     0.116 C 
BRANCH  29  30
ATOM     30  N   UNL A   1      32.698  33.092  27.611  1.00  0.00    -0.352 N 
ATOM     31  C   UNL A   1      33.285  34.045  28.412  1.00  0.00     0.251 C 
ATOM     32  H   UNL A   1      31.970  33.417  27.034  1.00  0.00     0.163 HD
ATOM     33  O   UNL A   1      32.823  35.182  28.442  1.00  0.00    -0.269 OA
BRANCH  31  34
ATOM     34  C   UNL A   1      34.443  33.686  29.263  1.00  0.00     0.039 A 
ATOM     35  C   UNL A   1      34.241  32.835  30.354  1.00  0.00     0.014 A 
ATOM     36  C   UNL A   1      35.725  34.154  28.969  1.00  0.00     0.014 A 
ATOM     37  C   UNL A   1      35.338  32.384  31.094  1.00  0.00     0.010 A 
ATOM     38  C   UNL A   1      36.823  33.648  29.663  1.00  0.00     0.010 A 
ATOM     39  C   UNL A   1      36.643  32.748  30.725  1.00  0.00    -0.014 A 
BRANCH  39  40
ATOM     40  C   UNL A   1      37.833  32.185  31.419  1.00  0.00     0.031 A 
ATOM     41  C   UNL A   1      38.633  31.086  30.774  1.00  0.00     0.074 A 
ATOM     42  C   UNL A   1      38.141  32.602  32.663  1.00  0.00     0.049 A 
ATOM     43  N   UNL A   1      39.630  30.391  31.260  1.00  0.00    -0.248 NA
ATOM     44  C   UNL A   1      38.237  30.699  29.413  1.00  0.00     0.031 C 
ATOM     45  C   UNL A   1      37.417  33.632  33.414  1.00  0.00     0.029 A 
ATOM     46  N   UNL A   1      39.134  32.205  33.525  1.00  0.00    -0.354 N 
ATOM     47  C   UNL A   1      39.970  29.471  30.273  1.00  0.00     0.074 A 
ATOM     48  C   UNL A   1      39.032  29.663  29.186  1.00  0.00     0.031 C 
ATOM     49  C   UNL A   1      37.999  33.794  34.612  1.00  0.00     0.029 A 
ATOM     50  C   UNL A   1      39.108  32.853  34.739  1.00  0.00     0.049 A 
ATOM     51  H   UNL A   1      39.803  31.519  33.295  1.00  0.00     0.167 HD
ATOM     52  C   UNL A   1      40.981  28.568  30.265  1.00  0.00     0.034 A 
ATOM     53  C   UNL A   1      39.876  32.697  35.835  1.00  0.00     0.034 A 
ATOM     54  C   UNL A   1      41.917  28.400  31.351  1.00  0.00     0.049 A 
ATOM     55  C   UNL A   1      40.982  31.672  35.812  1.00  0.00     0.074 A 
ATOM     56  C   UNL A   1      43.013  27.558  31.422  1.00  0.00     0.029 A 
ATOM     57  N   UNL A   1      41.864  29.082  32.560  1.00  0.00    -0.354 N 
ATOM     58  N   UNL A   1      41.319  30.844  34.850  1.00  0.00    -0.248 NA
ATOM     59  C   UNL A   1      41.813  31.566  37.018  1.00  0.00     0.031 C 
ATOM     60  C   UNL A   1      43.583  27.683  32.694  1.00  0.00     0.029 A 
ATOM     61  C   UNL A   1      42.889  28.657  33.393  1.00  0.00     0.049 A 
ATOM     62  H   UNL A   1      41.196  29.766  32.793  1.00  0.00     0.167 HD
ATOM     63  C   UNL A   1      42.424  30.142  35.327  1.00  0.00     0.074 A 
ATOM     64  C   UNL A   1      42.700  30.651  36.654  1.00  0.00     0.031 C 
ATOM     65  C   UNL A   1      43.147  29.167  34.719  1.00  0.00     0.034 A 
BRANCH  52  66
ATOM     66  C   UNL A   1      41.106  27.678  29.050  1.00  0.00     0.023 A 
ATOM     67  C   UNL A   1      42.085  27.904  28.067  1.00  0.00     0.031 A 
ATOM     68  C   UNL A   1      40.215  26.608  28.856  1.00  0.00     0.131 A 
ATOM     69  C   UNL A   1      42.098  27.128  26.898  1.00  0.00     0.055 A 
ATOM     70  C   UNL A   1      40.287  25.785  27.730  1.00  0.00     0.041 A 
ATOM     71  F   UNL A   1      39.246  26.353  29.750  1.00  0.00    -0.206 F 
ATOM     72  C   UNL A   1      41.222  26.053  26.735  1.00  0.00     0.022 A 
BRANCH  69  73
ATOM     73  S   UNL A   1      43.175  27.640  25.533  1.00  0.00     0.124 S 
ATOM     74  O   UNL A   1      43.708  26.357  25.081  1.00  0.00    -0.237 OA
ATOM     75  O   UNL A   1      42.244  28.300  24.625  1.00  0.00    -0.237 OA
ATOM     76  O   UNL A   1      44.150  28.519  26.176  1.00  0.00    -0.744 OA
ENDBRANCH  69  73
ENDBRANCH  52  66
BRANCH  53  77
ATOM     77  C   UNL A   1      39.626  33.515  37.057  1.00  0.00     0.023 A 
ATOM     78  C   UNL A   1      39.027  32.951  38.194  1.00  0.00     0.031 A 
ATOM     79  C   UNL A   1      39.945  34.885  37.091  1.00  0.00     0.131 A 
ATOM     80  C   UNL A   1      38.722  33.760  39.299  1.00  0.00     0.055 A 
ATOM     81  C   UNL A   1      39.687  35.674  38.211  1.00  0.00     0.041 A 
ATOM     82  F   UNL A   1      40.524  35.473  36.031  1.00  0.00    -0.206 F 
ATOM     83  C   UNL A   1      39.059  35.115  39.321  1.00  0.00     0.022 A 
BRANCH  80  84
ATOM     84  S   UNL A   1      37.802  33.031  40.682  1.00  0.00     0.124 S 
ATOM     85  O   UNL A   1      38.303  31.661  40.682  1.00  0.00    -0.237 OA
ATOM     86  O   UNL A   1      38.221  33.868  41.800  1.00  0.00    -0.237 OA
ATOM     87  O   UNL A   1      36.406  33.184  40.280  1.00  0.00    -0.744 OA
ENDBRANCH  80  84
ENDBRANCH  53  77
BRANCH  65  88
ATOM     88  C   UNL A   1      44.336  28.625  35.474  1.00  0.00     0.023 A 
ATOM     89  C   UNL A   1      44.204  27.605  36.433  1.00  0.00     0.031 A 
ATOM     90  C   UNL A   1      45.620  29.145  35.233  1.00  0.00     0.131 A 
ATOM     91  C   UNL A   1      45.329  27.174  37.153  1.00  0.00     0.055 A 
ATOM     92  C   UNL A   1      46.744  28.672  35.912  1.00  0.00     0.041 A 
ATOM     93  F   UNL A   1      45.803  30.121  34.329  1.00  0.00    -0.206 F 
ATOM     94  C   UNL A   1      46.600  27.689  36.886  1.00  0.00     0.022 A 
BRANCH  91  95
ATOM     95  S   UNL A   1      45.097  25.985  38.502  1.00  0.00     0.124 S 
ATOM     96  O   UNL A   1      46.370  26.078  39.211  1.00  0.00    -0.237 OA
ATOM     97  O   UNL A   1      43.937  26.527  39.203  1.00  0.00    -0.237 OA
ATOM     98  O   UNL A   1      44.865  24.719  37.809  1.00  0.00    -0.744 OA
ENDBRANCH  91  95
ENDBRANCH  65  88
ENDBRANCH  39  40
ENDBRANCH  31  34
ENDBRANCH  29  30
ENDBRANCH   1  29
TORSDOF 16
ENDMDL
