MODEL 1
REMARK VINA RESULT:     -10.9      0.000      0.000
REMARK SMILES O=C(NCCCCNC(=O)[C@@H]([NH2+]CC1CC1)c1cccc(C2CC2)c1)c1ccc(-c2c3nc(c(-c4cc(S(=O)(=O)[O-])ccc4F)c4ccc([nH]4)c(-c4cc(S(=O)(=O)[O-])ccc4F)c4nc(c(-c5cc(S(=O)(=O)[O-])ccc5F)c5ccc2[nH]5)C=C4)C=C3)cc1
REMARK SMILES IDX 5 1 4 2 3 3 1 4 2 5 26 7 27 8 88 9 28 10 87 11 29 12 30 13
REMARK SMILES IDX 31 14 81 15 32 16 86 17 80 18 82 19 33 20 85 21 79 22 78 23
REMARK SMILES IDX 34 25 66 26 46 27 65 28 47 29 50 30 64 31 83 32 48 33 49 34
REMARK SMILES IDX 63 36 84 37 51 38 35 39 36 40 44 41 37 42 43 43 45 44 42 45
REMARK SMILES IDX 38 46 39 47 40 48 41 49 67 50 68 51 76 52 69 53 75 54 77 55
REMARK SMILES IDX 74 56 70 57 71 58 72 59 73 60 52 61 53 62 61 63 54 64 60 65
REMARK SMILES IDX 62 66 59 67 55 68 56 69 57 70 58 71 6 72 7 73 8 74 9 75
REMARK SMILES IDX 10 77 11 78 12 79 13 82 14 83 15 84 16 85 17 86 18 87 25 88
REMARK SMILES IDX 19 89 21 90 20 91 22 92 23 93 24 94
REMARK H PARENT 3 6 82 24 50 35 8 76 12 80 12 81
REMARK Flexibility Score: inf
ROOT
ATOM      1  C   UNL A   1      32.915  28.035  24.977  1.00  0.00     0.023 C 
ENDROOT
BRANCH   1   2
ATOM      2  C   UNL A   1      33.798  29.259  25.180  1.00  0.00     0.116 C 
BRANCH   2   3
ATOM      3  N   UNL A   1      33.067  30.423  25.661  1.00  0.00    -0.352 N 
ATOM      4  O   UNL A   1      32.499  32.049  27.121  1.00  0.00    -0.269 OA
ATOM      5  C   UNL A   1      33.280  31.162  26.803  1.00  0.00     0.251 C 
ATOM      6  H   UNL A   1      32.320  30.721  25.093  1.00  0.00     0.163 HD
BRANCH   5   7
ATOM      7  C   UNL A   1      34.449  30.851  27.652  1.00  0.00     0.039 A 
ATOM      8  C   UNL A   1      35.498  31.765  27.771  1.00  0.00     0.014 A 
ATOM      9  C   UNL A   1      34.507  29.618  28.309  1.00  0.00     0.014 A 
ATOM     10  C   UNL A   1      36.664  31.392  28.430  1.00  0.00     0.010 A 
ATOM     11  C   UNL A   1      35.649  29.279  29.040  1.00  0.00     0.010 A 
ATOM     12  C   UNL A   1      36.748  30.150  29.081  1.00  0.00    -0.014 A 
BRANCH  12  13
ATOM     13  C   UNL A   1      37.976  29.813  29.844  1.00  0.00     0.031 A 
ATOM     14  C   UNL A   1      38.193  30.334  31.238  1.00  0.00     0.074 A 
ATOM     15  C   UNL A   1      38.883  28.999  29.271  1.00  0.00     0.049 A 
ATOM     16  N   UNL A   1      39.207  30.138  32.041  1.00  0.00    -0.248 NA
ATOM     17  C   UNL A   1      37.139  31.190  31.799  1.00  0.00     0.031 C 
ATOM     18  C   UNL A   1      38.769  28.432  27.924  1.00  0.00     0.029 A 
ATOM     19  N   UNL A   1      40.063  28.487  29.746  1.00  0.00    -0.354 N 
ATOM     20  C   UNL A   1      38.924  30.856  33.199  1.00  0.00     0.074 A 
ATOM     21  C   UNL A   1      37.655  31.517  32.976  1.00  0.00     0.031 C 
ATOM     22  C   UNL A   1      39.808  27.615  27.701  1.00  0.00     0.029 A 
ATOM     23  C   UNL A   1      40.699  27.656  28.854  1.00  0.00     0.049 A 
ATOM     24  H   UNL A   1      40.421  28.696  30.639  1.00  0.00     0.167 HD
ATOM     25  C   UNL A   1      39.655  30.947  34.339  1.00  0.00     0.034 A 
ATOM     26  C   UNL A   1      41.878  27.014  28.944  1.00  0.00     0.034 A 
ATOM     27  C   UNL A   1      40.920  30.278  34.538  1.00  0.00     0.049 A 
ATOM     28  C   UNL A   1      42.689  27.169  30.200  1.00  0.00     0.074 A 
ATOM     29  C   UNL A   1      41.736  30.287  35.658  1.00  0.00     0.029 A 
ATOM     30  N   UNL A   1      41.561  29.485  33.593  1.00  0.00    -0.354 N 
ATOM     31  N   UNL A   1      42.408  27.856  31.283  1.00  0.00    -0.248 NA
ATOM     32  C   UNL A   1      43.974  26.463  30.245  1.00  0.00     0.031 C 
ATOM     33  C   UNL A   1      42.892  29.553  35.368  1.00  0.00     0.029 A 
ATOM     34  C   UNL A   1      42.770  29.025  34.092  1.00  0.00     0.049 A 
ATOM     35  H   UNL A   1      41.206  29.279  32.698  1.00  0.00     0.167 HD
ATOM     36  C   UNL A   1      43.479  27.653  32.146  1.00  0.00     0.074 A 
ATOM     37  C   UNL A   1      44.398  26.762  31.464  1.00  0.00     0.031 C 
ATOM     38  C   UNL A   1      43.686  28.156  33.389  1.00  0.00     0.034 A 
BRANCH  25  39
ATOM     39  C   UNL A   1      39.125  31.838  35.438  1.00  0.00     0.023 A 
ATOM     40  C   UNL A   1      38.529  31.312  36.598  1.00  0.00     0.031 A 
ATOM     41  C   UNL A   1      39.203  33.237  35.317  1.00  0.00     0.131 A 
ATOM     42  C   UNL A   1      37.980  32.177  37.559  1.00  0.00     0.055 A 
ATOM     43  C   UNL A   1      38.721  34.093  36.310  1.00  0.00     0.041 A 
ATOM     44  F   UNL A   1      39.742  33.799  34.223  1.00  0.00    -0.206 F 
ATOM     45  C   UNL A   1      38.094  33.563  37.433  1.00  0.00     0.022 A 
BRANCH  42  46
ATOM     46  S   UNL A   1      37.003  31.466  38.912  1.00  0.00     0.124 S 
ATOM     47  O   UNL A   1      37.900  31.645  40.052  1.00  0.00    -0.237 OA
ATOM     48  O   UNL A   1      35.804  32.296  38.906  1.00  0.00    -0.237 OA
ATOM     49  O   UNL A   1      36.803  30.078  38.499  1.00  0.00    -0.744 OA
ENDBRANCH  42  46
ENDBRANCH  25  39
BRANCH  26  50
ATOM     50  C   UNL A   1      42.373  26.198  27.801  1.00  0.00     0.023 A 
ATOM     51  C   UNL A   1      41.948  24.873  27.619  1.00  0.00     0.031 A 
ATOM     52  C   UNL A   1      43.290  26.732  26.878  1.00  0.00     0.131 A 
ATOM     53  C   UNL A   1      42.466  24.116  26.557  1.00  0.00     0.055 A 
ATOM     54  C   UNL A   1      43.762  25.992  25.794  1.00  0.00     0.041 A 
ATOM     55  F   UNL A   1      43.722  27.997  27.005  1.00  0.00    -0.206 F 
ATOM     56  C   UNL A   1      43.358  24.670  25.635  1.00  0.00     0.022 A 
BRANCH  53  57
ATOM     57  S   UNL A   1      42.005  22.366  26.434  1.00  0.00     0.124 S 
ATOM     58  O   UNL A   1      42.662  21.972  25.192  1.00  0.00    -0.237 OA
ATOM     59  O   UNL A   1      42.571  21.817  27.661  1.00  0.00    -0.237 OA
ATOM     60  O   UNL A   1      40.545  22.402  26.383  1.00  0.00    -0.744 OA
ENDBRANCH  53  57
ENDBRANCH  26  50
BRANCH  38  61
ATOM     61  C   UNL A   1      44.946  27.720  34.091  1.00  0.00     0.023 A 
ATOM     62  C   UNL A   1      44.976  26.574  34.904  1.00  0.00     0.031 A 
ATOM     63  C   UNL A   1      46.121  28.483  33.974  1.00  0.00     0.131 A 
ATOM     64  C   UNL A   1      46.142  26.254  35.617  1.00  0.00     0.055 A 
ATOM     65  C   UNL A   1      47.295  28.128  34.640  1.00  0.00     0.041 A 
ATOM     66  F   UNL A   1      46.145  29.588  33.213  1.00  0.00    -0.206 F 
ATOM     67  C   UNL A   1      47.305  27.016  35.478  1.00  0.00     0.022 A 
BRANCH  64  68
ATOM     68  S   UNL A   1      46.091  24.880  36.799  1.00  0.00     0.124 S 
ATOM     69  O   UNL A   1      44.719  24.956  37.293  1.00  0.00    -0.237 OA
ATOM     70  O   UNL A   1      46.402  23.730  35.957  1.00  0.00    -0.237 OA
ATOM     71  O   UNL A   1      47.122  25.229  37.775  1.00  0.00    -0.744 OA
ENDBRANCH  64  68
ENDBRANCH  38  61
ENDBRANCH  12  13
ENDBRANCH   5   7
ENDBRANCH   2   3
ENDBRANCH   1   2
BRANCH   1  72
ATOM     72  C   UNL A   1      32.972  26.994  26.093  1.00  0.00     0.023 C 
BRANCH  72  73
ATOM     73  C   UNL A   1      33.822  25.765  25.793  1.00  0.00     0.116 C 
BRANCH  73  74
ATOM     74  N   UNL A   1      34.171  25.649  24.391  1.00  0.00    -0.351 N 
ATOM     75  C   UNL A   1      33.662  24.790  23.454  1.00  0.00     0.283 C 
ATOM     76  H   UNL A   1      34.864  26.270  24.070  1.00  0.00     0.163 HD
ATOM     77  O   UNL A   1      34.064  24.899  22.290  1.00  0.00    -0.268 OA
BRANCH  75  78
ATOM     78  C   UNL A   1      32.635  23.679  23.841  1.00  0.00     0.303 C 
BRANCH  78  79
ATOM     79  N   UNL A   1      31.569  23.681  22.812  1.00  0.00    -0.332 N 
ATOM     80  H   UNL A   1      31.420  22.715  22.521  1.00  0.00     0.347 HD
ATOM     81  H   UNL A   1      31.910  24.304  22.079  1.00  0.00     0.347 HD
BRANCH  79  82
ATOM     82  C   UNL A   1      30.280  24.225  23.198  1.00  0.00     0.264 C 
BRANCH  82  83
ATOM     83  C   UNL A   1      30.188  25.633  23.686  1.00  0.00     0.044 C 
ATOM     84  C   UNL A   1      28.934  26.454  23.886  1.00  0.00     0.010 C 
ATOM     85  C   UNL A   1      29.691  25.945  25.078  1.00  0.00     0.010 C 
ENDBRANCH  82  83
ENDBRANCH  79  82
ENDBRANCH  78  79
BRANCH  78  86
ATOM     86  C   UNL A   1      33.348  22.370  24.178  1.00  0.00     0.019 A 
ATOM     87  C   UNL A   1      34.588  22.284  24.817  1.00  0.00     0.010 A 
ATOM     88  C   UNL A   1      32.699  21.163  23.834  1.00  0.00     0.014 A 
ATOM     89  C   UNL A   1      35.170  21.045  25.070  1.00  0.00     0.001 A 
ATOM     90  C   UNL A   1      33.241  19.893  24.105  1.00  0.00    -0.044 A 
ATOM     91  C   UNL A   1      34.504  19.870  24.717  1.00  0.00     0.004 A 
BRANCH  90  92
ATOM     92  C   UNL A   1      32.527  18.591  23.791  1.00  0.00     0.019 C 
ATOM     93  C   UNL A   1      32.478  18.057  22.378  1.00  0.00     0.009 C 
ATOM     94  C   UNL A   1      33.285  17.339  23.423  1.00  0.00     0.009 C 
ENDBRANCH  90  92
ENDBRANCH  78  86
ENDBRANCH  75  78
ENDBRANCH  73  74
ENDBRANCH  72  73
ENDBRANCH   1  72
TORSDOF 19
ENDMDL
MODEL 2
REMARK VINA RESULT:     -10.9      5.740      8.665
REMARK SMILES O=C(NCCCCNC(=O)[C@@H]([NH2+]CC1CC1)c1cccc(C2CC2)c1)c1ccc(-c2c3nc(c(-c4cc(S(=O)(=O)[O-])ccc4F)c4ccc([nH]4)c(-c4cc(S(=O)(=O)[O-])ccc4F)c4nc(c(-c5cc(S(=O)(=O)[O-])ccc5F)c5ccc2[nH]5)C=C4)C=C3)cc1
REMARK SMILES IDX 5 1 4 2 3 3 1 4 2 5 26 7 27 8 88 9 28 10 87 11 29 12 30 13
REMARK SMILES IDX 31 14 81 15 32 16 86 17 80 18 82 19 33 20 85 21 79 22 78 23
REMARK SMILES IDX 34 25 66 26 46 27 65 28 47 29 50 30 64 31 83 32 48 33 49 34
REMARK SMILES IDX 63 36 84 37 51 38 35 39 36 40 44 41 37 42 43 43 45 44 42 45
REMARK SMILES IDX 38 46 39 47 40 48 41 49 67 50 68 51 76 52 69 53 75 54 77 55
REMARK SMILES IDX 74 56 70 57 71 58 72 59 73 60 52 61 53 62 61 63 54 64 60 65
REMARK SMILES IDX 62 66 59 67 55 68 56 69 57 70 58 71 6 72 7 73 8 74 9 75
REMARK SMILES IDX 10 77 11 78 12 79 13 82 14 83 15 84 16 85 17 86 18 87 25 88
REMARK SMILES IDX 19 89 21 90 20 91 22 92 23 93 24 94
REMARK H PARENT 3 6 82 24 50 35 8 76 12 80 12 81
REMARK Flexibility Score: inf
ROOT
ATOM      1  C   UNL A   1      38.400  19.607  24.717  1.00  0.00     0.023 C 
ENDROOT
BRANCH   1   2
ATOM      2  C   UNL A   1      39.315  20.031  25.858  1.00  0.00     0.116 C 
BRANCH   2   3
ATOM      3  N   UNL A   1      40.431  19.120  26.069  1.00  0.00    -0.352 N 
ATOM      4  O   UNL A   1      42.587  18.531  26.394  1.00  0.00    -0.269 OA
ATOM      5  C   UNL A   1      41.744  19.418  26.356  1.00  0.00     0.251 C 
ATOM      6  H   UNL A   1      40.217  18.162  25.998  1.00  0.00     0.163 HD
BRANCH   5   7
ATOM      7  C   UNL A   1      42.126  20.826  26.591  1.00  0.00     0.039 A 
ATOM      8  C   UNL A   1      42.281  21.705  25.517  1.00  0.00     0.014 A 
ATOM      9  C   UNL A   1      42.361  21.260  27.899  1.00  0.00     0.014 A 
ATOM     10  C   UNL A   1      42.806  22.973  25.736  1.00  0.00     0.010 A 
ATOM     11  C   UNL A   1      42.812  22.565  28.124  1.00  0.00     0.010 A 
ATOM     12  C   UNL A   1      43.066  23.421  27.042  1.00  0.00    -0.014 A 
BRANCH  12  13
ATOM     13  C   UNL A   1      43.551  24.809  27.249  1.00  0.00     0.031 A 
ATOM     14  C   UNL A   1      42.641  25.878  27.786  1.00  0.00     0.074 A 
ATOM     15  C   UNL A   1      44.841  25.084  26.977  1.00  0.00     0.049 A 
ATOM     16  N   UNL A   1      42.902  27.138  28.025  1.00  0.00    -0.248 NA
ATOM     17  C   UNL A   1      41.257  25.484  28.087  1.00  0.00     0.031 C 
ATOM     18  C   UNL A   1      45.813  24.119  26.456  1.00  0.00     0.029 A 
ATOM     19  N   UNL A   1      45.565  26.240  27.115  1.00  0.00    -0.354 N 
ATOM     20  C   UNL A   1      41.715  27.694  28.492  1.00  0.00     0.074 A 
ATOM     21  C   UNL A   1      40.725  26.637  28.471  1.00  0.00     0.031 C 
ATOM     22  C   UNL A   1      47.013  24.708  26.366  1.00  0.00     0.029 A 
ATOM     23  C   UNL A   1      46.883  26.109  26.750  1.00  0.00     0.049 A 
ATOM     24  H   UNL A   1      45.177  27.083  27.443  1.00  0.00     0.167 HD
ATOM     25  C   UNL A   1      41.479  28.966  28.904  1.00  0.00     0.034 A 
ATOM     26  C   UNL A   1      47.875  27.017  26.708  1.00  0.00     0.034 A 
ATOM     27  C   UNL A   1      42.484  30.005  28.915  1.00  0.00     0.049 A 
ATOM     28  C   UNL A   1      47.576  28.430  27.125  1.00  0.00     0.074 A 
ATOM     29  C   UNL A   1      42.359  31.322  29.326  1.00  0.00     0.029 A 
ATOM     30  N   UNL A   1      43.798  29.850  28.489  1.00  0.00    -0.354 N 
ATOM     31  N   UNL A   1      46.446  28.940  27.559  1.00  0.00    -0.248 NA
ATOM     32  C   UNL A   1      48.683  29.389  27.047  1.00  0.00     0.031 C 
ATOM     33  C   UNL A   1      43.576  31.974  29.092  1.00  0.00     0.029 A 
ATOM     34  C   UNL A   1      44.484  31.050  28.601  1.00  0.00     0.049 A 
ATOM     35  H   UNL A   1      44.185  29.008  28.156  1.00  0.00     0.167 HD
ATOM     36  C   UNL A   1      46.712  30.279  27.819  1.00  0.00     0.074 A 
ATOM     37  C   UNL A   1      48.114  30.490  27.514  1.00  0.00     0.031 C 
ATOM     38  C   UNL A   1      45.876  31.249  28.269  1.00  0.00     0.034 A 
BRANCH  25  39
ATOM     39  C   UNL A   1      40.072  29.312  29.328  1.00  0.00     0.023 A 
ATOM     40  C   UNL A   1      39.711  29.426  30.683  1.00  0.00     0.031 A 
ATOM     41  C   UNL A   1      39.069  29.519  28.362  1.00  0.00     0.131 A 
ATOM     42  C   UNL A   1      38.374  29.673  31.034  1.00  0.00     0.055 A 
ATOM     43  C   UNL A   1      37.756  29.837  28.718  1.00  0.00     0.041 A 
ATOM     44  F   UNL A   1      39.348  29.405  27.054  1.00  0.00    -0.206 F 
ATOM     45  C   UNL A   1      37.400  29.903  30.061  1.00  0.00     0.022 A 
BRANCH  42  46
ATOM     46  S   UNL A   1      37.901  29.564  32.783  1.00  0.00     0.124 S 
ATOM     47  O   UNL A   1      37.524  28.157  32.900  1.00  0.00    -0.237 OA
ATOM     48  O   UNL A   1      39.128  29.956  33.467  1.00  0.00    -0.237 OA
ATOM     49  O   UNL A   1      36.793  30.510  32.898  1.00  0.00    -0.744 OA
ENDBRANCH  42  46
ENDBRANCH  25  39
BRANCH  26  50
ATOM     50  C   UNL A   1      49.227  26.626  26.222  1.00  0.00     0.023 A 
ATOM     51  C   UNL A   1      49.724  27.105  25.001  1.00  0.00     0.031 A 
ATOM     52  C   UNL A   1      50.037  25.754  26.971  1.00  0.00     0.131 A 
ATOM     53  C   UNL A   1      50.985  26.684  24.549  1.00  0.00     0.055 A 
ATOM     54  C   UNL A   1      51.311  25.379  26.542  1.00  0.00     0.041 A 
ATOM     55  F   UNL A   1      49.609  25.272  28.149  1.00  0.00    -0.206 F 
ATOM     56  C   UNL A   1      51.787  25.836  25.318  1.00  0.00     0.022 A 
BRANCH  53  57
ATOM     57  S   UNL A   1      51.537  27.208  22.904  1.00  0.00     0.124 S 
ATOM     58  O   UNL A   1      52.737  26.400  22.719  1.00  0.00    -0.237 OA
ATOM     59  O   UNL A   1      50.391  26.855  22.073  1.00  0.00    -0.237 OA
ATOM     60  O   UNL A   1      51.769  28.643  23.064  1.00  0.00    -0.744 OA
ENDBRANCH  53  57
ENDBRANCH  26  50
BRANCH  38  61
ATOM     61  C   UNL A   1      46.479  32.613  28.482  1.00  0.00     0.023 A 
ATOM     62  C   UNL A   1      46.647  33.517  27.419  1.00  0.00     0.031 A 
ATOM     63  C   UNL A   1      46.923  32.998  29.759  1.00  0.00     0.131 A 
ATOM     64  C   UNL A   1      47.298  34.741  27.640  1.00  0.00     0.055 A 
ATOM     65  C   UNL A   1      47.520  34.239  29.984  1.00  0.00     0.041 A 
ATOM     66  F   UNL A   1      46.789  32.170  30.807  1.00  0.00    -0.206 F 
ATOM     67  C   UNL A   1      47.723  35.112  28.918  1.00  0.00     0.022 A 
BRANCH  64  68
ATOM     68  S   UNL A   1      47.667  35.800  26.216  1.00  0.00     0.124 S 
ATOM     69  O   UNL A   1      47.788  34.826  25.136  1.00  0.00    -0.237 OA
ATOM     70  O   UNL A   1      46.497  36.671  26.162  1.00  0.00    -0.237 OA
ATOM     71  O   UNL A   1      48.914  36.463  26.595  1.00  0.00    -0.744 OA
ENDBRANCH  64  68
ENDBRANCH  38  61
ENDBRANCH  12  13
ENDBRANCH   5   7
ENDBRANCH   2   3
ENDBRANCH   1   2
BRANCH   1  72
ATOM     72  C   UNL A   1      36.905  19.765  24.983  1.00  0.00     0.023 C 
BRANCH  72  73
ATOM     73  C   UNL A   1      36.408  21.204  25.072  1.00  0.00     0.116 C 
BRANCH  73  74
ATOM     74  N   UNL A   1      35.745  21.495  26.328  1.00  0.00    -0.351 N 
ATOM     75  C   UNL A   1      34.420  21.361  26.644  1.00  0.00     0.283 C 
ATOM     76  H   UNL A   1      36.324  21.833  27.049  1.00  0.00     0.163 HD
ATOM     77  O   UNL A   1      34.072  21.614  27.803  1.00  0.00    -0.268 OA
BRANCH  75  78
ATOM     78  C   UNL A   1      33.367  20.939  25.570  1.00  0.00     0.303 C 
BRANCH  78  79
ATOM     79  N   UNL A   1      32.636  19.765  26.102  1.00  0.00    -0.332 N 
ATOM     80  H   UNL A   1      31.638  19.973  26.046  1.00  0.00     0.347 HD
ATOM     81  H   UNL A   1      32.995  19.636  27.048  1.00  0.00     0.347 HD
BRANCH  79  82
ATOM     82  C   UNL A   1      32.856  18.493  25.439  1.00  0.00     0.264 C 
BRANCH  82  83
ATOM     83  C   UNL A   1      33.504  18.464  24.094  1.00  0.00     0.044 C 
ATOM     84  C   UNL A   1      34.076  17.262  23.379  1.00  0.00     0.010 C 
ATOM     85  C   UNL A   1      32.793  17.875  22.898  1.00  0.00     0.010 C 
ENDBRANCH  82  83
ENDBRANCH  79  82
ENDBRANCH  78  79
BRANCH  78  86
ATOM     86  C   UNL A   1      32.579  22.150  25.073  1.00  0.00     0.019 A 
ATOM     87  C   UNL A   1      31.296  22.494  25.509  1.00  0.00     0.010 A 
ATOM     88  C   UNL A   1      33.197  22.988  24.119  1.00  0.00     0.014 A 
ATOM     89  C   UNL A   1      30.646  23.610  24.988  1.00  0.00     0.001 A 
ATOM     90  C   UNL A   1      32.585  24.143  23.596  1.00  0.00    -0.044 A 
ATOM     91  C   UNL A   1      31.284  24.418  24.045  1.00  0.00     0.004 A 
BRANCH  90  92
ATOM     92  C   UNL A   1      33.263  25.081  22.613  1.00  0.00     0.019 C 
ATOM     93  C   UNL A   1      32.897  25.062  21.147  1.00  0.00     0.009 C 
ATOM     94  C   UNL A   1      32.530  26.246  21.996  1.00  0.00     0.009 C 
ENDBRANCH  90  92
ENDBRANCH  78  86
ENDBRANCH  75  78
ENDBRANCH  73  74
ENDBRANCH  72  73
ENDBRANCH   1  72
TORSDOF 19
ENDMDL
MODEL 3
REMARK VINA RESULT:     -10.9      5.465      8.628
REMARK SMILES O=C(NCCCCNC(=O)[C@@H]([NH2+]CC1CC1)c1cccc(C2CC2)c1)c1ccc(-c2c3nc(c(-c4cc(S(=O)(=O)[O-])ccc4F)c4ccc([nH]4)c(-c4cc(S(=O)(=O)[O-])ccc4F)c4nc(c(-c5cc(S(=O)(=O)[O-])ccc5F)c5ccc2[nH]5)C=C4)C=C3)cc1
REMARK SMILES IDX 5 1 4 2 3 3 1 4 2 5 26 7 27 8 88 9 28 10 87 11 29 12 30 13
REMARK SMILES IDX 31 14 81 15 32 16 86 17 80 18 82 19 33 20 85 21 79 22 78 23
REMARK SMILES IDX 34 25 66 26 46 27 65 28 47 29 50 30 64 31 83 32 48 33 49 34
REMARK SMILES IDX 63 36 84 37 51 38 35 39 36 40 44 41 37 42 43 43 45 44 42 45
REMARK SMILES IDX 38 46 39 47 40 48 41 49 67 50 68 51 76 52 69 53 75 54 77 55
REMARK SMILES IDX 74 56 70 57 71 58 72 59 73 60 52 61 53 62 61 63 54 64 60 65
REMARK SMILES IDX 62 66 59 67 55 68 56 69 57 70 58 71 6 72 7 73 8 74 9 75
REMARK SMILES IDX 10 77 11 78 12 79 13 82 14 83 15 84 16 85 17 86 18 87 25 88
REMARK SMILES IDX 19 89 21 90 20 91 22 92 23 93 24 94
REMARK H PARENT 3 6 82 24 50 35 8 76 12 80 12 81
REMARK Flexibility Score: inf
ROOT
ATOM      1  C   UNL A   1      38.137  19.875  24.742  1.00  0.00     0.023 C 
ENDROOT
BRANCH   1   2
ATOM      2  C   UNL A   1      39.152  20.200  25.830  1.00  0.00     0.116 C 
BRANCH   2   3
ATOM      3  N   UNL A   1      40.214  19.209  25.939  1.00  0.00    -0.352 N 
ATOM      4  O   UNL A   1      42.341  18.470  26.111  1.00  0.00    -0.269 OA
ATOM      5  C   UNL A   1      41.558  19.410  26.159  1.00  0.00     0.251 C 
ATOM      6  H   UNL A   1      39.933  18.271  25.842  1.00  0.00     0.163 HD
BRANCH   5   7
ATOM      7  C   UNL A   1      42.046  20.779  26.427  1.00  0.00     0.039 A 
ATOM      8  C   UNL A   1      42.259  21.209  27.739  1.00  0.00     0.014 A 
ATOM      9  C   UNL A   1      42.261  21.650  25.354  1.00  0.00     0.014 A 
ATOM     10  C   UNL A   1      42.551  22.545  27.986  1.00  0.00     0.010 A 
ATOM     11  C   UNL A   1      42.634  22.974  25.604  1.00  0.00     0.010 A 
ATOM     12  C   UNL A   1      42.753  23.439  26.922  1.00  0.00    -0.014 A 
BRANCH  12  13
ATOM     13  C   UNL A   1      43.141  24.842  27.216  1.00  0.00     0.031 A 
ATOM     14  C   UNL A   1      42.182  25.789  27.884  1.00  0.00     0.074 A 
ATOM     15  C   UNL A   1      44.387  25.241  26.902  1.00  0.00     0.049 A 
ATOM     16  N   UNL A   1      42.359  27.044  28.210  1.00  0.00    -0.248 NA
ATOM     17  C   UNL A   1      40.853  25.262  28.221  1.00  0.00     0.031 C 
ATOM     18  C   UNL A   1      45.400  24.401  26.257  1.00  0.00     0.029 A 
ATOM     19  N   UNL A   1      45.027  26.438  27.097  1.00  0.00    -0.354 N 
ATOM     20  C   UNL A   1      41.161  27.464  28.780  1.00  0.00     0.074 A 
ATOM     21  C   UNL A   1      40.256  26.335  28.723  1.00  0.00     0.031 C 
ATOM     22  C   UNL A   1      46.544  25.091  26.154  1.00  0.00     0.029 A 
ATOM     23  C   UNL A   1      46.329  26.443  26.656  1.00  0.00     0.049 A 
ATOM     24  H   UNL A   1      44.594  27.219  27.512  1.00  0.00     0.167 HD
ATOM     25  C   UNL A   1      40.852  28.677  29.305  1.00  0.00     0.034 A 
ATOM     26  C   UNL A   1      47.244  27.429  26.638  1.00  0.00     0.034 A 
ATOM     27  C   UNL A   1      41.772  29.791  29.350  1.00  0.00     0.049 A 
ATOM     28  C   UNL A   1      46.860  28.777  27.183  1.00  0.00     0.074 A 
ATOM     29  C   UNL A   1      41.570  31.058  29.872  1.00  0.00     0.029 A 
ATOM     30  N   UNL A   1      43.068  29.776  28.847  1.00  0.00    -0.354 N 
ATOM     31  N   UNL A   1      45.721  29.158  27.713  1.00  0.00    -0.248 NA
ATOM     32  C   UNL A   1      47.885  29.825  27.126  1.00  0.00     0.031 C 
ATOM     33  C   UNL A   1      42.718  31.823  29.631  1.00  0.00     0.029 A 
ATOM     34  C   UNL A   1      43.665  31.016  29.020  1.00  0.00     0.049 A 
ATOM     35  H   UNL A   1      43.500  28.997  28.427  1.00  0.00     0.167 HD
ATOM     36  C   UNL A   1      45.898  30.491  28.067  1.00  0.00     0.074 A 
ATOM     37  C   UNL A   1      47.260  30.838  27.710  1.00  0.00     0.031 C 
ATOM     38  C   UNL A   1      45.016  31.352  28.636  1.00  0.00     0.034 A 
BRANCH  25  39
ATOM     39  C   UNL A   1      39.448  28.875  29.827  1.00  0.00     0.023 A 
ATOM     40  C   UNL A   1      38.418  29.382  29.014  1.00  0.00     0.031 A 
ATOM     41  C   UNL A   1      39.137  28.564  31.163  1.00  0.00     0.131 A 
ATOM     42  C   UNL A   1      37.148  29.622  29.561  1.00  0.00     0.055 A 
ATOM     43  C   UNL A   1      37.851  28.737  31.681  1.00  0.00     0.041 A 
ATOM     44  F   UNL A   1      40.082  28.095  31.993  1.00  0.00    -0.206 F 
ATOM     45  C   UNL A   1      36.851  29.281  30.882  1.00  0.00     0.022 A 
BRANCH  42  46
ATOM     46  S   UNL A   1      35.922  30.507  28.556  1.00  0.00     0.124 S 
ATOM     47  O   UNL A   1      36.777  31.237  27.622  1.00  0.00    -0.237 OA
ATOM     48  O   UNL A   1      35.136  29.418  27.987  1.00  0.00    -0.237 OA
ATOM     49  O   UNL A   1      35.220  31.342  29.528  1.00  0.00    -0.744 OA
ENDBRANCH  42  46
ENDBRANCH  25  39
BRANCH  26  50
ATOM     50  C   UNL A   1      48.592  27.187  26.054  1.00  0.00     0.023 A 
ATOM     51  C   UNL A   1      48.859  27.473  24.707  1.00  0.00     0.031 A 
ATOM     52  C   UNL A   1      49.631  26.654  26.837  1.00  0.00     0.131 A 
ATOM     53  C   UNL A   1      50.128  27.194  24.174  1.00  0.00     0.055 A 
ATOM     54  C   UNL A   1      50.905  26.426  26.316  1.00  0.00     0.041 A 
ATOM     55  F   UNL A   1      49.427  26.369  28.133  1.00  0.00    -0.206 F 
ATOM     56  C   UNL A   1      51.156  26.686  24.973  1.00  0.00     0.022 A 
BRANCH  53  57
ATOM     57  S   UNL A   1      50.397  27.442  22.398  1.00  0.00     0.124 S 
ATOM     58  O   UNL A   1      49.205  26.824  21.827  1.00  0.00    -0.237 OA
ATOM     59  O   UNL A   1      50.474  28.895  22.304  1.00  0.00    -0.237 OA
ATOM     60  O   UNL A   1      51.650  26.734  22.142  1.00  0.00    -0.744 OA
ENDBRANCH  53  57
ENDBRANCH  26  50
BRANCH  38  61
ATOM     61  C   UNL A   1      45.524  32.741  28.928  1.00  0.00     0.023 A 
ATOM     62  C   UNL A   1      45.333  33.799  28.023  1.00  0.00     0.031 A 
ATOM     63  C   UNL A   1      46.237  32.998  30.112  1.00  0.00     0.131 A 
ATOM     64  C   UNL A   1      45.903  35.054  28.288  1.00  0.00     0.055 A 
ATOM     65  C   UNL A   1      46.753  34.263  30.396  1.00  0.00     0.041 A 
ATOM     66  F   UNL A   1      46.449  32.021  31.007  1.00  0.00    -0.206 F 
ATOM     67  C   UNL A   1      46.599  35.295  29.475  1.00  0.00     0.022 A 
BRANCH  64  68
ATOM     68  S   UNL A   1      45.800  36.342  27.016  1.00  0.00     0.124 S 
ATOM     69  O   UNL A   1      46.551  37.434  27.628  1.00  0.00    -0.237 OA
ATOM     70  O   UNL A   1      46.431  35.699  25.868  1.00  0.00    -0.237 OA
ATOM     71  O   UNL A   1      44.364  36.577  26.880  1.00  0.00    -0.744 OA
ENDBRANCH  64  68
ENDBRANCH  38  61
ENDBRANCH  12  13
ENDBRANCH   5   7
ENDBRANCH   2   3
ENDBRANCH   1   2
BRANCH   1  72
ATOM     72  C   UNL A   1      36.705  20.321  25.028  1.00  0.00     0.023 C 
BRANCH  72  73
ATOM     73  C   UNL A   1      36.556  21.758  25.519  1.00  0.00     0.116 C 
BRANCH  73  74
ATOM     74  N   UNL A   1      35.594  21.889  26.595  1.00  0.00    -0.351 N 
ATOM     75  C   UNL A   1      34.258  21.592  26.585  1.00  0.00     0.283 C 
ATOM     76  H   UNL A   1      35.948  22.236  27.446  1.00  0.00     0.163 HD
ATOM     77  O   UNL A   1      33.626  21.726  27.640  1.00  0.00    -0.268 OA
BRANCH  75  78
ATOM     78  C   UNL A   1      33.536  21.136  25.277  1.00  0.00     0.303 C 
BRANCH  78  79
ATOM     79  N   UNL A   1      32.501  20.147  25.663  1.00  0.00    -0.332 N 
ATOM     80  H   UNL A   1      31.643  20.389  25.167  1.00  0.00     0.347 HD
ATOM     81  H   UNL A   1      32.442  20.209  26.680  1.00  0.00     0.347 HD
BRANCH  79  82
ATOM     82  C   UNL A   1      32.787  18.751  25.388  1.00  0.00     0.264 C 
BRANCH  82  83
ATOM     83  C   UNL A   1      33.584  18.384  24.180  1.00  0.00     0.044 C 
ATOM     84  C   UNL A   1      34.669  17.336  24.082  1.00  0.00     0.010 C 
ATOM     85  C   UNL A   1      33.333  17.089  23.443  1.00  0.00     0.010 C 
ENDBRANCH  82  83
ENDBRANCH  79  82
ENDBRANCH  78  79
BRANCH  78  86
ATOM     86  C   UNL A   1      33.139  22.339  24.424  1.00  0.00     0.019 A 
ATOM     87  C   UNL A   1      33.764  22.702  23.227  1.00  0.00     0.010 A 
ATOM     88  C   UNL A   1      32.055  23.129  24.867  1.00  0.00     0.014 A 
ATOM     89  C   UNL A   1      33.344  23.827  22.522  1.00  0.00     0.001 A 
ATOM     90  C   UNL A   1      31.581  24.251  24.163  1.00  0.00    -0.044 A 
ATOM     91  C   UNL A   1      32.270  24.588  22.987  1.00  0.00     0.004 A 
BRANCH  90  92
ATOM     92  C   UNL A   1      30.382  25.073  24.601  1.00  0.00     0.019 C 
ATOM     93  C   UNL A   1      30.383  25.797  25.927  1.00  0.00     0.009 C 
ATOM     94  C   UNL A   1      30.427  26.580  24.645  1.00  0.00     0.009 C 
ENDBRANCH  90  92
ENDBRANCH  78  86
ENDBRANCH  75  78
ENDBRANCH  73  74
ENDBRANCH  72  73
ENDBRANCH   1  72
TORSDOF 19
ENDMDL
