MODEL 1
REMARK VINA RESULT:     -12.8      0.000      0.000
REMARK SMILES O=C(NCCCCNC(=O)c1ccc(Cn2ccc3ccc(Br)cc32)nc1)c1ccc(-c2c3nc(c(-c4cc(S(=O)(=O)[O-])ccc4F)c4ccc([nH]4)c(-c4cc(S(=O)(=O)[O-])ccc4F)c4nc(c(-c5cc(S(=O)(=O)[O-])ccc5F)c5ccc2[nH]5)C=C4)C=C3)cc1
REMARK SMILES IDX 5 1 4 2 3 3 1 4 2 5 28 7 29 8 90 9 30 10 89 11 31 12 32 13
REMARK SMILES IDX 33 14 83 15 34 16 88 17 82 18 84 19 35 20 87 21 81 22 80 23
REMARK SMILES IDX 36 25 68 26 48 27 67 28 49 29 52 30 66 31 85 32 50 33 51 34
REMARK SMILES IDX 65 36 86 37 53 38 37 39 38 40 46 41 39 42 45 43 47 44 44 45
REMARK SMILES IDX 40 46 41 47 42 48 43 49 69 50 70 51 78 52 71 53 77 54 79 55
REMARK SMILES IDX 76 56 72 57 73 58 74 59 75 60 54 61 55 62 63 63 56 64 62 65
REMARK SMILES IDX 64 66 61 67 57 68 58 69 59 70 60 71 6 72 7 73 8 74 9 75
REMARK SMILES IDX 10 77 11 78 12 79 27 80 13 81 26 82 14 83 15 84 16 85 17 86
REMARK SMILES IDX 25 87 18 88 19 89 24 90 20 91 22 92 21 93 23 94
REMARK H PARENT 3 6 84 24 52 35 8 76
REMARK Flexibility Score: inf
ROOT
ATOM      1  C   UNL A   1      32.505  30.429  27.218  1.00  0.00     0.023 C 
ENDROOT
BRANCH   1   2
ATOM      2  C   UNL A   1      33.851  31.132  27.320  1.00  0.00     0.116 C 
BRANCH   2   3
ATOM      3  N   UNL A   1      33.953  32.076  28.443  1.00  0.00    -0.352 N 
ATOM      4  O   UNL A   1      34.685  32.624  30.538  1.00  0.00    -0.269 OA
ATOM      5  C   UNL A   1      34.897  32.066  29.463  1.00  0.00     0.251 C 
ATOM      6  H   UNL A   1      33.279  32.792  28.477  1.00  0.00     0.163 HD
BRANCH   5   7
ATOM      7  C   UNL A   1      36.180  31.394  29.201  1.00  0.00     0.039 A 
ATOM      8  C   UNL A   1      37.395  32.061  29.046  1.00  0.00     0.014 A 
ATOM      9  C   UNL A   1      36.133  30.010  29.246  1.00  0.00     0.014 A 
ATOM     10  C   UNL A   1      38.568  31.302  29.041  1.00  0.00     0.010 A 
ATOM     11  C   UNL A   1      37.275  29.320  29.526  1.00  0.00     0.010 A 
ATOM     12  C   UNL A   1      38.500  29.923  29.313  1.00  0.00    -0.014 A 
BRANCH  12  13
ATOM     13  C   UNL A   1      39.688  29.085  29.450  1.00  0.00     0.031 A 
ATOM     14  C   UNL A   1      40.039  28.736  30.848  1.00  0.00     0.074 A 
ATOM     15  C   UNL A   1      40.332  28.521  28.401  1.00  0.00     0.049 A 
ATOM     16  N   UNL A   1      40.961  29.282  31.568  1.00  0.00    -0.248 NA
ATOM     17  C   UNL A   1      39.155  27.830  31.595  1.00  0.00     0.031 C 
ATOM     18  C   UNL A   1      39.951  28.510  26.978  1.00  0.00     0.029 A 
ATOM     19  N   UNL A   1      41.448  27.743  28.401  1.00  0.00    -0.354 N 
ATOM     20  C   UNL A   1      40.949  28.598  32.777  1.00  0.00     0.074 A 
ATOM     21  C   UNL A   1      39.687  27.901  32.819  1.00  0.00     0.031 C 
ATOM     22  C   UNL A   1      40.660  27.571  26.317  1.00  0.00     0.029 A 
ATOM     23  C   UNL A   1      41.692  27.080  27.205  1.00  0.00     0.049 A 
ATOM     24  H   UNL A   1      42.035  27.656  29.187  1.00  0.00     0.167 HD
ATOM     25  C   UNL A   1      42.093  28.447  33.505  1.00  0.00     0.034 A 
ATOM     26  C   UNL A   1      42.686  26.198  26.939  1.00  0.00     0.034 A 
ATOM     27  C   UNL A   1      43.140  29.297  32.987  1.00  0.00     0.049 A 
ATOM     28  C   UNL A   1      43.748  26.412  27.944  1.00  0.00     0.074 A 
ATOM     29  C   UNL A   1      43.302  30.657  32.824  1.00  0.00     0.029 A 
ATOM     30  N   UNL A   1      44.063  28.701  32.161  1.00  0.00    -0.354 N 
ATOM     31  N   UNL A   1      44.495  27.479  27.991  1.00  0.00    -0.248 NA
ATOM     32  C   UNL A   1      43.674  25.643  29.175  1.00  0.00     0.031 C 
ATOM     33  C   UNL A   1      43.996  30.801  31.588  1.00  0.00     0.029 A 
ATOM     34  C   UNL A   1      44.299  29.529  31.097  1.00  0.00     0.049 A 
ATOM     35  H   UNL A   1      44.485  27.823  32.309  1.00  0.00     0.167 HD
ATOM     36  C   UNL A   1      44.573  27.778  29.342  1.00  0.00     0.074 A 
ATOM     37  C   UNL A   1      44.165  26.549  30.023  1.00  0.00     0.031 C 
ATOM     38  C   UNL A   1      44.674  29.071  29.771  1.00  0.00     0.034 A 
BRANCH  25  39
ATOM     39  C   UNL A   1      42.391  27.262  34.396  1.00  0.00     0.023 A 
ATOM     40  C   UNL A   1      43.157  26.157  33.984  1.00  0.00     0.031 A 
ATOM     41  C   UNL A   1      42.100  27.320  35.776  1.00  0.00     0.131 A 
ATOM     42  C   UNL A   1      43.605  25.188  34.889  1.00  0.00     0.055 A 
ATOM     43  C   UNL A   1      42.605  26.390  36.694  1.00  0.00     0.041 A 
ATOM     44  F   UNL A   1      41.369  28.323  36.287  1.00  0.00    -0.206 F 
ATOM     45  C   UNL A   1      43.368  25.316  36.252  1.00  0.00     0.022 A 
BRANCH  42  46
ATOM     46  S   UNL A   1      44.536  23.748  34.296  1.00  0.00     0.124 S 
ATOM     47  O   UNL A   1      44.466  23.920  32.850  1.00  0.00    -0.237 OA
ATOM     48  O   UNL A   1      45.846  23.977  34.901  1.00  0.00    -0.237 OA
ATOM     49  O   UNL A   1      43.794  22.614  34.840  1.00  0.00    -0.744 OA
ENDBRANCH  42  46
ENDBRANCH  25  39
BRANCH  26  50
ATOM     50  C   UNL A   1      42.566  24.926  26.194  1.00  0.00     0.023 A 
ATOM     51  C   UNL A   1      41.575  23.999  26.559  1.00  0.00     0.031 A 
ATOM     52  C   UNL A   1      43.617  24.467  25.379  1.00  0.00     0.131 A 
ATOM     53  C   UNL A   1      41.695  22.653  26.189  1.00  0.00     0.055 A 
ATOM     54  C   UNL A   1      43.722  23.127  24.993  1.00  0.00     0.041 A 
ATOM     55  F   UNL A   1      44.606  25.297  25.016  1.00  0.00    -0.206 F 
ATOM     56  C   UNL A   1      42.768  22.207  25.416  1.00  0.00     0.022 A 
BRANCH  53  57
ATOM     57  S   UNL A   1      40.508  21.429  26.807  1.00  0.00     0.124 S 
ATOM     58  O   UNL A   1      40.753  21.466  28.247  1.00  0.00    -0.237 OA
ATOM     59  O   UNL A   1      39.242  22.002  26.367  1.00  0.00    -0.237 OA
ATOM     60  O   UNL A   1      40.921  20.198  26.140  1.00  0.00    -0.744 OA
ENDBRANCH  53  57
ENDBRANCH  26  50
BRANCH  38  61
ATOM     61  C   UNL A   1      44.993  30.151  28.757  1.00  0.00     0.023 A 
ATOM     62  C   UNL A   1      46.351  30.468  28.579  1.00  0.00     0.031 A 
ATOM     63  C   UNL A   1      44.048  30.992  28.137  1.00  0.00     0.131 A 
ATOM     64  C   UNL A   1      46.729  31.605  27.855  1.00  0.00     0.055 A 
ATOM     65  C   UNL A   1      44.432  32.087  27.353  1.00  0.00     0.041 A 
ATOM     66  F   UNL A   1      42.733  30.835  28.329  1.00  0.00    -0.206 F 
ATOM     67  C   UNL A   1      45.778  32.409  27.224  1.00  0.00     0.022 A 
BRANCH  64  68
ATOM     68  S   UNL A   1      48.456  32.148  27.855  1.00  0.00     0.124 S 
ATOM     69  O   UNL A   1      48.326  33.584  27.623  1.00  0.00    -0.237 OA
ATOM     70  O   UNL A   1      48.901  31.768  29.195  1.00  0.00    -0.237 OA
ATOM     71  O   UNL A   1      49.066  31.391  26.766  1.00  0.00    -0.744 OA
ENDBRANCH  64  68
ENDBRANCH  38  61
ENDBRANCH  12  13
ENDBRANCH   5   7
ENDBRANCH   2   3
ENDBRANCH   1   2
BRANCH   1  72
ATOM     72  C   UNL A   1      31.713  30.705  25.933  1.00  0.00     0.023 C 
BRANCH  72  73
ATOM     73  C   UNL A   1      31.711  29.604  24.866  1.00  0.00     0.116 C 
BRANCH  73  74
ATOM     74  N   UNL A   1      30.938  29.953  23.688  1.00  0.00    -0.352 N 
ATOM     75  C   UNL A   1      30.416  29.124  22.728  1.00  0.00     0.252 C 
ATOM     76  H   UNL A   1      30.765  30.914  23.562  1.00  0.00     0.163 HD
ATOM     77  O   UNL A   1      30.042  29.568  21.649  1.00  0.00    -0.269 OA
BRANCH  75  78
ATOM     78  C   UNL A   1      30.400  27.675  22.954  1.00  0.00     0.058 A 
ATOM     79  C   UNL A   1      29.418  27.020  23.696  1.00  0.00     0.017 A 
ATOM     80  C   UNL A   1      31.433  26.934  22.423  1.00  0.00     0.125 A 
ATOM     81  C   UNL A   1      29.540  25.647  23.921  1.00  0.00     0.026 A 
ATOM     82  N   UNL A   1      31.604  25.618  22.678  1.00  0.00    -0.259 NA
ATOM     83  C   UNL A   1      30.648  24.977  23.401  1.00  0.00     0.060 A 
BRANCH  83  84
ATOM     84  C   UNL A   1      30.853  23.498  23.621  1.00  0.00     0.178 C 
BRANCH  84  85
ATOM     85  N   UNL A   1      31.506  23.217  24.898  1.00  0.00    -0.341 N 
ATOM     86  C   UNL A   1      30.843  23.101  26.096  1.00  0.00     0.087 A 
ATOM     87  C   UNL A   1      32.867  23.053  25.098  1.00  0.00     0.049 A 
ATOM     88  C   UNL A   1      31.767  22.779  27.064  1.00  0.00     0.028 A 
ATOM     89  C   UNL A   1      33.043  22.718  26.444  1.00  0.00    -0.000 A 
ATOM     90  C   UNL A   1      33.954  23.122  24.208  1.00  0.00     0.042 A 
ATOM     91  C   UNL A   1      34.339  22.401  26.905  1.00  0.00     0.011 A 
ATOM     92  C   UNL A   1      35.219  22.774  24.684  1.00  0.00     0.020 A 
ATOM     93  C   UNL A   1      35.416  22.414  26.012  1.00  0.00     0.016 A 
ATOM     94  Br  UNL A   1      36.685  22.766  23.485  1.00  0.00    -0.051 Br
ENDBRANCH  84  85
ENDBRANCH  83  84
ENDBRANCH  75  78
ENDBRANCH  73  74
ENDBRANCH  72  73
ENDBRANCH   1  72
TORSDOF 16
ENDMDL
MODEL 2
REMARK VINA RESULT:     -12.5      3.391      7.113
REMARK SMILES O=C(NCCCCNC(=O)c1ccc(Cn2ccc3ccc(Br)cc32)nc1)c1ccc(-c2c3nc(c(-c4cc(S(=O)(=O)[O-])ccc4F)c4ccc([nH]4)c(-c4cc(S(=O)(=O)[O-])ccc4F)c4nc(c(-c5cc(S(=O)(=O)[O-])ccc5F)c5ccc2[nH]5)C=C4)C=C3)cc1
REMARK SMILES IDX 5 1 4 2 3 3 1 4 2 5 28 7 29 8 90 9 30 10 89 11 31 12 32 13
REMARK SMILES IDX 33 14 83 15 34 16 88 17 82 18 84 19 35 20 87 21 81 22 80 23
REMARK SMILES IDX 36 25 68 26 48 27 67 28 49 29 52 30 66 31 85 32 50 33 51 34
REMARK SMILES IDX 65 36 86 37 53 38 37 39 38 40 46 41 39 42 45 43 47 44 44 45
REMARK SMILES IDX 40 46 41 47 42 48 43 49 69 50 70 51 78 52 71 53 77 54 79 55
REMARK SMILES IDX 76 56 72 57 73 58 74 59 75 60 54 61 55 62 63 63 56 64 62 65
REMARK SMILES IDX 64 66 61 67 57 68 58 69 59 70 60 71 6 72 7 73 8 74 9 75
REMARK SMILES IDX 10 77 11 78 12 79 27 80 13 81 26 82 14 83 15 84 16 85 17 86
REMARK SMILES IDX 25 87 18 88 19 89 24 90 20 91 22 92 21 93 23 94
REMARK H PARENT 3 6 84 24 52 35 8 76
REMARK Flexibility Score: inf
ROOT
ATOM      1  C   UNL A   1      31.609  31.692  26.771  1.00  0.00     0.023 C 
ENDROOT
BRANCH   1   2
ATOM      2  C   UNL A   1      32.831  32.462  27.252  1.00  0.00     0.116 C 
BRANCH   2   3
ATOM      3  N   UNL A   1      32.528  33.797  27.790  1.00  0.00    -0.352 N 
ATOM      4  O   UNL A   1      32.510  35.308  29.504  1.00  0.00    -0.269 OA
ATOM      5  C   UNL A   1      33.083  34.392  28.916  1.00  0.00     0.251 C 
ATOM      6  H   UNL A   1      31.858  34.325  27.299  1.00  0.00     0.163 HD
BRANCH   5   7
ATOM      7  C   UNL A   1      34.400  33.913  29.365  1.00  0.00     0.039 A 
ATOM      8  C   UNL A   1      34.584  32.949  30.355  1.00  0.00     0.014 A 
ATOM      9  C   UNL A   1      35.476  34.397  28.639  1.00  0.00     0.014 A 
ATOM     10  C   UNL A   1      35.863  32.410  30.521  1.00  0.00     0.010 A 
ATOM     11  C   UNL A   1      36.631  33.673  28.610  1.00  0.00     0.010 A 
ATOM     12  C   UNL A   1      36.883  32.760  29.616  1.00  0.00    -0.014 A 
BRANCH  12  13
ATOM     13  C   UNL A   1      38.209  32.149  29.644  1.00  0.00     0.031 A 
ATOM     14  C   UNL A   1      38.264  30.772  29.095  1.00  0.00     0.074 A 
ATOM     15  C   UNL A   1      39.336  32.819  29.980  1.00  0.00     0.049 A 
ATOM     16  N   UNL A   1      38.299  29.675  29.774  1.00  0.00    -0.248 NA
ATOM     17  C   UNL A   1      38.063  30.577  27.652  1.00  0.00     0.031 C 
ATOM     18  C   UNL A   1      39.511  34.255  30.256  1.00  0.00     0.029 A 
ATOM     19  N   UNL A   1      40.613  32.358  30.058  1.00  0.00    -0.354 N 
ATOM     20  C   UNL A   1      38.395  28.655  28.836  1.00  0.00     0.074 A 
ATOM     21  C   UNL A   1      38.007  29.244  27.578  1.00  0.00     0.031 C 
ATOM     22  C   UNL A   1      40.822  34.577  30.217  1.00  0.00     0.029 A 
ATOM     23  C   UNL A   1      41.583  33.348  30.140  1.00  0.00     0.049 A 
ATOM     24  H   UNL A   1      40.832  31.398  30.056  1.00  0.00     0.167 HD
ATOM     25  C   UNL A   1      39.048  27.494  29.131  1.00  0.00     0.034 A 
ATOM     26  C   UNL A   1      42.929  33.186  30.167  1.00  0.00     0.034 A 
ATOM     27  C   UNL A   1      39.330  27.416  30.545  1.00  0.00     0.049 A 
ATOM     28  C   UNL A   1      43.197  31.793  30.583  1.00  0.00     0.074 A 
ATOM     29  C   UNL A   1      38.565  27.396  31.693  1.00  0.00     0.029 A 
ATOM     30  N   UNL A   1      40.601  27.762  30.940  1.00  0.00    -0.354 N 
ATOM     31  N   UNL A   1      42.962  31.338  31.781  1.00  0.00    -0.248 NA
ATOM     32  C   UNL A   1      43.303  30.788  29.538  1.00  0.00     0.031 C 
ATOM     33  C   UNL A   1      39.302  28.162  32.642  1.00  0.00     0.029 A 
ATOM     34  C   UNL A   1      40.514  28.542  32.062  1.00  0.00     0.049 A 
ATOM     35  H   UNL A   1      41.435  27.495  30.490  1.00  0.00     0.167 HD
ATOM     36  C   UNL A   1      42.409  30.086  31.564  1.00  0.00     0.074 A 
ATOM     37  C   UNL A   1      42.765  29.752  30.185  1.00  0.00     0.031 C 
ATOM     38  C   UNL A   1      41.473  29.574  32.416  1.00  0.00     0.034 A 
BRANCH  25  39
ATOM     39  C   UNL A   1      39.787  26.646  28.119  1.00  0.00     0.023 A 
ATOM     40  C   UNL A   1      40.866  27.121  27.352  1.00  0.00     0.031 A 
ATOM     41  C   UNL A   1      39.569  25.253  28.065  1.00  0.00     0.131 A 
ATOM     42  C   UNL A   1      41.671  26.262  26.595  1.00  0.00     0.055 A 
ATOM     43  C   UNL A   1      40.413  24.383  27.364  1.00  0.00     0.041 A 
ATOM     44  F   UNL A   1      38.563  24.684  28.749  1.00  0.00    -0.206 F 
ATOM     45  C   UNL A   1      41.477  24.886  26.626  1.00  0.00     0.022 A 
BRANCH  42  46
ATOM     46  S   UNL A   1      43.011  26.933  25.572  1.00  0.00     0.124 S 
ATOM     47  O   UNL A   1      43.568  25.725  24.977  1.00  0.00    -0.237 OA
ATOM     48  O   UNL A   1      42.274  27.809  24.664  1.00  0.00    -0.237 OA
ATOM     49  O   UNL A   1      43.864  27.621  26.537  1.00  0.00    -0.744 OA
ENDBRANCH  42  46
ENDBRANCH  25  39
BRANCH  26  50
ATOM     50  C   UNL A   1      43.933  33.985  29.431  1.00  0.00     0.023 A 
ATOM     51  C   UNL A   1      44.018  33.875  28.033  1.00  0.00     0.031 A 
ATOM     52  C   UNL A   1      45.020  34.571  30.105  1.00  0.00     0.131 A 
ATOM     53  C   UNL A   1      45.187  34.258  27.364  1.00  0.00     0.055 A 
ATOM     54  C   UNL A   1      46.176  34.975  29.431  1.00  0.00     0.041 A 
ATOM     55  F   UNL A   1      45.009  34.684  31.441  1.00  0.00    -0.206 F 
ATOM     56  C   UNL A   1      46.273  34.800  28.054  1.00  0.00     0.022 A 
BRANCH  53  57
ATOM     57  S   UNL A   1      45.360  33.954  25.584  1.00  0.00     0.124 S 
ATOM     58  O   UNL A   1      46.709  34.449  25.319  1.00  0.00    -0.237 OA
ATOM     59  O   UNL A   1      45.194  32.507  25.517  1.00  0.00    -0.237 OA
ATOM     60  O   UNL A   1      44.283  34.750  25.004  1.00  0.00    -0.744 OA
ENDBRANCH  53  57
ENDBRANCH  26  50
BRANCH  38  61
ATOM     61  C   UNL A   1      41.256  30.254  33.753  1.00  0.00     0.023 A 
ATOM     62  C   UNL A   1      40.349  31.328  33.775  1.00  0.00     0.031 A 
ATOM     63  C   UNL A   1      42.026  30.037  34.912  1.00  0.00     0.131 A 
ATOM     64  C   UNL A   1      40.264  32.166  34.893  1.00  0.00     0.055 A 
ATOM     65  C   UNL A   1      41.887  30.834  36.056  1.00  0.00     0.041 A 
ATOM     66  F   UNL A   1      42.988  29.107  34.955  1.00  0.00    -0.206 F 
ATOM     67  C   UNL A   1      41.015  31.916  36.043  1.00  0.00     0.022 A 
BRANCH  64  68
ATOM     68  S   UNL A   1      39.292  33.691  34.812  1.00  0.00     0.124 S 
ATOM     69  O   UNL A   1      37.989  33.203  34.369  1.00  0.00    -0.237 OA
ATOM     70  O   UNL A   1      39.346  34.168  36.193  1.00  0.00    -0.237 OA
ATOM     71  O   UNL A   1      40.011  34.519  33.847  1.00  0.00    -0.744 OA
ENDBRANCH  64  68
ENDBRANCH  38  61
ENDBRANCH  12  13
ENDBRANCH   5   7
ENDBRANCH   2   3
ENDBRANCH   1   2
BRANCH   1  72
ATOM     72  C   UNL A   1      31.815  30.183  26.581  1.00  0.00     0.023 C 
BRANCH  72  73
ATOM     73  C   UNL A   1      31.959  29.676  25.141  1.00  0.00     0.116 C 
BRANCH  73  74
ATOM     74  N   UNL A   1      30.844  30.050  24.291  1.00  0.00    -0.352 N 
ATOM     75  C   UNL A   1      30.138  29.271  23.410  1.00  0.00     0.252 C 
ATOM     76  H   UNL A   1      30.556  30.989  24.356  1.00  0.00     0.163 HD
ATOM     77  O   UNL A   1      29.423  29.779  22.554  1.00  0.00    -0.269 OA
BRANCH  75  78
ATOM     78  C   UNL A   1      30.319  27.816  23.424  1.00  0.00     0.058 A 
ATOM     79  C   UNL A   1      29.901  26.995  24.471  1.00  0.00     0.017 A 
ATOM     80  C   UNL A   1      30.967  27.243  22.351  1.00  0.00     0.125 A 
ATOM     81  C   UNL A   1      30.197  25.631  24.423  1.00  0.00     0.026 A 
ATOM     82  N   UNL A   1      31.316  25.938  22.312  1.00  0.00    -0.259 NA
ATOM     83  C   UNL A   1      30.909  25.135  23.331  1.00  0.00     0.060 A 
BRANCH  83  84
ATOM     84  C   UNL A   1      31.279  23.676  23.224  1.00  0.00     0.178 C 
BRANCH  84  85
ATOM     85  N   UNL A   1      32.653  23.423  23.651  1.00  0.00    -0.341 N 
ATOM     86  C   UNL A   1      33.613  24.399  23.781  1.00  0.00     0.087 A 
ATOM     87  C   UNL A   1      33.196  22.187  23.958  1.00  0.00     0.049 A 
ATOM     88  C   UNL A   1      34.761  23.804  24.254  1.00  0.00     0.028 A 
ATOM     89  C   UNL A   1      34.504  22.414  24.397  1.00  0.00    -0.000 A 
ATOM     90  C   UNL A   1      32.642  20.895  23.935  1.00  0.00     0.042 A 
ATOM     91  C   UNL A   1      35.267  21.324  24.867  1.00  0.00     0.011 A 
ATOM     92  C   UNL A   1      33.407  19.840  24.435  1.00  0.00     0.020 A 
ATOM     93  C   UNL A   1      34.701  20.044  24.899  1.00  0.00     0.016 A 
ATOM     94  Br  UNL A   1      32.651  18.105  24.506  1.00  0.00    -0.051 Br
ENDBRANCH  84  85
ENDBRANCH  83  84
ENDBRANCH  75  78
ENDBRANCH  73  74
ENDBRANCH  72  73
ENDBRANCH   1  72
TORSDOF 16
ENDMDL
MODEL 3
REMARK VINA RESULT:     -12.5      3.317      8.183
REMARK SMILES O=C(NCCCCNC(=O)c1ccc(Cn2ccc3ccc(Br)cc32)nc1)c1ccc(-c2c3nc(c(-c4cc(S(=O)(=O)[O-])ccc4F)c4ccc([nH]4)c(-c4cc(S(=O)(=O)[O-])ccc4F)c4nc(c(-c5cc(S(=O)(=O)[O-])ccc5F)c5ccc2[nH]5)C=C4)C=C3)cc1
REMARK SMILES IDX 5 1 4 2 3 3 1 4 2 5 28 7 29 8 90 9 30 10 89 11 31 12 32 13
REMARK SMILES IDX 33 14 83 15 34 16 88 17 82 18 84 19 35 20 87 21 81 22 80 23
REMARK SMILES IDX 36 25 68 26 48 27 67 28 49 29 52 30 66 31 85 32 50 33 51 34
REMARK SMILES IDX 65 36 86 37 53 38 37 39 38 40 46 41 39 42 45 43 47 44 44 45
REMARK SMILES IDX 40 46 41 47 42 48 43 49 69 50 70 51 78 52 71 53 77 54 79 55
REMARK SMILES IDX 76 56 72 57 73 58 74 59 75 60 54 61 55 62 63 63 56 64 62 65
REMARK SMILES IDX 64 66 61 67 57 68 58 69 59 70 60 71 6 72 7 73 8 74 9 75
REMARK SMILES IDX 10 77 11 78 12 79 27 80 13 81 26 82 14 83 15 84 16 85 17 86
REMARK SMILES IDX 25 87 18 88 19 89 24 90 20 91 22 92 21 93 23 94
REMARK H PARENT 3 6 84 24 52 35 8 76
REMARK Flexibility Score: inf
ROOT
ATOM      1  C   UNL A   1      37.830  20.802  24.687  1.00  0.00     0.023 C 
ENDROOT
BRANCH   1   2
ATOM      2  C   UNL A   1      38.830  20.837  25.834  1.00  0.00     0.116 C 
BRANCH   2   3
ATOM      3  N   UNL A   1      39.830  19.759  25.793  1.00  0.00    -0.352 N 
ATOM      4  O   UNL A   1      41.957  19.014  25.416  1.00  0.00    -0.269 OA
ATOM      5  C   UNL A   1      41.212  19.895  25.839  1.00  0.00     0.251 C 
ATOM      6  H   UNL A   1      39.482  18.841  25.726  1.00  0.00     0.163 HD
BRANCH   5   7
ATOM      7  C   UNL A   1      41.759  21.120  26.445  1.00  0.00     0.039 A 
ATOM      8  C   UNL A   1      42.189  22.228  25.715  1.00  0.00     0.014 A 
ATOM      9  C   UNL A   1      41.704  21.161  27.829  1.00  0.00     0.014 A 
ATOM     10  C   UNL A   1      42.461  23.409  26.410  1.00  0.00     0.010 A 
ATOM     11  C   UNL A   1      41.692  22.374  28.452  1.00  0.00     0.010 A 
ATOM     12  C   UNL A   1      42.179  23.483  27.787  1.00  0.00    -0.014 A 
BRANCH  12  13
ATOM     13  C   UNL A   1      42.316  24.715  28.558  1.00  0.00     0.031 A 
ATOM     14  C   UNL A   1      41.192  25.669  28.401  1.00  0.00     0.074 A 
ATOM     15  C   UNL A   1      43.292  24.921  29.474  1.00  0.00     0.049 A 
ATOM     16  N   UNL A   1      41.180  26.729  27.664  1.00  0.00    -0.248 NA
ATOM     17  C   UNL A   1      39.879  25.314  28.959  1.00  0.00     0.031 C 
ATOM     18  C   UNL A   1      44.305  23.976  29.975  1.00  0.00     0.029 A 
ATOM     19  N   UNL A   1      43.531  26.022  30.235  1.00  0.00    -0.354 N 
ATOM     20  C   UNL A   1      39.942  27.322  27.877  1.00  0.00     0.074 A 
ATOM     21  C   UNL A   1      39.119  26.301  28.476  1.00  0.00     0.031 C 
ATOM     22  C   UNL A   1      44.862  24.455  31.108  1.00  0.00     0.029 A 
ATOM     23  C   UNL A   1      44.418  25.821  31.284  1.00  0.00     0.049 A 
ATOM     24  H   UNL A   1      43.107  26.893  30.056  1.00  0.00     0.167 HD
ATOM     25  C   UNL A   1      39.793  28.676  27.794  1.00  0.00     0.034 A 
ATOM     26  C   UNL A   1      44.791  26.714  32.233  1.00  0.00     0.034 A 
ATOM     27  C   UNL A   1      40.969  29.281  27.214  1.00  0.00     0.049 A 
ATOM     28  C   UNL A   1      44.495  28.064  31.709  1.00  0.00     0.074 A 
ATOM     29  C   UNL A   1      41.624  29.178  26.004  1.00  0.00     0.029 A 
ATOM     30  N   UNL A   1      41.871  29.836  28.091  1.00  0.00    -0.354 N 
ATOM     31  N   UNL A   1      45.138  28.612  30.718  1.00  0.00    -0.248 NA
ATOM     32  C   UNL A   1      43.183  28.622  31.993  1.00  0.00     0.031 C 
ATOM     33  C   UNL A   1      43.010  29.255  26.326  1.00  0.00     0.029 A 
ATOM     34  C   UNL A   1      43.135  29.486  27.698  1.00  0.00     0.049 A 
ATOM     35  H   UNL A   1      41.646  30.392  28.871  1.00  0.00     0.167 HD
ATOM     36  C   UNL A   1      44.144  29.217  29.964  1.00  0.00     0.074 A 
ATOM     37  C   UNL A   1      42.991  29.302  30.860  1.00  0.00     0.031 C 
ATOM     38  C   UNL A   1      44.257  29.319  28.606  1.00  0.00     0.034 A 
BRANCH  25  39
ATOM     39  C   UNL A   1      38.792  29.477  28.597  1.00  0.00     0.023 A 
ATOM     40  C   UNL A   1      37.689  30.134  28.024  1.00  0.00     0.031 A 
ATOM     41  C   UNL A   1      38.794  29.407  30.006  1.00  0.00     0.131 A 
ATOM     42  C   UNL A   1      36.661  30.674  28.806  1.00  0.00     0.055 A 
ATOM     43  C   UNL A   1      37.734  29.885  30.788  1.00  0.00     0.041 A 
ATOM     44  F   UNL A   1      39.799  28.811  30.668  1.00  0.00    -0.206 F 
ATOM     45  C   UNL A   1      36.654  30.520  30.186  1.00  0.00     0.022 A 
BRANCH  42  46
ATOM     46  S   UNL A   1      35.291  31.568  28.020  1.00  0.00     0.124 S 
ATOM     47  O   UNL A   1      35.968  32.744  27.486  1.00  0.00    -0.237 OA
ATOM     48  O   UNL A   1      34.835  30.594  27.031  1.00  0.00    -0.237 OA
ATOM     49  O   UNL A   1      34.365  31.810  29.122  1.00  0.00    -0.744 OA
ENDBRANCH  42  46
ENDBRANCH  25  39
BRANCH  26  50
ATOM     50  C   UNL A   1      44.941  26.458  33.682  1.00  0.00     0.023 A 
ATOM     51  C   UNL A   1      43.806  26.157  34.454  1.00  0.00     0.031 A 
ATOM     52  C   UNL A   1      46.107  26.847  34.365  1.00  0.00     0.131 A 
ATOM     53  C   UNL A   1      43.830  26.331  35.844  1.00  0.00     0.055 A 
ATOM     54  C   UNL A   1      46.135  26.997  35.755  1.00  0.00     0.041 A 
ATOM     55  F   UNL A   1      47.217  27.170  33.684  1.00  0.00    -0.206 F 
ATOM     56  C   UNL A   1      44.985  26.758  36.500  1.00  0.00     0.022 A 
BRANCH  53  57
ATOM     57  S   UNL A   1      42.316  26.109  36.816  1.00  0.00     0.124 S 
ATOM     58  O   UNL A   1      42.782  26.381  38.174  1.00  0.00    -0.237 OA
ATOM     59  O   UNL A   1      41.443  27.122  36.234  1.00  0.00    -0.237 OA
ATOM     60  O   UNL A   1      41.951  24.721  36.553  1.00  0.00    -0.744 OA
ENDBRANCH  53  57
ENDBRANCH  26  50
BRANCH  38  61
ATOM     61  C   UNL A   1      45.598  29.032  27.963  1.00  0.00     0.023 A 
ATOM     62  C   UNL A   1      45.875  27.689  27.653  1.00  0.00     0.031 A 
ATOM     63  C   UNL A   1      46.657  29.953  27.839  1.00  0.00     0.131 A 
ATOM     64  C   UNL A   1      47.166  27.293  27.285  1.00  0.00     0.055 A 
ATOM     65  C   UNL A   1      47.929  29.566  27.401  1.00  0.00     0.041 A 
ATOM     66  F   UNL A   1      46.523  31.233  28.207  1.00  0.00    -0.206 F 
ATOM     67  C   UNL A   1      48.194  28.226  27.140  1.00  0.00     0.022 A 
BRANCH  64  68
ATOM     68  S   UNL A   1      47.571  25.534  27.146  1.00  0.00     0.124 S 
ATOM     69  O   UNL A   1      48.693  25.549  26.212  1.00  0.00    -0.237 OA
ATOM     70  O   UNL A   1      47.909  25.183  28.525  1.00  0.00    -0.237 OA
ATOM     71  O   UNL A   1      46.344  24.927  26.640  1.00  0.00    -0.744 OA
ENDBRANCH  64  68
ENDBRANCH  38  61
ENDBRANCH  12  13
ENDBRANCH   5   7
ENDBRANCH   2   3
ENDBRANCH   1   2
BRANCH   1  72
ATOM     72  C   UNL A   1      36.684  19.793  24.843  1.00  0.00     0.023 C 
BRANCH  72  73
ATOM     73  C   UNL A   1      35.298  20.360  25.175  1.00  0.00     0.116 C 
BRANCH  73  74
ATOM     74  N   UNL A   1      34.249  19.359  25.138  1.00  0.00    -0.352 N 
ATOM     75  C   UNL A   1      32.895  19.539  25.014  1.00  0.00     0.252 C 
ATOM     76  H   UNL A   1      34.550  18.424  25.210  1.00  0.00     0.163 HD
ATOM     77  O   UNL A   1      32.112  18.637  25.289  1.00  0.00    -0.269 OA
BRANCH  75  78
ATOM     78  C   UNL A   1      32.370  20.860  24.650  1.00  0.00     0.058 A 
ATOM     79  C   UNL A   1      31.880  21.778  25.577  1.00  0.00     0.017 A 
ATOM     80  C   UNL A   1      32.338  21.187  23.312  1.00  0.00     0.125 A 
ATOM     81  C   UNL A   1      31.326  22.975  25.119  1.00  0.00     0.026 A 
ATOM     82  N   UNL A   1      31.752  22.311  22.843  1.00  0.00    -0.259 NA
ATOM     83  C   UNL A   1      31.274  23.209  23.744  1.00  0.00     0.060 A 
BRANCH  83  84
ATOM     84  C   UNL A   1      30.672  24.472  23.178  1.00  0.00     0.178 C 
BRANCH  84  85
ATOM     85  N   UNL A   1      31.686  25.479  22.879  1.00  0.00    -0.341 N 
ATOM     86  C   UNL A   1      32.371  25.555  21.690  1.00  0.00     0.087 A 
ATOM     87  C   UNL A   1      32.124  26.475  23.737  1.00  0.00     0.049 A 
ATOM     88  C   UNL A   1      33.197  26.655  21.745  1.00  0.00     0.028 A 
ATOM     89  C   UNL A   1      33.031  27.261  23.019  1.00  0.00    -0.000 A 
ATOM     90  C   UNL A   1      31.769  26.785  25.061  1.00  0.00     0.042 A 
ATOM     91  C   UNL A   1      33.568  28.414  23.629  1.00  0.00     0.011 A 
ATOM     92  C   UNL A   1      32.290  27.948  25.629  1.00  0.00     0.020 A 
ATOM     93  C   UNL A   1      33.176  28.759  24.928  1.00  0.00     0.016 A 
ATOM     94  Br  UNL A   1      31.756  28.441  27.378  1.00  0.00    -0.051 Br
ENDBRANCH  84  85
ENDBRANCH  83  84
ENDBRANCH  75  78
ENDBRANCH  73  74
ENDBRANCH  72  73
ENDBRANCH   1  72
TORSDOF 16
ENDMDL
