MODEL 1
REMARK VINA RESULT:     -11.3      0.000      0.000
REMARK SMILES Cc1noc(C)c1CNc1cnc(C(=O)NCCCCNC(=O)c2ccc(-c3c4nc(c(-c5cc(S(=O)(=O)[O-])ccc5F)c5ccc([nH]5)c(-c5cc(S(=O)(=O)[O-])ccc5F)c5nc(c(-c6cc(S(=O)(=O)[O-])ccc6F)c6ccc3[nH]6)C=C5)C=C4)cc2)cn1
REMARK SMILES IDX 18 1 17 2 16 3 14 4 15 5 13 7 10 8 11 9 88 10 12 11 87 12
REMARK SMILES IDX 9 13 8 15 7 16 1 17 2 18 3 19 4 20 5 21 6 22 19 23 20 24
REMARK SMILES IDX 21 25 22 26 23 28 24 29 25 30 86 31 26 32 85 33 27 34 28 35
REMARK SMILES IDX 29 36 79 37 30 38 84 39 78 40 80 41 31 42 83 43 77 44 76 45
REMARK SMILES IDX 32 47 64 48 44 49 63 50 45 51 48 52 62 53 81 54 46 55 47 56
REMARK SMILES IDX 61 58 82 59 49 60 33 61 34 62 42 63 35 64 41 65 43 66 40 67
REMARK SMILES IDX 36 68 37 69 38 70 39 71 65 72 66 73 74 74 67 75 73 76 75 77
REMARK SMILES IDX 72 78 68 79 69 80 70 81 71 82 50 83 51 84 59 85 52 86 58 87
REMARK SMILES IDX 60 88 57 89 53 90 54 91 55 92 56 93
REMARK H PARENT 16 6 9 14 21 27 80 46 48 57
REMARK Flexibility Score: inf
ROOT
ATOM      1  C   UNL A   1      31.984  29.529  26.244  1.00  0.00     0.023 C 
ENDROOT
BRANCH   1   2
ATOM      2  C   UNL A   1      32.573  29.255  24.862  1.00  0.00     0.116 C 
BRANCH   2   3
ATOM      3  N   UNL A   1      31.630  29.589  23.810  1.00  0.00    -0.351 N 
ATOM      4  C   UNL A   1      31.104  28.821  22.795  1.00  0.00     0.271 C 
ATOM      5  O   UNL A   1      30.320  29.358  22.011  1.00  0.00    -0.267 OA
ATOM      6  H   UNL A   1      31.312  30.520  23.824  1.00  0.00     0.163 HD
BRANCH   4   7
ATOM      7  C   UNL A   1      31.410  27.370  22.626  1.00  0.00     0.146 A 
ATOM      8  C   UNL A   1      31.942  24.703  22.605  1.00  0.00     0.144 A 
ATOM      9  C   UNL A   1      32.786  25.643  22.016  1.00  0.00     0.158 A 
ATOM     10  N   UNL A   1      30.778  25.096  23.158  1.00  0.00    -0.235 NA
ATOM     11  N   UNL A   1      32.549  26.977  22.008  1.00  0.00    -0.246 NA
ATOM     12  C   UNL A   1      30.534  26.437  23.166  1.00  0.00     0.147 A 
BRANCH   8  13
ATOM     13  N   UNL A   1      32.223  23.361  22.707  1.00  0.00    -0.365 N 
ATOM     14  H   UNL A   1      32.408  22.840  21.893  1.00  0.00     0.162 HD
BRANCH  13  15
ATOM     15  C   UNL A   1      32.250  22.704  23.999  1.00  0.00     0.156 C 
BRANCH  15  16
ATOM     16  C   UNL A   1      33.503  21.956  24.296  1.00  0.00     0.037 A 
ATOM     17  C   UNL A   1      32.577  19.548  24.738  1.00  0.00     0.071 C 
ATOM     18  C   UNL A   1      33.640  20.577  24.624  1.00  0.00     0.086 A 
ATOM     19  N   UNL A   1      34.919  20.251  24.837  1.00  0.00    -0.085 NA
ATOM     20  O   UNL A   1      35.640  21.415  24.662  1.00  0.00    -0.361 OA
ATOM     21  C   UNL A   1      34.795  22.430  24.341  1.00  0.00     0.138 A 
ATOM     22  C   UNL A   1      35.411  23.753  24.135  1.00  0.00     0.091 C 
ENDBRANCH  15  16
ENDBRANCH  13  15
ENDBRANCH   8  13
ENDBRANCH   4   7
ENDBRANCH   2   3
ENDBRANCH   1   2
BRANCH   1  23
ATOM     23  C   UNL A   1      31.711  31.012  26.524  1.00  0.00     0.023 C 
BRANCH  23  24
ATOM     24  C   UNL A   1      32.917  31.819  27.002  1.00  0.00     0.116 C 
BRANCH  24  25
ATOM     25  N   UNL A   1      32.606  33.216  27.272  1.00  0.00    -0.352 N 
ATOM     26  C   UNL A   1      33.196  34.067  28.174  1.00  0.00     0.251 C 
ATOM     27  H   UNL A   1      31.876  33.601  26.735  1.00  0.00     0.163 HD
ATOM     28  O   UNL A   1      32.732  35.190  28.351  1.00  0.00    -0.269 OA
BRANCH  26  29
ATOM     29  C   UNL A   1      34.363  33.604  28.956  1.00  0.00     0.039 A 
ATOM     30  C   UNL A   1      34.159  32.690  29.993  1.00  0.00     0.014 A 
ATOM     31  C   UNL A   1      35.652  34.040  28.642  1.00  0.00     0.014 A 
ATOM     32  C   UNL A   1      35.259  32.156  30.667  1.00  0.00     0.010 A 
ATOM     33  C   UNL A   1      36.749  33.455  29.268  1.00  0.00     0.010 A 
ATOM     34  C   UNL A   1      36.564  32.504  30.282  1.00  0.00    -0.014 A 
BRANCH  34  35
ATOM     35  C   UNL A   1      37.749  31.876  30.922  1.00  0.00     0.031 A 
ATOM     36  C   UNL A   1      38.536  30.825  30.188  1.00  0.00     0.074 A 
ATOM     37  C   UNL A   1      38.063  32.189  32.194  1.00  0.00     0.049 A 
ATOM     38  N   UNL A   1      39.544  30.102  30.604  1.00  0.00    -0.248 NA
ATOM     39  C   UNL A   1      38.102  30.526  28.817  1.00  0.00     0.031 C 
ATOM     40  C   UNL A   1      37.335  33.147  33.030  1.00  0.00     0.029 A 
ATOM     41  N   UNL A   1      39.059  31.723  33.012  1.00  0.00    -0.354 N 
ATOM     42  C   UNL A   1      39.855  29.248  29.552  1.00  0.00     0.074 A 
ATOM     43  C   UNL A   1      38.882  29.500  28.510  1.00  0.00     0.031 C 
ATOM     44  C   UNL A   1      37.918  33.206  34.239  1.00  0.00     0.029 A 
ATOM     45  C   UNL A   1      39.034  32.265  34.276  1.00  0.00     0.049 A 
ATOM     46  H   UNL A   1      39.731  31.063  32.723  1.00  0.00     0.167 HD
ATOM     47  C   UNL A   1      40.872  28.355  29.455  1.00  0.00     0.034 A 
ATOM     48  C   UNL A   1      39.810  32.021  35.350  1.00  0.00     0.034 A 
ATOM     49  C   UNL A   1      41.835  28.123  30.505  1.00  0.00     0.049 A 
ATOM     50  C   UNL A   1      40.933  31.026  35.229  1.00  0.00     0.074 A 
ATOM     51  C   UNL A   1      42.948  27.299  30.491  1.00  0.00     0.029 A 
ATOM     52  N   UNL A   1      41.793  28.706  31.766  1.00  0.00    -0.354 N 
ATOM     53  N   UNL A   1      41.262  30.275  34.203  1.00  0.00    -0.248 NA
ATOM     54  C   UNL A   1      41.796  30.857  36.403  1.00  0.00     0.031 C 
ATOM     55  C   UNL A   1      43.536  27.332  31.762  1.00  0.00     0.029 A 
ATOM     56  C   UNL A   1      42.837  28.235  32.549  1.00  0.00     0.049 A 
ATOM     57  H   UNL A   1      41.118  29.360  32.062  1.00  0.00     0.167 HD
ATOM     58  C   UNL A   1      42.386  29.558  34.603  1.00  0.00     0.074 A 
ATOM     59  C   UNL A   1      42.683  29.979  35.958  1.00  0.00     0.031 C 
ATOM     60  C   UNL A   1      43.109  28.641  33.910  1.00  0.00     0.034 A 
BRANCH  47  61
ATOM     61  C   UNL A   1      40.961  27.549  28.177  1.00  0.00     0.023 A 
ATOM     62  C   UNL A   1      40.587  26.194  28.133  1.00  0.00     0.031 A 
ATOM     63  C   UNL A   1      41.487  28.122  27.006  1.00  0.00     0.131 A 
ATOM     64  C   UNL A   1      40.846  25.431  26.984  1.00  0.00     0.055 A 
ATOM     65  C   UNL A   1      41.652  27.380  25.833  1.00  0.00     0.041 A 
ATOM     66  F   UNL A   1      41.878  29.405  26.986  1.00  0.00    -0.206 F 
ATOM     67  C   UNL A   1      41.353  26.020  25.825  1.00  0.00     0.022 A 
BRANCH  64  68
ATOM     68  S   UNL A   1      40.692  23.626  27.095  1.00  0.00     0.124 S 
ATOM     69  O   UNL A   1      41.208  23.369  28.438  1.00  0.00    -0.237 OA
ATOM     70  O   UNL A   1      39.260  23.422  26.910  1.00  0.00    -0.237 OA
ATOM     71  O   UNL A   1      41.539  23.143  26.008  1.00  0.00    -0.744 OA
ENDBRANCH  64  68
ENDBRANCH  47  61
BRANCH  48  72
ATOM     72  C   UNL A   1      39.543  32.728  36.633  1.00  0.00     0.023 A 
ATOM     73  C   UNL A   1      38.601  32.238  37.550  1.00  0.00     0.031 A 
ATOM     74  C   UNL A   1      40.236  33.907  36.960  1.00  0.00     0.131 A 
ATOM     75  C   UNL A   1      38.359  32.939  38.742  1.00  0.00     0.055 A 
ATOM     76  C   UNL A   1      40.020  34.578  38.164  1.00  0.00     0.041 A 
ATOM     77  F   UNL A   1      41.156  34.408  36.120  1.00  0.00    -0.206 F 
ATOM     78  C   UNL A   1      39.070  34.099  39.060  1.00  0.00     0.022 A 
BRANCH  75  79
ATOM     79  S   UNL A   1      37.067  32.332  39.862  1.00  0.00     0.124 S 
ATOM     80  O   UNL A   1      37.104  33.328  40.927  1.00  0.00    -0.237 OA
ATOM     81  O   UNL A   1      35.887  32.353  39.005  1.00  0.00    -0.237 OA
ATOM     82  O   UNL A   1      37.539  31.000  40.235  1.00  0.00    -0.744 OA
ENDBRANCH  75  79
ENDBRANCH  48  72
BRANCH  60  83
ATOM     83  C   UNL A   1      44.315  28.055  34.604  1.00  0.00     0.023 A 
ATOM     84  C   UNL A   1      44.245  26.841  35.309  1.00  0.00     0.031 A 
ATOM     85  C   UNL A   1      45.548  28.730  34.566  1.00  0.00     0.131 A 
ATOM     86  C   UNL A   1      45.376  26.365  35.992  1.00  0.00     0.055 A 
ATOM     87  C   UNL A   1      46.683  28.222  35.199  1.00  0.00     0.041 A 
ATOM     88  F   UNL A   1      45.670  29.895  33.911  1.00  0.00    -0.206 F 
ATOM     89  C   UNL A   1      46.598  27.038  35.927  1.00  0.00     0.022 A 
BRANCH  86  90
ATOM     90  S   UNL A   1      45.206  24.894  37.039  1.00  0.00     0.124 S 
ATOM     91  O   UNL A   1      46.574  24.388  37.076  1.00  0.00    -0.237 OA
ATOM     92  O   UNL A   1      44.699  25.454  38.288  1.00  0.00    -0.237 OA
ATOM     93  O   UNL A   1      44.256  24.059  36.307  1.00  0.00    -0.744 OA
ENDBRANCH  86  90
ENDBRANCH  60  83
ENDBRANCH  34  35
ENDBRANCH  26  29
ENDBRANCH  24  25
ENDBRANCH  23  24
ENDBRANCH   1  23
TORSDOF 17
ENDMDL
MODEL 2
REMARK VINA RESULT:     -11.3      4.951      8.493
REMARK SMILES Cc1noc(C)c1CNc1cnc(C(=O)NCCCCNC(=O)c2ccc(-c3c4nc(c(-c5cc(S(=O)(=O)[O-])ccc5F)c5ccc([nH]5)c(-c5cc(S(=O)(=O)[O-])ccc5F)c5nc(c(-c6cc(S(=O)(=O)[O-])ccc6F)c6ccc3[nH]6)C=C5)C=C4)cc2)cn1
REMARK SMILES IDX 18 1 17 2 16 3 14 4 15 5 13 7 10 8 11 9 88 10 12 11 87 12
REMARK SMILES IDX 9 13 8 15 7 16 1 17 2 18 3 19 4 20 5 21 6 22 19 23 20 24
REMARK SMILES IDX 21 25 22 26 23 28 24 29 25 30 86 31 26 32 85 33 27 34 28 35
REMARK SMILES IDX 29 36 79 37 30 38 84 39 78 40 80 41 31 42 83 43 77 44 76 45
REMARK SMILES IDX 32 47 64 48 44 49 63 50 45 51 48 52 62 53 81 54 46 55 47 56
REMARK SMILES IDX 61 58 82 59 49 60 33 61 34 62 42 63 35 64 41 65 43 66 40 67
REMARK SMILES IDX 36 68 37 69 38 70 39 71 65 72 66 73 74 74 67 75 73 76 75 77
REMARK SMILES IDX 72 78 68 79 69 80 70 81 71 82 50 83 51 84 59 85 52 86 58 87
REMARK SMILES IDX 60 88 57 89 53 90 54 91 55 92 56 93
REMARK H PARENT 16 6 9 14 21 27 80 46 48 57
REMARK Flexibility Score: inf
ROOT
ATOM      1  C   UNL A   1      35.867  21.371  24.606  1.00  0.00     0.023 C 
ENDROOT
BRANCH   1   2
ATOM      2  C   UNL A   1      35.027  21.116  25.856  1.00  0.00     0.116 C 
BRANCH   2   3
ATOM      3  N   UNL A   1      34.045  20.072  25.628  1.00  0.00    -0.351 N 
ATOM      4  C   UNL A   1      32.725  20.145  25.241  1.00  0.00     0.271 C 
ATOM      5  O   UNL A   1      32.096  19.092  25.132  1.00  0.00    -0.267 OA
ATOM      6  H   UNL A   1      34.377  19.157  25.774  1.00  0.00     0.163 HD
BRANCH   4   7
ATOM      7  C   UNL A   1      32.040  21.430  24.914  1.00  0.00     0.146 A 
ATOM      8  C   UNL A   1      31.047  23.866  24.223  1.00  0.00     0.144 A 
ATOM      9  C   UNL A   1      30.890  23.324  25.498  1.00  0.00     0.158 A 
ATOM     10  N   UNL A   1      31.655  23.151  23.257  1.00  0.00    -0.235 NA
ATOM     11  N   UNL A   1      31.371  22.113  25.872  1.00  0.00    -0.246 NA
ATOM     12  C   UNL A   1      32.153  21.936  23.625  1.00  0.00     0.147 A 
BRANCH   8  13
ATOM     13  N   UNL A   1      30.653  25.133  23.863  1.00  0.00    -0.365 N 
ATOM     14  H   UNL A   1      30.378  25.311  22.935  1.00  0.00     0.162 HD
BRANCH  13  15
ATOM     15  C   UNL A   1      30.638  26.210  24.834  1.00  0.00     0.156 C 
BRANCH  15  16
ATOM     16  C   UNL A   1      31.683  27.251  24.630  1.00  0.00     0.037 A 
ATOM     17  C   UNL A   1      33.827  26.007  25.469  1.00  0.00     0.071 C 
ATOM     18  C   UNL A   1      33.075  27.159  24.915  1.00  0.00     0.086 A 
ATOM     19  N   UNL A   1      33.711  28.296  24.613  1.00  0.00    -0.085 NA
ATOM     20  O   UNL A   1      32.743  29.156  24.134  1.00  0.00    -0.361 OA
ATOM     21  C   UNL A   1      31.535  28.533  24.147  1.00  0.00     0.138 A 
ATOM     22  C   UNL A   1      30.385  29.326  23.677  1.00  0.00     0.091 C 
ENDBRANCH  15  16
ENDBRANCH  13  15
ENDBRANCH   8  13
ENDBRANCH   4   7
ENDBRANCH   2   3
ENDBRANCH   1   2
BRANCH   1  23
ATOM     23  C   UNL A   1      36.097  22.856  24.301  1.00  0.00     0.023 C 
BRANCH  23  24
ATOM     24  C   UNL A   1      37.197  23.530  25.121  1.00  0.00     0.116 C 
BRANCH  24  25
ATOM     25  N   UNL A   1      38.204  22.599  25.610  1.00  0.00    -0.352 N 
ATOM     26  C   UNL A   1      39.328  22.865  26.354  1.00  0.00     0.251 C 
ATOM     27  H   UNL A   1      38.060  21.654  25.376  1.00  0.00     0.163 HD
ATOM     28  O   UNL A   1      40.135  21.969  26.587  1.00  0.00    -0.269 OA
BRANCH  26  29
ATOM     29  C   UNL A   1      39.575  24.242  26.831  1.00  0.00     0.039 A 
ATOM     30  C   UNL A   1      39.276  24.559  28.159  1.00  0.00     0.014 A 
ATOM     31  C   UNL A   1      40.132  25.203  25.984  1.00  0.00     0.014 A 
ATOM     32  C   UNL A   1      39.607  25.821  28.658  1.00  0.00     0.010 A 
ATOM     33  C   UNL A   1      40.523  26.435  26.502  1.00  0.00     0.010 A 
ATOM     34  C   UNL A   1      40.269  26.754  27.844  1.00  0.00    -0.014 A 
BRANCH  34  35
ATOM     35  C   UNL A   1      40.715  28.066  28.381  1.00  0.00     0.031 A 
ATOM     36  C   UNL A   1      42.181  28.364  28.528  1.00  0.00     0.074 A 
ATOM     37  C   UNL A   1      39.799  28.952  28.817  1.00  0.00     0.049 A 
ATOM     38  N   UNL A   1      42.767  29.410  29.051  1.00  0.00    -0.248 NA
ATOM     39  C   UNL A   1      43.107  27.326  28.055  1.00  0.00     0.031 C 
ATOM     40  C   UNL A   1      38.348  28.750  28.785  1.00  0.00     0.029 A 
ATOM     41  N   UNL A   1      39.949  30.189  29.389  1.00  0.00    -0.354 N 
ATOM     42  C   UNL A   1      44.131  29.150  28.988  1.00  0.00     0.074 A 
ATOM     43  C   UNL A   1      44.276  27.818  28.438  1.00  0.00     0.031 C 
ATOM     44  C   UNL A   1      37.743  29.831  29.304  1.00  0.00     0.029 A 
ATOM     45  C   UNL A   1      38.760  30.784  29.737  1.00  0.00     0.049 A 
ATOM     46  H   UNL A   1      40.826  30.613  29.535  1.00  0.00     0.167 HD
ATOM     47  C   UNL A   1      45.168  29.956  29.332  1.00  0.00     0.034 A 
ATOM     48  C   UNL A   1      38.513  31.957  30.353  1.00  0.00     0.034 A 
ATOM     49  C   UNL A   1      45.001  31.284  29.874  1.00  0.00     0.049 A 
ATOM     50  C   UNL A   1      39.672  32.841  30.731  1.00  0.00     0.074 A 
ATOM     51  C   UNL A   1      45.974  32.217  30.189  1.00  0.00     0.029 A 
ATOM     52  N   UNL A   1      43.779  31.865  30.195  1.00  0.00    -0.354 N 
ATOM     53  N   UNL A   1      40.959  32.614  30.600  1.00  0.00    -0.248 NA
ATOM     54  C   UNL A   1      39.346  34.141  31.326  1.00  0.00     0.031 C 
ATOM     55  C   UNL A   1      45.346  33.331  30.763  1.00  0.00     0.029 A 
ATOM     56  C   UNL A   1      43.975  33.127  30.737  1.00  0.00     0.049 A 
ATOM     57  H   UNL A   1      42.901  31.441  30.058  1.00  0.00     0.167 HD
ATOM     58  C   UNL A   1      41.595  33.755  31.079  1.00  0.00     0.074 A 
ATOM     59  C   UNL A   1      40.549  34.672  31.487  1.00  0.00     0.031 C 
ATOM     60  C   UNL A   1      42.924  34.022  31.166  1.00  0.00     0.034 A 
BRANCH  47  61
ATOM     61  C   UNL A   1      46.562  29.397  29.157  1.00  0.00     0.023 A 
ATOM     62  C   UNL A   1      47.168  29.313  27.891  1.00  0.00     0.031 A 
ATOM     63  C   UNL A   1      47.269  28.879  30.257  1.00  0.00     0.131 A 
ATOM     64  C   UNL A   1      48.384  28.630  27.738  1.00  0.00     0.055 A 
ATOM     65  C   UNL A   1      48.526  28.287  30.112  1.00  0.00     0.041 A 
ATOM     66  F   UNL A   1      46.739  28.914  31.489  1.00  0.00    -0.206 F 
ATOM     67  C   UNL A   1      49.081  28.137  28.843  1.00  0.00     0.022 A 
BRANCH  64  68
ATOM     68  S   UNL A   1      48.942  28.227  26.059  1.00  0.00     0.124 S 
ATOM     69  O   UNL A   1      49.185  26.790  26.166  1.00  0.00    -0.237 OA
ATOM     70  O   UNL A   1      47.799  28.624  25.245  1.00  0.00    -0.237 OA
ATOM     71  O   UNL A   1      50.143  29.042  25.892  1.00  0.00    -0.744 OA
ENDBRANCH  64  68
ENDBRANCH  47  61
BRANCH  48  72
ATOM     72  C   UNL A   1      37.111  32.356  30.653  1.00  0.00     0.023 A 
ATOM     73  C   UNL A   1      36.293  32.936  29.671  1.00  0.00     0.031 A 
ATOM     74  C   UNL A   1      36.567  32.156  31.935  1.00  0.00     0.131 A 
ATOM     75  C   UNL A   1      34.981  33.319  29.993  1.00  0.00     0.055 A 
ATOM     76  C   UNL A   1      35.250  32.501  32.238  1.00  0.00     0.041 A 
ATOM     77  F   UNL A   1      37.306  31.593  32.905  1.00  0.00    -0.206 F 
ATOM     78  C   UNL A   1      34.451  33.094  31.266  1.00  0.00     0.022 A 
BRANCH  75  79
ATOM     79  S   UNL A   1      33.983  34.151  28.728  1.00  0.00     0.124 S 
ATOM     80  O   UNL A   1      33.856  33.109  27.715  1.00  0.00    -0.237 OA
ATOM     81  O   UNL A   1      32.768  34.479  29.467  1.00  0.00    -0.237 OA
ATOM     82  O   UNL A   1      34.804  35.297  28.346  1.00  0.00    -0.744 OA
ENDBRANCH  75  79
ENDBRANCH  48  72
BRANCH  60  83
ATOM     83  C   UNL A   1      43.315  35.380  31.698  1.00  0.00     0.023 A 
ATOM     84  C   UNL A   1      43.572  36.464  30.840  1.00  0.00     0.031 A 
ATOM     85  C   UNL A   1      43.440  35.587  33.083  1.00  0.00     0.131 A 
ATOM     86  C   UNL A   1      43.993  37.692  31.375  1.00  0.00     0.055 A 
ATOM     87  C   UNL A   1      43.802  36.827  33.611  1.00  0.00     0.041 A 
ATOM     88  F   UNL A   1      43.209  34.586  33.947  1.00  0.00    -0.206 F 
ATOM     89  C   UNL A   1      44.093  37.885  32.755  1.00  0.00     0.022 A 
BRANCH  86  90
ATOM     90  S   UNL A   1      44.492  39.013  30.236  1.00  0.00     0.124 S 
ATOM     91  O   UNL A   1      43.236  39.325  29.563  1.00  0.00    -0.237 OA
ATOM     92  O   UNL A   1      45.000  40.036  31.145  1.00  0.00    -0.237 OA
ATOM     93  O   UNL A   1      45.504  38.376  29.395  1.00  0.00    -0.744 OA
ENDBRANCH  86  90
ENDBRANCH  60  83
ENDBRANCH  34  35
ENDBRANCH  26  29
ENDBRANCH  24  25
ENDBRANCH  23  24
ENDBRANCH   1  23
TORSDOF 17
ENDMDL
MODEL 3
REMARK VINA RESULT:     -11.3      1.515      1.804
REMARK SMILES Cc1noc(C)c1CNc1cnc(C(=O)NCCCCNC(=O)c2ccc(-c3c4nc(c(-c5cc(S(=O)(=O)[O-])ccc5F)c5ccc([nH]5)c(-c5cc(S(=O)(=O)[O-])ccc5F)c5nc(c(-c6cc(S(=O)(=O)[O-])ccc6F)c6ccc3[nH]6)C=C5)C=C4)cc2)cn1
REMARK SMILES IDX 18 1 17 2 16 3 14 4 15 5 13 7 10 8 11 9 88 10 12 11 87 12
REMARK SMILES IDX 9 13 8 15 7 16 1 17 2 18 3 19 4 20 5 21 6 22 19 23 20 24
REMARK SMILES IDX 21 25 22 26 23 28 24 29 25 30 86 31 26 32 85 33 27 34 28 35
REMARK SMILES IDX 29 36 79 37 30 38 84 39 78 40 80 41 31 42 83 43 77 44 76 45
REMARK SMILES IDX 32 47 64 48 44 49 63 50 45 51 48 52 62 53 81 54 46 55 47 56
REMARK SMILES IDX 61 58 82 59 49 60 33 61 34 62 42 63 35 64 41 65 43 66 40 67
REMARK SMILES IDX 36 68 37 69 38 70 39 71 65 72 66 73 74 74 67 75 73 76 75 77
REMARK SMILES IDX 72 78 68 79 69 80 70 81 71 82 50 83 51 84 59 85 52 86 58 87
REMARK SMILES IDX 60 88 57 89 53 90 54 91 55 92 56 93
REMARK H PARENT 16 6 9 14 21 27 80 46 48 57
REMARK Flexibility Score: inf
ROOT
ATOM      1  C   UNL A   1      31.747  30.433  26.818  1.00  0.00     0.023 C 
ENDROOT
BRANCH   1   2
ATOM      2  C   UNL A   1      32.251  29.933  25.466  1.00  0.00     0.116 C 
BRANCH   2   3
ATOM      3  N   UNL A   1      31.159  29.755  24.527  1.00  0.00    -0.351 N 
ATOM      4  C   UNL A   1      30.913  28.758  23.609  1.00  0.00     0.271 C 
ATOM      5  O   UNL A   1      29.904  28.853  22.910  1.00  0.00    -0.267 OA
ATOM      6  H   UNL A   1      30.478  30.466  24.550  1.00  0.00     0.163 HD
BRANCH   4   7
ATOM      7  C   UNL A   1      31.790  27.561  23.450  1.00  0.00     0.146 A 
ATOM      8  C   UNL A   1      33.501  25.446  23.418  1.00  0.00     0.144 A 
ATOM      9  C   UNL A   1      33.422  26.367  22.373  1.00  0.00     0.158 A 
ATOM     10  N   UNL A   1      32.664  25.547  24.469  1.00  0.00    -0.235 NA
ATOM     11  N   UNL A   1      32.579  27.428  22.359  1.00  0.00    -0.246 NA
ATOM     12  C   UNL A   1      31.820  26.618  24.470  1.00  0.00     0.147 A 
BRANCH   8  13
ATOM     13  N   UNL A   1      34.420  24.427  23.487  1.00  0.00    -0.365 N 
ATOM     14  H   UNL A   1      34.836  24.091  22.662  1.00  0.00     0.162 HD
BRANCH  13  15
ATOM     15  C   UNL A   1      34.784  23.840  24.763  1.00  0.00     0.156 C 
BRANCH  15  16
ATOM     16  C   UNL A   1      34.771  22.352  24.794  1.00  0.00     0.037 A 
ATOM     17  C   UNL A   1      32.201  21.854  24.795  1.00  0.00     0.071 C 
ATOM     18  C   UNL A   1      33.640  21.488  24.813  1.00  0.00     0.086 A 
ATOM     19  N   UNL A   1      34.007  20.203  24.850  1.00  0.00    -0.085 NA
ATOM     20  O   UNL A   1      35.387  20.204  24.864  1.00  0.00    -0.361 OA
ATOM     21  C   UNL A   1      35.841  21.485  24.833  1.00  0.00     0.138 A 
ATOM     22  C   UNL A   1      37.305  21.661  24.859  1.00  0.00     0.091 C 
ENDBRANCH  15  16
ENDBRANCH  13  15
ENDBRANCH   8  13
ENDBRANCH   4   7
ENDBRANCH   2   3
ENDBRANCH   1   2
BRANCH   1  23
ATOM     23  C   UNL A   1      31.508  31.947  26.874  1.00  0.00     0.023 C 
BRANCH  23  24
ATOM     24  C   UNL A   1      32.768  32.803  26.993  1.00  0.00     0.116 C 
BRANCH  24  25
ATOM     25  N   UNL A   1      32.544  34.066  27.681  1.00  0.00    -0.352 N 
ATOM     26  C   UNL A   1      33.213  34.583  28.765  1.00  0.00     0.251 C 
ATOM     27  H   UNL A   1      31.818  34.624  27.321  1.00  0.00     0.163 HD
ATOM     28  O   UNL A   1      32.818  35.620  29.291  1.00  0.00    -0.269 OA
BRANCH  26  29
ATOM     29  C   UNL A   1      34.380  33.859  29.312  1.00  0.00     0.039 A 
ATOM     30  C   UNL A   1      35.662  34.258  28.927  1.00  0.00     0.014 A 
ATOM     31  C   UNL A   1      34.210  32.816  30.226  1.00  0.00     0.014 A 
ATOM     32  C   UNL A   1      36.777  33.661  29.519  1.00  0.00     0.010 A 
ATOM     33  C   UNL A   1      35.320  32.271  30.864  1.00  0.00     0.010 A 
ATOM     34  C   UNL A   1      36.614  32.691  30.521  1.00  0.00    -0.014 A 
BRANCH  34  35
ATOM     35  C   UNL A   1      37.783  32.111  31.231  1.00  0.00     0.031 A 
ATOM     36  C   UNL A   1      38.558  30.980  30.612  1.00  0.00     0.074 A 
ATOM     37  C   UNL A   1      38.094  32.546  32.467  1.00  0.00     0.049 A 
ATOM     38  N   UNL A   1      39.551  30.287  31.108  1.00  0.00    -0.248 NA
ATOM     39  C   UNL A   1      38.129  30.552  29.275  1.00  0.00     0.031 C 
ATOM     40  C   UNL A   1      37.377  33.595  33.197  1.00  0.00     0.029 A 
ATOM     41  N   UNL A   1      39.077  32.148  33.337  1.00  0.00    -0.354 N 
ATOM     42  C   UNL A   1      39.855  29.326  30.149  1.00  0.00     0.074 A 
ATOM     43  C   UNL A   1      38.893  29.488  29.079  1.00  0.00     0.031 C 
ATOM     44  C   UNL A   1      37.952  33.765  34.399  1.00  0.00     0.029 A 
ATOM     45  C   UNL A   1      39.052  32.815  34.539  1.00  0.00     0.049 A 
ATOM     46  H   UNL A   1      39.739  31.453  33.121  1.00  0.00     0.167 HD
ATOM     47  C   UNL A   1      40.858  28.412  30.151  1.00  0.00     0.034 A 
ATOM     48  C   UNL A   1      39.816  32.668  35.639  1.00  0.00     0.034 A 
ATOM     49  C   UNL A   1      41.810  28.272  31.227  1.00  0.00     0.049 A 
ATOM     50  C   UNL A   1      40.924  31.648  35.628  1.00  0.00     0.074 A 
ATOM     51  C   UNL A   1      42.909  27.433  31.305  1.00  0.00     0.029 A 
ATOM     52  N   UNL A   1      41.769  28.979  32.423  1.00  0.00    -0.354 N 
ATOM     53  N   UNL A   1      41.247  30.793  34.685  1.00  0.00    -0.248 NA
ATOM     54  C   UNL A   1      41.776  31.584  36.820  1.00  0.00     0.031 C 
ATOM     55  C   UNL A   1      43.489  27.584  32.571  1.00  0.00     0.029 A 
ATOM     56  C   UNL A   1      42.799  28.572  33.258  1.00  0.00     0.049 A 
ATOM     57  H   UNL A   1      41.103  29.670  32.646  1.00  0.00     0.167 HD
ATOM     58  C   UNL A   1      42.356  30.102  35.165  1.00  0.00     0.074 A 
ATOM     59  C   UNL A   1      42.651  30.652  36.473  1.00  0.00     0.031 C 
ATOM     60  C   UNL A   1      43.068  29.109  34.573  1.00  0.00     0.034 A 
BRANCH  47  61
ATOM     61  C   UNL A   1      40.942  27.481  28.961  1.00  0.00     0.023 A 
ATOM     62  C   UNL A   1      41.921  27.646  27.965  1.00  0.00     0.031 A 
ATOM     63  C   UNL A   1      39.993  26.459  28.783  1.00  0.00     0.131 A 
ATOM     64  C   UNL A   1      41.864  26.881  26.790  1.00  0.00     0.055 A 
ATOM     65  C   UNL A   1      40.000  25.635  27.655  1.00  0.00     0.041 A 
ATOM     66  F   UNL A   1      39.023  26.261  29.689  1.00  0.00    -0.206 F 
ATOM     67  C   UNL A   1      40.925  25.859  26.638  1.00  0.00     0.022 A 
BRANCH  64  68
ATOM     68  S   UNL A   1      42.908  27.372  25.389  1.00  0.00     0.124 S 
ATOM     69  O   UNL A   1      43.002  26.121  24.639  1.00  0.00    -0.237 OA
ATOM     70  O   UNL A   1      42.122  28.432  24.769  1.00  0.00    -0.237 OA
ATOM     71  O   UNL A   1      44.151  27.804  26.023  1.00  0.00    -0.744 OA
ENDBRANCH  64  68
ENDBRANCH  47  61
BRANCH  48  72
ATOM     72  C   UNL A   1      39.552  33.504  36.842  1.00  0.00     0.023 A 
ATOM     73  C   UNL A   1      38.862  32.988  37.949  1.00  0.00     0.031 A 
ATOM     74  C   UNL A   1      39.995  34.838  36.901  1.00  0.00     0.131 A 
ATOM     75  C   UNL A   1      38.612  33.809  39.061  1.00  0.00     0.055 A 
ATOM     76  C   UNL A   1      39.779  35.637  38.024  1.00  0.00     0.041 A 
ATOM     77  F   UNL A   1      40.671  35.373  35.872  1.00  0.00    -0.206 F 
ATOM     78  C   UNL A   1      39.076  35.125  39.109  1.00  0.00     0.022 A 
BRANCH  75  79
ATOM     79  S   UNL A   1      37.634  33.140  40.435  1.00  0.00     0.124 S 
ATOM     80  O   UNL A   1      37.582  34.279  41.344  1.00  0.00    -0.237 OA
ATOM     81  O   UNL A   1      36.382  32.789  39.773  1.00  0.00    -0.237 OA
ATOM     82  O   UNL A   1      38.430  32.006  40.898  1.00  0.00    -0.744 OA
ENDBRANCH  75  79
ENDBRANCH  48  72
BRANCH  60  83
ATOM     83  C   UNL A   1      44.260  28.577  35.332  1.00  0.00     0.023 A 
ATOM     84  C   UNL A   1      44.169  27.432  36.143  1.00  0.00     0.031 A 
ATOM     85  C   UNL A   1      45.500  29.234  35.250  1.00  0.00     0.131 A 
ATOM     86  C   UNL A   1      45.286  27.009  36.881  1.00  0.00     0.055 A 
ATOM     87  C   UNL A   1      46.623  28.774  35.941  1.00  0.00     0.041 A 
ATOM     88  F   UNL A   1      45.643  30.333  34.494  1.00  0.00    -0.206 F 
ATOM     89  C   UNL A   1      46.516  27.662  36.771  1.00  0.00     0.022 A 
BRANCH  86  90
ATOM     90  S   UNL A   1      45.088  25.640  38.055  1.00  0.00     0.124 S 
ATOM     91  O   UNL A   1      46.296  24.857  37.814  1.00  0.00    -0.237 OA
ATOM     92  O   UNL A   1      45.021  26.333  39.337  1.00  0.00    -0.237 OA
ATOM     93  O   UNL A   1      43.842  25.002  37.631  1.00  0.00    -0.744 OA
ENDBRANCH  86  90
ENDBRANCH  60  83
ENDBRANCH  34  35
ENDBRANCH  26  29
ENDBRANCH  24  25
ENDBRANCH  23  24
ENDBRANCH   1  23
TORSDOF 17
ENDMDL
