MODEL 1
REMARK VINA RESULT:     -11.3      0.000      0.000
REMARK SMILES COc1ccc([C@@H]([NH3+])[C@](C)(C(N)=O)C(=O)NCCCCNC(=O)c2ccc(-c3c4nc(c(-c5cc(S(=O)(=O)[O-])ccc5F)c5ccc([nH]5)c(-c5cc(S(=O)(=O)[O-])ccc5F)c5nc(c(-c6cc(S(=O)(=O)[O-])ccc6F)c6ccc3[nH]6)C=C5)C=C4)cc2)cc1OC
REMARK SMILES IDX 18 1 17 2 16 3 14 4 15 5 9 7 10 8 7 9 6 10 3 11 4 12 88 13
REMARK SMILES IDX 5 14 87 15 2 16 1 17 89 18 90 19 8 20 11 24 12 25 13 26
REMARK SMILES IDX 19 29 20 30 21 31 22 32 23 34 24 35 25 36 86 37 26 38 85 39
REMARK SMILES IDX 27 40 28 41 29 42 79 43 30 44 84 45 78 46 80 47 31 48 83 49
REMARK SMILES IDX 77 50 76 51 32 53 64 54 44 55 63 56 45 57 48 58 62 59 81 60
REMARK SMILES IDX 46 61 47 62 61 64 82 65 49 66 33 67 34 68 42 69 35 70 41 71
REMARK SMILES IDX 43 72 40 73 36 74 37 75 38 76 39 77 65 78 66 79 74 80 67 81
REMARK SMILES IDX 73 82 75 83 72 84 68 85 69 86 70 87 71 88 50 89 51 90 59 91
REMARK SMILES IDX 52 92 58 93 60 94 57 95 53 96 54 97 55 98 56 99
REMARK H PARENT 16 6 8 21 8 22 8 23 12 27 12 28 21 33 80 52 48 63
REMARK Flexibility Score: inf
ROOT
ATOM      1  C   UNL A   1      35.187  22.044  26.657  1.00  0.00     0.023 C 
ENDROOT
BRANCH   1   2
ATOM      2  C   UNL A   1      34.549  23.403  26.386  1.00  0.00     0.116 C 
BRANCH   2   3
ATOM      3  N   UNL A   1      34.549  23.789  24.981  1.00  0.00    -0.355 N 
ATOM      4  C   UNL A   1      33.506  24.073  24.142  1.00  0.00     0.241 C 
ATOM      5  O   UNL A   1      33.818  24.538  23.042  1.00  0.00    -0.274 OA
ATOM      6  H   UNL A   1      35.441  23.859  24.570  1.00  0.00     0.163 HD
BRANCH   4   7
ATOM      7  C   UNL A   1      32.040  23.814  24.533  1.00  0.00     0.180 C 
ATOM      8  C   UNL A   1      31.218  23.839  23.200  1.00  0.00     0.039 C 
BRANCH   7   9
ATOM      9  C   UNL A   1      31.501  25.022  25.417  1.00  0.00     0.237 C 
BRANCH   9  10
ATOM     10  C   UNL A   1      30.985  26.220  24.632  1.00  0.00     0.015 A 
ATOM     11  C   UNL A   1      30.165  28.187  22.816  1.00  0.00     0.160 A 
ATOM     12  C   UNL A   1      29.224  27.335  23.400  1.00  0.00     0.051 A 
ATOM     13  C   UNL A   1      31.493  28.177  23.253  1.00  0.00     0.161 A 
ATOM     14  C   UNL A   1      29.629  26.381  24.331  1.00  0.00     0.014 A 
ATOM     15  C   UNL A   1      31.888  27.181  24.154  1.00  0.00     0.060 A 
BRANCH  11  16
ATOM     16  O   UNL A   1      29.723  29.005  21.810  1.00  0.00    -0.493 OA
ATOM     17  C   UNL A   1      28.847  30.002  22.351  1.00  0.00     0.278 C 
ENDBRANCH  11  16
BRANCH  13  18
ATOM     18  O   UNL A   1      32.526  29.001  22.906  1.00  0.00    -0.493 OA
ATOM     19  C   UNL A   1      33.779  28.429  22.583  1.00  0.00     0.278 C 
ENDBRANCH  13  18
ENDBRANCH   9  10
BRANCH   9  20
ATOM     20  N   UNL A   1      30.546  24.746  26.506  1.00  0.00    -0.350 N 
ATOM     21  H   UNL A   1      29.634  25.137  26.265  1.00  0.00     0.345 HD
ATOM     22  H   UNL A   1      30.882  25.172  27.368  1.00  0.00     0.345 HD
ATOM     23  H   UNL A   1      30.460  23.738  26.634  1.00  0.00     0.345 HD
ENDBRANCH   9  20
ENDBRANCH   7   9
BRANCH   7  24
ATOM     24  C   UNL A   1      31.796  22.368  25.023  1.00  0.00     0.239 C 
ATOM     25  N   UNL A   1      32.181  21.330  24.224  1.00  0.00    -0.369 N 
ATOM     26  O   UNL A   1      31.136  22.061  26.014  1.00  0.00    -0.274 OA
ATOM     27  H   UNL A   1      32.710  21.504  23.413  1.00  0.00     0.159 HD
ATOM     28  H   UNL A   1      31.928  20.408  24.460  1.00  0.00     0.159 HD
ENDBRANCH   7  24
ENDBRANCH   4   7
ENDBRANCH   2   3
ENDBRANCH   1   2
BRANCH   1  29
ATOM     29  C   UNL A   1      35.724  21.319  25.428  1.00  0.00     0.023 C 
BRANCH  29  30
ATOM     30  C   UNL A   1      37.157  21.671  25.052  1.00  0.00     0.116 C 
BRANCH  30  31
ATOM     31  N   UNL A   1      38.109  20.649  25.460  1.00  0.00    -0.352 N 
ATOM     32  C   UNL A   1      39.341  20.795  26.052  1.00  0.00     0.251 C 
ATOM     33  H   UNL A   1      37.832  19.721  25.287  1.00  0.00     0.163 HD
ATOM     34  O   UNL A   1      40.089  19.825  26.153  1.00  0.00    -0.269 OA
BRANCH  32  35
ATOM     35  C   UNL A   1      39.765  22.125  26.533  1.00  0.00     0.039 A 
ATOM     36  C   UNL A   1      40.825  22.218  27.436  1.00  0.00     0.014 A 
ATOM     37  C   UNL A   1      39.139  23.281  26.060  1.00  0.00     0.014 A 
ATOM     38  C   UNL A   1      41.310  23.476  27.801  1.00  0.00     0.010 A 
ATOM     39  C   UNL A   1      39.687  24.527  26.346  1.00  0.00     0.010 A 
ATOM     40  C   UNL A   1      40.775  24.639  27.223  1.00  0.00    -0.014 A 
BRANCH  40  41
ATOM     41  C   UNL A   1      41.331  25.984  27.528  1.00  0.00     0.031 A 
ATOM     42  C   UNL A   1      42.704  26.356  27.037  1.00  0.00     0.074 A 
ATOM     43  C   UNL A   1      40.630  26.839  28.299  1.00  0.00     0.049 A 
ATOM     44  N   UNL A   1      43.397  27.442  27.260  1.00  0.00    -0.248 NA
ATOM     45  C   UNL A   1      43.405  25.357  26.216  1.00  0.00     0.031 C 
ATOM     46  C   UNL A   1      39.306  26.575  28.868  1.00  0.00     0.029 A 
ATOM     47  N   UNL A   1      40.932  28.103  28.741  1.00  0.00    -0.354 N 
ATOM     48  C   UNL A   1      44.618  27.251  26.621  1.00  0.00     0.074 A 
ATOM     49  C   UNL A   1      44.595  25.916  26.065  1.00  0.00     0.031 C 
ATOM     50  C   UNL A   1      38.896  27.656  29.551  1.00  0.00     0.029 A 
ATOM     51  C   UNL A   1      39.945  28.668  29.518  1.00  0.00     0.049 A 
ATOM     52  H   UNL A   1      41.774  28.562  28.524  1.00  0.00     0.167 HD
ATOM     53  C   UNL A   1      45.651  28.119  26.488  1.00  0.00     0.034 A 
ATOM     54  C   UNL A   1      39.897  29.864  30.141  1.00  0.00     0.034 A 
ATOM     55  C   UNL A   1      45.650  29.453  27.038  1.00  0.00     0.049 A 
ATOM     56  C   UNL A   1      41.073  30.799  30.006  1.00  0.00     0.074 A 
ATOM     57  C   UNL A   1      46.613  30.437  26.913  1.00  0.00     0.029 A 
ATOM     58  N   UNL A   1      44.638  29.987  27.826  1.00  0.00    -0.354 N 
ATOM     59  N   UNL A   1      42.198  30.624  29.350  1.00  0.00    -0.248 NA
ATOM     60  C   UNL A   1      40.969  32.094  30.689  1.00  0.00     0.031 C 
ATOM     61  C   UNL A   1      46.225  31.533  27.690  1.00  0.00     0.029 A 
ATOM     62  C   UNL A   1      44.974  31.271  28.227  1.00  0.00     0.049 A 
ATOM     63  H   UNL A   1      43.804  29.522  28.066  1.00  0.00     0.167 HD
ATOM     64  C   UNL A   1      42.918  31.805  29.512  1.00  0.00     0.074 A 
ATOM     65  C   UNL A   1      42.093  32.686  30.315  1.00  0.00     0.031 C 
ATOM     66  C   UNL A   1      44.146  32.136  29.036  1.00  0.00     0.034 A 
BRANCH  53  67
ATOM     67  C   UNL A   1      46.876  27.637  25.745  1.00  0.00     0.023 A 
ATOM     68  C   UNL A   1      47.120  27.996  24.408  1.00  0.00     0.031 A 
ATOM     69  C   UNL A   1      47.799  26.781  26.373  1.00  0.00     0.131 A 
ATOM     70  C   UNL A   1      48.208  27.438  23.718  1.00  0.00     0.055 A 
ATOM     71  C   UNL A   1      48.930  26.301  25.709  1.00  0.00     0.041 A 
ATOM     72  F   UNL A   1      47.609  26.382  27.640  1.00  0.00    -0.206 F 
ATOM     73  C   UNL A   1      49.131  26.615  24.368  1.00  0.00     0.022 A 
BRANCH  70  74
ATOM     74  S   UNL A   1      48.307  27.674  21.923  1.00  0.00     0.124 S 
ATOM     75  O   UNL A   1      48.455  26.299  21.452  1.00  0.00    -0.237 OA
ATOM     76  O   UNL A   1      47.036  28.320  21.619  1.00  0.00    -0.237 OA
ATOM     77  O   UNL A   1      49.491  28.514  21.752  1.00  0.00    -0.744 OA
ENDBRANCH  70  74
ENDBRANCH  53  67
BRANCH  54  78
ATOM     78  C   UNL A   1      38.705  30.250  30.951  1.00  0.00     0.023 A 
ATOM     79  C   UNL A   1      37.654  30.988  30.381  1.00  0.00     0.031 A 
ATOM     80  C   UNL A   1      38.620  29.936  32.319  1.00  0.00     0.131 A 
ATOM     81  C   UNL A   1      36.591  31.429  31.184  1.00  0.00     0.055 A 
ATOM     82  C   UNL A   1      37.532  30.325  33.101  1.00  0.00     0.041 A 
ATOM     83  F   UNL A   1      39.595  29.230  32.915  1.00  0.00    -0.206 F 
ATOM     84  C   UNL A   1      36.516  31.091  32.537  1.00  0.00     0.022 A 
BRANCH  81  85
ATOM     85  S   UNL A   1      35.356  32.540  30.456  1.00  0.00     0.124 S 
ATOM     86  O   UNL A   1      36.167  33.705  30.122  1.00  0.00    -0.237 OA
ATOM     87  O   UNL A   1      34.867  31.751  29.330  1.00  0.00    -0.237 OA
ATOM     88  O   UNL A   1      34.396  32.737  31.540  1.00  0.00    -0.744 OA
ENDBRANCH  81  85
ENDBRANCH  54  78
BRANCH  66  89
ATOM     89  C   UNL A   1      44.647  33.529  29.331  1.00  0.00     0.023 A 
ATOM     90  C   UNL A   1      44.217  34.646  28.592  1.00  0.00     0.031 A 
ATOM     91  C   UNL A   1      45.576  33.740  30.366  1.00  0.00     0.131 A 
ATOM     92  C   UNL A   1      44.763  35.911  28.858  1.00  0.00     0.055 A 
ATOM     93  C   UNL A   1      46.062  35.012  30.672  1.00  0.00     0.041 A 
ATOM     94  F   UNL A   1      46.024  32.711  31.102  1.00  0.00    -0.206 F 
ATOM     95  C   UNL A   1      45.666  36.105  29.906  1.00  0.00     0.022 A 
BRANCH  92  96
ATOM     96  S   UNL A   1      44.352  37.287  27.749  1.00  0.00     0.124 S 
ATOM     97  O   UNL A   1      45.672  37.804  27.408  1.00  0.00    -0.237 OA
ATOM     98  O   UNL A   1      43.632  36.615  26.671  1.00  0.00    -0.237 OA
ATOM     99  O   UNL A   1      43.536  38.167  28.583  1.00  0.00    -0.744 OA
ENDBRANCH  92  96
ENDBRANCH  66  89
ENDBRANCH  40  41
ENDBRANCH  32  35
ENDBRANCH  30  31
ENDBRANCH  29  30
ENDBRANCH   1  29
TORSDOF 20
ENDMDL
MODEL 2
REMARK VINA RESULT:     -11.2      4.942     10.234
REMARK SMILES COc1ccc([C@@H]([NH3+])[C@](C)(C(N)=O)C(=O)NCCCCNC(=O)c2ccc(-c3c4nc(c(-c5cc(S(=O)(=O)[O-])ccc5F)c5ccc([nH]5)c(-c5cc(S(=O)(=O)[O-])ccc5F)c5nc(c(-c6cc(S(=O)(=O)[O-])ccc6F)c6ccc3[nH]6)C=C5)C=C4)cc2)cc1OC
REMARK SMILES IDX 18 1 17 2 16 3 14 4 15 5 9 7 10 8 7 9 6 10 3 11 4 12 88 13
REMARK SMILES IDX 5 14 87 15 2 16 1 17 89 18 90 19 8 20 11 24 12 25 13 26
REMARK SMILES IDX 19 29 20 30 21 31 22 32 23 34 24 35 25 36 86 37 26 38 85 39
REMARK SMILES IDX 27 40 28 41 29 42 79 43 30 44 84 45 78 46 80 47 31 48 83 49
REMARK SMILES IDX 77 50 76 51 32 53 64 54 44 55 63 56 45 57 48 58 62 59 81 60
REMARK SMILES IDX 46 61 47 62 61 64 82 65 49 66 33 67 34 68 42 69 35 70 41 71
REMARK SMILES IDX 43 72 40 73 36 74 37 75 38 76 39 77 65 78 66 79 74 80 67 81
REMARK SMILES IDX 73 82 75 83 72 84 68 85 69 86 70 87 71 88 50 89 51 90 59 91
REMARK SMILES IDX 52 92 58 93 60 94 57 95 53 96 54 97 55 98 56 99
REMARK H PARENT 16 6 8 21 8 22 8 23 12 27 12 28 21 33 80 52 48 63
REMARK Flexibility Score: inf
ROOT
ATOM      1  C   UNL A   1      33.824  28.836  25.303  1.00  0.00     0.023 C 
ENDROOT
BRANCH   1   2
ATOM      2  C   UNL A   1      33.636  27.521  24.553  1.00  0.00     0.116 C 
BRANCH   2   3
ATOM      3  N   UNL A   1      32.783  26.561  25.242  1.00  0.00    -0.355 N 
ATOM      4  C   UNL A   1      31.899  25.644  24.741  1.00  0.00     0.241 C 
ATOM      5  O   UNL A   1      31.438  24.845  25.561  1.00  0.00    -0.274 OA
ATOM      6  H   UNL A   1      32.855  26.573  26.224  1.00  0.00     0.163 HD
BRANCH   4   7
ATOM      7  C   UNL A   1      31.489  25.620  23.257  1.00  0.00     0.180 C 
ATOM      8  C   UNL A   1      30.331  24.572  23.138  1.00  0.00     0.039 C 
BRANCH   7   9
ATOM      9  C   UNL A   1      32.693  25.061  22.379  1.00  0.00     0.237 C 
BRANCH   9  10
ATOM     10  C   UNL A   1      33.333  23.780  22.897  1.00  0.00     0.015 A 
ATOM     11  C   UNL A   1      34.400  21.583  24.265  1.00  0.00     0.160 A 
ATOM     12  C   UNL A   1      33.152  21.485  23.644  1.00  0.00     0.051 A 
ATOM     13  C   UNL A   1      35.198  22.715  24.070  1.00  0.00     0.161 A 
ATOM     14  C   UNL A   1      32.638  22.567  22.933  1.00  0.00     0.014 A 
ATOM     15  C   UNL A   1      34.645  23.808  23.392  1.00  0.00     0.060 A 
BRANCH  11  16
ATOM     16  O   UNL A   1      34.783  20.536  25.061  1.00  0.00    -0.493 OA
ATOM     17  C   UNL A   1      33.940  19.405  24.805  1.00  0.00     0.278 C 
ENDBRANCH  11  16
BRANCH  13  18
ATOM     18  O   UNL A   1      36.479  22.953  24.479  1.00  0.00    -0.493 OA
ATOM     19  C   UNL A   1      36.698  23.476  25.776  1.00  0.00     0.278 C 
ENDBRANCH  13  18
ENDBRANCH   9  10
BRANCH   9  20
ATOM     20  N   UNL A   1      32.517  24.926  20.922  1.00  0.00    -0.350 N 
ATOM     21  H   UNL A   1      32.375  25.849  20.510  1.00  0.00     0.345 HD
ATOM     22  H   UNL A   1      31.706  24.339  20.731  1.00  0.00     0.345 HD
ATOM     23  H   UNL A   1      33.350  24.498  20.518  1.00  0.00     0.345 HD
ENDBRANCH   9  20
ENDBRANCH   7   9
BRANCH   7  24
ATOM     24  C   UNL A   1      30.783  26.920  22.808  1.00  0.00     0.239 C 
ATOM     25  N   UNL A   1      29.867  27.491  23.643  1.00  0.00    -0.369 N 
ATOM     26  O   UNL A   1      30.858  27.411  21.683  1.00  0.00    -0.274 OA
ATOM     27  H   UNL A   1      29.752  27.147  24.558  1.00  0.00     0.159 HD
ATOM     28  H   UNL A   1      29.320  28.247  23.329  1.00  0.00     0.159 HD
ENDBRANCH   7  24
ENDBRANCH   4   7
ENDBRANCH   2   3
ENDBRANCH   1   2
BRANCH   1  29
ATOM     29  C   UNL A   1      32.618  29.767  25.298  1.00  0.00     0.023 C 
BRANCH  29  30
ATOM     30  C   UNL A   1      32.159  30.227  26.675  1.00  0.00     0.116 C 
BRANCH  30  31
ATOM     31  N   UNL A   1      32.159  31.676  26.810  1.00  0.00    -0.352 N 
ATOM     32  C   UNL A   1      33.054  32.490  27.461  1.00  0.00     0.251 C 
ATOM     33  H   UNL A   1      31.409  32.140  26.372  1.00  0.00     0.163 HD
ATOM     34  O   UNL A   1      32.790  33.679  27.630  1.00  0.00    -0.269 OA
BRANCH  32  35
ATOM     35  C   UNL A   1      34.313  31.919  27.979  1.00  0.00     0.039 A 
ATOM     36  C   UNL A   1      35.426  32.748  28.131  1.00  0.00     0.014 A 
ATOM     37  C   UNL A   1      34.380  30.574  28.352  1.00  0.00     0.014 A 
ATOM     38  C   UNL A   1      36.582  32.244  28.732  1.00  0.00     0.010 A 
ATOM     39  C   UNL A   1      35.493  30.105  29.040  1.00  0.00     0.010 A 
ATOM     40  C   UNL A   1      36.609  30.932  29.234  1.00  0.00    -0.014 A 
BRANCH  40  41
ATOM     41  C   UNL A   1      37.795  30.401  29.956  1.00  0.00     0.031 A 
ATOM     42  C   UNL A   1      38.057  30.819  31.378  1.00  0.00     0.074 A 
ATOM     43  C   UNL A   1      38.667  29.599  29.313  1.00  0.00     0.049 A 
ATOM     44  N   UNL A   1      39.070  30.533  32.153  1.00  0.00    -0.248 NA
ATOM     45  C   UNL A   1      37.062  31.709  31.997  1.00  0.00     0.031 C 
ATOM     46  C   UNL A   1      38.542  29.158  27.921  1.00  0.00     0.029 A 
ATOM     47  N   UNL A   1      39.833  29.014  29.740  1.00  0.00    -0.354 N 
ATOM     48  C   UNL A   1      38.843  31.217  33.343  1.00  0.00     0.074 A 
ATOM     49  C   UNL A   1      37.634  31.988  33.157  1.00  0.00     0.031 C 
ATOM     50  C   UNL A   1      39.568  28.344  27.623  1.00  0.00     0.029 A 
ATOM     51  C   UNL A   1      40.453  28.248  28.778  1.00  0.00     0.049 A 
ATOM     52  H   UNL A   1      40.191  29.131  30.648  1.00  0.00     0.167 HD
ATOM     53  C   UNL A   1      39.563  31.183  34.491  1.00  0.00     0.034 A 
ATOM     54  C   UNL A   1      41.609  27.555  28.822  1.00  0.00     0.034 A 
ATOM     55  C   UNL A   1      40.759  30.396  34.661  1.00  0.00     0.049 A 
ATOM     56  C   UNL A   1      42.410  27.560  30.100  1.00  0.00     0.074 A 
ATOM     57  C   UNL A   1      41.532  30.238  35.796  1.00  0.00     0.029 A 
ATOM     58  N   UNL A   1      41.363  29.640  33.663  1.00  0.00    -0.354 N 
ATOM     59  N   UNL A   1      42.151  28.167  31.236  1.00  0.00    -0.248 NA
ATOM     60  C   UNL A   1      43.653  26.780  30.105  1.00  0.00     0.031 C 
ATOM     61  C   UNL A   1      42.644  29.456  35.466  1.00  0.00     0.029 A 
ATOM     62  C   UNL A   1      42.519  29.048  34.148  1.00  0.00     0.049 A 
ATOM     63  H   UNL A   1      41.020  29.540  32.746  1.00  0.00     0.167 HD
ATOM     64  C   UNL A   1      43.183  27.810  32.100  1.00  0.00     0.074 A 
ATOM     65  C   UNL A   1      44.057  26.924  31.358  1.00  0.00     0.031 C 
ATOM     66  C   UNL A   1      43.387  28.174  33.392  1.00  0.00     0.034 A 
BRANCH  53  67
ATOM     67  C   UNL A   1      39.088  32.047  35.637  1.00  0.00     0.023 A 
ATOM     68  C   UNL A   1      39.507  33.381  35.784  1.00  0.00     0.031 A 
ATOM     69  C   UNL A   1      38.224  31.520  36.615  1.00  0.00     0.131 A 
ATOM     70  C   UNL A   1      39.133  34.114  36.920  1.00  0.00     0.055 A 
ATOM     71  C   UNL A   1      37.781  32.285  37.697  1.00  0.00     0.041 A 
ATOM     72  F   UNL A   1      37.808  30.246  36.545  1.00  0.00    -0.206 F 
ATOM     73  C   UNL A   1      38.250  33.585  37.864  1.00  0.00     0.022 A 
BRANCH  70  74
ATOM     74  S   UNL A   1      39.944  35.707  37.228  1.00  0.00     0.124 S 
ATOM     75  O   UNL A   1      41.335  35.299  37.413  1.00  0.00    -0.237 OA
ATOM     76  O   UNL A   1      39.653  36.450  36.008  1.00  0.00    -0.237 OA
ATOM     77  O   UNL A   1      39.282  36.201  38.433  1.00  0.00    -0.744 OA
ENDBRANCH  70  74
ENDBRANCH  53  67
BRANCH  54  78
ATOM     78  C   UNL A   1      42.088  26.801  27.626  1.00  0.00     0.023 A 
ATOM     79  C   UNL A   1      41.824  25.429  27.484  1.00  0.00     0.031 A 
ATOM     80  C   UNL A   1      42.861  27.428  26.632  1.00  0.00     0.131 A 
ATOM     81  C   UNL A   1      42.370  24.718  26.404  1.00  0.00     0.055 A 
ATOM     82  C   UNL A   1      43.352  26.729  25.528  1.00  0.00     0.041 A 
ATOM     83  F   UNL A   1      43.142  28.738  26.715  1.00  0.00    -0.206 F 
ATOM     84  C   UNL A   1      43.120  25.362  25.417  1.00  0.00     0.022 A 
BRANCH  81  85
ATOM     85  S   UNL A   1      42.168  22.916  26.361  1.00  0.00     0.124 S 
ATOM     86  O   UNL A   1      43.038  22.496  27.453  1.00  0.00    -0.237 OA
ATOM     87  O   UNL A   1      40.735  22.767  26.586  1.00  0.00    -0.237 OA
ATOM     88  O   UNL A   1      42.628  22.555  25.022  1.00  0.00    -0.744 OA
ENDBRANCH  81  85
ENDBRANCH  54  78
BRANCH  66  89
ATOM     89  C   UNL A   1      44.578  27.570  34.098  1.00  0.00     0.023 A 
ATOM     90  C   UNL A   1      44.491  26.352  34.794  1.00  0.00     0.031 A 
ATOM     91  C   UNL A   1      45.819  28.232  34.078  1.00  0.00     0.131 A 
ATOM     92  C   UNL A   1      45.607  25.865  35.492  1.00  0.00     0.055 A 
ATOM     93  C   UNL A   1      46.944  27.707  34.716  1.00  0.00     0.041 A 
ATOM     94  F   UNL A   1      45.960  29.401  33.433  1.00  0.00    -0.206 F 
ATOM     95  C   UNL A   1      46.837  26.523  35.440  1.00  0.00     0.022 A 
BRANCH  92  96
ATOM     96  S   UNL A   1      45.402  24.408  36.554  1.00  0.00     0.124 S 
ATOM     97  O   UNL A   1      46.784  23.995  36.769  1.00  0.00    -0.237 OA
ATOM     98  O   UNL A   1      44.713  24.962  37.715  1.00  0.00    -0.237 OA
ATOM     99  O   UNL A   1      44.602  23.498  35.735  1.00  0.00    -0.744 OA
ENDBRANCH  92  96
ENDBRANCH  66  89
ENDBRANCH  40  41
ENDBRANCH  32  35
ENDBRANCH  30  31
ENDBRANCH  29  30
ENDBRANCH   1  29
TORSDOF 20
ENDMDL
MODEL 3
REMARK VINA RESULT:     -11.1      5.624      8.809
REMARK SMILES COc1ccc([C@@H]([NH3+])[C@](C)(C(N)=O)C(=O)NCCCCNC(=O)c2ccc(-c3c4nc(c(-c5cc(S(=O)(=O)[O-])ccc5F)c5ccc([nH]5)c(-c5cc(S(=O)(=O)[O-])ccc5F)c5nc(c(-c6cc(S(=O)(=O)[O-])ccc6F)c6ccc3[nH]6)C=C5)C=C4)cc2)cc1OC
REMARK SMILES IDX 18 1 17 2 16 3 14 4 15 5 9 7 10 8 7 9 6 10 3 11 4 12 88 13
REMARK SMILES IDX 5 14 87 15 2 16 1 17 89 18 90 19 8 20 11 24 12 25 13 26
REMARK SMILES IDX 19 29 20 30 21 31 22 32 23 34 24 35 25 36 86 37 26 38 85 39
REMARK SMILES IDX 27 40 28 41 29 42 79 43 30 44 84 45 78 46 80 47 31 48 83 49
REMARK SMILES IDX 77 50 76 51 32 53 64 54 44 55 63 56 45 57 48 58 62 59 81 60
REMARK SMILES IDX 46 61 47 62 61 64 82 65 49 66 33 67 34 68 42 69 35 70 41 71
REMARK SMILES IDX 43 72 40 73 36 74 37 75 38 76 39 77 65 78 66 79 74 80 67 81
REMARK SMILES IDX 73 82 75 83 72 84 68 85 69 86 70 87 71 88 50 89 51 90 59 91
REMARK SMILES IDX 52 92 58 93 60 94 57 95 53 96 54 97 55 98 56 99
REMARK H PARENT 16 6 8 21 8 22 8 23 12 27 12 28 21 33 80 52 48 63
REMARK Flexibility Score: inf
ROOT
ATOM      1  C   UNL A   1      31.674  30.608  26.727  1.00  0.00     0.023 C 
ENDROOT
BRANCH   1   2
ATOM      2  C   UNL A   1      31.517  30.064  25.311  1.00  0.00     0.116 C 
BRANCH   2   3
ATOM      3  N   UNL A   1      32.779  29.804  24.630  1.00  0.00    -0.355 N 
ATOM      4  C   UNL A   1      33.058  28.990  23.567  1.00  0.00     0.241 C 
ATOM      5  O   UNL A   1      34.195  29.099  23.096  1.00  0.00    -0.274 OA
ATOM      6  H   UNL A   1      33.554  30.291  24.993  1.00  0.00     0.163 HD
BRANCH   4   7
ATOM      7  C   UNL A   1      32.033  27.990  23.002  1.00  0.00     0.180 C 
ATOM      8  C   UNL A   1      31.338  27.326  24.239  1.00  0.00     0.039 C 
BRANCH   7   9
ATOM      9  C   UNL A   1      32.793  26.822  22.233  1.00  0.00     0.237 C 
BRANCH   9  10
ATOM     10  C   UNL A   1      33.256  25.665  23.107  1.00  0.00     0.015 A 
ATOM     11  C   UNL A   1      34.439  23.484  24.403  1.00  0.00     0.160 A 
ATOM     12  C   UNL A   1      34.663  24.782  24.868  1.00  0.00     0.051 A 
ATOM     13  C   UNL A   1      33.496  23.247  23.398  1.00  0.00     0.161 A 
ATOM     14  C   UNL A   1      34.045  25.864  24.244  1.00  0.00     0.014 A 
ATOM     15  C   UNL A   1      32.921  24.349  22.754  1.00  0.00     0.060 A 
BRANCH  11  16
ATOM     16  O   UNL A   1      35.183  22.483  24.971  1.00  0.00    -0.493 OA
ATOM     17  C   UNL A   1      34.791  22.308  26.338  1.00  0.00     0.278 C 
ENDBRANCH  11  16
BRANCH  13  18
ATOM     18  O   UNL A   1      33.045  22.060  22.896  1.00  0.00    -0.493 OA
ATOM     19  C   UNL A   1      32.238  21.232  23.714  1.00  0.00     0.278 C 
ENDBRANCH  13  18
ENDBRANCH   9  10
BRANCH   9  20
ATOM     20  N   UNL A   1      32.193  26.258  21.010  1.00  0.00    -0.350 N 
ATOM     21  H   UNL A   1      32.755  26.528  20.201  1.00  0.00     0.345 HD
ATOM     22  H   UNL A   1      31.245  26.617  20.901  1.00  0.00     0.345 HD
ATOM     23  H   UNL A   1      32.167  25.242  21.083  1.00  0.00     0.345 HD
ENDBRANCH   9  20
ENDBRANCH   7   9
BRANCH   7  24
ATOM     24  C   UNL A   1      30.838  28.683  22.307  1.00  0.00     0.239 C 
ATOM     25  N   UNL A   1      31.060  29.839  21.617  1.00  0.00    -0.369 N 
ATOM     26  O   UNL A   1      29.658  28.365  22.449  1.00  0.00    -0.274 OA
ATOM     27  H   UNL A   1      31.981  30.153  21.467  1.00  0.00     0.159 HD
ATOM     28  H   UNL A   1      30.299  30.358  21.270  1.00  0.00     0.159 HD
ENDBRANCH   7  24
ENDBRANCH   4   7
ENDBRANCH   2   3
ENDBRANCH   1   2
BRANCH   1  29
ATOM     29  C   UNL A   1      31.504  32.117  26.868  1.00  0.00     0.023 C 
BRANCH  29  30
ATOM     30  C   UNL A   1      32.804  32.894  27.025  1.00  0.00     0.116 C 
BRANCH  30  31
ATOM     31  N   UNL A   1      32.619  34.157  27.725  1.00  0.00    -0.352 N 
ATOM     32  C   UNL A   1      33.258  34.632  28.846  1.00  0.00     0.251 C 
ATOM     33  H   UNL A   1      31.939  34.756  27.342  1.00  0.00     0.163 HD
ATOM     34  O   UNL A   1      32.838  35.641  29.407  1.00  0.00    -0.269 OA
BRANCH  32  35
ATOM     35  C   UNL A   1      34.426  33.904  29.382  1.00  0.00     0.039 A 
ATOM     36  C   UNL A   1      35.710  34.345  29.058  1.00  0.00     0.014 A 
ATOM     37  C   UNL A   1      34.249  32.812  30.235  1.00  0.00     0.014 A 
ATOM     38  C   UNL A   1      36.817  33.738  29.656  1.00  0.00     0.010 A 
ATOM     39  C   UNL A   1      35.344  32.277  30.903  1.00  0.00     0.010 A 
ATOM     40  C   UNL A   1      36.641  32.730  30.619  1.00  0.00    -0.014 A 
BRANCH  40  41
ATOM     41  C   UNL A   1      37.798  32.129  31.334  1.00  0.00     0.031 A 
ATOM     42  C   UNL A   1      38.586  31.023  30.686  1.00  0.00     0.074 A 
ATOM     43  C   UNL A   1      38.095  32.532  32.586  1.00  0.00     0.049 A 
ATOM     44  N   UNL A   1      39.575  30.317  31.170  1.00  0.00    -0.248 NA
ATOM     45  C   UNL A   1      38.184  30.635  29.325  1.00  0.00     0.031 C 
ATOM     46  C   UNL A   1      37.377  33.568  33.334  1.00  0.00     0.029 A 
ATOM     47  N   UNL A   1      39.075  32.119  33.453  1.00  0.00    -0.354 N 
ATOM     48  C   UNL A   1      39.902  29.394  30.182  1.00  0.00     0.074 A 
ATOM     49  C   UNL A   1      38.958  29.585  29.103  1.00  0.00     0.031 C 
ATOM     50  C   UNL A   1      37.963  33.733  34.530  1.00  0.00     0.029 A 
ATOM     51  C   UNL A   1      39.061  32.782  34.661  1.00  0.00     0.049 A 
ATOM     52  H   UNL A   1      39.726  31.416  33.233  1.00  0.00     0.167 HD
ATOM     53  C   UNL A   1      40.912  28.490  30.167  1.00  0.00     0.034 A 
ATOM     54  C   UNL A   1      39.840  32.632  35.752  1.00  0.00     0.034 A 
ATOM     55  C   UNL A   1      41.853  28.325  31.247  1.00  0.00     0.049 A 
ATOM     56  C   UNL A   1      40.936  31.596  35.723  1.00  0.00     0.074 A 
ATOM     57  C   UNL A   1      42.950  27.486  31.313  1.00  0.00     0.029 A 
ATOM     58  N   UNL A   1      41.802  29.006  32.457  1.00  0.00    -0.354 N 
ATOM     59  N   UNL A   1      41.268  30.770  34.756  1.00  0.00    -0.248 NA
ATOM     60  C   UNL A   1      41.767  31.479  36.926  1.00  0.00     0.031 C 
ATOM     61  C   UNL A   1      43.513  27.598  32.588  1.00  0.00     0.029 A 
ATOM     62  C   UNL A   1      42.825  28.576  33.289  1.00  0.00     0.049 A 
ATOM     63  H   UNL A   1      41.137  29.694  32.690  1.00  0.00     0.167 HD
ATOM     64  C   UNL A   1      42.371  30.061  35.226  1.00  0.00     0.074 A 
ATOM     65  C   UNL A   1      42.654  30.569  36.554  1.00  0.00     0.031 C 
ATOM     66  C   UNL A   1      43.090  29.085  34.615  1.00  0.00     0.034 A 
BRANCH  53  67
ATOM     67  C   UNL A   1      41.027  27.595  28.954  1.00  0.00     0.023 A 
ATOM     68  C   UNL A   1      42.021  27.790  27.980  1.00  0.00     0.031 A 
ATOM     69  C   UNL A   1      40.111  26.546  28.754  1.00  0.00     0.131 A 
ATOM     70  C   UNL A   1      42.026  27.009  26.814  1.00  0.00     0.055 A 
ATOM     71  C   UNL A   1      40.177  25.713  27.635  1.00  0.00     0.041 A 
ATOM     72  F   UNL A   1      39.124  26.323  29.635  1.00  0.00    -0.206 F 
ATOM     73  C   UNL A   1      41.128  25.953  26.648  1.00  0.00     0.022 A 
BRANCH  70  74
ATOM     74  S   UNL A   1      43.118  27.497  25.450  1.00  0.00     0.124 S 
ATOM     75  O   UNL A   1      43.558  26.198  24.945  1.00  0.00    -0.237 OA
ATOM     76  O   UNL A   1      42.221  28.250  24.582  1.00  0.00    -0.237 OA
ATOM     77  O   UNL A   1      44.158  28.285  26.109  1.00  0.00    -0.744 OA
ENDBRANCH  70  74
ENDBRANCH  53  67
BRANCH  54  78
ATOM     78  C   UNL A   1      39.617  33.472  36.964  1.00  0.00     0.023 A 
ATOM     79  C   UNL A   1      40.387  34.623  37.196  1.00  0.00     0.031 A 
ATOM     80  C   UNL A   1      38.669  33.109  37.938  1.00  0.00     0.131 A 
ATOM     81  C   UNL A   1      40.232  35.342  38.391  1.00  0.00     0.055 A 
ATOM     82  C   UNL A   1      38.477  33.861  39.098  1.00  0.00     0.041 A 
ATOM     83  F   UNL A   1      37.903  32.019  37.767  1.00  0.00    -0.206 F 
ATOM     84  C   UNL A   1      39.272  34.977  39.338  1.00  0.00     0.022 A 
BRANCH  81  85
ATOM     85  S   UNL A   1      41.376  36.706  38.739  1.00  0.00     0.124 S 
ATOM     86  O   UNL A   1      41.992  36.915  37.433  1.00  0.00    -0.237 OA
ATOM     87  O   UNL A   1      40.468  37.753  39.196  1.00  0.00    -0.237 OA
ATOM     88  O   UNL A   1      42.258  36.157  39.766  1.00  0.00    -0.744 OA
ENDBRANCH  81  85
ENDBRANCH  54  78
BRANCH  66  89
ATOM     89  C   UNL A   1      44.284  28.540  35.361  1.00  0.00     0.023 A 
ATOM     90  C   UNL A   1      44.206  27.369  36.137  1.00  0.00     0.031 A 
ATOM     91  C   UNL A   1      45.520  29.209  35.300  1.00  0.00     0.131 A 
ATOM     92  C   UNL A   1      45.324  26.939  36.867  1.00  0.00     0.055 A 
ATOM     93  C   UNL A   1      46.648  28.738  35.973  1.00  0.00     0.041 A 
ATOM     94  F   UNL A   1      45.652  30.334  34.578  1.00  0.00    -0.206 F 
ATOM     95  C   UNL A   1      46.549  27.603  36.774  1.00  0.00     0.022 A 
BRANCH  92  96
ATOM     96  S   UNL A   1      45.128  25.555  38.023  1.00  0.00     0.124 S 
ATOM     97  O   UNL A   1      44.564  24.521  37.163  1.00  0.00    -0.237 OA
ATOM     98  O   UNL A   1      46.498  25.330  38.476  1.00  0.00    -0.237 OA
ATOM     99  O   UNL A   1      44.218  26.082  39.038  1.00  0.00    -0.744 OA
ENDBRANCH  92  96
ENDBRANCH  66  89
ENDBRANCH  40  41
ENDBRANCH  32  35
ENDBRANCH  30  31
ENDBRANCH  29  30
ENDBRANCH   1  29
TORSDOF 20
ENDMDL
