MODEL 1
REMARK VINA RESULT:     -11.2      0.000      0.000
REMARK SMILES COC(=O)c1ccccc1-c1ccc(/C=C(\C#N)C(=O)NCCCCNC(=O)c2ccc(-c3c4nc(c(-c5cc(S(=O)(=O)[O-])ccc5F)c5ccc([nH]5)c(-c5cc(S(=O)(=O)[O-])ccc5F)c5nc(c(-c6cc(S(=O)(=O)[O-])ccc6F)c6ccc3[nH]6)C=C5)C=C4)cc2)o1
REMARK SMILES IDX 23 1 22 2 21 3 19 4 20 5 16 7 15 8 14 9 11 10 12 11 92 12
REMARK SMILES IDX 13 13 10 14 5 15 6 16 7 17 9 18 8 19 3 20 4 21 2 22 1 23
REMARK SMILES IDX 17 24 18 25 24 26 25 27 26 28 27 29 28 31 29 32 30 33 91 34
REMARK SMILES IDX 31 35 90 36 32 37 33 38 34 39 84 40 35 41 89 42 83 43 85 44
REMARK SMILES IDX 36 45 88 46 82 47 81 48 37 50 69 51 49 52 68 53 50 54 53 55
REMARK SMILES IDX 67 56 86 57 51 58 52 59 66 61 87 62 54 63 38 64 39 65 47 66
REMARK SMILES IDX 40 67 46 68 48 69 45 70 41 71 42 72 43 73 44 74 70 75 71 76
REMARK SMILES IDX 79 77 72 78 78 79 80 80 77 81 73 82 74 83 75 84 76 85 55 86
REMARK SMILES IDX 56 87 64 88 57 89 63 90 65 91 62 92 58 93 59 94 60 95 61 96
REMARK H PARENT 21 6 26 30 85 49 53 60
REMARK Flexibility Score: inf
ROOT
ATOM      1  C   UNL A   1      36.971  20.781  25.020  1.00  0.00     0.023 C 
ENDROOT
BRANCH   1   2
ATOM      2  C   UNL A   1      35.741  21.377  25.705  1.00  0.00     0.116 C 
BRANCH   2   3
ATOM      3  N   UNL A   1      34.662  20.407  25.791  1.00  0.00    -0.351 N 
ATOM      4  C   UNL A   1      33.314  20.507  25.644  1.00  0.00     0.262 C 
ATOM      5  O   UNL A   1      32.662  19.467  25.772  1.00  0.00    -0.268 OA
ATOM      6  H   UNL A   1      34.969  19.494  25.999  1.00  0.00     0.163 HD
BRANCH   4   7
ATOM      7  C   UNL A   1      32.618  21.791  25.329  1.00  0.00     0.120 C 
ATOM      8  C   UNL A   1      32.209  22.548  26.370  1.00  0.00     0.072 C 
BRANCH   8   9
ATOM      9  C   UNL A   1      31.515  23.792  26.254  1.00  0.00     0.129 A 
ATOM     10  C   UNL A   1      31.147  25.989  26.087  1.00  0.00     0.135 A 
ATOM     11  C   UNL A   1      29.907  25.400  26.156  1.00  0.00     0.051 A 
ATOM     12  O   UNL A   1      32.109  25.029  26.117  1.00  0.00    -0.457 OA
ATOM     13  C   UNL A   1      30.139  24.008  26.259  1.00  0.00     0.051 A 
BRANCH  10  14
ATOM     14  C   UNL A   1      31.610  27.370  26.013  1.00  0.00     0.032 A 
ATOM     15  C   UNL A   1      31.915  28.004  24.794  1.00  0.00     0.071 A 
ATOM     16  C   UNL A   1      32.472  29.294  24.777  1.00  0.00     0.016 A 
ATOM     17  C   UNL A   1      32.703  29.974  25.971  1.00  0.00     0.001 A 
ATOM     18  C   UNL A   1      31.829  28.083  27.203  1.00  0.00     0.013 A 
ATOM     19  C   UNL A   1      32.374  29.372  27.183  1.00  0.00     0.001 A 
BRANCH  15  20
ATOM     20  C   UNL A   1      31.690  27.368  23.481  1.00  0.00     0.338 C 
ATOM     21  O   UNL A   1      32.596  26.990  22.751  1.00  0.00    -0.246 OA
BRANCH  20  22
ATOM     22  O   UNL A   1      30.367  27.349  23.202  1.00  0.00    -0.465 OA
ATOM     23  C   UNL A   1      29.864  28.573  22.667  1.00  0.00     0.282 C 
ENDBRANCH  20  22
ENDBRANCH  15  20
ENDBRANCH  10  14
ENDBRANCH   8   9
BRANCH   7  24
ATOM     24  C   UNL A   1      32.340  22.223  23.899  1.00  0.00     0.105 C 
ATOM     25  N   UNL A   1      32.110  22.582  22.712  1.00  0.00    -0.192 NA
ENDBRANCH   7  24
ENDBRANCH   4   7
ENDBRANCH   2   3
ENDBRANCH   1   2
BRANCH   1  26
ATOM     26  C   UNL A   1      38.204  21.685  25.097  1.00  0.00     0.023 C 
BRANCH  26  27
ATOM     27  C   UNL A   1      39.121  21.404  26.282  1.00  0.00     0.116 C 
BRANCH  27  28
ATOM     28  N   UNL A   1      39.868  20.160  26.161  1.00  0.00    -0.352 N 
ATOM     29  C   UNL A   1      41.239  20.015  26.176  1.00  0.00     0.251 C 
ATOM     30  H   UNL A   1      39.340  19.337  26.057  1.00  0.00     0.163 HD
ATOM     31  O   UNL A   1      41.765  18.933  25.954  1.00  0.00    -0.269 OA
BRANCH  29  32
ATOM     32  C   UNL A   1      42.050  21.223  26.426  1.00  0.00     0.039 A 
ATOM     33  C   UNL A   1      42.338  22.082  25.365  1.00  0.00     0.014 A 
ATOM     34  C   UNL A   1      42.390  21.562  27.738  1.00  0.00     0.014 A 
ATOM     35  C   UNL A   1      42.911  23.326  25.633  1.00  0.00     0.010 A 
ATOM     36  C   UNL A   1      42.880  22.832  28.006  1.00  0.00     0.010 A 
ATOM     37  C   UNL A   1      43.147  23.728  26.958  1.00  0.00    -0.014 A 
BRANCH  37  38
ATOM     38  C   UNL A   1      43.701  25.067  27.287  1.00  0.00     0.031 A 
ATOM     39  C   UNL A   1      42.792  26.110  27.876  1.00  0.00     0.074 A 
ATOM     40  C   UNL A   1      44.978  25.371  26.981  1.00  0.00     0.049 A 
ATOM     41  N   UNL A   1      43.015  27.381  28.090  1.00  0.00    -0.248 NA
ATOM     42  C   UNL A   1      41.436  25.667  28.236  1.00  0.00     0.031 C 
ATOM     43  C   UNL A   1      45.952  24.451  26.390  1.00  0.00     0.029 A 
ATOM     44  N   UNL A   1      45.675  26.547  27.112  1.00  0.00    -0.354 N 
ATOM     45  C   UNL A   1      41.822  27.892  28.592  1.00  0.00     0.074 A 
ATOM     46  C   UNL A   1      40.862  26.810  28.578  1.00  0.00     0.031 C 
ATOM     47  C   UNL A   1      47.122  25.091  26.231  1.00  0.00     0.029 A 
ATOM     48  C   UNL A   1      46.970  26.481  26.650  1.00  0.00     0.049 A 
ATOM     49  H   UNL A   1      45.284  27.363  27.501  1.00  0.00     0.167 HD
ATOM     50  C   UNL A   1      41.561  29.142  29.045  1.00  0.00     0.034 A 
ATOM     51  C   UNL A   1      47.917  27.437  26.555  1.00  0.00     0.034 A 
ATOM     52  C   UNL A   1      42.535  30.203  29.064  1.00  0.00     0.049 A 
ATOM     53  C   UNL A   1      47.588  28.837  27.017  1.00  0.00     0.074 A 
ATOM     54  C   UNL A   1      42.392  31.496  29.533  1.00  0.00     0.029 A 
ATOM     55  N   UNL A   1      43.836  30.096  28.586  1.00  0.00    -0.354 N 
ATOM     56  N   UNL A   1      46.462  29.301  27.511  1.00  0.00    -0.248 NA
ATOM     57  C   UNL A   1      48.656  29.841  26.915  1.00  0.00     0.031 C 
ATOM     58  C   UNL A   1      43.576  32.192  29.273  1.00  0.00     0.029 A 
ATOM     59  C   UNL A   1      44.493  31.308  28.725  1.00  0.00     0.049 A 
ATOM     60  H   UNL A   1      44.233  29.280  28.205  1.00  0.00     0.167 HD
ATOM     61  C   UNL A   1      46.706  30.637  27.822  1.00  0.00     0.074 A 
ATOM     62  C   UNL A   1      48.082  30.903  27.460  1.00  0.00     0.031 C 
ATOM     63  C   UNL A   1      45.870  31.557  28.368  1.00  0.00     0.034 A 
BRANCH  50  64
ATOM     64  C   UNL A   1      40.160  29.423  29.532  1.00  0.00     0.023 A 
ATOM     65  C   UNL A   1      39.858  29.518  30.902  1.00  0.00     0.031 A 
ATOM     66  C   UNL A   1      39.101  29.565  28.616  1.00  0.00     0.131 A 
ATOM     67  C   UNL A   1      38.528  29.659  31.319  1.00  0.00     0.055 A 
ATOM     68  C   UNL A   1      37.791  29.802  29.035  1.00  0.00     0.041 A 
ATOM     69  F   UNL A   1      39.321  29.461  27.296  1.00  0.00    -0.206 F 
ATOM     70  C   UNL A   1      37.494  29.832  30.395  1.00  0.00     0.022 A 
BRANCH  67  71
ATOM     71  S   UNL A   1      38.149  29.452  33.080  1.00  0.00     0.124 S 
ATOM     72  O   UNL A   1      37.321  28.248  33.062  1.00  0.00    -0.237 OA
ATOM     73  O   UNL A   1      39.473  29.309  33.674  1.00  0.00    -0.237 OA
ATOM     74  O   UNL A   1      37.439  30.682  33.424  1.00  0.00    -0.744 OA
ENDBRANCH  67  71
ENDBRANCH  50  64
BRANCH  51  75
ATOM     75  C   UNL A   1      49.262  27.122  25.990  1.00  0.00     0.023 A 
ATOM     76  C   UNL A   1      50.341  26.800  26.829  1.00  0.00     0.031 A 
ATOM     77  C   UNL A   1      49.507  27.196  24.607  1.00  0.00     0.131 A 
ATOM     78  C   UNL A   1      51.623  26.621  26.288  1.00  0.00     0.055 A 
ATOM     79  C   UNL A   1      50.773  26.956  24.066  1.00  0.00     0.041 A 
ATOM     80  F   UNL A   1      48.514  27.500  23.755  1.00  0.00    -0.206 F 
ATOM     81  C   UNL A   1      51.843  26.682  24.910  1.00  0.00     0.022 A 
BRANCH  78  82
ATOM     82  S   UNL A   1      53.024  26.416  27.422  1.00  0.00     0.124 S 
ATOM     83  O   UNL A   1      52.344  26.211  28.696  1.00  0.00    -0.237 OA
ATOM     84  O   UNL A   1      53.701  25.252  26.860  1.00  0.00    -0.237 OA
ATOM     85  O   UNL A   1      53.750  27.679  27.297  1.00  0.00    -0.744 OA
ENDBRANCH  78  82
ENDBRANCH  51  75
BRANCH  63  86
ATOM     86  C   UNL A   1      46.442  32.917  28.684  1.00  0.00     0.023 A 
ATOM     87  C   UNL A   1      46.383  33.986  27.773  1.00  0.00     0.031 A 
ATOM     88  C   UNL A   1      47.036  33.149  29.938  1.00  0.00     0.131 A 
ATOM     89  C   UNL A   1      46.943  35.226  28.115  1.00  0.00     0.055 A 
ATOM     90  C   UNL A   1      47.536  34.401  30.296  1.00  0.00     0.041 A 
ATOM     91  F   UNL A   1      47.123  32.163  30.846  1.00  0.00    -0.206 F 
ATOM     92  C   UNL A   1      47.501  35.446  29.379  1.00  0.00     0.022 A 
BRANCH  89  93
ATOM     93  S   UNL A   1      47.004  36.535  26.861  1.00  0.00     0.124 S 
ATOM     94  O   UNL A   1      47.786  37.566  27.537  1.00  0.00    -0.237 OA
ATOM     95  O   UNL A   1      47.662  35.867  25.743  1.00  0.00    -0.237 OA
ATOM     96  O   UNL A   1      45.598  36.867  26.642  1.00  0.00    -0.744 OA
ENDBRANCH  89  93
ENDBRANCH  63  86
ENDBRANCH  37  38
ENDBRANCH  29  32
ENDBRANCH  27  28
ENDBRANCH  26  27
ENDBRANCH   1  26
TORSDOF 19
ENDMDL
MODEL 2
REMARK VINA RESULT:     -10.8      0.937      7.513
REMARK SMILES COC(=O)c1ccccc1-c1ccc(/C=C(\C#N)C(=O)NCCCCNC(=O)c2ccc(-c3c4nc(c(-c5cc(S(=O)(=O)[O-])ccc5F)c5ccc([nH]5)c(-c5cc(S(=O)(=O)[O-])ccc5F)c5nc(c(-c6cc(S(=O)(=O)[O-])ccc6F)c6ccc3[nH]6)C=C5)C=C4)cc2)o1
REMARK SMILES IDX 23 1 22 2 21 3 19 4 20 5 16 7 15 8 14 9 11 10 12 11 92 12
REMARK SMILES IDX 13 13 10 14 5 15 6 16 7 17 9 18 8 19 3 20 4 21 2 22 1 23
REMARK SMILES IDX 17 24 18 25 24 26 25 27 26 28 27 29 28 31 29 32 30 33 91 34
REMARK SMILES IDX 31 35 90 36 32 37 33 38 34 39 84 40 35 41 89 42 83 43 85 44
REMARK SMILES IDX 36 45 88 46 82 47 81 48 37 50 69 51 49 52 68 53 50 54 53 55
REMARK SMILES IDX 67 56 86 57 51 58 52 59 66 61 87 62 54 63 38 64 39 65 47 66
REMARK SMILES IDX 40 67 46 68 48 69 45 70 41 71 42 72 43 73 44 74 70 75 71 76
REMARK SMILES IDX 79 77 72 78 78 79 80 80 77 81 73 82 74 83 75 84 76 85 55 86
REMARK SMILES IDX 56 87 64 88 57 89 63 90 65 91 62 92 58 93 59 94 60 95 61 96
REMARK H PARENT 21 6 26 30 85 49 53 60
REMARK Flexibility Score: inf
ROOT
ATOM      1  C   UNL A   1      37.844  22.156  24.832  1.00  0.00     0.023 C 
ENDROOT
BRANCH   1   2
ATOM      2  C   UNL A   1      36.401  22.150  24.329  1.00  0.00     0.116 C 
BRANCH   2   3
ATOM      3  N   UNL A   1      35.705  20.939  24.733  1.00  0.00    -0.351 N 
ATOM      4  C   UNL A   1      34.391  20.649  24.929  1.00  0.00     0.262 C 
ATOM      5  O   UNL A   1      34.122  19.493  25.268  1.00  0.00    -0.268 OA
ATOM      6  H   UNL A   1      36.306  20.177  24.898  1.00  0.00     0.163 HD
BRANCH   4   7
ATOM      7  C   UNL A   1      33.295  21.647  24.742  1.00  0.00     0.120 C 
ATOM      8  C   UNL A   1      33.004  22.453  25.785  1.00  0.00     0.072 C 
BRANCH   8   9
ATOM      9  C   UNL A   1      31.978  23.449  25.788  1.00  0.00     0.129 A 
ATOM     10  C   UNL A   1      30.907  25.368  25.388  1.00  0.00     0.135 A 
ATOM     11  C   UNL A   1      30.076  24.630  26.196  1.00  0.00     0.051 A 
ATOM     12  O   UNL A   1      32.033  24.655  25.120  1.00  0.00    -0.457 OA
ATOM     13  C   UNL A   1      30.752  23.412  26.447  1.00  0.00     0.051 A 
BRANCH  10  14
ATOM     14  C   UNL A   1      30.834  26.705  24.811  1.00  0.00     0.032 A 
ATOM     15  C   UNL A   1      31.334  27.845  25.469  1.00  0.00     0.071 A 
ATOM     16  C   UNL A   1      31.135  29.128  24.932  1.00  0.00     0.016 A 
ATOM     17  C   UNL A   1      30.460  29.285  23.723  1.00  0.00     0.001 A 
ATOM     18  C   UNL A   1      30.177  26.885  23.582  1.00  0.00     0.013 A 
ATOM     19  C   UNL A   1      29.988  28.164  23.044  1.00  0.00     0.001 A 
BRANCH  15  20
ATOM     20  C   UNL A   1      32.075  27.774  26.744  1.00  0.00     0.338 C 
ATOM     21  O   UNL A   1      31.531  27.769  27.840  1.00  0.00    -0.246 OA
BRANCH  20  22
ATOM     22  O   UNL A   1      33.405  27.796  26.503  1.00  0.00    -0.465 OA
ATOM     23  C   UNL A   1      34.117  28.795  27.231  1.00  0.00     0.282 C 
ENDBRANCH  20  22
ENDBRANCH  15  20
ENDBRANCH  10  14
ENDBRANCH   8   9
BRANCH   7  24
ATOM     24  C   UNL A   1      32.505  21.737  23.447  1.00  0.00     0.105 C 
ATOM     25  N   UNL A   1      31.850  21.812  22.372  1.00  0.00    -0.192 NA
ENDBRANCH   7  24
ENDBRANCH   4   7
ENDBRANCH   2   3
ENDBRANCH   1   2
BRANCH   1  26
ATOM     26  C   UNL A   1      38.306  20.797  25.364  1.00  0.00     0.023 C 
BRANCH  26  27
ATOM     27  C   UNL A   1      39.491  20.863  26.320  1.00  0.00     0.116 C 
BRANCH  27  28
ATOM     28  N   UNL A   1      40.404  19.735  26.197  1.00  0.00    -0.352 N 
ATOM     29  C   UNL A   1      41.781  19.785  26.178  1.00  0.00     0.251 C 
ATOM     30  H   UNL A   1      39.996  18.844  26.119  1.00  0.00     0.163 HD
ATOM     31  O   UNL A   1      42.450  18.784  25.958  1.00  0.00    -0.269 OA
BRANCH  29  32
ATOM     32  C   UNL A   1      42.419  21.100  26.390  1.00  0.00     0.039 A 
ATOM     33  C   UNL A   1      42.679  21.916  25.288  1.00  0.00     0.014 A 
ATOM     34  C   UNL A   1      42.617  21.565  27.691  1.00  0.00     0.014 A 
ATOM     35  C   UNL A   1      43.075  23.238  25.499  1.00  0.00     0.010 A 
ATOM     36  C   UNL A   1      42.929  22.902  27.896  1.00  0.00     0.010 A 
ATOM     37  C   UNL A   1      43.161  23.753  26.802  1.00  0.00    -0.014 A 
BRANCH  37  38
ATOM     38  C   UNL A   1      43.523  25.171  27.065  1.00  0.00     0.031 A 
ATOM     39  C   UNL A   1      44.950  25.607  26.881  1.00  0.00     0.074 A 
ATOM     40  C   UNL A   1      42.603  26.032  27.543  1.00  0.00     0.049 A 
ATOM     41  N   UNL A   1      45.520  26.739  27.201  1.00  0.00    -0.248 NA
ATOM     42  C   UNL A   1      45.866  24.616  26.294  1.00  0.00     0.031 C 
ATOM     43  C   UNL A   1      41.192  25.723  27.781  1.00  0.00     0.029 A 
ATOM     44  N   UNL A   1      42.722  27.344  27.930  1.00  0.00    -0.354 N 
ATOM     45  C   UNL A   1      46.863  26.590  26.871  1.00  0.00     0.074 A 
ATOM     46  C   UNL A   1      47.032  25.234  26.397  1.00  0.00     0.031 C 
ATOM     47  C   UNL A   1      40.574  26.818  28.251  1.00  0.00     0.029 A 
ATOM     48  C   UNL A   1      41.552  27.892  28.407  1.00  0.00     0.049 A 
ATOM     49  H   UNL A   1      43.566  27.848  27.873  1.00  0.00     0.167 HD
ATOM     50  C   UNL A   1      47.858  27.509  26.934  1.00  0.00     0.034 A 
ATOM     51  C   UNL A   1      41.303  29.110  28.930  1.00  0.00     0.034 A 
ATOM     52  C   UNL A   1      47.667  28.860  27.396  1.00  0.00     0.049 A 
ATOM     53  C   UNL A   1      42.437  30.101  29.040  1.00  0.00     0.074 A 
ATOM     54  C   UNL A   1      48.592  29.885  27.468  1.00  0.00     0.029 A 
ATOM     55  N   UNL A   1      46.466  29.376  27.871  1.00  0.00    -0.354 N 
ATOM     56  N   UNL A   1      43.698  29.955  28.702  1.00  0.00    -0.248 NA
ATOM     57  C   UNL A   1      42.116  31.423  29.595  1.00  0.00     0.031 C 
ATOM     58  C   UNL A   1      47.975  30.994  28.054  1.00  0.00     0.029 A 
ATOM     59  C   UNL A   1      46.639  30.694  28.263  1.00  0.00     0.049 A 
ATOM     60  H   UNL A   1      45.619  28.878  27.922  1.00  0.00     0.167 HD
ATOM     61  C   UNL A   1      44.306  31.181  28.960  1.00  0.00     0.074 A 
ATOM     62  C   UNL A   1      43.276  32.054  29.481  1.00  0.00     0.031 C 
ATOM     63  C   UNL A   1      45.598  31.555  28.773  1.00  0.00     0.034 A 
BRANCH  50  64
ATOM     64  C   UNL A   1      49.238  27.066  26.513  1.00  0.00     0.023 A 
ATOM     65  C   UNL A   1      50.263  26.851  27.452  1.00  0.00     0.031 A 
ATOM     66  C   UNL A   1      49.547  26.887  25.153  1.00  0.00     0.131 A 
ATOM     67  C   UNL A   1      51.562  26.557  27.016  1.00  0.00     0.055 A 
ATOM     68  C   UNL A   1      50.820  26.501  24.731  1.00  0.00     0.041 A 
ATOM     69  F   UNL A   1      48.618  27.101  24.207  1.00  0.00    -0.206 F 
ATOM     70  C   UNL A   1      51.843  26.351  25.663  1.00  0.00     0.022 A 
BRANCH  67  71
ATOM     71  S   UNL A   1      52.910  26.608  28.227  1.00  0.00     0.124 S 
ATOM     72  O   UNL A   1      53.192  28.041  28.294  1.00  0.00    -0.237 OA
ATOM     73  O   UNL A   1      52.295  26.021  29.411  1.00  0.00    -0.237 OA
ATOM     74  O   UNL A   1      53.960  25.803  27.605  1.00  0.00    -0.744 OA
ENDBRANCH  67  71
ENDBRANCH  50  64
BRANCH  51  75
ATOM     75  C   UNL A   1      39.934  29.469  29.406  1.00  0.00     0.023 A 
ATOM     76  C   UNL A   1      39.646  29.551  30.778  1.00  0.00     0.031 A 
ATOM     77  C   UNL A   1      38.878  29.677  28.501  1.00  0.00     0.131 A 
ATOM     78  C   UNL A   1      38.329  29.776  31.207  1.00  0.00     0.055 A 
ATOM     79  C   UNL A   1      37.581  29.963  28.931  1.00  0.00     0.041 A 
ATOM     80  F   UNL A   1      39.094  29.611  27.177  1.00  0.00    -0.206 F 
ATOM     81  C   UNL A   1      37.297  29.997  30.292  1.00  0.00     0.022 A 
BRANCH  78  82
ATOM     82  S   UNL A   1      37.963  29.665  32.980  1.00  0.00     0.124 S 
ATOM     83  O   UNL A   1      37.318  28.360  33.067  1.00  0.00    -0.237 OA
ATOM     84  O   UNL A   1      39.293  29.766  33.571  1.00  0.00    -0.237 OA
ATOM     85  O   UNL A   1      37.087  30.811  33.218  1.00  0.00    -0.744 OA
ENDBRANCH  78  82
ENDBRANCH  51  75
BRANCH  63  86
ATOM     86  C   UNL A   1      45.955  32.994  29.056  1.00  0.00     0.023 A 
ATOM     87  C   UNL A   1      45.968  33.976  28.050  1.00  0.00     0.031 A 
ATOM     88  C   UNL A   1      46.262  33.390  30.371  1.00  0.00     0.131 A 
ATOM     89  C   UNL A   1      46.321  35.296  28.369  1.00  0.00     0.055 A 
ATOM     90  C   UNL A   1      46.551  34.716  30.693  1.00  0.00     0.041 A 
ATOM     91  F   UNL A   1      46.267  32.493  31.371  1.00  0.00    -0.206 F 
ATOM     92  C   UNL A   1      46.592  35.676  29.687  1.00  0.00     0.022 A 
BRANCH  89  93
ATOM     93  S   UNL A   1      46.496  36.503  27.027  1.00  0.00     0.124 S 
ATOM     94  O   UNL A   1      45.923  35.782  25.893  1.00  0.00    -0.237 OA
ATOM     95  O   UNL A   1      45.716  37.634  27.521  1.00  0.00    -0.237 OA
ATOM     96  O   UNL A   1      47.937  36.730  26.953  1.00  0.00    -0.744 OA
ENDBRANCH  89  93
ENDBRANCH  63  86
ENDBRANCH  37  38
ENDBRANCH  29  32
ENDBRANCH  27  28
ENDBRANCH  26  27
ENDBRANCH   1  26
TORSDOF 19
ENDMDL
MODEL 3
REMARK VINA RESULT:     -10.8      5.666     11.132
REMARK SMILES COC(=O)c1ccccc1-c1ccc(/C=C(\C#N)C(=O)NCCCCNC(=O)c2ccc(-c3c4nc(c(-c5cc(S(=O)(=O)[O-])ccc5F)c5ccc([nH]5)c(-c5cc(S(=O)(=O)[O-])ccc5F)c5nc(c(-c6cc(S(=O)(=O)[O-])ccc6F)c6ccc3[nH]6)C=C5)C=C4)cc2)o1
REMARK SMILES IDX 23 1 22 2 21 3 19 4 20 5 16 7 15 8 14 9 11 10 12 11 92 12
REMARK SMILES IDX 13 13 10 14 5 15 6 16 7 17 9 18 8 19 3 20 4 21 2 22 1 23
REMARK SMILES IDX 17 24 18 25 24 26 25 27 26 28 27 29 28 31 29 32 30 33 91 34
REMARK SMILES IDX 31 35 90 36 32 37 33 38 34 39 84 40 35 41 89 42 83 43 85 44
REMARK SMILES IDX 36 45 88 46 82 47 81 48 37 50 69 51 49 52 68 53 50 54 53 55
REMARK SMILES IDX 67 56 86 57 51 58 52 59 66 61 87 62 54 63 38 64 39 65 47 66
REMARK SMILES IDX 40 67 46 68 48 69 45 70 41 71 42 72 43 73 44 74 70 75 71 76
REMARK SMILES IDX 79 77 72 78 78 79 80 80 77 81 73 82 74 83 75 84 76 85 55 86
REMARK SMILES IDX 56 87 64 88 57 89 63 90 65 91 62 92 58 93 59 94 60 95 61 96
REMARK H PARENT 21 6 26 30 85 49 53 60
REMARK Flexibility Score: inf
ROOT
ATOM      1  C   UNL A   1      32.479  30.303  25.726  1.00  0.00     0.023 C 
ENDROOT
BRANCH   1   2
ATOM      2  C   UNL A   1      31.066  29.834  25.378  1.00  0.00     0.116 C 
BRANCH   2   3
ATOM      3  N   UNL A   1      30.781  30.017  23.964  1.00  0.00    -0.351 N 
ATOM      4  C   UNL A   1      30.837  29.180  22.893  1.00  0.00     0.262 C 
ATOM      5  O   UNL A   1      30.512  29.654  21.801  1.00  0.00    -0.268 OA
ATOM      6  H   UNL A   1      30.491  30.930  23.736  1.00  0.00     0.163 HD
BRANCH   4   7
ATOM      7  C   UNL A   1      31.252  27.749  22.993  1.00  0.00     0.120 C 
ATOM      8  C   UNL A   1      30.475  26.927  23.731  1.00  0.00     0.072 C 
BRANCH   8   9
ATOM      9  C   UNL A   1      30.730  25.537  23.949  1.00  0.00     0.129 A 
ATOM     10  C   UNL A   1      31.594  23.667  24.812  1.00  0.00     0.135 A 
ATOM     11  C   UNL A   1      30.779  23.268  23.778  1.00  0.00     0.051 A 
ATOM     12  O   UNL A   1      31.545  25.020  24.934  1.00  0.00    -0.457 OA
ATOM     13  C   UNL A   1      30.229  24.453  23.233  1.00  0.00     0.051 A 
BRANCH  10  14
ATOM     14  C   UNL A   1      32.470  22.962  25.740  1.00  0.00     0.032 A 
ATOM     15  C   UNL A   1      33.367  21.959  25.324  1.00  0.00     0.071 A 
ATOM     16  C   UNL A   1      34.106  21.222  26.266  1.00  0.00     0.016 A 
ATOM     17  C   UNL A   1      33.979  21.497  27.626  1.00  0.00     0.001 A 
ATOM     18  C   UNL A   1      32.376  23.237  27.114  1.00  0.00     0.013 A 
ATOM     19  C   UNL A   1      33.121  22.509  28.049  1.00  0.00     0.001 A 
BRANCH  15  20
ATOM     20  C   UNL A   1      33.578  21.611  23.905  1.00  0.00     0.338 C 
ATOM     21  O   UNL A   1      34.070  22.376  23.089  1.00  0.00    -0.246 OA
BRANCH  20  22
ATOM     22  O   UNL A   1      33.078  20.378  23.658  1.00  0.00    -0.465 OA
ATOM     23  C   UNL A   1      32.194  20.317  22.540  1.00  0.00     0.282 C 
ENDBRANCH  20  22
ENDBRANCH  15  20
ENDBRANCH  10  14
ENDBRANCH   8   9
BRANCH   7  24
ATOM     24  C   UNL A   1      32.516  27.231  22.327  1.00  0.00     0.105 C 
ATOM     25  N   UNL A   1      33.565  26.802  21.774  1.00  0.00    -0.192 NA
ENDBRANCH   7  24
ENDBRANCH   4   7
ENDBRANCH   2   3
ENDBRANCH   1   2
BRANCH   1  26
ATOM     26  C   UNL A   1      32.636  30.718  27.190  1.00  0.00     0.023 C 
BRANCH  26  27
ATOM     27  C   UNL A   1      33.663  31.819  27.428  1.00  0.00     0.116 C 
BRANCH  27  28
ATOM     28  N   UNL A   1      33.074  33.138  27.618  1.00  0.00    -0.352 N 
ATOM     29  C   UNL A   1      33.414  34.063  28.580  1.00  0.00     0.251 C 
ATOM     30  H   UNL A   1      32.358  33.394  26.995  1.00  0.00     0.163 HD
ATOM     31  O   UNL A   1      32.775  35.099  28.719  1.00  0.00    -0.269 OA
BRANCH  29  32
ATOM     32  C   UNL A   1      34.550  33.740  29.466  1.00  0.00     0.039 A 
ATOM     33  C   UNL A   1      34.348  32.879  30.546  1.00  0.00     0.014 A 
ATOM     34  C   UNL A   1      35.830  34.182  29.129  1.00  0.00     0.014 A 
ATOM     35  C   UNL A   1      35.454  32.401  31.250  1.00  0.00     0.010 A 
ATOM     36  C   UNL A   1      36.930  33.638  29.777  1.00  0.00     0.010 A 
ATOM     37  C   UNL A   1      36.755  32.742  30.845  1.00  0.00    -0.014 A 
BRANCH  37  38
ATOM     38  C   UNL A   1      37.958  32.206  31.533  1.00  0.00     0.031 A 
ATOM     39  C   UNL A   1      38.749  31.109  30.875  1.00  0.00     0.074 A 
ATOM     40  C   UNL A   1      38.287  32.636  32.767  1.00  0.00     0.049 A 
ATOM     41  N   UNL A   1      39.728  30.388  31.355  1.00  0.00    -0.248 NA
ATOM     42  C   UNL A   1      38.354  30.752  29.502  1.00  0.00     0.031 C 
ATOM     43  C   UNL A   1      37.588  33.681  33.516  1.00  0.00     0.029 A 
ATOM     44  N   UNL A   1      39.289  32.236  33.617  1.00  0.00    -0.354 N 
ATOM     45  C   UNL A   1      40.053  29.480  30.352  1.00  0.00     0.074 A 
ATOM     46  C   UNL A   1      39.118  29.696  29.270  1.00  0.00     0.031 C 
ATOM     47  C   UNL A   1      38.193  33.853  34.703  1.00  0.00     0.029 A 
ATOM     48  C   UNL A   1      39.286  32.893  34.827  1.00  0.00     0.049 A 
ATOM     49  H   UNL A   1      39.948  31.543  33.384  1.00  0.00     0.167 HD
ATOM     50  C   UNL A   1      41.056  28.569  30.328  1.00  0.00     0.034 A 
ATOM     51  C   UNL A   1      40.062  32.724  35.918  1.00  0.00     0.034 A 
ATOM     52  C   UNL A   1      41.987  28.378  31.411  1.00  0.00     0.049 A 
ATOM     53  C   UNL A   1      41.140  31.667  35.889  1.00  0.00     0.074 A 
ATOM     54  C   UNL A   1      43.062  27.511  31.480  1.00  0.00     0.029 A 
ATOM     55  N   UNL A   1      41.951  29.063  32.620  1.00  0.00    -0.354 N 
ATOM     56  N   UNL A   1      41.451  30.831  34.925  1.00  0.00    -0.248 NA
ATOM     57  C   UNL A   1      41.974  31.532  37.091  1.00  0.00     0.031 C 
ATOM     58  C   UNL A   1      43.629  27.616  32.754  1.00  0.00     0.029 A 
ATOM     59  C   UNL A   1      42.967  28.616  33.448  1.00  0.00     0.049 A 
ATOM     60  H   UNL A   1      41.299  29.763  32.854  1.00  0.00     0.167 HD
ATOM     61  C   UNL A   1      42.547  30.107  35.389  1.00  0.00     0.074 A 
ATOM     62  C   UNL A   1      42.841  30.604  36.716  1.00  0.00     0.031 C 
ATOM     63  C   UNL A   1      43.254  29.128  34.768  1.00  0.00     0.034 A 
BRANCH  50  64
ATOM     64  C   UNL A   1      41.173  27.700  29.098  1.00  0.00     0.023 A 
ATOM     65  C   UNL A   1      42.189  27.900  28.147  1.00  0.00     0.031 A 
ATOM     66  C   UNL A   1      40.236  26.680  28.854  1.00  0.00     0.131 A 
ATOM     67  C   UNL A   1      42.193  27.153  26.960  1.00  0.00     0.055 A 
ATOM     68  C   UNL A   1      40.302  25.876  27.715  1.00  0.00     0.041 A 
ATOM     69  F   UNL A   1      39.229  26.457  29.713  1.00  0.00    -0.206 F 
ATOM     70  C   UNL A   1      41.275  26.122  26.750  1.00  0.00     0.022 A 
BRANCH  67  71
ATOM     71  S   UNL A   1      43.315  27.659  25.628  1.00  0.00     0.124 S 
ATOM     72  O   UNL A   1      42.377  27.927  24.540  1.00  0.00    -0.237 OA
ATOM     73  O   UNL A   1      43.981  28.824  26.200  1.00  0.00    -0.237 OA
ATOM     74  O   UNL A   1      44.165  26.487  25.433  1.00  0.00    -0.744 OA
ENDBRANCH  67  71
ENDBRANCH  50  64
BRANCH  51  75
ATOM     75  C   UNL A   1      39.850  33.557  37.139  1.00  0.00     0.023 A 
ATOM     76  C   UNL A   1      40.628  34.702  37.376  1.00  0.00     0.031 A 
ATOM     77  C   UNL A   1      38.908  33.190  38.117  1.00  0.00     0.131 A 
ATOM     78  C   UNL A   1      40.492  35.405  38.583  1.00  0.00     0.055 A 
ATOM     79  C   UNL A   1      38.734  33.928  39.290  1.00  0.00     0.041 A 
ATOM     80  F   UNL A   1      38.136  32.105  37.945  1.00  0.00    -0.206 F 
ATOM     81  C   UNL A   1      39.540  35.035  39.535  1.00  0.00     0.022 A 
BRANCH  78  82
ATOM     82  S   UNL A   1      41.658  36.748  38.940  1.00  0.00     0.124 S 
ATOM     83  O   UNL A   1      42.498  36.144  39.968  1.00  0.00    -0.237 OA
ATOM     84  O   UNL A   1      42.285  36.958  37.639  1.00  0.00    -0.237 OA
ATOM     85  O   UNL A   1      40.794  37.835  39.398  1.00  0.00    -0.744 OA
ENDBRANCH  78  82
ENDBRANCH  51  75
BRANCH  63  86
ATOM     86  C   UNL A   1      44.466  28.583  35.484  1.00  0.00     0.023 A 
ATOM     87  C   UNL A   1      44.382  27.519  36.399  1.00  0.00     0.031 A 
ATOM     88  C   UNL A   1      45.736  29.128  35.219  1.00  0.00     0.131 A 
ATOM     89  C   UNL A   1      45.540  27.062  37.045  1.00  0.00     0.055 A 
ATOM     90  C   UNL A   1      46.892  28.629  35.817  1.00  0.00     0.041 A 
ATOM     91  F   UNL A   1      45.875  30.148  34.356  1.00  0.00    -0.206 F 
ATOM     92  C   UNL A   1      46.797  27.596  36.745  1.00  0.00     0.022 A 
BRANCH  89  93
ATOM     93  S   UNL A   1      45.379  25.805  38.343  1.00  0.00     0.124 S 
ATOM     94  O   UNL A   1      46.697  25.176  38.321  1.00  0.00    -0.237 OA
ATOM     95  O   UNL A   1      45.079  26.611  39.523  1.00  0.00    -0.237 OA
ATOM     96  O   UNL A   1      44.282  24.963  37.873  1.00  0.00    -0.744 OA
ENDBRANCH  89  93
ENDBRANCH  63  86
ENDBRANCH  37  38
ENDBRANCH  29  32
ENDBRANCH  27  28
ENDBRANCH  26  27
ENDBRANCH   1  26
TORSDOF 19
ENDMDL
