MODEL 1
REMARK VINA RESULT:     -10.8      0.000      0.000
REMARK SMILES CC(C)(C(=O)NCCCCNC(=O)c1ccc(-c2c3nc(c(-c4cc(S(=O)(=O)[O-])ccc4F)c4ccc([nH]4)c(-c4cc(S(=O)(=O)[O-])ccc4F)c4nc(c(-c5cc(S(=O)(=O)[O-])ccc5F)c5ccc2[nH]5)C=C4)C=C3)cc1)n1cccc1
REMARK SMILES IDX 9 1 8 2 7 3 6 4 4 5 5 6 2 8 1 9 3 10 77 11 78 12 81 13 79 14
REMARK SMILES IDX 80 15 10 16 11 17 12 18 13 20 14 21 15 22 76 23 16 24 75 25
REMARK SMILES IDX 17 26 18 27 19 28 69 29 20 30 74 31 68 32 70 33 21 34 73 35
REMARK SMILES IDX 67 36 66 37 22 39 54 40 34 41 53 42 35 43 38 44 52 45 71 46
REMARK SMILES IDX 36 47 37 48 51 50 72 51 39 52 23 53 24 54 32 55 25 56 31 57
REMARK SMILES IDX 33 58 30 59 26 60 27 61 28 62 29 63 55 64 56 65 64 66 57 67
REMARK SMILES IDX 63 68 65 69 62 70 58 71 59 72 60 73 61 74 40 75 41 76 49 77
REMARK SMILES IDX 42 78 48 79 50 80 47 81 43 82 44 83 45 84 46 85
REMARK H PARENT 6 7 11 19 70 38 38 49
REMARK Flexibility Score: inf
ROOT
ATOM      1  C   UNL A   1      31.948  31.366  26.834  1.00  0.00     0.023 C 
ENDROOT
BRANCH   1   2
ATOM      2  C   UNL A   1      32.221  29.865  26.729  1.00  0.00     0.023 C 
BRANCH   2   3
ATOM      3  C   UNL A   1      32.912  29.426  25.440  1.00  0.00     0.116 C 
BRANCH   3   4
ATOM      4  N   UNL A   1      32.070  29.623  24.275  1.00  0.00    -0.354 N 
ATOM      5  C   UNL A   1      31.659  28.797  23.270  1.00  0.00     0.245 C 
ATOM      6  O   UNL A   1      30.907  29.327  22.445  1.00  0.00    -0.272 OA
ATOM      7  H   UNL A   1      31.725  30.540  24.193  1.00  0.00     0.163 HD
BRANCH   5   8
ATOM      8  C   UNL A   1      32.074  27.300  23.172  1.00  0.00     0.117 C 
ATOM      9  C   UNL A   1      31.455  26.625  21.927  1.00  0.00     0.045 C 
ATOM     10  C   UNL A   1      33.613  27.192  23.095  1.00  0.00     0.045 C 
BRANCH   8  11
ATOM     11  N   UNL A   1      31.574  26.573  24.382  1.00  0.00    -0.340 N 
ATOM     12  C   UNL A   1      30.271  26.503  24.826  1.00  0.00     0.086 A 
ATOM     13  C   UNL A   1      32.361  25.864  25.268  1.00  0.00     0.086 A 
ATOM     14  C   UNL A   1      30.245  25.799  26.009  1.00  0.00     0.019 A 
ATOM     15  C   UNL A   1      31.566  25.395  26.289  1.00  0.00     0.019 A 
ENDBRANCH   8  11
ENDBRANCH   5   8
ENDBRANCH   3   4
ENDBRANCH   2   3
ENDBRANCH   1   2
BRANCH   1  16
ATOM     16  C   UNL A   1      33.111  32.215  27.340  1.00  0.00     0.116 C 
BRANCH  16  17
ATOM     17  N   UNL A   1      32.740  33.595  27.612  1.00  0.00    -0.352 N 
ATOM     18  C   UNL A   1      33.252  34.461  28.549  1.00  0.00     0.251 C 
ATOM     19  H   UNL A   1      32.022  33.961  27.046  1.00  0.00     0.163 HD
ATOM     20  O   UNL A   1      32.731  35.561  28.711  1.00  0.00    -0.269 OA
BRANCH  18  21
ATOM     21  C   UNL A   1      34.399  34.044  29.384  1.00  0.00     0.039 A 
ATOM     22  C   UNL A   1      34.165  33.227  30.493  1.00  0.00     0.014 A 
ATOM     23  C   UNL A   1      35.702  34.430  29.058  1.00  0.00     0.014 A 
ATOM     24  C   UNL A   1      35.244  32.733  31.228  1.00  0.00     0.010 A 
ATOM     25  C   UNL A   1      36.779  33.882  29.750  1.00  0.00     0.010 A 
ATOM     26  C   UNL A   1      36.561  33.021  30.838  1.00  0.00    -0.014 A 
BRANCH  26  27
ATOM     27  C   UNL A   1      37.725  32.427  31.547  1.00  0.00     0.031 A 
ATOM     28  C   UNL A   1      38.502  31.306  30.913  1.00  0.00     0.074 A 
ATOM     29  C   UNL A   1      38.038  32.851  32.788  1.00  0.00     0.049 A 
ATOM     30  N   UNL A   1      39.480  30.592  31.408  1.00  0.00    -0.248 NA
ATOM     31  C   UNL A   1      38.103  30.918  29.552  1.00  0.00     0.031 C 
ATOM     32  C   UNL A   1      37.332  33.902  33.525  1.00  0.00     0.029 A 
ATOM     33  N   UNL A   1      39.020  32.443  33.655  1.00  0.00    -0.354 N 
ATOM     34  C   UNL A   1      39.808  29.664  30.425  1.00  0.00     0.074 A 
ATOM     35  C   UNL A   1      38.880  29.869  29.332  1.00  0.00     0.031 C 
ATOM     36  C   UNL A   1      37.912  34.064  34.725  1.00  0.00     0.029 A 
ATOM     37  C   UNL A   1      39.003  33.104  34.861  1.00  0.00     0.049 A 
ATOM     38  H   UNL A   1      39.676  31.742  33.434  1.00  0.00     0.167 HD
ATOM     39  C   UNL A   1      40.805  28.745  30.424  1.00  0.00     0.034 A 
ATOM     40  C   UNL A   1      39.768  32.945  35.960  1.00  0.00     0.034 A 
ATOM     41  C   UNL A   1      41.726  28.559  31.519  1.00  0.00     0.049 A 
ATOM     42  C   UNL A   1      40.863  31.909  35.941  1.00  0.00     0.074 A 
ATOM     43  C   UNL A   1      42.793  27.682  31.609  1.00  0.00     0.029 A 
ATOM     44  N   UNL A   1      41.691  29.262  32.717  1.00  0.00    -0.354 N 
ATOM     45  N   UNL A   1      41.180  31.061  34.991  1.00  0.00    -0.248 NA
ATOM     46  C   UNL A   1      41.710  31.819  37.137  1.00  0.00     0.031 C 
ATOM     47  C   UNL A   1      43.365  27.813  32.880  1.00  0.00     0.029 A 
ATOM     48  C   UNL A   1      42.703  28.824  33.557  1.00  0.00     0.049 A 
ATOM     49  H   UNL A   1      41.042  29.968  32.937  1.00  0.00     0.167 HD
ATOM     50  C   UNL A   1      42.281  30.354  35.466  1.00  0.00     0.074 A 
ATOM     51  C   UNL A   1      42.582  30.887  36.779  1.00  0.00     0.031 C 
ATOM     52  C   UNL A   1      42.984  29.357  34.869  1.00  0.00     0.034 A 
BRANCH  39  53
ATOM     53  C   UNL A   1      40.930  27.863  29.206  1.00  0.00     0.023 A 
ATOM     54  C   UNL A   1      41.931  28.079  28.242  1.00  0.00     0.031 A 
ATOM     55  C   UNL A   1      40.025  26.810  28.987  1.00  0.00     0.131 A 
ATOM     56  C   UNL A   1      41.957  27.307  27.071  1.00  0.00     0.055 A 
ATOM     57  C   UNL A   1      40.106  25.990  27.859  1.00  0.00     0.041 A 
ATOM     58  F   UNL A   1      39.035  26.567  29.862  1.00  0.00    -0.206 F 
ATOM     59  C   UNL A   1      41.067  26.247  26.885  1.00  0.00     0.022 A 
BRANCH  56  60
ATOM     60  S   UNL A   1      43.079  27.797  25.735  1.00  0.00     0.124 S 
ATOM     61  O   UNL A   1      43.853  28.859  26.376  1.00  0.00    -0.237 OA
ATOM     62  O   UNL A   1      43.801  26.560  25.458  1.00  0.00    -0.237 OA
ATOM     63  O   UNL A   1      42.178  28.245  24.676  1.00  0.00    -0.744 OA
ENDBRANCH  56  60
ENDBRANCH  39  53
BRANCH  40  64
ATOM     64  C   UNL A   1      39.521  33.772  37.176  1.00  0.00     0.023 A 
ATOM     65  C   UNL A   1      38.810  33.258  38.270  1.00  0.00     0.031 A 
ATOM     66  C   UNL A   1      39.967  35.104  37.244  1.00  0.00     0.131 A 
ATOM     67  C   UNL A   1      38.528  34.082  39.371  1.00  0.00     0.055 A 
ATOM     68  C   UNL A   1      39.726  35.905  38.362  1.00  0.00     0.041 A 
ATOM     69  F   UNL A   1      40.660  35.641  36.228  1.00  0.00    -0.206 F 
ATOM     70  C   UNL A   1      38.992  35.398  39.429  1.00  0.00     0.022 A 
BRANCH  67  71
ATOM     71  S   UNL A   1      37.479  33.430  40.699  1.00  0.00     0.124 S 
ATOM     72  O   UNL A   1      37.146  34.643  41.438  1.00  0.00    -0.237 OA
ATOM     73  O   UNL A   1      36.387  32.816  39.948  1.00  0.00    -0.237 OA
ATOM     74  O   UNL A   1      38.356  32.493  41.397  1.00  0.00    -0.744 OA
ENDBRANCH  67  71
ENDBRANCH  40  64
BRANCH  52  75
ATOM     75  C   UNL A   1      44.172  28.812  35.621  1.00  0.00     0.023 A 
ATOM     76  C   UNL A   1      44.051  27.742  36.525  1.00  0.00     0.031 A 
ATOM     77  C   UNL A   1      45.445  29.380  35.435  1.00  0.00     0.131 A 
ATOM     78  C   UNL A   1      45.172  27.307  37.248  1.00  0.00     0.055 A 
ATOM     79  C   UNL A   1      46.568  28.906  36.114  1.00  0.00     0.041 A 
ATOM     80  F   UNL A   1      45.617  30.406  34.585  1.00  0.00    -0.206 F 
ATOM     81  C   UNL A   1      46.432  27.872  37.036  1.00  0.00     0.022 A 
BRANCH  78  82
ATOM     82  S   UNL A   1      44.946  26.049  38.534  1.00  0.00     0.124 S 
ATOM     83  O   UNL A   1      46.320  25.628  38.791  1.00  0.00    -0.237 OA
ATOM     84  O   UNL A   1      44.301  26.806  39.601  1.00  0.00    -0.237 OA
ATOM     85  O   UNL A   1      44.101  25.046  37.889  1.00  0.00    -0.744 OA
ENDBRANCH  78  82
ENDBRANCH  52  75
ENDBRANCH  26  27
ENDBRANCH  18  21
ENDBRANCH  16  17
ENDBRANCH   1  16
TORSDOF 15
ENDMDL
MODEL 2
REMARK VINA RESULT:     -10.7      2.655      8.558
REMARK SMILES CC(C)(C(=O)NCCCCNC(=O)c1ccc(-c2c3nc(c(-c4cc(S(=O)(=O)[O-])ccc4F)c4ccc([nH]4)c(-c4cc(S(=O)(=O)[O-])ccc4F)c4nc(c(-c5cc(S(=O)(=O)[O-])ccc5F)c5ccc2[nH]5)C=C4)C=C3)cc1)n1cccc1
REMARK SMILES IDX 9 1 8 2 7 3 6 4 4 5 5 6 2 8 1 9 3 10 77 11 78 12 81 13 79 14
REMARK SMILES IDX 80 15 10 16 11 17 12 18 13 20 14 21 15 22 76 23 16 24 75 25
REMARK SMILES IDX 17 26 18 27 19 28 69 29 20 30 74 31 68 32 70 33 21 34 73 35
REMARK SMILES IDX 67 36 66 37 22 39 54 40 34 41 53 42 35 43 38 44 52 45 71 46
REMARK SMILES IDX 36 47 37 48 51 50 72 51 39 52 23 53 24 54 32 55 25 56 31 57
REMARK SMILES IDX 33 58 30 59 26 60 27 61 28 62 29 63 55 64 56 65 64 66 57 67
REMARK SMILES IDX 63 68 65 69 62 70 58 71 59 72 60 73 61 74 40 75 41 76 49 77
REMARK SMILES IDX 42 78 48 79 50 80 47 81 43 82 44 83 45 84 46 85
REMARK H PARENT 6 7 11 19 70 38 38 49
REMARK Flexibility Score: inf
ROOT
ATOM      1  C   UNL A   1      31.938  29.337  25.466  1.00  0.00     0.023 C 
ENDROOT
BRANCH   1   2
ATOM      2  C   UNL A   1      32.215  29.058  23.987  1.00  0.00     0.023 C 
BRANCH   2   3
ATOM      3  C   UNL A   1      33.593  28.469  23.693  1.00  0.00     0.116 C 
BRANCH   3   4
ATOM      4  N   UNL A   1      33.590  27.645  22.498  1.00  0.00    -0.354 N 
ATOM      5  C   UNL A   1      33.405  26.310  22.285  1.00  0.00     0.245 C 
ATOM      6  O   UNL A   1      33.450  25.969  21.097  1.00  0.00    -0.272 OA
ATOM      7  H   UNL A   1      33.754  28.154  21.672  1.00  0.00     0.163 HD
BRANCH   5   8
ATOM      8  C   UNL A   1      33.133  25.293  23.431  1.00  0.00     0.117 C 
ATOM      9  C   UNL A   1      33.100  23.843  22.898  1.00  0.00     0.045 C 
ATOM     10  C   UNL A   1      34.237  25.413  24.504  1.00  0.00     0.045 C 
BRANCH   8  11
ATOM     11  N   UNL A   1      31.798  25.587  24.041  1.00  0.00    -0.340 N 
ATOM     12  C   UNL A   1      30.633  25.898  23.372  1.00  0.00     0.086 A 
ATOM     13  C   UNL A   1      31.528  25.613  25.394  1.00  0.00     0.086 A 
ATOM     14  C   UNL A   1      29.651  26.167  24.299  1.00  0.00     0.019 A 
ATOM     15  C   UNL A   1      30.217  25.987  25.578  1.00  0.00     0.019 A 
ENDBRANCH   8  11
ENDBRANCH   5   8
ENDBRANCH   3   4
ENDBRANCH   2   3
ENDBRANCH   1   2
BRANCH   1  16
ATOM     16  C   UNL A   1      33.136  29.809  26.285  1.00  0.00     0.116 C 
BRANCH  16  17
ATOM     17  N   UNL A   1      32.998  31.173  26.772  1.00  0.00    -0.352 N 
ATOM     18  C   UNL A   1      33.821  31.878  27.617  1.00  0.00     0.251 C 
ATOM     19  H   UNL A   1      32.204  31.659  26.450  1.00  0.00     0.163 HD
ATOM     20  O   UNL A   1      33.481  32.990  28.011  1.00  0.00    -0.269 OA
BRANCH  18  21
ATOM     21  C   UNL A   1      35.089  31.273  28.080  1.00  0.00     0.039 A 
ATOM     22  C   UNL A   1      36.242  32.062  28.107  1.00  0.00     0.014 A 
ATOM     23  C   UNL A   1      35.135  29.946  28.514  1.00  0.00     0.014 A 
ATOM     24  C   UNL A   1      37.422  31.544  28.643  1.00  0.00     0.010 A 
ATOM     25  C   UNL A   1      36.293  29.453  29.109  1.00  0.00     0.010 A 
ATOM     26  C   UNL A   1      37.447  30.250  29.188  1.00  0.00    -0.014 A 
BRANCH  26  27
ATOM     27  C   UNL A   1      38.665  29.714  29.851  1.00  0.00     0.031 A 
ATOM     28  C   UNL A   1      39.093  30.251  31.189  1.00  0.00     0.074 A 
ATOM     29  C   UNL A   1      39.419  28.794  29.216  1.00  0.00     0.049 A 
ATOM     30  N   UNL A   1      40.171  29.987  31.880  1.00  0.00    -0.248 NA
ATOM     31  C   UNL A   1      38.202  31.239  31.815  1.00  0.00     0.031 C 
ATOM     32  C   UNL A   1      39.131  28.228  27.896  1.00  0.00     0.029 A 
ATOM     33  N   UNL A   1      40.591  28.183  29.588  1.00  0.00    -0.354 N 
ATOM     34  C   UNL A   1      40.096  30.783  33.019  1.00  0.00     0.074 A 
ATOM     35  C   UNL A   1      38.895  31.582  32.890  1.00  0.00     0.031 C 
ATOM     36  C   UNL A   1      40.089  27.344  27.577  1.00  0.00     0.029 A 
ATOM     37  C   UNL A   1      41.083  27.310  28.646  1.00  0.00     0.049 A 
ATOM     38  H   UNL A   1      41.037  28.354  30.449  1.00  0.00     0.167 HD
ATOM     39  C   UNL A   1      40.935  30.823  34.084  1.00  0.00     0.034 A 
ATOM     40  C   UNL A   1      42.214  26.575  28.635  1.00  0.00     0.034 A 
ATOM     41  C   UNL A   1      42.124  30.014  34.200  1.00  0.00     0.049 A 
ATOM     42  C   UNL A   1      43.138  26.645  29.824  1.00  0.00     0.074 A 
ATOM     43  C   UNL A   1      43.025  29.952  35.248  1.00  0.00     0.029 A 
ATOM     44  N   UNL A   1      42.579  29.126  33.234  1.00  0.00    -0.354 N 
ATOM     45  N   UNL A   1      43.035  27.380  30.907  1.00  0.00    -0.248 NA
ATOM     46  C   UNL A   1      44.323  25.778  29.793  1.00  0.00     0.031 C 
ATOM     47  C   UNL A   1      44.053  29.071  34.892  1.00  0.00     0.029 A 
ATOM     48  C   UNL A   1      43.757  28.526  33.654  1.00  0.00     0.049 A 
ATOM     49  H   UNL A   1      42.130  28.946  32.376  1.00  0.00     0.167 HD
ATOM     50  C   UNL A   1      44.130  27.042  31.699  1.00  0.00     0.074 A 
ATOM     51  C   UNL A   1      44.868  26.028  30.975  1.00  0.00     0.031 C 
ATOM     52  C   UNL A   1      44.490  27.525  32.916  1.00  0.00     0.034 A 
BRANCH  39  53
ATOM     53  C   UNL A   1      40.599  31.792  35.192  1.00  0.00     0.023 A 
ATOM     54  C   UNL A   1      39.549  31.541  36.093  1.00  0.00     0.031 A 
ATOM     55  C   UNL A   1      41.314  32.994  35.335  1.00  0.00     0.131 A 
ATOM     56  C   UNL A   1      39.197  32.508  37.047  1.00  0.00     0.055 A 
ATOM     57  C   UNL A   1      41.012  33.916  36.339  1.00  0.00     0.041 A 
ATOM     58  F   UNL A   1      42.314  33.299  34.491  1.00  0.00    -0.206 F 
ATOM     59  C   UNL A   1      39.937  33.683  37.193  1.00  0.00     0.022 A 
BRANCH  56  60
ATOM     60  S   UNL A   1      37.672  32.269  37.998  1.00  0.00     0.124 S 
ATOM     61  O   UNL A   1      38.059  32.790  39.308  1.00  0.00    -0.237 OA
ATOM     62  O   UNL A   1      36.706  33.068  37.253  1.00  0.00    -0.237 OA
ATOM     63  O   UNL A   1      37.459  30.824  37.948  1.00  0.00    -0.744 OA
ENDBRANCH  56  60
ENDBRANCH  39  53
BRANCH  40  64
ATOM     64  C   UNL A   1      42.546  25.722  27.459  1.00  0.00     0.023 A 
ATOM     65  C   UNL A   1      42.105  24.393  27.380  1.00  0.00     0.031 A 
ATOM     66  C   UNL A   1      43.339  26.219  26.410  1.00  0.00     0.131 A 
ATOM     67  C   UNL A   1      42.495  23.590  26.296  1.00  0.00     0.055 A 
ATOM     68  C   UNL A   1      43.684  25.432  25.310  1.00  0.00     0.041 A 
ATOM     69  F   UNL A   1      43.779  27.488  26.432  1.00  0.00    -0.206 F 
ATOM     70  C   UNL A   1      43.271  24.105  25.255  1.00  0.00     0.022 A 
BRANCH  67  71
ATOM     71  S   UNL A   1      42.033  21.837  26.302  1.00  0.00     0.124 S 
ATOM     72  O   UNL A   1      42.859  21.307  25.224  1.00  0.00    -0.237 OA
ATOM     73  O   UNL A   1      42.405  21.431  27.655  1.00  0.00    -0.237 OA
ATOM     74  O   UNL A   1      40.596  21.862  26.036  1.00  0.00    -0.744 OA
ENDBRANCH  67  71
ENDBRANCH  40  64
BRANCH  52  75
ATOM     75  C   UNL A   1      45.716  26.923  33.555  1.00  0.00     0.023 A 
ATOM     76  C   UNL A   1      45.655  25.734  34.301  1.00  0.00     0.031 A 
ATOM     77  C   UNL A   1      46.964  27.558  33.421  1.00  0.00     0.131 A 
ATOM     78  C   UNL A   1      46.811  25.242  34.928  1.00  0.00     0.055 A 
ATOM     79  C   UNL A   1      48.120  27.034  33.999  1.00  0.00     0.041 A 
ATOM     80  F   UNL A   1      47.079  28.698  32.720  1.00  0.00    -0.206 F 
ATOM     81  C   UNL A   1      48.045  25.877  34.769  1.00  0.00     0.022 A 
BRANCH  78  82
ATOM     82  S   UNL A   1      46.663  23.808  36.028  1.00  0.00     0.124 S 
ATOM     83  O   UNL A   1      47.435  24.236  37.191  1.00  0.00    -0.237 OA
ATOM     84  O   UNL A   1      45.220  23.712  36.223  1.00  0.00    -0.237 OA
ATOM     85  O   UNL A   1      47.257  22.719  35.255  1.00  0.00    -0.744 OA
ENDBRANCH  78  82
ENDBRANCH  52  75
ENDBRANCH  26  27
ENDBRANCH  18  21
ENDBRANCH  16  17
ENDBRANCH   1  16
TORSDOF 15
ENDMDL
MODEL 3
REMARK VINA RESULT:     -10.7      1.565      2.026
REMARK SMILES CC(C)(C(=O)NCCCCNC(=O)c1ccc(-c2c3nc(c(-c4cc(S(=O)(=O)[O-])ccc4F)c4ccc([nH]4)c(-c4cc(S(=O)(=O)[O-])ccc4F)c4nc(c(-c5cc(S(=O)(=O)[O-])ccc5F)c5ccc2[nH]5)C=C4)C=C3)cc1)n1cccc1
REMARK SMILES IDX 9 1 8 2 7 3 6 4 4 5 5 6 2 8 1 9 3 10 77 11 78 12 81 13 79 14
REMARK SMILES IDX 80 15 10 16 11 17 12 18 13 20 14 21 15 22 76 23 16 24 75 25
REMARK SMILES IDX 17 26 18 27 19 28 69 29 20 30 74 31 68 32 70 33 21 34 73 35
REMARK SMILES IDX 67 36 66 37 22 39 54 40 34 41 53 42 35 43 38 44 52 45 71 46
REMARK SMILES IDX 36 47 37 48 51 50 72 51 39 52 23 53 24 54 32 55 25 56 31 57
REMARK SMILES IDX 33 58 30 59 26 60 27 61 28 62 29 63 55 64 56 65 64 66 57 67
REMARK SMILES IDX 63 68 65 69 62 70 58 71 59 72 60 73 61 74 40 75 41 76 49 77
REMARK SMILES IDX 42 78 48 79 50 80 47 81 43 82 44 83 45 84 46 85
REMARK H PARENT 6 7 11 19 70 38 38 49
REMARK Flexibility Score: inf
ROOT
ATOM      1  C   UNL A   1      31.367  32.163  26.660  1.00  0.00     0.023 C 
ENDROOT
BRANCH   1   2
ATOM      2  C   UNL A   1      31.424  30.794  25.980  1.00  0.00     0.023 C 
BRANCH   2   3
ATOM      3  C   UNL A   1      32.792  30.116  26.014  1.00  0.00     0.116 C 
BRANCH   3   4
ATOM      4  N   UNL A   1      33.225  29.695  24.696  1.00  0.00    -0.354 N 
ATOM      5  C   UNL A   1      33.107  28.524  24.004  1.00  0.00     0.245 C 
ATOM      6  O   UNL A   1      33.592  28.549  22.867  1.00  0.00    -0.272 OA
ATOM      7  H   UNL A   1      33.701  30.397  24.198  1.00  0.00     0.163 HD
BRANCH   5   8
ATOM      8  C   UNL A   1      32.399  27.262  24.577  1.00  0.00     0.117 C 
ATOM      9  C   UNL A   1      32.801  27.011  26.047  1.00  0.00     0.045 C 
ATOM     10  C   UNL A   1      30.867  27.445  24.494  1.00  0.00     0.045 C 
BRANCH   8  11
ATOM     11  N   UNL A   1      32.811  26.064  23.779  1.00  0.00    -0.340 N 
ATOM     12  C   UNL A   1      33.904  25.256  24.004  1.00  0.00     0.086 A 
ATOM     13  C   UNL A   1      32.157  25.589  22.660  1.00  0.00     0.086 A 
ATOM     14  C   UNL A   1      33.967  24.309  23.006  1.00  0.00     0.019 A 
ATOM     15  C   UNL A   1      32.863  24.520  22.156  1.00  0.00     0.019 A 
ENDBRANCH   8  11
ENDBRANCH   5   8
ENDBRANCH   3   4
ENDBRANCH   2   3
ENDBRANCH   1   2
BRANCH   1  16
ATOM     16  C   UNL A   1      32.698  32.698  27.181  1.00  0.00     0.116 C 
BRANCH  16  17
ATOM     17  N   UNL A   1      32.598  34.034  27.748  1.00  0.00    -0.352 N 
ATOM     18  C   UNL A   1      33.357  34.614  28.737  1.00  0.00     0.251 C 
ATOM     19  H   UNL A   1      31.888  34.603  27.371  1.00  0.00     0.163 HD
ATOM     20  O   UNL A   1      33.051  35.722  29.169  1.00  0.00    -0.269 OA
BRANCH  18  21
ATOM     21  C   UNL A   1      34.512  33.881  29.301  1.00  0.00     0.039 A 
ATOM     22  C   UNL A   1      35.803  34.314  28.989  1.00  0.00     0.014 A 
ATOM     23  C   UNL A   1      34.322  32.794  30.158  1.00  0.00     0.014 A 
ATOM     24  C   UNL A   1      36.902  33.705  29.598  1.00  0.00     0.010 A 
ATOM     25  C   UNL A   1      35.414  32.234  30.815  1.00  0.00     0.010 A 
ATOM     26  C   UNL A   1      36.716  32.689  30.548  1.00  0.00    -0.014 A 
BRANCH  26  27
ATOM     27  C   UNL A   1      37.864  32.095  31.280  1.00  0.00     0.031 A 
ATOM     28  C   UNL A   1      38.670  30.991  30.651  1.00  0.00     0.074 A 
ATOM     29  C   UNL A   1      38.138  32.502  32.536  1.00  0.00     0.049 A 
ATOM     30  N   UNL A   1      39.640  30.278  31.163  1.00  0.00    -0.248 NA
ATOM     31  C   UNL A   1      38.312  30.620  29.274  1.00  0.00     0.031 C 
ATOM     32  C   UNL A   1      37.402  33.535  33.269  1.00  0.00     0.029 A 
ATOM     33  N   UNL A   1      39.100  32.089  33.424  1.00  0.00    -0.354 N 
ATOM     34  C   UNL A   1      40.004  29.368  30.175  1.00  0.00     0.074 A 
ATOM     35  C   UNL A   1      39.105  29.582  29.060  1.00  0.00     0.031 C 
ATOM     36  C   UNL A   1      37.947  33.684  34.487  1.00  0.00     0.029 A 
ATOM     37  C   UNL A   1      39.043  32.731  34.639  1.00  0.00     0.049 A 
ATOM     38  H   UNL A   1      39.768  31.398  33.211  1.00  0.00     0.167 HD
ATOM     39  C   UNL A   1      41.010  28.458  30.188  1.00  0.00     0.034 A 
ATOM     40  C   UNL A   1      39.779  32.562  35.757  1.00  0.00     0.034 A 
ATOM     41  C   UNL A   1      41.901  28.263  31.305  1.00  0.00     0.049 A 
ATOM     42  C   UNL A   1      40.883  31.537  35.753  1.00  0.00     0.074 A 
ATOM     43  C   UNL A   1      42.973  27.394  31.412  1.00  0.00     0.029 A 
ATOM     44  N   UNL A   1      41.826  28.947  32.513  1.00  0.00    -0.354 N 
ATOM     45  N   UNL A   1      41.235  30.706  34.799  1.00  0.00    -0.248 NA
ATOM     46  C   UNL A   1      41.697  31.435  36.971  1.00  0.00     0.031 C 
ATOM     47  C   UNL A   1      43.508  27.511  32.700  1.00  0.00     0.029 A 
ATOM     48  C   UNL A   1      42.818  28.505  33.374  1.00  0.00     0.049 A 
ATOM     49  H   UNL A   1      41.164  29.644  32.725  1.00  0.00     0.167 HD
ATOM     50  C   UNL A   1      42.329  30.002  35.294  1.00  0.00     0.074 A 
ATOM     51  C   UNL A   1      42.588  30.517  36.623  1.00  0.00     0.031 C 
ATOM     52  C   UNL A   1      43.057  29.020  34.702  1.00  0.00     0.034 A 
BRANCH  39  53
ATOM     53  C   UNL A   1      41.177  27.596  28.961  1.00  0.00     0.023 A 
ATOM     54  C   UNL A   1      42.200  27.838  28.027  1.00  0.00     0.031 A 
ATOM     55  C   UNL A   1      40.289  26.537  28.702  1.00  0.00     0.131 A 
ATOM     56  C   UNL A   1      42.266  27.084  26.846  1.00  0.00     0.055 A 
ATOM     57  C   UNL A   1      40.409  25.736  27.564  1.00  0.00     0.041 A 
ATOM     58  F   UNL A   1      39.280  26.270  29.546  1.00  0.00    -0.206 F 
ATOM     59  C   UNL A   1      41.393  26.017  26.620  1.00  0.00     0.022 A 
BRANCH  56  60
ATOM     60  S   UNL A   1      43.418  27.607  25.548  1.00  0.00     0.124 S 
ATOM     61  O   UNL A   1      44.117  28.711  26.203  1.00  0.00    -0.237 OA
ATOM     62  O   UNL A   1      44.204  26.401  25.318  1.00  0.00    -0.237 OA
ATOM     63  O   UNL A   1      42.540  28.000  24.448  1.00  0.00    -0.744 OA
ENDBRANCH  56  60
ENDBRANCH  39  53
BRANCH  40  64
ATOM     64  C   UNL A   1      39.490  33.368  36.977  1.00  0.00     0.023 A 
ATOM     65  C   UNL A   1      40.147  34.584  37.215  1.00  0.00     0.031 A 
ATOM     66  C   UNL A   1      38.571  32.914  37.940  1.00  0.00     0.131 A 
ATOM     67  C   UNL A   1      39.910  35.285  38.408  1.00  0.00     0.055 A 
ATOM     68  C   UNL A   1      38.302  33.638  39.102  1.00  0.00     0.041 A 
ATOM     69  F   UNL A   1      37.908  31.760  37.756  1.00  0.00    -0.206 F 
ATOM     70  C   UNL A   1      38.983  34.827  39.347  1.00  0.00     0.022 A 
BRANCH  67  71
ATOM     71  S   UNL A   1      40.888  36.773  38.751  1.00  0.00     0.124 S 
ATOM     72  O   UNL A   1      41.683  36.895  37.534  1.00  0.00    -0.237 OA
ATOM     73  O   UNL A   1      39.848  37.781  38.942  1.00  0.00    -0.237 OA
ATOM     74  O   UNL A   1      41.637  36.419  39.955  1.00  0.00    -0.744 OA
ENDBRANCH  67  71
ENDBRANCH  40  64
BRANCH  52  75
ATOM     75  C   UNL A   1      44.229  28.475  35.478  1.00  0.00     0.023 A 
ATOM     76  C   UNL A   1      44.070  27.480  36.459  1.00  0.00     0.031 A 
ATOM     77  C   UNL A   1      45.524  28.966  35.238  1.00  0.00     0.131 A 
ATOM     78  C   UNL A   1      45.180  27.044  37.199  1.00  0.00     0.055 A 
ATOM     79  C   UNL A   1      46.633  28.489  35.937  1.00  0.00     0.041 A 
ATOM     80  F   UNL A   1      45.733  29.919  34.314  1.00  0.00    -0.206 F 
ATOM     81  C   UNL A   1      46.462  27.531  36.933  1.00  0.00     0.022 A 
BRANCH  78  82
ATOM     82  S   UNL A   1      44.914  25.893  38.575  1.00  0.00     0.124 S 
ATOM     83  O   UNL A   1      46.241  25.831  39.179  1.00  0.00    -0.237 OA
ATOM     84  O   UNL A   1      43.888  26.576  39.358  1.00  0.00    -0.237 OA
ATOM     85  O   UNL A   1      44.474  24.665  37.916  1.00  0.00    -0.744 OA
ENDBRANCH  78  82
ENDBRANCH  52  75
ENDBRANCH  26  27
ENDBRANCH  18  21
ENDBRANCH  16  17
ENDBRANCH   1  16
TORSDOF 15
ENDMDL
