MODEL 1
REMARK VINA RESULT:     -10.2      0.000      0.000
REMARK SMILES CC(C)C[C@H](NC(=O)[C@H](C)NC(=O)[C@@H](NC(=O)CNC(=O)OCc1ccccc1)C(C)C)C(=O)NCCCCNC(=O)c1ccc(-c2c3nc(c(-c4cc(S(=O)(=O)[O-])ccc4F)c4ccc([nH]4)c(-c4cc(S(=O)(=O)[O-])ccc4F)c4nc(c(-c5cc(S(=O)(=O)[O-])ccc5F)c5ccc2[nH]5)C=C4)C=C3)cc1
REMARK SMILES IDX 5 1 4 2 2 3 1 4 3 5 33 6 34 7 35 8 36 10 37 11 38 12 39 13
REMARK SMILES IDX 40 14 41 15 42 17 43 18 44 19 105 20 45 21 104 22 46 23
REMARK SMILES IDX 47 24 48 25 98 26 49 27 103 28 97 29 99 30 50 31 102 32
REMARK SMILES IDX 96 33 95 34 51 36 83 37 63 38 82 39 64 40 67 41 81 42 100 43
REMARK SMILES IDX 65 44 66 45 80 47 101 48 68 49 52 50 53 51 61 52 54 53 60 54
REMARK SMILES IDX 62 55 59 56 55 57 56 58 57 59 58 60 84 61 85 62 93 63 86 64
REMARK SMILES IDX 92 65 94 66 91 67 87 68 88 69 89 70 90 71 69 72 70 73 78 74
REMARK SMILES IDX 71 75 77 76 79 77 76 78 72 79 73 80 74 81 75 82 6 83 7 84
REMARK SMILES IDX 8 86 9 87 10 88 11 89 12 90 13 92 14 93 15 94 16 95 17 97
REMARK SMILES IDX 18 98 19 99 20 100 21 102 22 103 23 104 24 105 25 106 29 107
REMARK SMILES IDX 26 108 28 109 27 110 30 111 31 112 32 113
REMARK H PARENT 35 9 40 16 99 35 67 46 6 85 11 91 15 96 19 101
REMARK Flexibility Score: inf
ROOT
ATOM      1  C   UNL A   1      31.004  27.269  24.684  1.00  0.00     0.171 C 
ENDROOT
BRANCH   1   2
ATOM      2  C   UNL A   1      29.901  28.343  24.392  1.00  0.00     0.038 C 
BRANCH   2   3
ATOM      3  C   UNL A   1      29.887  29.377  23.213  1.00  0.00    -0.015 C 
ATOM      4  C   UNL A   1      30.903  29.311  22.076  1.00  0.00     0.007 C 
ATOM      5  C   UNL A   1      28.466  29.486  22.622  1.00  0.00     0.007 C 
ENDBRANCH   2   3
ENDBRANCH   1   2
BRANCH   1   6
ATOM      6  C   UNL A   1      31.261  27.147  26.256  1.00  0.00     0.242 C 
ATOM      7  O   UNL A   1      30.801  26.160  26.852  1.00  0.00    -0.273 OA
ATOM      8  N   UNL A   1      31.791  28.116  27.078  1.00  0.00    -0.354 N 
ATOM      9  H   UNL A   1      31.802  27.878  28.033  1.00  0.00     0.163 HD
BRANCH   8  10
ATOM     10  C   UNL A   1      32.336  29.421  26.784  1.00  0.00     0.116 C 
BRANCH  10  11
ATOM     11  C   UNL A   1      33.753  29.874  27.279  1.00  0.00     0.023 C 
BRANCH  11  12
ATOM     12  C   UNL A   1      34.511  31.048  28.042  1.00  0.00     0.023 C 
BRANCH  12  13
ATOM     13  C   UNL A   1      34.995  32.550  27.850  1.00  0.00     0.116 C 
BRANCH  13  14
ATOM     14  N   UNL A   1      34.357  33.725  28.479  1.00  0.00    -0.352 N 
ATOM     15  C   UNL A   1      34.162  34.200  29.749  1.00  0.00     0.251 C 
ATOM     16  H   UNL A   1      33.967  34.327  27.806  1.00  0.00     0.163 HD
ATOM     17  O   UNL A   1      33.437  35.161  29.991  1.00  0.00    -0.269 OA
BRANCH  15  18
ATOM     18  C   UNL A   1      34.993  33.640  30.775  1.00  0.00     0.039 A 
ATOM     19  C   UNL A   1      34.641  32.487  31.471  1.00  0.00     0.014 A 
ATOM     20  C   UNL A   1      36.221  34.282  30.887  1.00  0.00     0.014 A 
ATOM     21  C   UNL A   1      35.627  31.882  32.226  1.00  0.00     0.010 A 
ATOM     22  C   UNL A   1      37.224  33.597  31.490  1.00  0.00     0.010 A 
ATOM     23  C   UNL A   1      36.926  32.410  32.177  1.00  0.00    -0.014 A 
BRANCH  23  24
ATOM     24  C   UNL A   1      38.069  31.811  32.860  1.00  0.00     0.031 A 
ATOM     25  C   UNL A   1      38.258  32.201  34.293  1.00  0.00     0.074 A 
ATOM     26  C   UNL A   1      39.001  31.203  32.110  1.00  0.00     0.049 A 
ATOM     27  N   UNL A   1      39.347  32.217  35.002  1.00  0.00    -0.248 NA
ATOM     28  C   UNL A   1      37.088  32.814  34.955  1.00  0.00     0.031 C 
ATOM     29  C   UNL A   1      38.896  30.917  30.673  1.00  0.00     0.029 A 
ATOM     30  N   UNL A   1      40.241  30.755  32.447  1.00  0.00    -0.354 N 
ATOM     31  C   UNL A   1      39.011  32.909  36.160  1.00  0.00     0.074 A 
ATOM     32  C   UNL A   1      37.663  33.398  35.993  1.00  0.00     0.031 C 
ATOM     33  C   UNL A   1      40.017  30.301  30.265  1.00  0.00     0.029 A 
ATOM     34  C   UNL A   1      40.929  30.204  31.396  1.00  0.00     0.049 A 
ATOM     35  H   UNL A   1      40.608  30.820  33.359  1.00  0.00     0.167 HD
ATOM     36  C   UNL A   1      39.763  33.070  37.272  1.00  0.00     0.034 A 
ATOM     37  C   UNL A   1      42.167  29.683  31.382  1.00  0.00     0.034 A 
ATOM     38  C   UNL A   1      41.063  32.461  37.384  1.00  0.00     0.049 A 
ATOM     39  C   UNL A   1      42.921  29.712  32.684  1.00  0.00     0.074 A 
ATOM     40  C   UNL A   1      41.917  32.412  38.467  1.00  0.00     0.029 A 
ATOM     41  N   UNL A   1      41.677  31.748  36.354  1.00  0.00    -0.354 N 
ATOM     42  N   UNL A   1      42.594  30.312  33.810  1.00  0.00    -0.248 NA
ATOM     43  C   UNL A   1      44.186  28.980  32.730  1.00  0.00     0.031 C 
ATOM     44  C   UNL A   1      43.053  31.688  38.084  1.00  0.00     0.029 A 
ATOM     45  C   UNL A   1      42.888  31.240  36.779  1.00  0.00     0.049 A 
ATOM     46  H   UNL A   1      41.301  31.626  35.452  1.00  0.00     0.167 HD
ATOM     47  C   UNL A   1      43.604  30.006  34.711  1.00  0.00     0.074 A 
ATOM     48  C   UNL A   1      44.538  29.150  33.997  1.00  0.00     0.031 C 
ATOM     49  C   UNL A   1      43.765  30.391  36.006  1.00  0.00     0.034 A 
BRANCH  36  50
ATOM     50  C   UNL A   1      39.178  33.888  38.400  1.00  0.00     0.023 A 
ATOM     51  C   UNL A   1      39.427  35.270  38.514  1.00  0.00     0.031 A 
ATOM     52  C   UNL A   1      38.442  33.277  39.429  1.00  0.00     0.131 A 
ATOM     53  C   UNL A   1      39.066  35.961  39.680  1.00  0.00     0.055 A 
ATOM     54  C   UNL A   1      37.988  33.996  40.540  1.00  0.00     0.041 A 
ATOM     55  F   UNL A   1      38.183  31.961  39.397  1.00  0.00    -0.206 F 
ATOM     56  C   UNL A   1      38.321  35.341  40.683  1.00  0.00     0.022 A 
BRANCH  53  57
ATOM     57  S   UNL A   1      39.749  37.621  39.943  1.00  0.00     0.124 S 
ATOM     58  O   UNL A   1      38.632  38.466  39.526  1.00  0.00    -0.237 OA
ATOM     59  O   UNL A   1      40.047  37.619  41.371  1.00  0.00    -0.237 OA
ATOM     60  O   UNL A   1      40.914  37.656  39.063  1.00  0.00    -0.744 OA
ENDBRANCH  53  57
ENDBRANCH  36  50
BRANCH  37  61
ATOM     61  C   UNL A   1      42.703  29.042  30.152  1.00  0.00     0.023 A 
ATOM     62  C   UNL A   1      42.549  27.662  29.949  1.00  0.00     0.031 A 
ATOM     63  C   UNL A   1      43.344  29.787  29.149  1.00  0.00     0.131 A 
ATOM     64  C   UNL A   1      43.067  27.059  28.793  1.00  0.00     0.055 A 
ATOM     65  C   UNL A   1      43.822  29.191  27.978  1.00  0.00     0.041 A 
ATOM     66  F   UNL A   1      43.487  31.117  29.275  1.00  0.00    -0.206 F 
ATOM     67  C   UNL A   1      43.696  27.816  27.802  1.00  0.00     0.022 A 
BRANCH  64  68
ATOM     68  S   UNL A   1      42.960  25.256  28.637  1.00  0.00     0.124 S 
ATOM     69  O   UNL A   1      41.517  25.045  28.598  1.00  0.00    -0.237 OA
ATOM     70  O   UNL A   1      43.678  25.020  27.390  1.00  0.00    -0.237 OA
ATOM     71  O   UNL A   1      43.629  24.772  29.842  1.00  0.00    -0.744 OA
ENDBRANCH  64  68
ENDBRANCH  37  61
BRANCH  49  72
ATOM     72  C   UNL A   1      44.977  29.849  36.706  1.00  0.00     0.023 A 
ATOM     73  C   UNL A   1      44.904  28.674  37.470  1.00  0.00     0.031 A 
ATOM     74  C   UNL A   1      46.208  30.515  36.606  1.00  0.00     0.131 A 
ATOM     75  C   UNL A   1      46.037  28.230  38.159  1.00  0.00     0.055 A 
ATOM     76  C   UNL A   1      47.348  30.032  37.244  1.00  0.00     0.041 A 
ATOM     77  F   UNL A   1      46.320  31.640  35.884  1.00  0.00    -0.206 F 
ATOM     78  C   UNL A   1      47.264  28.890  38.037  1.00  0.00     0.022 A 
BRANCH  75  79
ATOM     79  S   UNL A   1      45.857  26.829  39.292  1.00  0.00     0.124 S 
ATOM     80  O   UNL A   1      44.836  27.315  40.215  1.00  0.00    -0.237 OA
ATOM     81  O   UNL A   1      45.445  25.754  38.395  1.00  0.00    -0.237 OA
ATOM     82  O   UNL A   1      47.192  26.680  39.866  1.00  0.00    -0.744 OA
ENDBRANCH  75  79
ENDBRANCH  49  72
ENDBRANCH  23  24
ENDBRANCH  15  18
ENDBRANCH  13  14
ENDBRANCH  12  13
ENDBRANCH  11  12
ENDBRANCH  10  11
ENDBRANCH   8  10
ENDBRANCH   1   6
BRANCH   1  83
ATOM     83  N   UNL A   1      30.955  26.091  23.841  1.00  0.00    -0.343 N 
ATOM     84  C   UNL A   1      31.822  25.103  23.552  1.00  0.00     0.242 C 
ATOM     85  H   UNL A   1      30.093  25.990  23.375  1.00  0.00     0.164 HD
ATOM     86  O   UNL A   1      31.310  24.035  23.178  1.00  0.00    -0.273 OA
BRANCH  84  87
ATOM     87  C   UNL A   1      33.353  25.209  23.508  1.00  0.00     0.168 C 
ATOM     88  C   UNL A   1      33.889  26.637  23.445  1.00  0.00     0.041 C 
BRANCH  87  89
ATOM     89  N   UNL A   1      34.289  24.344  22.823  1.00  0.00    -0.343 N 
ATOM     90  C   UNL A   1      34.991  23.348  23.479  1.00  0.00     0.243 C 
ATOM     91  H   UNL A   1      34.432  24.467  21.857  1.00  0.00     0.164 HD
ATOM     92  O   UNL A   1      36.021  22.909  22.971  1.00  0.00    -0.273 OA
BRANCH  90  93
ATOM     93  C   UNL A   1      34.295  22.655  24.701  1.00  0.00     0.174 C 
BRANCH  93  94
ATOM     94  N   UNL A   1      34.499  21.167  24.735  1.00  0.00    -0.343 N 
ATOM     95  C   UNL A   1      35.416  20.161  24.806  1.00  0.00     0.240 C 
ATOM     96  H   UNL A   1      33.609  20.748  24.688  1.00  0.00     0.164 HD
ATOM     97  O   UNL A   1      34.918  19.049  24.558  1.00  0.00    -0.273 OA
BRANCH  95  98
ATOM     98  C   UNL A   1      36.943  20.184  25.183  1.00  0.00     0.219 C 
BRANCH  98  99
ATOM     99  N   UNL A   1      37.696  21.441  25.240  1.00  0.00    -0.312 N 
ATOM    100  C   UNL A   1      38.927  21.671  25.813  1.00  0.00     0.407 C 
ATOM    101  H   UNL A   1      37.267  22.218  24.814  1.00  0.00     0.167 HD
ATOM    102  O   UNL A   1      39.280  22.815  26.069  1.00  0.00    -0.225 OA
BRANCH 100 103
ATOM    103  O   UNL A   1      39.606  20.544  26.146  1.00  0.00    -0.445 OA
BRANCH 103 104
ATOM    104  C   UNL A   1      40.819  20.619  26.940  1.00  0.00     0.270 C 
BRANCH 104 105
ATOM    105  C   UNL A   1      42.151  20.377  26.267  1.00  0.00    -0.011 A 
ATOM    106  C   UNL A   1      43.019  21.437  25.949  1.00  0.00     0.007 A 
ATOM    107  C   UNL A   1      42.550  19.072  25.958  1.00  0.00     0.007 A 
ATOM    108  C   UNL A   1      44.233  21.199  25.300  1.00  0.00     0.000 A 
ATOM    109  C   UNL A   1      43.770  18.834  25.323  1.00  0.00     0.000 A 
ATOM    110  C   UNL A   1      44.606  19.896  24.983  1.00  0.00     0.000 A 
ENDBRANCH 104 105
ENDBRANCH 103 104
ENDBRANCH 100 103
ENDBRANCH  98  99
ENDBRANCH  95  98
ENDBRANCH  93  94
BRANCH  93 111
ATOM    111  C   UNL A   1      34.756  23.526  25.869  1.00  0.00     0.015 C 
ATOM    112  C   UNL A   1      34.406  22.845  27.223  1.00  0.00     0.010 C 
ATOM    113  C   UNL A   1      36.135  24.079  25.616  1.00  0.00     0.010 C 
ENDBRANCH  93 111
ENDBRANCH  90  93
ENDBRANCH  87  89
ENDBRANCH  84  87
ENDBRANCH   1  83
TORSDOF 27
ENDMDL
MODEL 2
REMARK VINA RESULT:      -9.8      4.861      7.337
REMARK SMILES CC(C)C[C@H](NC(=O)[C@H](C)NC(=O)[C@@H](NC(=O)CNC(=O)OCc1ccccc1)C(C)C)C(=O)NCCCCNC(=O)c1ccc(-c2c3nc(c(-c4cc(S(=O)(=O)[O-])ccc4F)c4ccc([nH]4)c(-c4cc(S(=O)(=O)[O-])ccc4F)c4nc(c(-c5cc(S(=O)(=O)[O-])ccc5F)c5ccc2[nH]5)C=C4)C=C3)cc1
REMARK SMILES IDX 5 1 4 2 2 3 1 4 3 5 33 6 34 7 35 8 36 10 37 11 38 12 39 13
REMARK SMILES IDX 40 14 41 15 42 17 43 18 44 19 105 20 45 21 104 22 46 23
REMARK SMILES IDX 47 24 48 25 98 26 49 27 103 28 97 29 99 30 50 31 102 32
REMARK SMILES IDX 96 33 95 34 51 36 83 37 63 38 82 39 64 40 67 41 81 42 100 43
REMARK SMILES IDX 65 44 66 45 80 47 101 48 68 49 52 50 53 51 61 52 54 53 60 54
REMARK SMILES IDX 62 55 59 56 55 57 56 58 57 59 58 60 84 61 85 62 93 63 86 64
REMARK SMILES IDX 92 65 94 66 91 67 87 68 88 69 89 70 90 71 69 72 70 73 78 74
REMARK SMILES IDX 71 75 77 76 79 77 76 78 72 79 73 80 74 81 75 82 6 83 7 84
REMARK SMILES IDX 8 86 9 87 10 88 11 89 12 90 13 92 14 93 15 94 16 95 17 97
REMARK SMILES IDX 18 98 19 99 20 100 21 102 22 103 23 104 24 105 25 106 29 107
REMARK SMILES IDX 26 108 28 109 27 110 30 111 31 112 32 113
REMARK H PARENT 35 9 40 16 99 35 67 46 6 85 11 91 15 96 19 101
REMARK Flexibility Score: inf
ROOT
ATOM      1  C   UNL A   1      41.218  26.699  28.721  1.00  0.00     0.171 C 
ENDROOT
BRANCH   1   2
ATOM      2  C   UNL A   1      40.338  27.350  27.600  1.00  0.00     0.038 C 
BRANCH   2   3
ATOM      3  C   UNL A   1      40.597  28.719  26.881  1.00  0.00    -0.015 C 
ATOM      4  C   UNL A   1      41.452  28.815  25.620  1.00  0.00     0.007 C 
ATOM      5  C   UNL A   1      39.262  29.457  26.649  1.00  0.00     0.007 C 
ENDBRANCH   2   3
ENDBRANCH   1   2
BRANCH   1   6
ATOM      6  C   UNL A   1      41.111  27.543  30.073  1.00  0.00     0.242 C 
ATOM      7  O   UNL A   1      42.143  27.716  30.741  1.00  0.00    -0.273 OA
ATOM      8  N   UNL A   1      39.953  27.960  30.690  1.00  0.00    -0.354 N 
ATOM      9  H   UNL A   1      40.092  28.406  31.556  1.00  0.00     0.163 HD
BRANCH   8  10
ATOM     10  C   UNL A   1      38.569  27.859  30.288  1.00  0.00     0.116 C 
BRANCH  10  11
ATOM     11  C   UNL A   1      37.705  29.114  29.919  1.00  0.00     0.023 C 
BRANCH  11  12
ATOM     12  C   UNL A   1      36.510  30.026  30.445  1.00  0.00     0.023 C 
BRANCH  12  13
ATOM     13  C   UNL A   1      35.757  31.392  30.139  1.00  0.00     0.116 C 
BRANCH  13  14
ATOM     14  N   UNL A   1      34.787  32.038  31.048  1.00  0.00    -0.352 N 
ATOM     15  C   UNL A   1      34.791  32.548  32.318  1.00  0.00     0.251 C 
ATOM     16  H   UNL A   1      33.902  32.125  30.627  1.00  0.00     0.163 HD
ATOM     17  O   UNL A   1      33.763  32.897  32.894  1.00  0.00    -0.269 OA
BRANCH  15  18
ATOM     18  C   UNL A   1      36.075  32.834  32.888  1.00  0.00     0.039 A 
ATOM     19  C   UNL A   1      36.881  31.844  33.442  1.00  0.00     0.014 A 
ATOM     20  C   UNL A   1      36.471  34.153  32.695  1.00  0.00     0.014 A 
ATOM     21  C   UNL A   1      38.197  32.174  33.702  1.00  0.00     0.010 A 
ATOM     22  C   UNL A   1      37.797  34.422  32.794  1.00  0.00     0.010 A 
ATOM     23  C   UNL A   1      38.656  33.442  33.316  1.00  0.00    -0.014 A 
BRANCH  23  24
ATOM     24  C   UNL A   1      40.043  33.877  33.457  1.00  0.00     0.031 A 
ATOM     25  C   UNL A   1      40.465  34.297  34.831  1.00  0.00     0.074 A 
ATOM     26  C   UNL A   1      40.737  34.137  32.338  1.00  0.00     0.049 A 
ATOM     27  N   UNL A   1      41.413  35.112  35.185  1.00  0.00    -0.248 NA
ATOM     28  C   UNL A   1      39.586  33.866  35.936  1.00  0.00     0.031 C 
ATOM     29  C   UNL A   1      40.295  33.850  30.966  1.00  0.00     0.029 A 
ATOM     30  N   UNL A   1      41.945  34.743  32.177  1.00  0.00    -0.354 N 
ATOM     31  C   UNL A   1      41.195  35.350  36.537  1.00  0.00     0.074 A 
ATOM     32  C   UNL A   1      39.959  34.695  36.895  1.00  0.00     0.031 C 
ATOM     33  C   UNL A   1      41.247  34.247  30.107  1.00  0.00     0.029 A 
ATOM     34  C   UNL A   1      42.328  34.860  30.865  1.00  0.00     0.049 A 
ATOM     35  H   UNL A   1      42.490  35.065  32.931  1.00  0.00     0.167 HD
ATOM     36  C   UNL A   1      41.996  36.022  37.395  1.00  0.00     0.034 A 
ATOM     37  C   UNL A   1      43.446  35.410  30.362  1.00  0.00     0.034 A 
ATOM     38  C   UNL A   1      43.261  36.559  36.966  1.00  0.00     0.049 A 
ATOM     39  C   UNL A   1      44.411  35.996  31.357  1.00  0.00     0.074 A 
ATOM     40  C   UNL A   1      44.254  37.162  37.709  1.00  0.00     0.029 A 
ATOM     41  N   UNL A   1      43.717  36.511  35.648  1.00  0.00    -0.354 N 
ATOM     42  N   UNL A   1      44.250  36.177  32.651  1.00  0.00    -0.248 NA
ATOM     43  C   UNL A   1      45.712  36.423  30.841  1.00  0.00     0.031 C 
ATOM     44  C   UNL A   1      45.299  37.496  36.838  1.00  0.00     0.029 A 
ATOM     45  C   UNL A   1      44.982  37.056  35.559  1.00  0.00     0.049 A 
ATOM     46  H   UNL A   1      43.207  36.143  34.889  1.00  0.00     0.167 HD
ATOM     47  C   UNL A   1      45.442  36.717  33.112  1.00  0.00     0.074 A 
ATOM     48  C   UNL A   1      46.317  36.809  31.955  1.00  0.00     0.031 C 
ATOM     49  C   UNL A   1      45.795  37.111  34.365  1.00  0.00     0.034 A 
BRANCH  36  50
ATOM     50  C   UNL A   1      41.526  36.163  38.824  1.00  0.00     0.023 A 
ATOM     51  C   UNL A   1      41.020  37.382  39.316  1.00  0.00     0.031 A 
ATOM     52  C   UNL A   1      41.669  35.106  39.739  1.00  0.00     0.131 A 
ATOM     53  C   UNL A   1      40.803  37.555  40.691  1.00  0.00     0.055 A 
ATOM     54  C   UNL A   1      41.345  35.252  41.093  1.00  0.00     0.041 A 
ATOM     55  F   UNL A   1      42.162  33.922  39.346  1.00  0.00    -0.206 F 
ATOM     56  C   UNL A   1      40.933  36.489  41.581  1.00  0.00     0.022 A 
BRANCH  53  57
ATOM     57  S   UNL A   1      40.533  39.238  41.315  1.00  0.00     0.124 S 
ATOM     58  O   UNL A   1      39.151  39.158  41.782  1.00  0.00    -0.237 OA
ATOM     59  O   UNL A   1      41.550  39.358  42.353  1.00  0.00    -0.237 OA
ATOM     60  O   UNL A   1      40.741  40.077  40.138  1.00  0.00    -0.744 OA
ENDBRANCH  53  57
ENDBRANCH  36  50
BRANCH  37  61
ATOM     61  C   UNL A   1      43.725  35.353  28.903  1.00  0.00     0.023 A 
ATOM     62  C   UNL A   1      44.301  34.205  28.338  1.00  0.00     0.031 A 
ATOM     63  C   UNL A   1      43.398  36.415  28.044  1.00  0.00     0.131 A 
ATOM     64  C   UNL A   1      44.575  34.159  26.962  1.00  0.00     0.055 A 
ATOM     65  C   UNL A   1      43.633  36.351  26.668  1.00  0.00     0.041 A 
ATOM     66  F   UNL A   1      42.813  37.524  28.527  1.00  0.00    -0.206 F 
ATOM     67  C   UNL A   1      44.237  35.222  26.122  1.00  0.00     0.022 A 
BRANCH  64  68
ATOM     68  S   UNL A   1      45.438  32.709  26.301  1.00  0.00     0.124 S 
ATOM     69  O   UNL A   1      44.677  32.435  25.087  1.00  0.00    -0.237 OA
ATOM     70  O   UNL A   1      46.789  33.225  26.110  1.00  0.00    -0.237 OA
ATOM     71  O   UNL A   1      45.296  31.716  27.364  1.00  0.00    -0.744 OA
ENDBRANCH  64  68
ENDBRANCH  37  61
BRANCH  49  72
ATOM     72  C   UNL A   1      47.193  37.635  34.519  1.00  0.00     0.023 A 
ATOM     73  C   UNL A   1      48.254  36.777  34.844  1.00  0.00     0.031 A 
ATOM     74  C   UNL A   1      47.459  39.001  34.340  1.00  0.00     0.131 A 
ATOM     75  C   UNL A   1      49.533  37.308  35.040  1.00  0.00     0.055 A 
ATOM     76  C   UNL A   1      48.747  39.514  34.474  1.00  0.00     0.041 A 
ATOM     77  F   UNL A   1      46.471  39.855  34.026  1.00  0.00    -0.206 F 
ATOM     78  C   UNL A   1      49.791  38.667  34.840  1.00  0.00     0.022 A 
BRANCH  75  79
ATOM     79  S   UNL A   1      50.833  36.206  35.652  1.00  0.00     0.124 S 
ATOM     80  O   UNL A   1      50.601  34.999  34.865  1.00  0.00    -0.237 OA
ATOM     81  O   UNL A   1      52.047  36.950  35.335  1.00  0.00    -0.237 OA
ATOM     82  O   UNL A   1      50.535  36.085  37.078  1.00  0.00    -0.744 OA
ENDBRANCH  75  79
ENDBRANCH  49  72
ENDBRANCH  23  24
ENDBRANCH  15  18
ENDBRANCH  13  14
ENDBRANCH  12  13
ENDBRANCH  11  12
ENDBRANCH  10  11
ENDBRANCH   8  10
ENDBRANCH   1   6
BRANCH   1  83
ATOM     83  N   UNL A   1      41.214  25.249  28.742  1.00  0.00    -0.343 N 
ATOM     84  C   UNL A   1      42.029  24.299  28.247  1.00  0.00     0.242 C 
ATOM     85  H   UNL A   1      40.443  24.875  29.228  1.00  0.00     0.164 HD
ATOM     86  O   UNL A   1      41.990  23.204  28.832  1.00  0.00    -0.273 OA
BRANCH  84  87
ATOM     87  C   UNL A   1      42.878  24.392  26.971  1.00  0.00     0.168 C 
ATOM     88  C   UNL A   1      43.719  25.660  26.858  1.00  0.00     0.041 C 
BRANCH  87  89
ATOM     89  N   UNL A   1      42.534  23.957  25.634  1.00  0.00    -0.343 N 
ATOM     90  C   UNL A   1      43.214  22.939  24.991  1.00  0.00     0.243 C 
ATOM     91  H   UNL A   1      41.789  24.400  25.167  1.00  0.00     0.164 HD
ATOM     92  O   UNL A   1      43.154  22.863  23.765  1.00  0.00    -0.273 OA
BRANCH  90  93
ATOM     93  C   UNL A   1      43.807  21.789  25.876  1.00  0.00     0.174 C 
BRANCH  93  94
ATOM     94  N   UNL A   1      43.085  20.482  25.715  1.00  0.00    -0.343 N 
ATOM     95  C   UNL A   1      41.918  19.811  25.927  1.00  0.00     0.240 C 
ATOM     96  H   UNL A   1      43.707  19.856  25.278  1.00  0.00     0.164 HD
ATOM     97  O   UNL A   1      42.036  18.586  25.742  1.00  0.00    -0.273 OA
BRANCH  95  98
ATOM     98  C   UNL A   1      40.485  20.332  26.314  1.00  0.00     0.219 C 
BRANCH  98  99
ATOM     99  N   UNL A   1      40.263  21.725  26.716  1.00  0.00    -0.312 N 
ATOM    100  C   UNL A   1      39.204  22.546  26.395  1.00  0.00     0.407 C 
ATOM    101  H   UNL A   1      40.959  22.123  27.288  1.00  0.00     0.167 HD
ATOM    102  O   UNL A   1      39.308  23.758  26.524  1.00  0.00    -0.225 OA
BRANCH 100 103
ATOM    103  O   UNL A   1      38.146  21.899  25.844  1.00  0.00    -0.445 OA
BRANCH 103 104
ATOM    104  C   UNL A   1      37.019  22.645  25.313  1.00  0.00     0.270 C 
BRANCH 104 105
ATOM    105  C   UNL A   1      35.764  21.896  24.923  1.00  0.00    -0.011 A 
ATOM    106  C   UNL A   1      34.656  22.556  24.363  1.00  0.00     0.007 A 
ATOM    107  C   UNL A   1      35.694  20.511  25.104  1.00  0.00     0.007 A 
ATOM    108  C   UNL A   1      33.494  21.855  24.035  1.00  0.00     0.000 A 
ATOM    109  C   UNL A   1      34.537  19.807  24.762  1.00  0.00     0.000 A 
ATOM    110  C   UNL A   1      33.433  20.479  24.239  1.00  0.00     0.000 A 
ENDBRANCH 104 105
ENDBRANCH 103 104
ENDBRANCH 100 103
ENDBRANCH  98  99
ENDBRANCH  95  98
ENDBRANCH  93  94
BRANCH  93 111
ATOM    111  C   UNL A   1      45.302  21.889  25.572  1.00  0.00     0.015 C 
ATOM    112  C   UNL A   1      45.986  22.892  26.544  1.00  0.00     0.010 C 
ATOM    113  C   UNL A   1      45.893  20.525  25.325  1.00  0.00     0.010 C 
ENDBRANCH  93 111
ENDBRANCH  90  93
ENDBRANCH  87  89
ENDBRANCH  84  87
ENDBRANCH   1  83
TORSDOF 27
ENDMDL
MODEL 3
REMARK VINA RESULT:      -9.7      3.901      6.395
REMARK SMILES CC(C)C[C@H](NC(=O)[C@H](C)NC(=O)[C@@H](NC(=O)CNC(=O)OCc1ccccc1)C(C)C)C(=O)NCCCCNC(=O)c1ccc(-c2c3nc(c(-c4cc(S(=O)(=O)[O-])ccc4F)c4ccc([nH]4)c(-c4cc(S(=O)(=O)[O-])ccc4F)c4nc(c(-c5cc(S(=O)(=O)[O-])ccc5F)c5ccc2[nH]5)C=C4)C=C3)cc1
REMARK SMILES IDX 5 1 4 2 2 3 1 4 3 5 33 6 34 7 35 8 36 10 37 11 38 12 39 13
REMARK SMILES IDX 40 14 41 15 42 17 43 18 44 19 105 20 45 21 104 22 46 23
REMARK SMILES IDX 47 24 48 25 98 26 49 27 103 28 97 29 99 30 50 31 102 32
REMARK SMILES IDX 96 33 95 34 51 36 83 37 63 38 82 39 64 40 67 41 81 42 100 43
REMARK SMILES IDX 65 44 66 45 80 47 101 48 68 49 52 50 53 51 61 52 54 53 60 54
REMARK SMILES IDX 62 55 59 56 55 57 56 58 57 59 58 60 84 61 85 62 93 63 86 64
REMARK SMILES IDX 92 65 94 66 91 67 87 68 88 69 89 70 90 71 69 72 70 73 78 74
REMARK SMILES IDX 71 75 77 76 79 77 76 78 72 79 73 80 74 81 75 82 6 83 7 84
REMARK SMILES IDX 8 86 9 87 10 88 11 89 12 90 13 92 14 93 15 94 16 95 17 97
REMARK SMILES IDX 18 98 19 99 20 100 21 102 22 103 23 104 24 105 25 106 29 107
REMARK SMILES IDX 26 108 28 109 27 110 30 111 31 112 32 113
REMARK H PARENT 35 9 40 16 99 35 67 46 6 85 11 91 15 96 19 101
REMARK Flexibility Score: inf
ROOT
ATOM      1  C   UNL A   1      41.707  26.675  28.417  1.00  0.00     0.171 C 
ENDROOT
BRANCH   1   2
ATOM      2  C   UNL A   1      41.152  27.193  27.046  1.00  0.00     0.038 C 
BRANCH   2   3
ATOM      3  C   UNL A   1      41.833  28.236  26.093  1.00  0.00    -0.015 C 
ATOM      4  C   UNL A   1      42.634  29.417  26.636  1.00  0.00     0.007 C 
ATOM      5  C   UNL A   1      42.666  27.506  25.019  1.00  0.00     0.007 C 
ENDBRANCH   2   3
ENDBRANCH   1   2
BRANCH   1   6
ATOM      6  C   UNL A   1      41.357  27.707  29.586  1.00  0.00     0.242 C 
ATOM      7  O   UNL A   1      42.261  28.032  30.372  1.00  0.00    -0.273 OA
ATOM      8  N   UNL A   1      40.103  28.152  29.938  1.00  0.00    -0.354 N 
ATOM      9  H   UNL A   1      40.087  28.730  30.734  1.00  0.00     0.163 HD
BRANCH   8  10
ATOM     10  C   UNL A   1      38.808  27.920  29.344  1.00  0.00     0.116 C 
BRANCH  10  11
ATOM     11  C   UNL A   1      38.065  29.006  28.491  1.00  0.00     0.023 C 
BRANCH  11  12
ATOM     12  C   UNL A   1      36.801  29.976  28.500  1.00  0.00     0.023 C 
BRANCH  12  13
ATOM     13  C   UNL A   1      36.373  31.468  28.161  1.00  0.00     0.116 C 
BRANCH  13  14
ATOM     14  N   UNL A   1      35.301  32.213  28.853  1.00  0.00    -0.352 N 
ATOM     15  C   UNL A   1      34.964  32.517  30.145  1.00  0.00     0.251 C 
ATOM     16  H   UNL A   1      34.654  32.591  28.214  1.00  0.00     0.163 HD
ATOM     17  O   UNL A   1      33.894  33.041  30.444  1.00  0.00    -0.269 OA
BRANCH  15  18
ATOM     18  C   UNL A   1      35.999  32.366  31.126  1.00  0.00     0.039 A 
ATOM     19  C   UNL A   1      36.241  31.158  31.773  1.00  0.00     0.014 A 
ATOM     20  C   UNL A   1      36.801  33.495  31.244  1.00  0.00     0.014 A 
ATOM     21  C   UNL A   1      37.423  31.047  32.479  1.00  0.00     0.010 A 
ATOM     22  C   UNL A   1      38.029  33.327  31.794  1.00  0.00     0.010 A 
ATOM     23  C   UNL A   1      38.334  32.113  32.429  1.00  0.00    -0.014 A 
BRANCH  23  24
ATOM     24  C   UNL A   1      39.651  32.082  33.061  1.00  0.00     0.031 A 
ATOM     25  C   UNL A   1      39.713  32.562  34.477  1.00  0.00     0.074 A 
ATOM     26  C   UNL A   1      40.721  31.907  32.271  1.00  0.00     0.049 A 
ATOM     27  N   UNL A   1      40.718  33.065  35.130  1.00  0.00    -0.248 NA
ATOM     28  C   UNL A   1      38.422  32.637  35.191  1.00  0.00     0.031 C 
ATOM     29  C   UNL A   1      40.690  31.557  30.844  1.00  0.00     0.029 A 
ATOM     30  N   UNL A   1      42.046  32.043  32.550  1.00  0.00    -0.354 N 
ATOM     31  C   UNL A   1      40.166  33.584  36.295  1.00  0.00     0.074 A 
ATOM     32  C   UNL A   1      38.732  33.445  36.191  1.00  0.00     0.031 C 
ATOM     33  C   UNL A   1      41.949  31.467  30.388  1.00  0.00     0.029 A 
ATOM     34  C   UNL A   1      42.860  31.806  31.471  1.00  0.00     0.049 A 
ATOM     35  H   UNL A   1      42.387  32.288  33.441  1.00  0.00     0.167 HD
ATOM     36  C   UNL A   1      40.821  34.087  37.365  1.00  0.00     0.034 A 
ATOM     37  C   UNL A   1      44.200  31.863  31.400  1.00  0.00     0.034 A 
ATOM     38  C   UNL A   1      42.260  34.096  37.418  1.00  0.00     0.049 A 
ATOM     39  C   UNL A   1      44.922  32.254  32.662  1.00  0.00     0.074 A 
ATOM     40  C   UNL A   1      43.097  34.452  38.456  1.00  0.00     0.029 A 
ATOM     41  N   UNL A   1      43.078  33.680  36.367  1.00  0.00    -0.354 N 
ATOM     42  N   UNL A   1      44.417  32.692  33.796  1.00  0.00    -0.248 NA
ATOM     43  C   UNL A   1      46.380  32.134  32.652  1.00  0.00     0.031 C 
ATOM     44  C   UNL A   1      44.417  34.270  38.025  1.00  0.00     0.029 A 
ATOM     45  C   UNL A   1      44.406  33.753  36.736  1.00  0.00     0.049 A 
ATOM     46  H   UNL A   1      42.753  33.380  35.486  1.00  0.00     0.167 HD
ATOM     47  C   UNL A   1      45.496  32.877  34.648  1.00  0.00     0.074 A 
ATOM     48  C   UNL A   1      46.676  32.479  33.897  1.00  0.00     0.031 C 
ATOM     49  C   UNL A   1      45.530  33.336  35.928  1.00  0.00     0.034 A 
BRANCH  36  50
ATOM     50  C   UNL A   1      39.989  34.613  38.512  1.00  0.00     0.023 A 
ATOM     51  C   UNL A   1      39.807  35.994  38.717  1.00  0.00     0.031 A 
ATOM     52  C   UNL A   1      39.447  33.739  39.470  1.00  0.00     0.131 A 
ATOM     53  C   UNL A   1      39.226  36.463  39.904  1.00  0.00     0.055 A 
ATOM     54  C   UNL A   1      38.769  34.211  40.600  1.00  0.00     0.041 A 
ATOM     55  F   UNL A   1      39.597  32.411  39.350  1.00  0.00    -0.206 F 
ATOM     56  C   UNL A   1      38.678  35.581  40.836  1.00  0.00     0.022 A 
BRANCH  53  57
ATOM     57  S   UNL A   1      39.370  38.230  40.294  1.00  0.00     0.124 S 
ATOM     58  O   UNL A   1      39.284  38.215  41.753  1.00  0.00    -0.237 OA
ATOM     59  O   UNL A   1      40.673  38.572  39.737  1.00  0.00    -0.237 OA
ATOM     60  O   UNL A   1      38.224  38.826  39.613  1.00  0.00    -0.744 OA
ENDBRANCH  53  57
ENDBRANCH  36  50
BRANCH  37  61
ATOM     61  C   UNL A   1      44.908  31.473  30.153  1.00  0.00     0.023 A 
ATOM     62  C   UNL A   1      45.273  30.136  29.935  1.00  0.00     0.031 A 
ATOM     63  C   UNL A   1      45.204  32.408  29.146  1.00  0.00     0.131 A 
ATOM     64  C   UNL A   1      45.953  29.774  28.762  1.00  0.00     0.055 A 
ATOM     65  C   UNL A   1      45.843  32.038  27.960  1.00  0.00     0.041 A 
ATOM     66  F   UNL A   1      44.846  33.695  29.288  1.00  0.00    -0.206 F 
ATOM     67  C   UNL A   1      46.233  30.715  27.768  1.00  0.00     0.022 A 
BRANCH  64  68
ATOM     68  S   UNL A   1      46.519  28.061  28.585  1.00  0.00     0.124 S 
ATOM     69  O   UNL A   1      47.812  28.103  29.260  1.00  0.00    -0.237 OA
ATOM     70  O   UNL A   1      45.461  27.323  29.265  1.00  0.00    -0.237 OA
ATOM     71  O   UNL A   1      46.578  27.872  27.137  1.00  0.00    -0.744 OA
ENDBRANCH  64  68
ENDBRANCH  37  61
BRANCH  49  72
ATOM     72  C   UNL A   1      46.884  33.386  36.573  1.00  0.00     0.023 A 
ATOM     73  C   UNL A   1      47.683  34.536  36.487  1.00  0.00     0.031 A 
ATOM     74  C   UNL A   1      47.374  32.273  37.274  1.00  0.00     0.131 A 
ATOM     75  C   UNL A   1      48.965  34.526  37.047  1.00  0.00     0.055 A 
ATOM     76  C   UNL A   1      48.626  32.293  37.883  1.00  0.00     0.041 A 
ATOM     77  F   UNL A   1      46.640  31.154  37.380  1.00  0.00    -0.206 F 
ATOM     78  C   UNL A   1      49.436  33.420  37.760  1.00  0.00     0.022 A 
BRANCH  75  79
ATOM     79  S   UNL A   1      50.041  35.952  36.746  1.00  0.00     0.124 S 
ATOM     80  O   UNL A   1      51.013  35.403  35.805  1.00  0.00    -0.237 OA
ATOM     81  O   UNL A   1      49.112  36.935  36.202  1.00  0.00    -0.237 OA
ATOM     82  O   UNL A   1      50.570  36.265  38.072  1.00  0.00    -0.744 OA
ENDBRANCH  75  79
ENDBRANCH  49  72
ENDBRANCH  23  24
ENDBRANCH  15  18
ENDBRANCH  13  14
ENDBRANCH  12  13
ENDBRANCH  11  12
ENDBRANCH  10  11
ENDBRANCH   8  10
ENDBRANCH   1   6
BRANCH   1  83
ATOM     83  N   UNL A   1      41.595  25.244  28.624  1.00  0.00    -0.343 N 
ATOM     84  C   UNL A   1      42.348  24.182  28.282  1.00  0.00     0.242 C 
ATOM     85  H   UNL A   1      40.788  24.993  29.129  1.00  0.00     0.164 HD
ATOM     86  O   UNL A   1      42.215  23.179  29.002  1.00  0.00    -0.273 OA
BRANCH  84  87
ATOM     87  C   UNL A   1      43.232  24.047  27.033  1.00  0.00     0.168 C 
ATOM     88  C   UNL A   1      44.389  25.039  26.963  1.00  0.00     0.041 C 
BRANCH  87  89
ATOM     89  N   UNL A   1      42.824  23.731  25.681  1.00  0.00    -0.343 N 
ATOM     90  C   UNL A   1      43.455  22.755  24.930  1.00  0.00     0.243 C 
ATOM     91  H   UNL A   1      42.073  24.226  25.283  1.00  0.00     0.164 HD
ATOM     92  O   UNL A   1      43.345  22.781  23.705  1.00  0.00    -0.273 OA
BRANCH  90  93
ATOM     93  C   UNL A   1      44.055  21.525  25.694  1.00  0.00     0.174 C 
BRANCH  93  94
ATOM     94  N   UNL A   1      43.218  20.283  25.570  1.00  0.00    -0.343 N 
ATOM     95  C   UNL A   1      42.070  19.660  25.959  1.00  0.00     0.240 C 
ATOM     96  H   UNL A   1      43.692  19.670  24.962  1.00  0.00     0.164 HD
ATOM     97  O   UNL A   1      42.057  18.456  25.647  1.00  0.00    -0.273 OA
BRANCH  95  98
ATOM     98  C   UNL A   1      40.786  20.219  26.675  1.00  0.00     0.219 C 
BRANCH  98  99
ATOM     99  N   UNL A   1      40.614  21.654  26.921  1.00  0.00    -0.312 N 
ATOM    100  C   UNL A   1      39.551  22.458  26.570  1.00  0.00     0.407 C 
ATOM    101  H   UNL A   1      41.351  22.100  27.398  1.00  0.00     0.167 HD
ATOM    102  O   UNL A   1      39.684  23.674  26.546  1.00  0.00    -0.225 OA
BRANCH 100 103
ATOM    103  O   UNL A   1      38.449  21.777  26.164  1.00  0.00    -0.445 OA
BRANCH 103 104
ATOM    104  C   UNL A   1      37.340  22.473  25.538  1.00  0.00     0.270 C 
BRANCH 104 105
ATOM    105  C   UNL A   1      35.956  21.869  25.622  1.00  0.00    -0.011 A 
ATOM    106  C   UNL A   1      34.937  22.465  26.386  1.00  0.00     0.007 A 
ATOM    107  C   UNL A   1      35.662  20.697  24.917  1.00  0.00     0.007 A 
ATOM    108  C   UNL A   1      33.672  21.878  26.478  1.00  0.00     0.000 A 
ATOM    109  C   UNL A   1      34.394  20.119  24.997  1.00  0.00     0.000 A 
ATOM    110  C   UNL A   1      33.402  20.702  25.785  1.00  0.00     0.000 A 
ENDBRANCH 104 105
ENDBRANCH 103 104
ENDBRANCH 100 103
ENDBRANCH  98  99
ENDBRANCH  95  98
ENDBRANCH  93  94
BRANCH  93 111
ATOM    111  C   UNL A   1      45.507  21.529  25.217  1.00  0.00     0.015 C 
ATOM    112  C   UNL A   1      46.302  22.670  25.914  1.00  0.00     0.010 C 
ATOM    113  C   UNL A   1      46.058  20.127  25.159  1.00  0.00     0.010 C 
ENDBRANCH  93 111
ENDBRANCH  90  93
ENDBRANCH  87  89
ENDBRANCH  84  87
ENDBRANCH   1  83
TORSDOF 27
ENDMDL
