MODEL 1
REMARK VINA RESULT:     -11.9      0.000      0.000
REMARK SMILES O=C(COc1cc(-c2ccccc2)nc(Nc2ccccc2Br)n1)NCCCCNC(=O)c1ccc(-c2c3nc(c(-c4cc(S(=O)(=O)[O-])ccc4F)c4ccc([nH]4)c(-c4cc(S(=O)(=O)[O-])ccc4F)c4nc(c(-c5cc(S(=O)(=O)[O-])ccc5F)c5ccc2[nH]5)C=C4)C=C3)cc1
REMARK SMILES IDX 27 1 26 2 25 3 1 4 2 5 3 7 4 8 5 9 6 10 24 11 7 12 15 13
REMARK SMILES IDX 14 14 8 15 9 16 13 17 10 18 12 19 11 20 16 21 17 23 18 24
REMARK SMILES IDX 22 25 19 26 21 27 23 28 20 29 28 30 29 31 30 32 31 33 32 35
REMARK SMILES IDX 33 36 34 37 95 38 35 39 94 40 36 41 37 42 38 43 88 44 39 45
REMARK SMILES IDX 93 46 87 47 89 48 40 49 92 50 86 51 85 52 41 54 73 55 53 56
REMARK SMILES IDX 72 57 54 58 57 59 71 60 90 61 55 62 56 63 70 65 91 66 58 67
REMARK SMILES IDX 42 68 43 69 51 70 44 71 50 72 52 73 49 74 45 75 46 76 47 77
REMARK SMILES IDX 48 78 74 79 75 80 83 81 76 82 82 83 84 84 81 85 77 86 78 87
REMARK SMILES IDX 79 88 80 89 59 90 60 91 68 92 61 93 67 94 69 95 66 96 62 97
REMARK SMILES IDX 63 98 64 99 65 100
REMARK H PARENT 25 6 16 22 30 34 89 53 57 64
REMARK Flexibility Score: inf
ROOT
ATOM      1  C   UNL A   1      31.530  28.112  25.209  1.00  0.00     0.023 C 
ENDROOT
BRANCH   1   2
ATOM      2  C   UNL A   1      31.043  26.959  24.343  1.00  0.00     0.116 C 
BRANCH   2   3
ATOM      3  N   UNL A   1      31.499  25.664  24.809  1.00  0.00    -0.353 N 
ATOM      4  O   UNL A   1      30.054  25.503  26.593  1.00  0.00    -0.271 OA
ATOM      5  C   UNL A   1      30.887  24.993  25.851  1.00  0.00     0.258 C 
ATOM      6  H   UNL A   1      32.273  25.248  24.367  1.00  0.00     0.163 HD
BRANCH   5   7
ATOM      7  C   UNL A   1      31.295  23.520  25.966  1.00  0.00     0.331 C 
BRANCH   7   8
ATOM      8  O   UNL A   1      31.673  22.921  24.730  1.00  0.00    -0.467 OA
BRANCH   8   9
ATOM      9  C   UNL A   1      32.753  22.078  24.829  1.00  0.00     0.219 A 
ATOM     10  C   UNL A   1      32.601  20.727  24.985  1.00  0.00     0.097 A 
ATOM     11  N   UNL A   1      33.934  22.646  24.577  1.00  0.00    -0.177 NA
ATOM     12  C   UNL A   1      33.735  19.961  24.849  1.00  0.00     0.080 A 
ATOM     13  C   UNL A   1      35.004  21.838  24.496  1.00  0.00     0.231 A 
ATOM     14  N   UNL A   1      34.946  20.501  24.612  1.00  0.00    -0.212 NA
BRANCH  12  15
ATOM     15  C   UNL A   1      33.644  18.496  24.916  1.00  0.00     0.000 A 
ATOM     16  C   UNL A   1      34.601  17.674  24.303  1.00  0.00     0.010 A 
ATOM     17  C   UNL A   1      32.617  17.878  25.658  1.00  0.00     0.010 A 
ATOM     18  C   UNL A   1      34.551  16.285  24.454  1.00  0.00     0.001 A 
ATOM     19  C   UNL A   1      32.564  16.492  25.805  1.00  0.00     0.001 A 
ATOM     20  C   UNL A   1      33.536  15.696  25.207  1.00  0.00     0.000 A 
ENDBRANCH  12  15
BRANCH  13  21
ATOM     21  N   UNL A   1      36.256  22.373  24.202  1.00  0.00    -0.323 N 
ATOM     22  H   UNL A   1      36.407  22.614  23.260  1.00  0.00     0.170 HD
BRANCH  21  23
ATOM     23  C   UNL A   1      37.329  22.614  25.068  1.00  0.00     0.055 A 
ATOM     24  C   UNL A   1      37.493  23.913  25.578  1.00  0.00     0.027 A 
ATOM     25  C   UNL A   1      38.214  21.614  25.516  1.00  0.00     0.041 A 
ATOM     26  C   UNL A   1      38.490  24.202  26.516  1.00  0.00     0.002 A 
ATOM     27  C   UNL A   1      39.213  21.906  26.453  1.00  0.00     0.018 A 
ATOM     28  Br  UNL A   1      38.210  19.849  24.795  1.00  0.00    -0.049 Br
ATOM     29  C   UNL A   1      39.345  23.197  26.958  1.00  0.00     0.001 A 
ENDBRANCH  21  23
ENDBRANCH  13  21
ENDBRANCH   8   9
ENDBRANCH   7   8
ENDBRANCH   5   7
ENDBRANCH   2   3
ENDBRANCH   1   2
BRANCH   1  30
ATOM     30  C   UNL A   1      32.923  27.919  25.814  1.00  0.00     0.023 C 
BRANCH  30  31
ATOM     31  C   UNL A   1      33.898  29.077  25.612  1.00  0.00     0.116 C 
BRANCH  31  32
ATOM     32  N   UNL A   1      33.379  30.346  26.097  1.00  0.00    -0.352 N 
ATOM     33  C   UNL A   1      33.816  31.128  27.141  1.00  0.00     0.251 C 
ATOM     34  H   UNL A   1      32.601  30.697  25.606  1.00  0.00     0.163 HD
ATOM     35  O   UNL A   1      33.143  32.095  27.492  1.00  0.00    -0.269 OA
BRANCH  33  36
ATOM     36  C   UNL A   1      35.065  30.788  27.863  1.00  0.00     0.039 A 
ATOM     37  C   UNL A   1      36.091  31.737  27.920  1.00  0.00     0.014 A 
ATOM     38  C   UNL A   1      35.231  29.547  28.482  1.00  0.00     0.014 A 
ATOM     39  C   UNL A   1      37.245  31.469  28.662  1.00  0.00     0.010 A 
ATOM     40  C   UNL A   1      36.347  29.313  29.284  1.00  0.00     0.010 A 
ATOM     41  C   UNL A   1      37.367  30.273  29.387  1.00  0.00    -0.014 A 
BRANCH  41  42
ATOM     42  C   UNL A   1      38.544  30.016  30.263  1.00  0.00     0.031 A 
ATOM     43  C   UNL A   1      39.655  29.114  29.796  1.00  0.00     0.074 A 
ATOM     44  C   UNL A   1      38.586  30.547  31.502  1.00  0.00     0.049 A 
ATOM     45  N   UNL A   1      40.720  28.709  30.441  1.00  0.00    -0.248 NA
ATOM     46  C   UNL A   1      39.538  28.574  28.434  1.00  0.00     0.031 C 
ATOM     47  C   UNL A   1      37.556  31.409  32.085  1.00  0.00     0.029 A 
ATOM     48  N   UNL A   1      39.524  30.437  32.498  1.00  0.00    -0.354 N 
ATOM     49  C   UNL A   1      41.396  27.864  29.567  1.00  0.00     0.074 A 
ATOM     50  C   UNL A   1      40.582  27.762  28.375  1.00  0.00     0.031 C 
ATOM     51  C   UNL A   1      37.930  31.767  33.323  1.00  0.00     0.029 A 
ATOM     52  C   UNL A   1      39.198  31.120  33.647  1.00  0.00     0.049 A 
ATOM     53  H   UNL A   1      40.355  29.917  32.399  1.00  0.00     0.167 HD
ATOM     54  C   UNL A   1      42.595  27.249  29.734  1.00  0.00     0.034 A 
ATOM     55  C   UNL A   1      39.834  31.204  34.834  1.00  0.00     0.034 A 
ATOM     56  C   UNL A   1      43.396  27.361  30.930  1.00  0.00     0.049 A 
ATOM     57  C   UNL A   1      41.142  30.476  35.012  1.00  0.00     0.074 A 
ATOM     58  C   UNL A   1      44.643  26.816  31.186  1.00  0.00     0.029 A 
ATOM     59  N   UNL A   1      43.026  28.054  32.077  1.00  0.00    -0.354 N 
ATOM     60  N   UNL A   1      41.789  29.717  34.159  1.00  0.00    -0.248 NA
ATOM     61  C   UNL A   1      41.810  30.624  36.312  1.00  0.00     0.031 C 
ATOM     62  C   UNL A   1      44.990  27.112  32.509  1.00  0.00     0.029 A 
ATOM     63  C   UNL A   1      44.003  27.920  33.052  1.00  0.00     0.049 A 
ATOM     64  H   UNL A   1      42.192  28.567  32.181  1.00  0.00     0.167 HD
ATOM     65  C   UNL A   1      42.958  29.325  34.809  1.00  0.00     0.074 A 
ATOM     66  C   UNL A   1      42.931  29.945  36.118  1.00  0.00     0.031 C 
ATOM     67  C   UNL A   1      43.963  28.531  34.361  1.00  0.00     0.034 A 
BRANCH  54  68
ATOM     68  C   UNL A   1      43.094  26.382  28.600  1.00  0.00     0.023 A 
ATOM     69  C   UNL A   1      44.166  26.780  27.782  1.00  0.00     0.031 A 
ATOM     70  C   UNL A   1      42.475  25.152  28.316  1.00  0.00     0.131 A 
ATOM     71  C   UNL A   1      44.529  26.002  26.673  1.00  0.00     0.055 A 
ATOM     72  C   UNL A   1      42.902  24.337  27.264  1.00  0.00     0.041 A 
ATOM     73  F   UNL A   1      41.433  24.724  29.046  1.00  0.00    -0.206 F 
ATOM     74  C   UNL A   1      43.924  24.769  26.425  1.00  0.00     0.022 A 
BRANCH  71  75
ATOM     75  S   UNL A   1      45.692  26.702  25.470  1.00  0.00     0.124 S 
ATOM     76  O   UNL A   1      46.788  27.134  26.336  1.00  0.00    -0.237 OA
ATOM     77  O   UNL A   1      45.974  25.563  24.604  1.00  0.00    -0.237 OA
ATOM     78  O   UNL A   1      44.934  27.787  24.851  1.00  0.00    -0.744 OA
ENDBRANCH  71  75
ENDBRANCH  54  68
BRANCH  55  79
ATOM     79  C   UNL A   1      39.239  31.991  35.955  1.00  0.00     0.023 A 
ATOM     80  C   UNL A   1      38.481  31.367  36.958  1.00  0.00     0.031 A 
ATOM     81  C   UNL A   1      39.383  33.388  36.012  1.00  0.00     0.131 A 
ATOM     82  C   UNL A   1      37.858  32.142  37.949  1.00  0.00     0.055 A 
ATOM     83  C   UNL A   1      38.811  34.149  37.033  1.00  0.00     0.041 A 
ATOM     84  F   UNL A   1      40.098  34.037  35.079  1.00  0.00    -0.206 F 
ATOM     85  C   UNL A   1      38.031  33.527  38.002  1.00  0.00     0.022 A 
BRANCH  82  86
ATOM     86  S   UNL A   1      36.737  31.323  39.117  1.00  0.00     0.124 S 
ATOM     87  O   UNL A   1      35.617  32.255  39.155  1.00  0.00    -0.237 OA
ATOM     88  O   UNL A   1      36.489  30.048  38.455  1.00  0.00    -0.237 OA
ATOM     89  O   UNL A   1      37.526  31.243  40.344  1.00  0.00    -0.744 OA
ENDBRANCH  82  86
ENDBRANCH  55  79
BRANCH  67  90
ATOM     90  C   UNL A   1      45.144  28.327  35.282  1.00  0.00     0.023 A 
ATOM     91  C   UNL A   1      45.220  27.234  36.165  1.00  0.00     0.031 A 
ATOM     92  C   UNL A   1      46.207  29.248  35.281  1.00  0.00     0.131 A 
ATOM     93  C   UNL A   1      46.304  27.123  37.049  1.00  0.00     0.055 A 
ATOM     94  C   UNL A   1      47.316  29.094  36.115  1.00  0.00     0.041 A 
ATOM     95  F   UNL A   1      46.189  30.313  34.464  1.00  0.00    -0.206 F 
ATOM     96  C   UNL A   1      47.363  28.035  37.015  1.00  0.00     0.022 A 
BRANCH  93  97
ATOM     97  S   UNL A   1      46.267  25.826  38.316  1.00  0.00     0.124 S 
ATOM     98  O   UNL A   1      44.866  25.845  38.727  1.00  0.00    -0.237 OA
ATOM     99  O   UNL A   1      46.696  24.648  37.571  1.00  0.00    -0.237 OA
ATOM    100  O   UNL A   1      47.214  26.301  39.323  1.00  0.00    -0.744 OA
ENDBRANCH  93  97
ENDBRANCH  67  90
ENDBRANCH  41  42
ENDBRANCH  33  36
ENDBRANCH  31  32
ENDBRANCH  30  31
ENDBRANCH   1  30
TORSDOF 19
ENDMDL
MODEL 2
REMARK VINA RESULT:     -11.8      2.382      7.963
REMARK SMILES O=C(COc1cc(-c2ccccc2)nc(Nc2ccccc2Br)n1)NCCCCNC(=O)c1ccc(-c2c3nc(c(-c4cc(S(=O)(=O)[O-])ccc4F)c4ccc([nH]4)c(-c4cc(S(=O)(=O)[O-])ccc4F)c4nc(c(-c5cc(S(=O)(=O)[O-])ccc5F)c5ccc2[nH]5)C=C4)C=C3)cc1
REMARK SMILES IDX 27 1 26 2 25 3 1 4 2 5 3 7 4 8 5 9 6 10 24 11 7 12 15 13
REMARK SMILES IDX 14 14 8 15 9 16 13 17 10 18 12 19 11 20 16 21 17 23 18 24
REMARK SMILES IDX 22 25 19 26 21 27 23 28 20 29 28 30 29 31 30 32 31 33 32 35
REMARK SMILES IDX 33 36 34 37 95 38 35 39 94 40 36 41 37 42 38 43 88 44 39 45
REMARK SMILES IDX 93 46 87 47 89 48 40 49 92 50 86 51 85 52 41 54 73 55 53 56
REMARK SMILES IDX 72 57 54 58 57 59 71 60 90 61 55 62 56 63 70 65 91 66 58 67
REMARK SMILES IDX 42 68 43 69 51 70 44 71 50 72 52 73 49 74 45 75 46 76 47 77
REMARK SMILES IDX 48 78 74 79 75 80 83 81 76 82 82 83 84 84 81 85 77 86 78 87
REMARK SMILES IDX 79 88 80 89 59 90 60 91 68 92 61 93 67 94 69 95 66 96 62 97
REMARK SMILES IDX 63 98 64 99 65 100
REMARK H PARENT 25 6 16 22 30 34 89 53 57 64
REMARK Flexibility Score: inf
ROOT
ATOM      1  C   UNL A   1      30.999  29.318  24.018  1.00  0.00     0.023 C 
ENDROOT
BRANCH   1   2
ATOM      2  C   UNL A   1      31.513  28.911  22.644  1.00  0.00     0.116 C 
BRANCH   2   3
ATOM      3  N   UNL A   1      31.934  27.526  22.581  1.00  0.00    -0.353 N 
ATOM      4  O   UNL A   1      34.027  27.926  21.711  1.00  0.00    -0.271 OA
ATOM      5  C   UNL A   1      33.212  27.154  22.207  1.00  0.00     0.258 C 
ATOM      6  H   UNL A   1      31.285  26.823  22.812  1.00  0.00     0.163 HD
BRANCH   5   7
ATOM      7  C   UNL A   1      33.553  25.695  22.525  1.00  0.00     0.331 C 
BRANCH   7   8
ATOM      8  O   UNL A   1      33.350  25.331  23.887  1.00  0.00    -0.467 OA
BRANCH   8   9
ATOM      9  C   UNL A   1      33.996  24.176  24.256  1.00  0.00     0.219 A 
ATOM     10  C   UNL A   1      35.296  24.184  24.684  1.00  0.00     0.097 A 
ATOM     11  N   UNL A   1      33.215  23.098  24.340  1.00  0.00    -0.177 NA
ATOM     12  C   UNL A   1      35.769  23.015  25.235  1.00  0.00     0.080 A 
ATOM     13  C   UNL A   1      33.757  21.981  24.855  1.00  0.00     0.231 A 
ATOM     14  N   UNL A   1      35.015  21.902  25.321  1.00  0.00    -0.212 NA
BRANCH  12  15
ATOM     15  C   UNL A   1      37.124  22.964  25.798  1.00  0.00     0.000 A 
ATOM     16  C   UNL A   1      37.930  21.825  25.666  1.00  0.00     0.010 A 
ATOM     17  C   UNL A   1      37.674  24.095  26.435  1.00  0.00     0.010 A 
ATOM     18  C   UNL A   1      39.251  21.827  26.126  1.00  0.00     0.001 A 
ATOM     19  C   UNL A   1      38.990  24.096  26.899  1.00  0.00     0.001 A 
ATOM     20  C   UNL A   1      39.780  22.961  26.738  1.00  0.00     0.000 A 
ENDBRANCH  12  15
BRANCH  13  21
ATOM     21  N   UNL A   1      32.978  20.835  24.998  1.00  0.00    -0.323 N 
ATOM     22  H   UNL A   1      32.248  20.895  25.655  1.00  0.00     0.170 HD
BRANCH  21  23
ATOM     23  C   UNL A   1      33.096  19.609  24.332  1.00  0.00     0.055 A 
ATOM     24  C   UNL A   1      33.741  18.551  24.995  1.00  0.00     0.027 A 
ATOM     25  C   UNL A   1      32.542  19.351  23.063  1.00  0.00     0.041 A 
ATOM     26  C   UNL A   1      33.814  17.277  24.423  1.00  0.00     0.002 A 
ATOM     27  C   UNL A   1      32.619  18.076  22.492  1.00  0.00     0.018 A 
ATOM     28  Br  UNL A   1      31.778  20.726  21.984  1.00  0.00    -0.049 Br
ATOM     29  C   UNL A   1      33.248  17.038  23.175  1.00  0.00     0.001 A 
ENDBRANCH  21  23
ENDBRANCH  13  21
ENDBRANCH   8   9
ENDBRANCH   7   8
ENDBRANCH   5   7
ENDBRANCH   2   3
ENDBRANCH   1   2
BRANCH   1  30
ATOM     30  C   UNL A   1      31.652  28.584  25.192  1.00  0.00     0.023 C 
BRANCH  30  31
ATOM     31  C   UNL A   1      32.855  29.282  25.821  1.00  0.00     0.116 C 
BRANCH  31  32
ATOM     32  N   UNL A   1      32.570  30.649  26.229  1.00  0.00    -0.352 N 
ATOM     33  C   UNL A   1      33.247  31.457  27.112  1.00  0.00     0.251 C 
ATOM     34  H   UNL A   1      31.776  31.055  25.812  1.00  0.00     0.163 HD
ATOM     35  O   UNL A   1      32.754  32.534  27.442  1.00  0.00    -0.269 OA
BRANCH  33  36
ATOM     36  C   UNL A   1      34.539  31.021  27.691  1.00  0.00     0.039 A 
ATOM     37  C   UNL A   1      35.541  31.973  27.902  1.00  0.00     0.014 A 
ATOM     38  C   UNL A   1      34.769  29.685  28.029  1.00  0.00     0.014 A 
ATOM     39  C   UNL A   1      36.738  31.599  28.520  1.00  0.00     0.010 A 
ATOM     40  C   UNL A   1      35.929  29.329  28.715  1.00  0.00     0.010 A 
ATOM     41  C   UNL A   1      36.927  30.283  28.973  1.00  0.00    -0.014 A 
BRANCH  41  42
ATOM     42  C   UNL A   1      38.153  29.892  29.723  1.00  0.00     0.031 A 
ATOM     43  C   UNL A   1      38.402  30.433  31.106  1.00  0.00     0.074 A 
ATOM     44  C   UNL A   1      39.072  29.097  29.138  1.00  0.00     0.049 A 
ATOM     45  N   UNL A   1      39.441  30.270  31.885  1.00  0.00    -0.248 NA
ATOM     46  C   UNL A   1      37.354  31.291  31.676  1.00  0.00     0.031 C 
ATOM     47  C   UNL A   1      38.965  28.536  27.789  1.00  0.00     0.029 A 
ATOM     48  N   UNL A   1      40.278  28.627  29.595  1.00  0.00    -0.354 N 
ATOM     49  C   UNL A   1      39.176  31.010  33.033  1.00  0.00     0.074 A 
ATOM     50  C   UNL A   1      37.909  31.675  32.815  1.00  0.00     0.031 C 
ATOM     51  C   UNL A   1      40.047  27.782  27.539  1.00  0.00     0.029 A 
ATOM     52  C   UNL A   1      40.951  27.845  28.684  1.00  0.00     0.049 A 
ATOM     53  H   UNL A   1      40.630  28.831  30.491  1.00  0.00     0.167 HD
ATOM     54  C   UNL A   1      39.909  31.106  34.172  1.00  0.00     0.034 A 
ATOM     55  C   UNL A   1      42.164  27.259  28.750  1.00  0.00     0.034 A 
ATOM     56  C   UNL A   1      41.172  30.436  34.374  1.00  0.00     0.049 A 
ATOM     57  C   UNL A   1      42.981  27.417  30.008  1.00  0.00     0.074 A 
ATOM     58  C   UNL A   1      41.973  30.431  35.503  1.00  0.00     0.029 A 
ATOM     59  N   UNL A   1      41.825  29.661  33.423  1.00  0.00    -0.354 N 
ATOM     60  N   UNL A   1      42.695  28.084  31.102  1.00  0.00    -0.248 NA
ATOM     61  C   UNL A   1      44.281  26.736  30.042  1.00  0.00     0.031 C 
ATOM     62  C   UNL A   1      43.143  29.722  35.209  1.00  0.00     0.029 A 
ATOM     63  C   UNL A   1      43.034  29.204  33.928  1.00  0.00     0.049 A 
ATOM     64  H   UNL A   1      41.480  29.463  32.522  1.00  0.00     0.167 HD
ATOM     65  C   UNL A   1      43.767  27.873  31.966  1.00  0.00     0.074 A 
ATOM     66  C   UNL A   1      44.695  27.005  31.272  1.00  0.00     0.031 C 
ATOM     67  C   UNL A   1      43.961  28.349  33.223  1.00  0.00     0.034 A 
BRANCH  54  68
ATOM     68  C   UNL A   1      39.369  31.991  35.272  1.00  0.00     0.023 A 
ATOM     69  C   UNL A   1      39.723  33.348  35.371  1.00  0.00     0.031 A 
ATOM     70  C   UNL A   1      38.507  31.466  36.252  1.00  0.00     0.131 A 
ATOM     71  C   UNL A   1      39.290  34.108  36.467  1.00  0.00     0.055 A 
ATOM     72  C   UNL A   1      38.005  32.254  37.291  1.00  0.00     0.041 A 
ATOM     73  F   UNL A   1      38.147  30.173  36.227  1.00  0.00    -0.206 F 
ATOM     74  C   UNL A   1      38.411  33.579  37.413  1.00  0.00     0.022 A 
BRANCH  71  75
ATOM     75  S   UNL A   1      40.022  35.748  36.724  1.00  0.00     0.124 S 
ATOM     76  O   UNL A   1      41.439  35.418  36.870  1.00  0.00    -0.237 OA
ATOM     77  O   UNL A   1      39.653  36.453  35.502  1.00  0.00    -0.237 OA
ATOM     78  O   UNL A   1      39.374  36.226  37.943  1.00  0.00    -0.744 OA
ENDBRANCH  71  75
ENDBRANCH  54  68
BRANCH  55  79
ATOM     79  C   UNL A   1      42.693  26.485  27.589  1.00  0.00     0.023 A 
ATOM     80  C   UNL A   1      42.729  25.081  27.607  1.00  0.00     0.031 A 
ATOM     81  C   UNL A   1      43.212  27.141  26.459  1.00  0.00     0.131 A 
ATOM     82  C   UNL A   1      43.316  24.383  26.540  1.00  0.00     0.055 A 
ATOM     83  C   UNL A   1      43.739  26.440  25.374  1.00  0.00     0.041 A 
ATOM     84  F   UNL A   1      43.201  28.483  26.387  1.00  0.00    -0.206 F 
ATOM     85  C   UNL A   1      43.806  25.052  25.416  1.00  0.00     0.022 A 
BRANCH  82  86
ATOM     86  S   UNL A   1      43.513  22.585  26.682  1.00  0.00     0.124 S 
ATOM     87  O   UNL A   1      44.965  22.446  26.684  1.00  0.00    -0.237 OA
ATOM     88  O   UNL A   1      42.840  22.305  27.946  1.00  0.00    -0.237 OA
ATOM     89  O   UNL A   1      42.837  22.073  25.493  1.00  0.00    -0.744 OA
ENDBRANCH  82  86
ENDBRANCH  55  79
BRANCH  67  90
ATOM     90  C   UNL A   1      45.209  27.897  33.947  1.00  0.00     0.023 A 
ATOM     91  C   UNL A   1      45.247  26.706  34.693  1.00  0.00     0.031 A 
ATOM     92  C   UNL A   1      46.377  28.680  33.896  1.00  0.00     0.131 A 
ATOM     93  C   UNL A   1      46.407  26.361  35.403  1.00  0.00     0.055 A 
ATOM     94  C   UNL A   1      47.550  28.297  34.549  1.00  0.00     0.041 A 
ATOM     95  F   UNL A   1      46.400  29.830  33.204  1.00  0.00    -0.206 F 
ATOM     96  C   UNL A   1      47.566  27.139  35.319  1.00  0.00     0.022 A 
BRANCH  93  97
ATOM     97  S   UNL A   1      46.354  24.935  36.522  1.00  0.00     0.124 S 
ATOM     98  O   UNL A   1      47.769  24.721  36.807  1.00  0.00    -0.237 OA
ATOM     99  O   UNL A   1      45.549  25.437  37.631  1.00  0.00    -0.237 OA
ATOM    100  O   UNL A   1      45.719  23.892  35.718  1.00  0.00    -0.744 OA
ENDBRANCH  93  97
ENDBRANCH  67  90
ENDBRANCH  41  42
ENDBRANCH  33  36
ENDBRANCH  31  32
ENDBRANCH  30  31
ENDBRANCH   1  30
TORSDOF 19
ENDMDL
MODEL 3
REMARK VINA RESULT:     -11.4      3.151      9.441
REMARK SMILES O=C(COc1cc(-c2ccccc2)nc(Nc2ccccc2Br)n1)NCCCCNC(=O)c1ccc(-c2c3nc(c(-c4cc(S(=O)(=O)[O-])ccc4F)c4ccc([nH]4)c(-c4cc(S(=O)(=O)[O-])ccc4F)c4nc(c(-c5cc(S(=O)(=O)[O-])ccc5F)c5ccc2[nH]5)C=C4)C=C3)cc1
REMARK SMILES IDX 27 1 26 2 25 3 1 4 2 5 3 7 4 8 5 9 6 10 24 11 7 12 15 13
REMARK SMILES IDX 14 14 8 15 9 16 13 17 10 18 12 19 11 20 16 21 17 23 18 24
REMARK SMILES IDX 22 25 19 26 21 27 23 28 20 29 28 30 29 31 30 32 31 33 32 35
REMARK SMILES IDX 33 36 34 37 95 38 35 39 94 40 36 41 37 42 38 43 88 44 39 45
REMARK SMILES IDX 93 46 87 47 89 48 40 49 92 50 86 51 85 52 41 54 73 55 53 56
REMARK SMILES IDX 72 57 54 58 57 59 71 60 90 61 55 62 56 63 70 65 91 66 58 67
REMARK SMILES IDX 42 68 43 69 51 70 44 71 50 72 52 73 49 74 45 75 46 76 47 77
REMARK SMILES IDX 48 78 74 79 75 80 83 81 76 82 82 83 84 84 81 85 77 86 78 87
REMARK SMILES IDX 79 88 80 89 59 90 60 91 68 92 61 93 67 94 69 95 66 96 62 97
REMARK SMILES IDX 63 98 64 99 65 100
REMARK H PARENT 25 6 16 22 30 34 89 53 57 64
REMARK Flexibility Score: inf
ROOT
ATOM      1  C   UNL A   1      35.715  33.890  28.295  1.00  0.00     0.023 C 
ENDROOT
BRANCH   1   2
ATOM      2  C   UNL A   1      35.486  32.508  28.893  1.00  0.00     0.116 C 
BRANCH   2   3
ATOM      3  N   UNL A   1      34.754  31.620  28.012  1.00  0.00    -0.353 N 
ATOM      4  O   UNL A   1      36.422  30.052  27.774  1.00  0.00    -0.271 OA
ATOM      5  C   UNL A   1      35.258  30.400  27.603  1.00  0.00     0.258 C 
ATOM      6  H   UNL A   1      33.865  31.896  27.693  1.00  0.00     0.163 HD
BRANCH   5   7
ATOM      7  C   UNL A   1      34.213  29.479  26.963  1.00  0.00     0.331 C 
BRANCH   7   8
ATOM      8  O   UNL A   1      32.883  29.990  27.000  1.00  0.00    -0.467 OA
BRANCH   8   9
ATOM      9  C   UNL A   1      32.039  29.409  26.086  1.00  0.00     0.219 A 
ATOM     10  C   UNL A   1      31.149  30.150  25.355  1.00  0.00     0.097 A 
ATOM     11  N   UNL A   1      32.281  28.121  25.836  1.00  0.00    -0.177 NA
ATOM     12  C   UNL A   1      30.516  29.503  24.319  1.00  0.00     0.080 A 
ATOM     13  C   UNL A   1      31.598  27.547  24.833  1.00  0.00     0.231 A 
ATOM     14  N   UNL A   1      30.724  28.200  24.049  1.00  0.00    -0.212 NA
BRANCH  12  15
ATOM     15  C   UNL A   1      29.613  30.248  23.432  1.00  0.00     0.000 A 
ATOM     16  C   UNL A   1      29.140  31.523  23.771  1.00  0.00     0.010 A 
ATOM     17  C   UNL A   1      29.248  29.718  22.178  1.00  0.00     0.010 A 
ATOM     18  C   UNL A   1      28.356  32.257  22.875  1.00  0.00     0.001 A 
ATOM     19  C   UNL A   1      28.462  30.447  21.285  1.00  0.00     0.001 A 
ATOM     20  C   UNL A   1      28.021  31.720  21.633  1.00  0.00     0.000 A 
ENDBRANCH  12  15
BRANCH  13  21
ATOM     21  N   UNL A   1      31.834  26.213  24.506  1.00  0.00    -0.323 N 
ATOM     22  H   UNL A   1      32.050  26.038  23.562  1.00  0.00     0.170 HD
BRANCH  21  23
ATOM     23  C   UNL A   1      31.807  25.090  25.341  1.00  0.00     0.055 A 
ATOM     24  C   UNL A   1      30.573  24.693  25.883  1.00  0.00     0.027 A 
ATOM     25  C   UNL A   1      32.935  24.291  25.614  1.00  0.00     0.041 A 
ATOM     26  C   UNL A   1      30.461  23.531  26.652  1.00  0.00     0.002 A 
ATOM     27  C   UNL A   1      32.821  23.130  26.387  1.00  0.00     0.018 A 
ATOM     28  Br  UNL A   1      34.695  24.791  25.079  1.00  0.00    -0.049 Br
ATOM     29  C   UNL A   1      31.584  22.746  26.899  1.00  0.00     0.001 A 
ENDBRANCH  21  23
ENDBRANCH  13  21
ENDBRANCH   8   9
ENDBRANCH   7   8
ENDBRANCH   5   7
ENDBRANCH   2   3
ENDBRANCH   1   2
BRANCH   1  30
ATOM     30  C   UNL A   1      34.576  34.887  28.527  1.00  0.00     0.023 C 
BRANCH  30  31
ATOM     31  C   UNL A   1      33.335  34.324  29.214  1.00  0.00     0.116 C 
BRANCH  31  32
ATOM     32  N   UNL A   1      32.770  35.232  30.200  1.00  0.00    -0.352 N 
ATOM     33  C   UNL A   1      33.118  35.416  31.518  1.00  0.00     0.251 C 
ATOM     34  H   UNL A   1      32.032  35.796  29.877  1.00  0.00     0.163 HD
ATOM     35  O   UNL A   1      32.412  36.126  32.233  1.00  0.00    -0.269 OA
BRANCH  33  36
ATOM     36  C   UNL A   1      34.308  34.739  32.084  1.00  0.00     0.039 A 
ATOM     37  C   UNL A   1      34.152  33.484  32.680  1.00  0.00     0.014 A 
ATOM     38  C   UNL A   1      35.573  35.329  32.029  1.00  0.00     0.014 A 
ATOM     39  C   UNL A   1      35.272  32.791  33.148  1.00  0.00     0.010 A 
ATOM     40  C   UNL A   1      36.697  34.605  32.425  1.00  0.00     0.010 A 
ATOM     41  C   UNL A   1      36.561  33.325  32.987  1.00  0.00    -0.014 A 
BRANCH  41  42
ATOM     42  C   UNL A   1      37.772  32.556  33.388  1.00  0.00     0.031 A 
ATOM     43  C   UNL A   1      38.499  32.894  34.662  1.00  0.00     0.074 A 
ATOM     44  C   UNL A   1      38.253  31.593  32.576  1.00  0.00     0.049 A 
ATOM     45  N   UNL A   1      39.609  32.393  35.141  1.00  0.00    -0.248 NA
ATOM     46  C   UNL A   1      37.912  33.956  35.493  1.00  0.00     0.031 C 
ATOM     47  C   UNL A   1      37.661  31.194  31.298  1.00  0.00     0.029 A 
ATOM     48  N   UNL A   1      39.351  30.778  32.698  1.00  0.00    -0.354 N 
ATOM     49  C   UNL A   1      39.858  33.081  36.324  1.00  0.00     0.074 A 
ATOM     50  C   UNL A   1      38.818  34.080  36.450  1.00  0.00     0.031 C 
ATOM     51  C   UNL A   1      38.387  30.198  30.767  1.00  0.00     0.029 A 
ATOM     52  C   UNL A   1      39.526  29.919  31.636  1.00  0.00     0.049 A 
ATOM     53  H   UNL A   1      39.958  30.805  33.473  1.00  0.00     0.167 HD
ATOM     54  C   UNL A   1      40.847  32.881  37.233  1.00  0.00     0.034 A 
ATOM     55  C   UNL A   1      40.501  29.024  31.378  1.00  0.00     0.034 A 
ATOM     56  C   UNL A   1      41.877  31.879  37.092  1.00  0.00     0.049 A 
ATOM     57  C   UNL A   1      41.615  28.851  32.380  1.00  0.00     0.074 A 
ATOM     58  C   UNL A   1      42.899  31.565  37.973  1.00  0.00     0.029 A 
ATOM     59  N   UNL A   1      42.027  31.037  35.997  1.00  0.00    -0.354 N 
ATOM     60  N   UNL A   1      41.811  29.479  33.517  1.00  0.00    -0.248 NA
ATOM     61  C   UNL A   1      42.636  27.842  32.068  1.00  0.00     0.031 C 
ATOM     62  C   UNL A   1      43.709  30.592  37.378  1.00  0.00     0.029 A 
ATOM     63  C   UNL A   1      43.143  30.230  36.165  1.00  0.00     0.049 A 
ATOM     64  H   UNL A   1      41.428  31.015  35.217  1.00  0.00     0.167 HD
ATOM     65  C   UNL A   1      42.958  28.915  34.070  1.00  0.00     0.074 A 
ATOM     66  C   UNL A   1      43.400  27.887  33.149  1.00  0.00     0.031 C 
ATOM     67  C   UNL A   1      43.585  29.216  35.236  1.00  0.00     0.034 A 
BRANCH  54  68
ATOM     68  C   UNL A   1      40.870  33.786  38.444  1.00  0.00     0.023 A 
ATOM     69  C   UNL A   1      40.052  33.546  39.562  1.00  0.00     0.031 A 
ATOM     70  C   UNL A   1      41.701  34.921  38.473  1.00  0.00     0.131 A 
ATOM     71  C   UNL A   1      40.019  34.466  40.619  1.00  0.00     0.055 A 
ATOM     72  C   UNL A   1      41.731  35.785  39.570  1.00  0.00     0.041 A 
ATOM     73  F   UNL A   1      42.490  35.219  37.428  1.00  0.00    -0.206 F 
ATOM     74  C   UNL A   1      40.874  35.570  40.644  1.00  0.00     0.022 A 
BRANCH  71  75
ATOM     75  S   UNL A   1      38.729  34.287  41.881  1.00  0.00     0.124 S 
ATOM     76  O   UNL A   1      38.572  35.666  42.340  1.00  0.00    -0.237 OA
ATOM     77  O   UNL A   1      37.615  33.737  41.118  1.00  0.00    -0.237 OA
ATOM     78  O   UNL A   1      39.328  33.379  42.857  1.00  0.00    -0.744 OA
ENDBRANCH  71  75
ENDBRANCH  54  68
BRANCH  55  79
ATOM     79  C   UNL A   1      40.484  28.232  30.113  1.00  0.00     0.023 A 
ATOM     80  C   UNL A   1      41.397  28.493  29.080  1.00  0.00     0.031 A 
ATOM     81  C   UNL A   1      39.520  27.230  29.901  1.00  0.00     0.131 A 
ATOM     82  C   UNL A   1      41.299  27.795  27.865  1.00  0.00     0.055 A 
ATOM     83  C   UNL A   1      39.464  26.497  28.715  1.00  0.00     0.041 A 
ATOM     84  F   UNL A   1      38.622  26.938  30.856  1.00  0.00    -0.206 F 
ATOM     85  C   UNL A   1      40.349  26.788  27.682  1.00  0.00     0.022 A 
BRANCH  82  86
ATOM     86  S   UNL A   1      42.374  28.288  26.490  1.00  0.00     0.124 S 
ATOM     87  O   UNL A   1      43.648  27.700  26.885  1.00  0.00    -0.237 OA
ATOM     88  O   UNL A   1      41.708  27.669  25.349  1.00  0.00    -0.237 OA
ATOM     89  O   UNL A   1      42.320  29.747  26.522  1.00  0.00    -0.744 OA
ENDBRANCH  82  86
ENDBRANCH  55  79
BRANCH  67  90
ATOM     90  C   UNL A   1      44.793  28.385  35.604  1.00  0.00     0.023 A 
ATOM     91  C   UNL A   1      44.672  27.124  36.216  1.00  0.00     0.031 A 
ATOM     92  C   UNL A   1      46.088  28.871  35.348  1.00  0.00     0.131 A 
ATOM     93  C   UNL A   1      45.822  26.420  36.601  1.00  0.00     0.055 A 
ATOM     94  C   UNL A   1      47.229  28.134  35.672  1.00  0.00     0.041 A 
ATOM     95  F   UNL A   1      46.268  30.070  34.771  1.00  0.00    -0.206 F 
ATOM     96  C   UNL A   1      47.100  26.907  36.314  1.00  0.00     0.022 A 
BRANCH  93  97
ATOM     97  S   UNL A   1      45.629  24.901  37.575  1.00  0.00     0.124 S 
ATOM     98  O   UNL A   1      44.491  25.231  38.427  1.00  0.00    -0.237 OA
ATOM     99  O   UNL A   1      45.384  23.898  36.544  1.00  0.00    -0.237 OA
ATOM    100  O   UNL A   1      46.909  24.775  38.270  1.00  0.00    -0.744 OA
ENDBRANCH  93  97
ENDBRANCH  67  90
ENDBRANCH  41  42
ENDBRANCH  33  36
ENDBRANCH  31  32
ENDBRANCH  30  31
ENDBRANCH   1  30
TORSDOF 19
ENDMDL
