MODEL 1
REMARK VINA RESULT:     -15.6      0.000      0.000
REMARK SMILES CC1=C(C)C[C@@H](C(=O)NCCCCNC(=O)c2ccc(-c3c4nc(c(-c5cc(S(=O)(=O)[O-])ccc5F)c5ccc([nH]5)c(-c5cc(S(=O)(=O)[O-])ccc5F)c5nc(c(-c6cc(S(=O)(=O)[O-])ccc6F)c6ccc3[nH]6)C=C5)C=C4)cc2)[C@@H](C(=O)NCC[NH+]2CCOCC2)C1
REMARK SMILES IDX 11 1 10 2 9 3 7 4 8 5 6 7 1 8 2 9 3 10 92 11 4 12 5 13 80 14
REMARK SMILES IDX 81 15 82 16 83 17 84 19 85 20 86 21 87 22 91 23 88 25 90 26
REMARK SMILES IDX 89 27 12 28 13 29 14 30 15 31 16 33 17 34 18 35 79 36 19 37
REMARK SMILES IDX 78 38 20 39 21 40 22 41 72 42 23 43 77 44 71 45 73 46 24 47
REMARK SMILES IDX 76 48 70 49 69 50 25 52 57 53 37 54 56 55 38 56 41 57 55 58
REMARK SMILES IDX 74 59 39 60 40 61 54 63 75 64 42 65 26 66 27 67 35 68 28 69
REMARK SMILES IDX 34 70 36 71 33 72 29 73 30 74 31 75 32 76 58 77 59 78 67 79
REMARK SMILES IDX 60 80 66 81 68 82 65 83 61 84 62 85 63 86 64 87 43 88 44 89
REMARK SMILES IDX 52 90 45 91 51 92 53 93 50 94 46 95 47 96 48 97 49 98
REMARK H PARENT 9 6 83 18 86 24 14 32 73 51 41 62
REMARK Flexibility Score: inf
ROOT
ATOM      1  C   UNL A   1      34.833  28.959  27.354  1.00  0.00     0.023 C 
ENDROOT
BRANCH   1   2
ATOM      2  C   UNL A   1      33.942  27.719  26.180  1.00  0.00     0.116 C 
BRANCH   2   3
ATOM      3  N   UNL A   1      33.579  26.225  26.338  1.00  0.00    -0.356 N 
ATOM      4  C   UNL A   1      33.375  25.175  25.497  1.00  0.00     0.224 C 
ATOM      5  O   UNL A   1      32.778  24.166  25.858  1.00  0.00    -0.275 OA
ATOM      6  H   UNL A   1      33.468  25.969  27.282  1.00  0.00     0.163 HD
BRANCH   4   7
ATOM      7  C   UNL A   1      34.044  25.278  24.186  1.00  0.00     0.095 C 
ATOM      8  C   UNL A   1      32.154  21.780  22.228  1.00  0.00     0.039 C 
ATOM      9  C   UNL A   1      32.830  23.102  22.560  1.00  0.00    -0.074 C 
ATOM     10  C   UNL A   1      32.115  24.188  22.928  1.00  0.00    -0.074 C 
ATOM     11  C   UNL A   1      34.390  23.092  22.876  1.00  0.00     0.045 C 
ATOM     12  C   UNL A   1      30.647  24.188  23.324  1.00  0.00     0.039 C 
ATOM     13  C   UNL A   1      32.871  25.460  23.211  1.00  0.00     0.045 C 
ATOM     14  C   UNL A   1      34.929  24.039  24.099  1.00  0.00     0.095 C 
BRANCH  14  15
ATOM     15  C   UNL A   1      35.528  23.704  25.748  1.00  0.00     0.224 C 
ATOM     16  O   UNL A   1      36.557  24.347  26.044  1.00  0.00    -0.275 OA
ATOM     17  N   UNL A   1      35.035  22.827  26.846  1.00  0.00    -0.350 N 
ATOM     18  H   UNL A   1      35.319  23.219  27.703  1.00  0.00     0.163 HD
BRANCH  17  19
ATOM     19  C   UNL A   1      34.096  21.283  27.202  1.00  0.00     0.177 C 
BRANCH  19  20
ATOM     20  C   UNL A   1      33.217  20.087  25.890  1.00  0.00     0.283 C 
BRANCH  20  21
ATOM     21  N   UNL A   1      33.319  18.497  25.315  1.00  0.00    -0.330 N 
ATOM     22  C   UNL A   1      32.453  17.337  25.748  1.00  0.00     0.291 C 
ATOM     23  C   UNL A   1      33.860  18.047  23.994  1.00  0.00     0.291 C 
ATOM     24  H   UNL A   1      34.021  18.833  25.973  1.00  0.00     0.348 HD
ATOM     25  C   UNL A   1      33.107  15.943  25.693  1.00  0.00     0.221 C 
ATOM     26  C   UNL A   1      34.535  16.670  24.034  1.00  0.00     0.221 C 
ATOM     27  O   UNL A   1      33.625  15.647  24.409  1.00  0.00    -0.370 OA
ENDBRANCH  20  21
ENDBRANCH  19  20
ENDBRANCH  17  19
ENDBRANCH  14  15
ENDBRANCH   4   7
ENDBRANCH   2   3
ENDBRANCH   1   2
BRANCH   1  28
ATOM     28  C   UNL A   1      34.363  30.723  27.887  1.00  0.00     0.023 C 
BRANCH  28  29
ATOM     29  C   UNL A   1      33.446  32.116  27.151  1.00  0.00     0.116 C 
BRANCH  29  30
ATOM     30  N   UNL A   1      33.203  33.399  27.913  1.00  0.00    -0.352 N 
ATOM     31  C   UNL A   1      33.564  34.214  28.942  1.00  0.00     0.251 C 
ATOM     32  H   UNL A   1      32.447  33.843  27.467  1.00  0.00     0.163 HD
ATOM     33  O   UNL A   1      32.861  35.136  29.310  1.00  0.00    -0.269 OA
BRANCH  31  34
ATOM     34  C   UNL A   1      34.639  33.766  29.751  1.00  0.00     0.039 A 
ATOM     35  C   UNL A   1      34.409  32.744  30.683  1.00  0.00     0.014 A 
ATOM     36  C   UNL A   1      35.860  34.278  29.372  1.00  0.00     0.014 A 
ATOM     37  C   UNL A   1      35.512  32.160  31.244  1.00  0.00     0.010 A 
ATOM     38  C   UNL A   1      36.950  33.647  29.876  1.00  0.00     0.010 A 
ATOM     39  C   UNL A   1      36.763  32.619  30.820  1.00  0.00    -0.014 A 
BRANCH  39  40
ATOM     40  C   UNL A   1      37.970  32.164  31.477  1.00  0.00     0.031 A 
ATOM     41  C   UNL A   1      38.725  31.092  30.773  1.00  0.00     0.074 A 
ATOM     42  C   UNL A   1      38.217  32.623  32.707  1.00  0.00     0.049 A 
ATOM     43  N   UNL A   1      39.667  30.327  31.230  1.00  0.00    -0.248 NA
ATOM     44  C   UNL A   1      38.302  30.788  29.390  1.00  0.00     0.031 C 
ATOM     45  C   UNL A   1      37.445  33.655  33.407  1.00  0.00     0.029 A 
ATOM     46  N   UNL A   1      39.175  32.251  33.594  1.00  0.00    -0.354 N 
ATOM     47  C   UNL A   1      39.930  29.432  30.204  1.00  0.00     0.074 A 
ATOM     48  C   UNL A   1      38.992  29.690  29.138  1.00  0.00     0.031 C 
ATOM     49  C   UNL A   1      37.979  33.841  34.625  1.00  0.00     0.029 A 
ATOM     50  C   UNL A   1      39.081  32.904  34.795  1.00  0.00     0.049 A 
ATOM     51  H   UNL A   1      39.868  31.581  33.395  1.00  0.00     0.167 HD
ATOM     52  C   UNL A   1      40.903  28.498  30.171  1.00  0.00     0.034 A 
ATOM     53  C   UNL A   1      39.815  32.721  35.902  1.00  0.00     0.034 A 
ATOM     54  C   UNL A   1      41.810  28.318  31.271  1.00  0.00     0.049 A 
ATOM     55  C   UNL A   1      40.901  31.678  35.832  1.00  0.00     0.074 A 
ATOM     56  C   UNL A   1      42.882  27.459  31.377  1.00  0.00     0.029 A 
ATOM     57  N   UNL A   1      41.739  29.028  32.469  1.00  0.00    -0.354 N 
ATOM     58  N   UNL A   1      41.197  30.857  34.846  1.00  0.00    -0.248 NA
ATOM     59  C   UNL A   1      41.762  31.553  37.006  1.00  0.00     0.031 C 
ATOM     60  C   UNL A   1      43.414  27.596  32.662  1.00  0.00     0.029 A 
ATOM     61  C   UNL A   1      42.734  28.606  33.330  1.00  0.00     0.049 A 
ATOM     62  H   UNL A   1      41.077  29.727  32.673  1.00  0.00     0.167 HD
ATOM     63  C   UNL A   1      42.306  30.136  35.271  1.00  0.00     0.074 A 
ATOM     64  C   UNL A   1      42.632  30.644  36.593  1.00  0.00     0.031 C 
ATOM     65  C   UNL A   1      42.998  29.147  34.645  1.00  0.00     0.034 A 
BRANCH  52  66
ATOM     66  C   UNL A   1      40.986  27.627  28.946  1.00  0.00     0.023 A 
ATOM     67  C   UNL A   1      41.984  27.810  27.970  1.00  0.00     0.031 A 
ATOM     68  C   UNL A   1      40.017  26.636  28.717  1.00  0.00     0.131 A 
ATOM     69  C   UNL A   1      41.947  27.067  26.781  1.00  0.00     0.055 A 
ATOM     70  C   UNL A   1      40.039  25.838  27.572  1.00  0.00     0.041 A 
ATOM     71  F   UNL A   1      39.016  26.446  29.590  1.00  0.00    -0.206 F 
ATOM     72  C   UNL A   1      41.000  26.061  26.590  1.00  0.00     0.022 A 
BRANCH  69  73
ATOM     73  S   UNL A   1      43.062  27.538  25.430  1.00  0.00     0.124 S 
ATOM     74  O   UNL A   1      44.054  28.347  26.134  1.00  0.00    -0.237 OA
ATOM     75  O   UNL A   1      43.526  26.247  24.937  1.00  0.00    -0.237 OA
ATOM     76  O   UNL A   1      42.197  28.282  24.516  1.00  0.00    -0.744 OA
ENDBRANCH  69  73
ENDBRANCH  52  66
BRANCH  53  77
ATOM     77  C   UNL A   1      39.564  33.536  37.116  1.00  0.00     0.023 A 
ATOM     78  C   UNL A   1      38.911  32.979  38.224  1.00  0.00     0.031 A 
ATOM     79  C   UNL A   1      39.963  34.882  37.191  1.00  0.00     0.131 A 
ATOM     80  C   UNL A   1      38.616  33.779  39.335  1.00  0.00     0.055 A 
ATOM     81  C   UNL A   1      39.721  35.659  38.325  1.00  0.00     0.041 A 
ATOM     82  F   UNL A   1      40.611  35.458  36.166  1.00  0.00    -0.206 F 
ATOM     83  C   UNL A   1      39.027  35.113  39.399  1.00  0.00     0.022 A 
BRANCH  80  84
ATOM     84  S   UNL A   1      37.593  33.074  40.655  1.00  0.00     0.124 S 
ATOM     85  O   UNL A   1      37.632  34.132  41.657  1.00  0.00    -0.237 OA
ATOM     86  O   UNL A   1      36.316  32.882  39.975  1.00  0.00    -0.237 OA
ATOM     87  O   UNL A   1      38.300  31.847  41.012  1.00  0.00    -0.744 OA
ENDBRANCH  80  84
ENDBRANCH  53  77
BRANCH  65  88
ATOM     88  C   UNL A   1      44.189  28.600  35.386  1.00  0.00     0.023 A 
ATOM     89  C   UNL A   1      44.062  27.531  36.286  1.00  0.00     0.031 A 
ATOM     90  C   UNL A   1      45.460  29.172  35.201  1.00  0.00     0.131 A 
ATOM     91  C   UNL A   1      45.172  27.123  37.036  1.00  0.00     0.055 A 
ATOM     92  C   UNL A   1      46.578  28.701  35.885  1.00  0.00     0.041 A 
ATOM     93  F   UNL A   1      45.632  30.196  34.350  1.00  0.00    -0.206 F 
ATOM     94  C   UNL A   1      46.434  27.684  36.824  1.00  0.00     0.022 A 
BRANCH  91  95
ATOM     95  S   UNL A   1      44.908  25.947  38.388  1.00  0.00     0.124 S 
ATOM     96  O   UNL A   1      46.260  25.784  38.912  1.00  0.00    -0.237 OA
ATOM     97  O   UNL A   1      43.974  26.665  39.249  1.00  0.00    -0.237 OA
ATOM     98  O   UNL A   1      44.357  24.772  37.716  1.00  0.00    -0.744 OA
ENDBRANCH  91  95
ENDBRANCH  65  88
ENDBRANCH  39  40
ENDBRANCH  31  34
ENDBRANCH  29  30
ENDBRANCH  28  29
ENDBRANCH   1  28
TORSDOF 18
ENDMDL
MODEL 2
REMARK VINA RESULT:     -15.5      1.725      1.993
REMARK SMILES CC1=C(C)C[C@@H](C(=O)NCCCCNC(=O)c2ccc(-c3c4nc(c(-c5cc(S(=O)(=O)[O-])ccc5F)c5ccc([nH]5)c(-c5cc(S(=O)(=O)[O-])ccc5F)c5nc(c(-c6cc(S(=O)(=O)[O-])ccc6F)c6ccc3[nH]6)C=C5)C=C4)cc2)[C@@H](C(=O)NCC[NH+]2CCOCC2)C1
REMARK SMILES IDX 11 1 10 2 9 3 7 4 8 5 6 7 1 8 2 9 3 10 92 11 4 12 5 13 80 14
REMARK SMILES IDX 81 15 82 16 83 17 84 19 85 20 86 21 87 22 91 23 88 25 90 26
REMARK SMILES IDX 89 27 12 28 13 29 14 30 15 31 16 33 17 34 18 35 79 36 19 37
REMARK SMILES IDX 78 38 20 39 21 40 22 41 72 42 23 43 77 44 71 45 73 46 24 47
REMARK SMILES IDX 76 48 70 49 69 50 25 52 57 53 37 54 56 55 38 56 41 57 55 58
REMARK SMILES IDX 74 59 39 60 40 61 54 63 75 64 42 65 26 66 27 67 35 68 28 69
REMARK SMILES IDX 34 70 36 71 33 72 29 73 30 74 31 75 32 76 58 77 59 78 67 79
REMARK SMILES IDX 60 80 66 81 68 82 65 83 61 84 62 85 63 86 64 87 43 88 44 89
REMARK SMILES IDX 52 90 45 91 51 92 53 93 50 94 46 95 47 96 48 97 49 98
REMARK H PARENT 9 6 83 18 86 24 14 32 73 51 41 62
REMARK Flexibility Score: inf
ROOT
ATOM      1  C   UNL A   1      34.591  28.952  27.197  1.00  0.00     0.023 C 
ENDROOT
BRANCH   1   2
ATOM      2  C   UNL A   1      33.952  27.608  25.974  1.00  0.00     0.116 C 
BRANCH   2   3
ATOM      3  N   UNL A   1      33.567  26.125  26.177  1.00  0.00    -0.356 N 
ATOM      4  C   UNL A   1      33.334  25.056  25.368  1.00  0.00     0.224 C 
ATOM      5  O   UNL A   1      32.725  24.068  25.764  1.00  0.00    -0.275 OA
ATOM      6  H   UNL A   1      33.466  25.896  27.129  1.00  0.00     0.163 HD
BRANCH   4   7
ATOM      7  C   UNL A   1      33.984  25.113  24.045  1.00  0.00     0.095 C 
ATOM      8  C   UNL A   1      32.037  21.573  22.223  1.00  0.00     0.039 C 
ATOM      9  C   UNL A   1      32.729  22.899  22.504  1.00  0.00    -0.074 C 
ATOM     10  C   UNL A   1      32.028  24.002  22.848  1.00  0.00    -0.074 C 
ATOM     11  C   UNL A   1      34.294  22.885  22.798  1.00  0.00     0.045 C 
ATOM     12  C   UNL A   1      30.567  24.027  23.264  1.00  0.00     0.039 C 
ATOM     13  C   UNL A   1      32.799  25.276  23.081  1.00  0.00     0.045 C 
ATOM     14  C   UNL A   1      34.858  23.864  23.983  1.00  0.00     0.095 C 
BRANCH  14  15
ATOM     15  C   UNL A   1      35.478  23.575  25.634  1.00  0.00     0.224 C 
ATOM     16  O   UNL A   1      36.519  24.213  25.893  1.00  0.00    -0.275 OA
ATOM     17  N   UNL A   1      34.990  22.741  26.767  1.00  0.00    -0.350 N 
ATOM     18  H   UNL A   1      35.292  23.157  27.607  1.00  0.00     0.163 HD
BRANCH  17  19
ATOM     19  C   UNL A   1      34.036  21.223  27.187  1.00  0.00     0.177 C 
BRANCH  19  20
ATOM     20  C   UNL A   1      33.053  20.041  25.937  1.00  0.00     0.283 C 
BRANCH  20  21
ATOM     21  N   UNL A   1      33.197  18.519  25.210  1.00  0.00    -0.330 N 
ATOM     22  C   UNL A   1      32.923  17.188  25.873  1.00  0.00     0.291 C 
ATOM     23  C   UNL A   1      33.104  18.201  23.751  1.00  0.00     0.291 C 
ATOM     24  H   UNL A   1      34.041  19.018  25.488  1.00  0.00     0.348 HD
ATOM     25  C   UNL A   1      33.745  15.990  25.360  1.00  0.00     0.221 C 
ATOM     26  C   UNL A   1      33.988  17.026  23.312  1.00  0.00     0.221 C 
ATOM     27  O   UNL A   1      33.619  15.817  23.960  1.00  0.00    -0.370 OA
ENDBRANCH  20  21
ENDBRANCH  19  20
ENDBRANCH  17  19
ENDBRANCH  14  15
ENDBRANCH   4   7
ENDBRANCH   2   3
ENDBRANCH   1   2
BRANCH   1  28
ATOM     28  C   UNL A   1      34.250  30.821  27.279  1.00  0.00     0.023 C 
BRANCH  28  29
ATOM     29  C   UNL A   1      32.773  31.888  27.248  1.00  0.00     0.116 C 
BRANCH  29  30
ATOM     30  N   UNL A   1      32.817  33.321  27.731  1.00  0.00    -0.352 N 
ATOM     31  C   UNL A   1      33.410  34.249  28.530  1.00  0.00     0.251 C 
ATOM     32  H   UNL A   1      32.096  33.792  27.254  1.00  0.00     0.163 HD
ATOM     33  O   UNL A   1      32.904  35.336  28.739  1.00  0.00    -0.269 OA
BRANCH  31  34
ATOM     34  C   UNL A   1      34.483  33.792  29.336  1.00  0.00     0.039 A 
ATOM     35  C   UNL A   1      34.239  32.791  30.288  1.00  0.00     0.014 A 
ATOM     36  C   UNL A   1      35.711  34.271  28.937  1.00  0.00     0.014 A 
ATOM     37  C   UNL A   1      35.335  32.193  30.848  1.00  0.00     0.010 A 
ATOM     38  C   UNL A   1      36.792  33.624  29.441  1.00  0.00     0.010 A 
ATOM     39  C   UNL A   1      36.592  32.617  30.405  1.00  0.00    -0.014 A 
BRANCH  39  40
ATOM     40  C   UNL A   1      37.795  32.146  31.058  1.00  0.00     0.031 A 
ATOM     41  C   UNL A   1      38.582  31.130  30.309  1.00  0.00     0.074 A 
ATOM     42  C   UNL A   1      38.011  32.539  32.316  1.00  0.00     0.049 A 
ATOM     43  N   UNL A   1      39.530  30.357  30.740  1.00  0.00    -0.248 NA
ATOM     44  C   UNL A   1      38.190  30.898  28.903  1.00  0.00     0.031 C 
ATOM     45  C   UNL A   1      37.207  33.517  33.059  1.00  0.00     0.029 A 
ATOM     46  N   UNL A   1      38.959  32.135  33.199  1.00  0.00    -0.354 N 
ATOM     47  C   UNL A   1      39.829  29.526  29.671  1.00  0.00     0.074 A 
ATOM     48  C   UNL A   1      38.906  29.828  28.604  1.00  0.00     0.031 C 
ATOM     49  C   UNL A   1      37.715  33.643  34.295  1.00  0.00     0.029 A 
ATOM     50  C   UNL A   1      38.831  32.717  34.433  1.00  0.00     0.049 A 
ATOM     51  H   UNL A   1      39.668  31.489  32.976  1.00  0.00     0.167 HD
ATOM     52  C   UNL A   1      40.819  28.613  29.604  1.00  0.00     0.034 A 
ATOM     53  C   UNL A   1      39.548  32.484  35.543  1.00  0.00     0.034 A 
ATOM     54  C   UNL A   1      41.709  28.387  30.710  1.00  0.00     0.049 A 
ATOM     55  C   UNL A   1      40.654  31.466  35.434  1.00  0.00     0.074 A 
ATOM     56  C   UNL A   1      42.796  27.542  30.787  1.00  0.00     0.029 A 
ATOM     57  N   UNL A   1      41.604  29.026  31.944  1.00  0.00    -0.354 N 
ATOM     58  N   UNL A   1      40.984  30.708  34.410  1.00  0.00    -0.248 NA
ATOM     59  C   UNL A   1      41.497  31.290  36.616  1.00  0.00     0.031 C 
ATOM     60  C   UNL A   1      43.301  27.616  32.088  1.00  0.00     0.029 A 
ATOM     61  C   UNL A   1      42.591  28.574  32.799  1.00  0.00     0.049 A 
ATOM     62  H   UNL A   1      40.924  29.701  32.174  1.00  0.00     0.167 HD
ATOM     63  C   UNL A   1      42.099  29.983  34.814  1.00  0.00     0.074 A 
ATOM     64  C   UNL A   1      42.390  30.422  36.169  1.00  0.00     0.031 C 
ATOM     65  C   UNL A   1      42.820  29.045  34.147  1.00  0.00     0.034 A 
BRANCH  52  66
ATOM     66  C   UNL A   1      40.941  27.815  28.334  1.00  0.00     0.023 A 
ATOM     67  C   UNL A   1      40.660  26.436  28.292  1.00  0.00     0.031 A 
ATOM     68  C   UNL A   1      41.405  28.426  27.157  1.00  0.00     0.131 A 
ATOM     69  C   UNL A   1      40.915  25.703  27.124  1.00  0.00     0.055 A 
ATOM     70  C   UNL A   1      41.571  27.708  25.972  1.00  0.00     0.041 A 
ATOM     71  F   UNL A   1      41.732  29.728  27.147  1.00  0.00    -0.206 F 
ATOM     72  C   UNL A   1      41.338  26.335  25.955  1.00  0.00     0.022 A 
BRANCH  69  73
ATOM     73  S   UNL A   1      40.828  23.893  27.200  1.00  0.00     0.124 S 
ATOM     74  O   UNL A   1      39.395  23.659  27.031  1.00  0.00    -0.237 OA
ATOM     75  O   UNL A   1      41.675  23.487  26.086  1.00  0.00    -0.237 OA
ATOM     76  O   UNL A   1      41.350  23.580  28.529  1.00  0.00    -0.744 OA
ENDBRANCH  69  73
ENDBRANCH  52  66
BRANCH  53  77
ATOM     77  C   UNL A   1      39.260  33.224  36.795  1.00  0.00     0.023 A 
ATOM     78  C   UNL A   1      39.857  34.468  37.040  1.00  0.00     0.031 A 
ATOM     79  C   UNL A   1      38.392  32.704  37.772  1.00  0.00     0.131 A 
ATOM     80  C   UNL A   1      39.633  35.123  38.258  1.00  0.00     0.055 A 
ATOM     81  C   UNL A   1      38.124  33.389  38.958  1.00  0.00     0.041 A 
ATOM     82  F   UNL A   1      37.776  31.527  37.578  1.00  0.00    -0.206 F 
ATOM     83  C   UNL A   1      38.761  34.598  39.215  1.00  0.00     0.022 A 
BRANCH  80  84
ATOM     84  S   UNL A   1      40.585  36.624  38.614  1.00  0.00     0.124 S 
ATOM     85  O   UNL A   1      39.524  37.593  38.867  1.00  0.00    -0.237 OA
ATOM     86  O   UNL A   1      41.369  36.215  39.774  1.00  0.00    -0.237 OA
ATOM     87  O   UNL A   1      41.349  36.839  37.388  1.00  0.00    -0.744 OA
ENDBRANCH  80  84
ENDBRANCH  53  77
BRANCH  65  88
ATOM     88  C   UNL A   1      44.008  28.477  34.879  1.00  0.00     0.023 A 
ATOM     89  C   UNL A   1      43.869  27.412  35.782  1.00  0.00     0.031 A 
ATOM     90  C   UNL A   1      45.286  29.026  34.682  1.00  0.00     0.131 A 
ATOM     91  C   UNL A   1      44.978  26.985  36.523  1.00  0.00     0.055 A 
ATOM     92  C   UNL A   1      46.402  28.537  35.357  1.00  0.00     0.041 A 
ATOM     93  F   UNL A   1      45.470  30.046  33.828  1.00  0.00    -0.206 F 
ATOM     94  C   UNL A   1      46.248  27.524  36.299  1.00  0.00     0.022 A 
BRANCH  91  95
ATOM     95  S   UNL A   1      44.705  25.817  37.879  1.00  0.00     0.124 S 
ATOM     96  O   UNL A   1      46.057  25.330  38.133  1.00  0.00    -0.237 OA
ATOM     97  O   UNL A   1      44.130  26.668  38.915  1.00  0.00    -0.237 OA
ATOM     98  O   UNL A   1      43.789  24.834  37.304  1.00  0.00    -0.744 OA
ENDBRANCH  91  95
ENDBRANCH  65  88
ENDBRANCH  39  40
ENDBRANCH  31  34
ENDBRANCH  29  30
ENDBRANCH  28  29
ENDBRANCH   1  28
TORSDOF 18
ENDMDL
MODEL 3
REMARK VINA RESULT:     -15.4      2.286      4.688
REMARK SMILES CC1=C(C)C[C@@H](C(=O)NCCCCNC(=O)c2ccc(-c3c4nc(c(-c5cc(S(=O)(=O)[O-])ccc5F)c5ccc([nH]5)c(-c5cc(S(=O)(=O)[O-])ccc5F)c5nc(c(-c6cc(S(=O)(=O)[O-])ccc6F)c6ccc3[nH]6)C=C5)C=C4)cc2)[C@@H](C(=O)NCC[NH+]2CCOCC2)C1
REMARK SMILES IDX 11 1 10 2 9 3 7 4 8 5 6 7 1 8 2 9 3 10 92 11 4 12 5 13 80 14
REMARK SMILES IDX 81 15 82 16 83 17 84 19 85 20 86 21 87 22 91 23 88 25 90 26
REMARK SMILES IDX 89 27 12 28 13 29 14 30 15 31 16 33 17 34 18 35 79 36 19 37
REMARK SMILES IDX 78 38 20 39 21 40 22 41 72 42 23 43 77 44 71 45 73 46 24 47
REMARK SMILES IDX 76 48 70 49 69 50 25 52 57 53 37 54 56 55 38 56 41 57 55 58
REMARK SMILES IDX 74 59 39 60 40 61 54 63 75 64 42 65 26 66 27 67 35 68 28 69
REMARK SMILES IDX 34 70 36 71 33 72 29 73 30 74 31 75 32 76 58 77 59 78 67 79
REMARK SMILES IDX 60 80 66 81 68 82 65 83 61 84 62 85 63 86 64 87 43 88 44 89
REMARK SMILES IDX 52 90 45 91 51 92 53 93 50 94 46 95 47 96 48 97 49 98
REMARK H PARENT 9 6 83 18 86 24 14 32 73 51 41 62
REMARK Flexibility Score: inf
ROOT
ATOM      1  C   UNL A   1      31.732  28.874  27.408  1.00  0.00     0.023 C 
ENDROOT
BRANCH   1   2
ATOM      2  C   UNL A   1      31.622  27.266  26.353  1.00  0.00     0.116 C 
BRANCH   2   3
ATOM      3  N   UNL A   1      32.686  26.481  25.551  1.00  0.00    -0.356 N 
ATOM      4  C   UNL A   1      32.750  25.269  24.938  1.00  0.00     0.224 C 
ATOM      5  O   UNL A   1      33.822  24.747  24.649  1.00  0.00    -0.275 OA
ATOM      6  H   UNL A   1      33.528  26.985  25.463  1.00  0.00     0.163 HD
BRANCH   4   7
ATOM      7  C   UNL A   1      31.452  24.705  24.520  1.00  0.00     0.095 C 
ATOM      8  C   UNL A   1      32.738  20.504  23.936  1.00  0.00     0.039 C 
ATOM      9  C   UNL A   1      31.975  21.793  24.201  1.00  0.00    -0.074 C 
ATOM     10  C   UNL A   1      31.981  22.381  25.419  1.00  0.00    -0.074 C 
ATOM     11  C   UNL A   1      31.514  22.666  22.953  1.00  0.00     0.045 C 
ATOM     12  C   UNL A   1      32.920  22.033  26.563  1.00  0.00     0.039 C 
ATOM     13  C   UNL A   1      31.174  23.641  25.592  1.00  0.00     0.045 C 
ATOM     14  C   UNL A   1      31.653  24.295  23.065  1.00  0.00     0.095 C 
BRANCH  14  15
ATOM     15  C   UNL A   1      32.753  25.493  22.328  1.00  0.00     0.224 C 
ATOM     16  O   UNL A   1      33.820  24.998  21.910  1.00  0.00    -0.275 OA
ATOM     17  N   UNL A   1      32.644  26.960  22.096  1.00  0.00    -0.350 N 
ATOM     18  H   UNL A   1      33.188  27.188  21.308  1.00  0.00     0.163 HD
BRANCH  17  19
ATOM     19  C   UNL A   1      31.875  28.508  22.732  1.00  0.00     0.177 C 
BRANCH  19  20
ATOM     20  C   UNL A   1      30.015  29.129  22.443  1.00  0.00     0.283 C 
BRANCH  20  21
ATOM     21  N   UNL A   1      29.150  30.566  22.215  1.00  0.00    -0.330 N 
ATOM     22  C   UNL A   1      28.140  30.832  21.122  1.00  0.00     0.291 C 
ATOM     23  C   UNL A   1      28.814  31.593  23.250  1.00  0.00     0.291 C 
ATOM     24  H   UNL A   1      30.134  30.531  21.949  1.00  0.00     0.348 HD
ATOM     25  C   UNL A   1      28.018  32.293  20.650  1.00  0.00     0.221 C 
ATOM     26  C   UNL A   1      28.757  33.028  22.709  1.00  0.00     0.221 C 
ATOM     27  O   UNL A   1      27.748  33.179  21.721  1.00  0.00    -0.370 OA
ENDBRANCH  20  21
ENDBRANCH  19  20
ENDBRANCH  17  19
ENDBRANCH  14  15
ENDBRANCH   4   7
ENDBRANCH   2   3
ENDBRANCH   1   2
BRANCH   1  28
ATOM     28  C   UNL A   1      31.800  30.701  26.884  1.00  0.00     0.023 C 
BRANCH  28  29
ATOM     29  C   UNL A   1      33.043  32.034  26.931  1.00  0.00     0.116 C 
BRANCH  29  30
ATOM     30  N   UNL A   1      32.911  33.210  27.873  1.00  0.00    -0.352 N 
ATOM     31  C   UNL A   1      33.452  33.940  28.886  1.00  0.00     0.251 C 
ATOM     32  H   UNL A   1      32.052  33.638  27.657  1.00  0.00     0.163 HD
ATOM     33  O   UNL A   1      32.803  34.764  29.504  1.00  0.00    -0.269 OA
BRANCH  31  34
ATOM     34  C   UNL A   1      34.703  33.496  29.384  1.00  0.00     0.039 A 
ATOM     35  C   UNL A   1      35.856  34.232  29.079  1.00  0.00     0.014 A 
ATOM     36  C   UNL A   1      34.596  32.468  30.295  1.00  0.00     0.014 A 
ATOM     37  C   UNL A   1      36.987  33.932  29.790  1.00  0.00     0.010 A 
ATOM     38  C   UNL A   1      35.699  32.226  31.047  1.00  0.00     0.010 A 
ATOM     39  C   UNL A   1      36.881  32.939  30.769  1.00  0.00    -0.014 A 
BRANCH  39  40
ATOM     40  C   UNL A   1      38.063  32.457  31.452  1.00  0.00     0.031 A 
ATOM     41  C   UNL A   1      38.780  31.335  30.788  1.00  0.00     0.074 A 
ATOM     42  C   UNL A   1      38.318  32.945  32.669  1.00  0.00     0.049 A 
ATOM     43  N   UNL A   1      39.687  30.548  31.278  1.00  0.00    -0.248 NA
ATOM     44  C   UNL A   1      38.357  31.005  29.411  1.00  0.00     0.031 C 
ATOM     45  C   UNL A   1      37.582  34.029  33.329  1.00  0.00     0.029 A 
ATOM     46  N   UNL A   1      39.252  32.564  33.576  1.00  0.00    -0.354 N 
ATOM     47  C   UNL A   1      39.923  29.611  30.283  1.00  0.00     0.074 A 
ATOM     48  C   UNL A   1      39.005  29.873  29.201  1.00  0.00     0.031 C 
ATOM     49  C   UNL A   1      38.113  34.232  34.545  1.00  0.00     0.029 A 
ATOM     50  C   UNL A   1      39.175  33.257  34.755  1.00  0.00     0.049 A 
ATOM     51  H   UNL A   1      39.920  31.860  33.405  1.00  0.00     0.167 HD
ATOM     52  C   UNL A   1      40.857  28.639  30.288  1.00  0.00     0.034 A 
ATOM     53  C   UNL A   1      39.891  33.080  35.875  1.00  0.00     0.034 A 
ATOM     54  C   UNL A   1      41.748  28.457  31.403  1.00  0.00     0.049 A 
ATOM     55  C   UNL A   1      40.935  31.993  35.847  1.00  0.00     0.074 A 
ATOM     56  C   UNL A   1      42.784  27.560  31.545  1.00  0.00     0.029 A 
ATOM     57  N   UNL A   1      41.695  29.207  32.577  1.00  0.00    -0.354 N 
ATOM     58  N   UNL A   1      41.207  31.131  34.890  1.00  0.00    -0.248 NA
ATOM     59  C   UNL A   1      41.781  31.871  37.033  1.00  0.00     0.031 C 
ATOM     60  C   UNL A   1      43.310  27.717  32.830  1.00  0.00     0.029 A 
ATOM     61  C   UNL A   1      42.666  28.774  33.460  1.00  0.00     0.049 A 
ATOM     62  H   UNL A   1      41.059  29.938  32.752  1.00  0.00     0.167 HD
ATOM     63  C   UNL A   1      42.283  30.379  35.348  1.00  0.00     0.074 A 
ATOM     64  C   UNL A   1      42.617  30.916  36.657  1.00  0.00     0.031 C 
ATOM     65  C   UNL A   1      42.940  29.345  34.760  1.00  0.00     0.034 A 
BRANCH  52  66
ATOM     66  C   UNL A   1      40.916  27.727  29.092  1.00  0.00     0.023 A 
ATOM     67  C   UNL A   1      41.839  27.928  28.048  1.00  0.00     0.031 A 
ATOM     68  C   UNL A   1      39.996  26.674  28.961  1.00  0.00     0.131 A 
ATOM     69  C   UNL A   1      41.773  27.139  26.891  1.00  0.00     0.055 A 
ATOM     70  C   UNL A   1      39.994  25.835  27.846  1.00  0.00     0.041 A 
ATOM     71  F   UNL A   1      39.064  26.461  29.903  1.00  0.00    -0.206 F 
ATOM     72  C   UNL A   1      40.877  26.073  26.797  1.00  0.00     0.022 A 
BRANCH  69  73
ATOM     73  S   UNL A   1      42.771  27.620  25.455  1.00  0.00     0.124 S 
ATOM     74  O   UNL A   1      44.090  27.796  26.058  1.00  0.00    -0.237 OA
ATOM     75  O   UNL A   1      42.624  26.472  24.568  1.00  0.00    -0.237 OA
ATOM     76  O   UNL A   1      42.135  28.852  24.993  1.00  0.00    -0.744 OA
ENDBRANCH  69  73
ENDBRANCH  52  66
BRANCH  53  77
ATOM     77  C   UNL A   1      39.663  33.942  37.060  1.00  0.00     0.023 A 
ATOM     78  C   UNL A   1      39.040  33.427  38.205  1.00  0.00     0.031 A 
ATOM     79  C   UNL A   1      40.054  35.293  37.071  1.00  0.00     0.131 A 
ATOM     80  C   UNL A   1      38.766  34.270  39.289  1.00  0.00     0.055 A 
ATOM     81  C   UNL A   1      39.833  36.114  38.177  1.00  0.00     0.041 A 
ATOM     82  F   UNL A   1      40.675  35.831  36.008  1.00  0.00    -0.206 F 
ATOM     83  C   UNL A   1      39.168  35.608  39.289  1.00  0.00     0.022 A 
BRANCH  80  84
ATOM     84  S   UNL A   1      37.779  33.613  40.660  1.00  0.00     0.124 S 
ATOM     85  O   UNL A   1      38.719  32.688  41.283  1.00  0.00    -0.237 OA
ATOM     86  O   UNL A   1      37.473  34.822  41.417  1.00  0.00    -0.237 OA
ATOM     87  O   UNL A   1      36.640  32.991  39.990  1.00  0.00    -0.744 OA
ENDBRANCH  80  84
ENDBRANCH  53  77
BRANCH  65  88
ATOM     88  C   UNL A   1      44.101  28.774  35.529  1.00  0.00     0.023 A 
ATOM     89  C   UNL A   1      43.948  27.656  36.363  1.00  0.00     0.031 A 
ATOM     90  C   UNL A   1      45.370  29.373  35.439  1.00  0.00     0.131 A 
ATOM     91  C   UNL A   1      45.026  27.223  37.144  1.00  0.00     0.055 A 
ATOM     92  C   UNL A   1      46.461  28.881  36.152  1.00  0.00     0.041 A 
ATOM     93  F   UNL A   1      45.567  30.445  34.654  1.00  0.00    -0.206 F 
ATOM     94  C   UNL A   1      46.287  27.812  37.027  1.00  0.00     0.022 A 
BRANCH  91  95
ATOM     95  S   UNL A   1      44.715  25.972  38.416  1.00  0.00     0.124 S 
ATOM     96  O   UNL A   1      44.290  24.829  37.616  1.00  0.00    -0.237 OA
ATOM     97  O   UNL A   1      46.019  25.849  39.059  1.00  0.00    -0.237 OA
ATOM     98  O   UNL A   1      43.671  26.576  39.241  1.00  0.00    -0.744 OA
ENDBRANCH  91  95
ENDBRANCH  65  88
ENDBRANCH  39  40
ENDBRANCH  31  34
ENDBRANCH  29  30
ENDBRANCH  28  29
ENDBRANCH   1  28
TORSDOF 18
ENDMDL
