MODEL 1
REMARK VINA RESULT:     -11.4      0.000      0.000
REMARK SMILES CC[C@@H](C(=O)NCCCCNC(=O)c1ccc(-c2c3nc(c(-c4cc(S(=O)(=O)[O-])ccc4F)c4ccc([nH]4)c(-c4cc(S(=O)(=O)[O-])ccc4F)c4nc(c(-c5cc(S(=O)(=O)[O-])ccc5F)c5ccc2[nH]5)C=C4)C=C3)cc1)N1C(=O)/C(=C/C(C)=C/c2ccccc2)SC1=S
REMARK SMILES IDX 8 1 7 2 6 3 4 4 5 5 3 7 2 8 1 9 77 10 78 11 92 12 79 13
REMARK SMILES IDX 80 14 91 15 93 16 81 17 82 18 83 19 84 20 85 21 86 22 90 23
REMARK SMILES IDX 87 24 89 25 88 26 9 27 10 28 11 29 12 30 13 32 14 33 15 34
REMARK SMILES IDX 76 35 16 36 75 37 17 38 18 39 19 40 69 41 20 42 74 43 68 44
REMARK SMILES IDX 70 45 21 46 73 47 67 48 66 49 22 51 54 52 34 53 53 54 35 55
REMARK SMILES IDX 38 56 52 57 71 58 36 59 37 60 51 62 72 63 39 64 23 65 24 66
REMARK SMILES IDX 32 67 25 68 31 69 33 70 30 71 26 72 27 73 28 74 29 75 55 76
REMARK SMILES IDX 56 77 64 78 57 79 63 80 65 81 62 82 58 83 59 84 60 85 61 86
REMARK SMILES IDX 40 87 41 88 49 89 42 90 48 91 50 92 47 93 43 94 44 95 45 96
REMARK SMILES IDX 46 97
REMARK H PARENT 6 6 11 31 70 50 38 61
REMARK Flexibility Score: inf
ROOT
ATOM      1  C   UNL A   1      37.246  22.163  24.425  1.00  0.00     0.023 C 
ENDROOT
BRANCH   1   2
ATOM      2  C   UNL A   1      35.726  22.151  24.638  1.00  0.00     0.116 C 
BRANCH   2   3
ATOM      3  N   UNL A   1      35.429  21.742  26.001  1.00  0.00    -0.354 N 
ATOM      4  C   UNL A   1      34.235  21.479  26.611  1.00  0.00     0.243 C 
ATOM      5  O   UNL A   1      34.224  21.480  27.848  1.00  0.00    -0.273 OA
ATOM      6  H   UNL A   1      36.218  21.637  26.579  1.00  0.00     0.163 HD
BRANCH   4   7
ATOM      7  C   UNL A   1      32.950  21.161  25.793  1.00  0.00     0.181 C 
BRANCH   7   8
ATOM      8  C   UNL A   1      33.222  20.141  24.670  1.00  0.00     0.032 C 
ATOM      9  C   UNL A   1      32.479  18.830  24.580  1.00  0.00     0.006 C 
ENDBRANCH   7   8
BRANCH   7  10
ATOM     10  N   UNL A   1      32.496  22.499  25.246  1.00  0.00    -0.280 N 
ATOM     11  C   UNL A   1      31.883  23.411  26.108  1.00  0.00     0.266 C 
ATOM     12  C   UNL A   1      32.616  22.980  23.959  1.00  0.00     0.149 C 
ATOM     13  O   UNL A   1      31.427  23.159  27.214  1.00  0.00    -0.268 OA
ATOM     14  C   UNL A   1      31.781  24.758  25.447  1.00  0.00     0.080 C 
ATOM     15  S   UNL A   1      32.738  24.723  24.019  1.00  0.00    -0.054 SA
ATOM     16  S   UNL A   1      32.466  22.222  22.477  1.00  0.00    -0.052 S 
ATOM     17  C   UNL A   1      30.994  25.767  25.860  1.00  0.00     0.024 C 
BRANCH  17  18
ATOM     18  C   UNL A   1      30.755  27.055  25.180  1.00  0.00    -0.049 C 
ATOM     19  C   UNL A   1      31.618  28.194  25.653  1.00  0.00     0.044 C 
ATOM     20  C   UNL A   1      29.754  27.199  24.280  1.00  0.00     0.011 C 
BRANCH  20  21
ATOM     21  C   UNL A   1      29.378  28.319  23.395  1.00  0.00    -0.025 A 
ATOM     22  C   UNL A   1      28.008  28.579  23.223  1.00  0.00     0.008 A 
ATOM     23  C   UNL A   1      30.287  29.019  22.594  1.00  0.00     0.008 A 
ATOM     24  C   UNL A   1      27.561  29.528  22.300  1.00  0.00     0.001 A 
ATOM     25  C   UNL A   1      29.842  29.980  21.678  1.00  0.00     0.001 A 
ATOM     26  C   UNL A   1      28.480  30.233  21.530  1.00  0.00     0.000 A 
ENDBRANCH  20  21
ENDBRANCH  17  18
ENDBRANCH   7  10
ENDBRANCH   4   7
ENDBRANCH   2   3
ENDBRANCH   1   2
BRANCH   1  27
ATOM     27  C   UNL A   1      38.026  21.123  25.216  1.00  0.00     0.023 C 
BRANCH  27  28
ATOM     28  C   UNL A   1      39.064  21.704  26.153  1.00  0.00     0.116 C 
BRANCH  28  29
ATOM     29  N   UNL A   1      40.349  21.022  26.079  1.00  0.00    -0.352 N 
ATOM     30  C   UNL A   1      41.608  21.523  26.312  1.00  0.00     0.251 C 
ATOM     31  H   UNL A   1      40.311  20.072  25.826  1.00  0.00     0.163 HD
ATOM     32  O   UNL A   1      42.594  20.831  26.073  1.00  0.00    -0.269 OA
BRANCH  30  33
ATOM     33  C   UNL A   1      41.758  22.907  26.810  1.00  0.00     0.039 A 
ATOM     34  C   UNL A   1      41.932  23.124  28.178  1.00  0.00     0.014 A 
ATOM     35  C   UNL A   1      41.763  23.984  25.922  1.00  0.00     0.014 A 
ATOM     36  C   UNL A   1      42.165  24.420  28.644  1.00  0.00     0.010 A 
ATOM     37  C   UNL A   1      42.114  25.249  26.370  1.00  0.00     0.010 A 
ATOM     38  C   UNL A   1      42.285  25.488  27.740  1.00  0.00    -0.014 A 
BRANCH  38  39
ATOM     39  C   UNL A   1      42.511  26.877  28.212  1.00  0.00     0.031 A 
ATOM     40  C   UNL A   1      43.912  27.430  28.239  1.00  0.00     0.074 A 
ATOM     41  C   UNL A   1      41.473  27.615  28.653  1.00  0.00     0.049 A 
ATOM     42  N   UNL A   1      44.338  28.593  28.659  1.00  0.00    -0.248 NA
ATOM     43  C   UNL A   1      44.985  26.533  27.776  1.00  0.00     0.031 C 
ATOM     44  C   UNL A   1      40.083  27.162  28.733  1.00  0.00     0.029 A 
ATOM     45  N   UNL A   1      41.428  28.905  29.116  1.00  0.00    -0.354 N 
ATOM     46  C   UNL A   1      45.724  28.556  28.528  1.00  0.00     0.074 A 
ATOM     47  C   UNL A   1      46.069  27.227  28.079  1.00  0.00     0.031 C 
ATOM     48  C   UNL A   1      39.315  28.173  29.174  1.00  0.00     0.029 A 
ATOM     49  C   UNL A   1      40.161  29.331  29.444  1.00  0.00     0.049 A 
ATOM     50  H   UNL A   1      42.226  29.474  29.206  1.00  0.00     0.167 HD
ATOM     51  C   UNL A   1      46.623  29.553  28.723  1.00  0.00     0.034 A 
ATOM     52  C   UNL A   1      39.735  30.523  29.902  1.00  0.00     0.034 A 
ATOM     53  C   UNL A   1      46.252  30.882  29.137  1.00  0.00     0.049 A 
ATOM     54  C   UNL A   1      40.749  31.624  30.094  1.00  0.00     0.074 A 
ATOM     55  C   UNL A   1      47.062  31.990  29.315  1.00  0.00     0.029 A 
ATOM     56  N   UNL A   1      44.956  31.285  29.438  1.00  0.00    -0.354 N 
ATOM     57  N   UNL A   1      42.050  31.593  29.907  1.00  0.00    -0.248 NA
ATOM     58  C   UNL A   1      40.233  32.923  30.539  1.00  0.00     0.031 C 
ATOM     59  C   UNL A   1      46.266  33.043  29.778  1.00  0.00     0.029 A 
ATOM     60  C   UNL A   1      44.947  32.617  29.821  1.00  0.00     0.049 A 
ATOM     61  H   UNL A   1      44.160  30.708  29.386  1.00  0.00     0.167 HD
ATOM     62  C   UNL A   1      42.502  32.880  30.186  1.00  0.00     0.074 A 
ATOM     63  C   UNL A   1      41.331  33.664  30.524  1.00  0.00     0.031 C 
ATOM     64  C   UNL A   1      43.768  33.374  30.167  1.00  0.00     0.034 A 
BRANCH  51  65
ATOM     65  C   UNL A   1      48.081  29.223  28.496  1.00  0.00     0.023 A 
ATOM     66  C   UNL A   1      48.626  29.137  27.202  1.00  0.00     0.031 A 
ATOM     67  C   UNL A   1      48.926  28.938  29.582  1.00  0.00     0.131 A 
ATOM     68  C   UNL A   1      49.941  28.683  27.021  1.00  0.00     0.055 A 
ATOM     69  C   UNL A   1      50.264  28.577  29.400  1.00  0.00     0.041 A 
ATOM     70  F   UNL A   1      48.461  28.980  30.841  1.00  0.00    -0.206 F 
ATOM     71  C   UNL A   1      50.774  28.430  28.113  1.00  0.00     0.022 A 
BRANCH  68  72
ATOM     72  S   UNL A   1      50.492  28.274  25.342  1.00  0.00     0.124 S 
ATOM     73  O   UNL A   1      51.261  29.466  24.987  1.00  0.00    -0.237 OA
ATOM     74  O   UNL A   1      51.264  27.055  25.551  1.00  0.00    -0.237 OA
ATOM     75  O   UNL A   1      49.244  28.105  24.603  1.00  0.00    -0.744 OA
ENDBRANCH  68  72
ENDBRANCH  51  65
BRANCH  52  76
ATOM     76  C   UNL A   1      38.291  30.756  30.194  1.00  0.00     0.023 A 
ATOM     77  C   UNL A   1      37.421  31.241  29.204  1.00  0.00     0.031 A 
ATOM     78  C   UNL A   1      37.768  30.542  31.482  1.00  0.00     0.131 A 
ATOM     79  C   UNL A   1      36.091  31.548  29.527  1.00  0.00     0.055 A 
ATOM     80  C   UNL A   1      36.429  30.799  31.786  1.00  0.00     0.041 A 
ATOM     81  F   UNL A   1      38.551  30.072  32.465  1.00  0.00    -0.206 F 
ATOM     82  C   UNL A   1      35.585  31.320  30.809  1.00  0.00     0.022 A 
BRANCH  79  83
ATOM     83  S   UNL A   1      35.050  32.337  28.268  1.00  0.00     0.124 S 
ATOM     84  O   UNL A   1      34.613  31.190  27.481  1.00  0.00    -0.237 OA
ATOM     85  O   UNL A   1      34.027  32.984  29.084  1.00  0.00    -0.237 OA
ATOM     86  O   UNL A   1      35.970  33.247  27.589  1.00  0.00    -0.744 OA
ENDBRANCH  79  83
ENDBRANCH  52  76
BRANCH  64  87
ATOM     87  C   UNL A   1      43.928  34.838  30.491  1.00  0.00     0.023 A 
ATOM     88  C   UNL A   1      44.101  35.286  31.812  1.00  0.00     0.031 A 
ATOM     89  C   UNL A   1      43.871  35.802  29.469  1.00  0.00     0.131 A 
ATOM     90  C   UNL A   1      44.133  36.662  32.085  1.00  0.00     0.055 A 
ATOM     91  C   UNL A   1      43.976  37.167  29.738  1.00  0.00     0.041 A 
ATOM     92  F   UNL A   1      43.707  35.431  28.187  1.00  0.00    -0.206 F 
ATOM     93  C   UNL A   1      44.089  37.604  31.055  1.00  0.00     0.022 A 
BRANCH  90  94
ATOM     94  S   UNL A   1      44.107  37.202  33.816  1.00  0.00     0.124 S 
ATOM     95  O   UNL A   1      42.675  37.308  34.079  1.00  0.00    -0.237 OA
ATOM     96  O   UNL A   1      44.799  36.110  34.493  1.00  0.00    -0.237 OA
ATOM     97  O   UNL A   1      44.829  38.472  33.789  1.00  0.00    -0.744 OA
ENDBRANCH  90  94
ENDBRANCH  64  87
ENDBRANCH  38  39
ENDBRANCH  30  33
ENDBRANCH  28  29
ENDBRANCH  27  28
ENDBRANCH   1  27
TORSDOF 18
ENDMDL
MODEL 2
REMARK VINA RESULT:     -11.3      3.065      8.257
REMARK SMILES CC[C@@H](C(=O)NCCCCNC(=O)c1ccc(-c2c3nc(c(-c4cc(S(=O)(=O)[O-])ccc4F)c4ccc([nH]4)c(-c4cc(S(=O)(=O)[O-])ccc4F)c4nc(c(-c5cc(S(=O)(=O)[O-])ccc5F)c5ccc2[nH]5)C=C4)C=C3)cc1)N1C(=O)/C(=C/C(C)=C/c2ccccc2)SC1=S
REMARK SMILES IDX 8 1 7 2 6 3 4 4 5 5 3 7 2 8 1 9 77 10 78 11 92 12 79 13
REMARK SMILES IDX 80 14 91 15 93 16 81 17 82 18 83 19 84 20 85 21 86 22 90 23
REMARK SMILES IDX 87 24 89 25 88 26 9 27 10 28 11 29 12 30 13 32 14 33 15 34
REMARK SMILES IDX 76 35 16 36 75 37 17 38 18 39 19 40 69 41 20 42 74 43 68 44
REMARK SMILES IDX 70 45 21 46 73 47 67 48 66 49 22 51 54 52 34 53 53 54 35 55
REMARK SMILES IDX 38 56 52 57 71 58 36 59 37 60 51 62 72 63 39 64 23 65 24 66
REMARK SMILES IDX 32 67 25 68 31 69 33 70 30 71 26 72 27 73 28 74 29 75 55 76
REMARK SMILES IDX 56 77 64 78 57 79 63 80 65 81 62 82 58 83 59 84 60 85 61 86
REMARK SMILES IDX 40 87 41 88 49 89 42 90 48 91 50 92 47 93 43 94 44 95 45 96
REMARK SMILES IDX 46 97
REMARK H PARENT 6 6 11 31 70 50 38 61
REMARK Flexibility Score: inf
ROOT
ATOM      1  C   UNL A   1      37.771  21.556  24.845  1.00  0.00     0.023 C 
ENDROOT
BRANCH   1   2
ATOM      2  C   UNL A   1      36.316  21.518  25.333  1.00  0.00     0.116 C 
BRANCH   2   3
ATOM      3  N   UNL A   1      35.431  21.931  24.257  1.00  0.00    -0.354 N 
ATOM      4  C   UNL A   1      34.071  22.059  24.223  1.00  0.00     0.243 C 
ATOM      5  O   UNL A   1      33.538  22.099  23.107  1.00  0.00    -0.273 OA
ATOM      6  H   UNL A   1      35.887  22.157  23.415  1.00  0.00     0.163 HD
BRANCH   4   7
ATOM      7  C   UNL A   1      33.227  22.180  25.525  1.00  0.00     0.181 C 
BRANCH   7   8
ATOM      8  C   UNL A   1      32.306  20.960  25.728  1.00  0.00     0.032 C 
ATOM      9  C   UNL A   1      32.592  19.625  25.084  1.00  0.00     0.006 C 
ENDBRANCH   7   8
BRANCH   7  10
ATOM     10  N   UNL A   1      32.439  23.464  25.360  1.00  0.00    -0.280 N 
ATOM     11  C   UNL A   1      33.099  24.611  24.914  1.00  0.00     0.266 C 
ATOM     12  C   UNL A   1      31.095  23.675  25.583  1.00  0.00     0.149 C 
ATOM     13  O   UNL A   1      34.310  24.779  24.886  1.00  0.00    -0.268 OA
ATOM     14  C   UNL A   1      32.099  25.672  24.545  1.00  0.00     0.080 C 
ATOM     15  S   UNL A   1      30.540  24.946  24.518  1.00  0.00    -0.054 SA
ATOM     16  S   UNL A   1      30.064  23.089  26.760  1.00  0.00    -0.052 S 
ATOM     17  C   UNL A   1      32.378  26.976  24.371  1.00  0.00     0.024 C 
BRANCH  17  18
ATOM     18  C   UNL A   1      31.422  28.076  24.139  1.00  0.00    -0.049 C 
ATOM     19  C   UNL A   1      31.500  29.205  25.132  1.00  0.00     0.044 C 
ATOM     20  C   UNL A   1      30.485  27.999  23.166  1.00  0.00     0.011 C 
BRANCH  20  21
ATOM     21  C   UNL A   1      29.504  28.981  22.662  1.00  0.00    -0.025 A 
ATOM     22  C   UNL A   1      29.968  29.965  21.773  1.00  0.00     0.008 A 
ATOM     23  C   UNL A   1      28.195  29.092  23.144  1.00  0.00     0.008 A 
ATOM     24  C   UNL A   1      29.143  31.012  21.356  1.00  0.00     0.001 A 
ATOM     25  C   UNL A   1      27.362  30.134  22.717  1.00  0.00     0.001 A 
ATOM     26  C   UNL A   1      27.835  31.093  21.825  1.00  0.00     0.000 A 
ENDBRANCH  20  21
ENDBRANCH  17  18
ENDBRANCH   7  10
ENDBRANCH   4   7
ENDBRANCH   2   3
ENDBRANCH   1   2
BRANCH   1  27
ATOM     27  C   UNL A   1      38.558  20.267  25.032  1.00  0.00     0.023 C 
BRANCH  27  28
ATOM     28  C   UNL A   1      39.504  20.281  26.215  1.00  0.00     0.116 C 
BRANCH  28  29
ATOM     29  N   UNL A   1      40.560  19.282  26.116  1.00  0.00    -0.352 N 
ATOM     30  C   UNL A   1      41.922  19.464  26.094  1.00  0.00     0.251 C 
ATOM     31  H   UNL A   1      40.256  18.348  26.057  1.00  0.00     0.163 HD
ATOM     32  O   UNL A   1      42.661  18.509  25.874  1.00  0.00    -0.269 OA
BRANCH  30  33
ATOM     33  C   UNL A   1      42.477  20.820  26.295  1.00  0.00     0.039 A 
ATOM     34  C   UNL A   1      42.695  21.638  25.187  1.00  0.00     0.014 A 
ATOM     35  C   UNL A   1      42.745  21.293  27.582  1.00  0.00     0.014 A 
ATOM     36  C   UNL A   1      43.134  22.950  25.377  1.00  0.00     0.010 A 
ATOM     37  C   UNL A   1      43.062  22.629  27.775  1.00  0.00     0.010 A 
ATOM     38  C   UNL A   1      43.294  23.465  26.674  1.00  0.00    -0.014 A 
BRANCH  38  39
ATOM     39  C   UNL A   1      43.779  24.848  26.903  1.00  0.00     0.031 A 
ATOM     40  C   UNL A   1      42.848  25.867  27.508  1.00  0.00     0.074 A 
ATOM     41  C   UNL A   1      45.025  25.195  26.528  1.00  0.00     0.049 A 
ATOM     42  N   UNL A   1      43.048  27.137  27.746  1.00  0.00    -0.248 NA
ATOM     43  C   UNL A   1      41.491  25.404  27.847  1.00  0.00     0.031 C 
ATOM     44  C   UNL A   1      45.992  24.310  25.874  1.00  0.00     0.029 A 
ATOM     45  N   UNL A   1      45.695  26.386  26.645  1.00  0.00    -0.354 N 
ATOM     46  C   UNL A   1      41.841  27.623  28.241  1.00  0.00     0.074 A 
ATOM     47  C   UNL A   1      40.893  26.534  28.181  1.00  0.00     0.031 C 
ATOM     48  C   UNL A   1      47.144  24.977  25.689  1.00  0.00     0.029 A 
ATOM     49  C   UNL A   1      46.987  26.343  26.175  1.00  0.00     0.049 A 
ATOM     50  H   UNL A   1      45.289  27.196  27.031  1.00  0.00     0.167 HD
ATOM     51  C   UNL A   1      41.560  28.852  28.740  1.00  0.00     0.034 A 
ATOM     52  C   UNL A   1      47.935  27.299  26.147  1.00  0.00     0.034 A 
ATOM     53  C   UNL A   1      42.531  29.913  28.823  1.00  0.00     0.049 A 
ATOM     54  C   UNL A   1      47.608  28.654  26.725  1.00  0.00     0.074 A 
ATOM     55  C   UNL A   1      42.384  31.181  29.357  1.00  0.00     0.029 A 
ATOM     56  N   UNL A   1      43.838  29.827  28.357  1.00  0.00    -0.354 N 
ATOM     57  N   UNL A   1      46.479  29.081  27.246  1.00  0.00    -0.248 NA
ATOM     58  C   UNL A   1      48.688  29.647  26.727  1.00  0.00     0.031 C 
ATOM     59  C   UNL A   1      43.581  31.879  29.162  1.00  0.00     0.029 A 
ATOM     60  C   UNL A   1      44.501  31.025  28.572  1.00  0.00     0.049 A 
ATOM     61  H   UNL A   1      44.236  29.031  27.936  1.00  0.00     0.167 HD
ATOM     62  C   UNL A   1      46.726  30.386  27.664  1.00  0.00     0.074 A 
ATOM     63  C   UNL A   1      48.115  30.660  27.359  1.00  0.00     0.031 C 
ATOM     64  C   UNL A   1      45.884  31.280  28.246  1.00  0.00     0.034 A 
BRANCH  51  65
ATOM     65  C   UNL A   1      40.147  29.098  29.218  1.00  0.00     0.023 A 
ATOM     66  C   UNL A   1      39.810  29.051  30.583  1.00  0.00     0.031 A 
ATOM     67  C   UNL A   1      39.111  29.329  28.297  1.00  0.00     0.131 A 
ATOM     68  C   UNL A   1      38.467  29.135  30.980  1.00  0.00     0.055 A 
ATOM     69  C   UNL A   1      37.787  29.506  28.706  1.00  0.00     0.041 A 
ATOM     70  F   UNL A   1      39.363  29.363  26.978  1.00  0.00    -0.206 F 
ATOM     71  C   UNL A   1      37.455  29.390  30.053  1.00  0.00     0.022 A 
BRANCH  68  72
ATOM     72  S   UNL A   1      38.047  28.743  32.700  1.00  0.00     0.124 S 
ATOM     73  O   UNL A   1      36.755  29.411  32.846  1.00  0.00    -0.237 OA
ATOM     74  O   UNL A   1      38.015  27.285  32.694  1.00  0.00    -0.237 OA
ATOM     75  O   UNL A   1      39.139  29.341  33.465  1.00  0.00    -0.744 OA
ENDBRANCH  68  72
ENDBRANCH  51  65
BRANCH  52  76
ATOM     76  C   UNL A   1      49.284  27.018  25.577  1.00  0.00     0.023 A 
ATOM     77  C   UNL A   1      50.334  26.566  26.391  1.00  0.00     0.031 A 
ATOM     78  C   UNL A   1      49.558  27.244  24.215  1.00  0.00     0.131 A 
ATOM     79  C   UNL A   1      51.621  26.405  25.854  1.00  0.00     0.055 A 
ATOM     80  C   UNL A   1      50.827  27.031  23.674  1.00  0.00     0.041 A 
ATOM     81  F   UNL A   1      48.589  27.668  23.388  1.00  0.00    -0.206 F 
ATOM     82  C   UNL A   1      51.873  26.623  24.498  1.00  0.00     0.022 A 
BRANCH  79  83
ATOM     83  S   UNL A   1      52.986  25.991  26.975  1.00  0.00     0.124 S 
ATOM     84  O   UNL A   1      53.383  24.675  26.488  1.00  0.00    -0.237 OA
ATOM     85  O   UNL A   1      53.924  27.080  26.723  1.00  0.00    -0.237 OA
ATOM     86  O   UNL A   1      52.358  26.006  28.295  1.00  0.00    -0.744 OA
ENDBRANCH  79  83
ENDBRANCH  52  76
BRANCH  64  87
ATOM     87  C   UNL A   1      46.470  32.620  28.615  1.00  0.00     0.023 A 
ATOM     88  C   UNL A   1      46.456  33.702  27.718  1.00  0.00     0.031 A 
ATOM     89  C   UNL A   1      47.084  32.807  29.867  1.00  0.00     0.131 A 
ATOM     90  C   UNL A   1      47.110  34.897  28.054  1.00  0.00     0.055 A 
ATOM     91  C   UNL A   1      47.671  34.021  30.224  1.00  0.00     0.041 A 
ATOM     92  F   UNL A   1      47.127  31.807  30.763  1.00  0.00    -0.206 F 
ATOM     93  C   UNL A   1      47.702  35.069  29.308  1.00  0.00     0.022 A 
BRANCH  90  94
ATOM     94  S   UNL A   1      47.284  36.177  26.781  1.00  0.00     0.124 S 
ATOM     95  O   UNL A   1      46.633  37.322  27.409  1.00  0.00    -0.237 OA
ATOM     96  O   UNL A   1      48.733  36.272  26.632  1.00  0.00    -0.237 OA
ATOM     97  O   UNL A   1      46.578  35.614  25.631  1.00  0.00    -0.744 OA
ENDBRANCH  90  94
ENDBRANCH  64  87
ENDBRANCH  38  39
ENDBRANCH  30  33
ENDBRANCH  28  29
ENDBRANCH  27  28
ENDBRANCH   1  27
TORSDOF 18
ENDMDL
MODEL 3
REMARK VINA RESULT:     -11.2      2.456      7.829
REMARK SMILES CC[C@@H](C(=O)NCCCCNC(=O)c1ccc(-c2c3nc(c(-c4cc(S(=O)(=O)[O-])ccc4F)c4ccc([nH]4)c(-c4cc(S(=O)(=O)[O-])ccc4F)c4nc(c(-c5cc(S(=O)(=O)[O-])ccc5F)c5ccc2[nH]5)C=C4)C=C3)cc1)N1C(=O)/C(=C/C(C)=C/c2ccccc2)SC1=S
REMARK SMILES IDX 8 1 7 2 6 3 4 4 5 5 3 7 2 8 1 9 77 10 78 11 92 12 79 13
REMARK SMILES IDX 80 14 91 15 93 16 81 17 82 18 83 19 84 20 85 21 86 22 90 23
REMARK SMILES IDX 87 24 89 25 88 26 9 27 10 28 11 29 12 30 13 32 14 33 15 34
REMARK SMILES IDX 76 35 16 36 75 37 17 38 18 39 19 40 69 41 20 42 74 43 68 44
REMARK SMILES IDX 70 45 21 46 73 47 67 48 66 49 22 51 54 52 34 53 53 54 35 55
REMARK SMILES IDX 38 56 52 57 71 58 36 59 37 60 51 62 72 63 39 64 23 65 24 66
REMARK SMILES IDX 32 67 25 68 31 69 33 70 30 71 26 72 27 73 28 74 29 75 55 76
REMARK SMILES IDX 56 77 64 78 57 79 63 80 65 81 62 82 58 83 59 84 60 85 61 86
REMARK SMILES IDX 40 87 41 88 49 89 42 90 48 91 50 92 47 93 43 94 44 95 45 96
REMARK SMILES IDX 46 97
REMARK H PARENT 6 6 11 31 70 50 38 61
REMARK Flexibility Score: inf
ROOT
ATOM      1  C   UNL A   1      37.089  21.135  24.686  1.00  0.00     0.023 C 
ENDROOT
BRANCH   1   2
ATOM      2  C   UNL A   1      35.634  20.663  24.809  1.00  0.00     0.116 C 
BRANCH   2   3
ATOM      3  N   UNL A   1      35.090  21.091  26.087  1.00  0.00    -0.354 N 
ATOM      4  C   UNL A   1      33.894  21.677  26.393  1.00  0.00     0.243 C 
ATOM      5  O   UNL A   1      33.811  22.245  27.489  1.00  0.00    -0.273 OA
ATOM      6  H   UNL A   1      35.680  20.932  26.858  1.00  0.00     0.163 HD
BRANCH   4   7
ATOM      7  C   UNL A   1      32.678  21.611  25.425  1.00  0.00     0.181 C 
BRANCH   7   8
ATOM      8  C   UNL A   1      33.107  21.253  23.988  1.00  0.00     0.032 C 
ATOM      9  C   UNL A   1      32.155  21.349  22.821  1.00  0.00     0.006 C 
ENDBRANCH   7   8
BRANCH   7  10
ATOM     10  N   UNL A   1      32.043  22.984  25.503  1.00  0.00    -0.280 N 
ATOM     11  C   UNL A   1      32.768  24.092  25.059  1.00  0.00     0.266 C 
ATOM     12  C   UNL A   1      30.785  23.319  25.958  1.00  0.00     0.149 C 
ATOM     13  O   UNL A   1      33.972  24.126  24.849  1.00  0.00    -0.268 OA
ATOM     14  C   UNL A   1      31.866  25.290  24.951  1.00  0.00     0.080 C 
ATOM     15  S   UNL A   1      30.242  24.749  25.113  1.00  0.00    -0.054 SA
ATOM     16  S   UNL A   1      29.877  22.728  27.231  1.00  0.00    -0.052 S 
ATOM     17  C   UNL A   1      32.278  26.566  24.848  1.00  0.00     0.024 C 
BRANCH  17  18
ATOM     18  C   UNL A   1      31.445  27.784  24.872  1.00  0.00    -0.049 C 
ATOM     19  C   UNL A   1      31.656  28.675  26.067  1.00  0.00     0.044 C 
ATOM     20  C   UNL A   1      30.495  28.003  23.933  1.00  0.00     0.011 C 
BRANCH  20  21
ATOM     21  C   UNL A   1      29.622  29.164  23.668  1.00  0.00    -0.025 A 
ATOM     22  C   UNL A   1      28.483  28.951  22.873  1.00  0.00     0.008 A 
ATOM     23  C   UNL A   1      29.949  30.480  24.012  1.00  0.00     0.008 A 
ATOM     24  C   UNL A   1      27.678  30.015  22.460  1.00  0.00     0.001 A 
ATOM     25  C   UNL A   1      29.137  31.548  23.609  1.00  0.00     0.001 A 
ATOM     26  C   UNL A   1      28.003  31.316  22.833  1.00  0.00     0.000 A 
ENDBRANCH  20  21
ENDBRANCH  17  18
ENDBRANCH   7  10
ENDBRANCH   4   7
ENDBRANCH   2   3
ENDBRANCH   1   2
BRANCH   1  27
ATOM     27  C   UNL A   1      38.145  20.049  24.838  1.00  0.00     0.023 C 
BRANCH  27  28
ATOM     28  C   UNL A   1      39.072  20.243  26.020  1.00  0.00     0.116 C 
BRANCH  28  29
ATOM     29  N   UNL A   1      40.155  19.270  26.064  1.00  0.00    -0.352 N 
ATOM     30  C   UNL A   1      41.505  19.486  26.197  1.00  0.00     0.251 C 
ATOM     31  H   UNL A   1      39.881  18.327  25.989  1.00  0.00     0.163 HD
ATOM     32  O   UNL A   1      42.288  18.546  26.083  1.00  0.00    -0.269 OA
BRANCH  30  33
ATOM     33  C   UNL A   1      42.001  20.858  26.434  1.00  0.00     0.039 A 
ATOM     34  C   UNL A   1      42.131  21.733  25.355  1.00  0.00     0.014 A 
ATOM     35  C   UNL A   1      42.301  21.290  27.728  1.00  0.00     0.014 A 
ATOM     36  C   UNL A   1      42.513  23.056  25.584  1.00  0.00     0.010 A 
ATOM     37  C   UNL A   1      42.561  22.632  27.967  1.00  0.00     0.010 A 
ATOM     38  C   UNL A   1      42.703  23.523  26.895  1.00  0.00    -0.014 A 
BRANCH  38  39
ATOM     39  C   UNL A   1      43.129  24.919  27.164  1.00  0.00     0.031 A 
ATOM     40  C   UNL A   1      42.176  25.863  27.849  1.00  0.00     0.074 A 
ATOM     41  C   UNL A   1      44.340  25.344  26.755  1.00  0.00     0.049 A 
ATOM     42  N   UNL A   1      42.323  27.131  28.134  1.00  0.00    -0.248 NA
ATOM     43  C   UNL A   1      40.859  25.318  28.222  1.00  0.00     0.031 C 
ATOM     44  C   UNL A   1      45.321  24.537  26.024  1.00  0.00     0.029 A 
ATOM     45  N   UNL A   1      44.954  26.562  26.897  1.00  0.00    -0.354 N 
ATOM     46  C   UNL A   1      41.116  27.534  28.698  1.00  0.00     0.074 A 
ATOM     47  C   UNL A   1      40.221  26.402  28.629  1.00  0.00     0.031 C 
ATOM     48  C   UNL A   1      46.429  25.268  25.823  1.00  0.00     0.029 A 
ATOM     49  C   UNL A   1      46.226  26.604  26.373  1.00  0.00     0.049 A 
ATOM     50  H   UNL A   1      44.526  27.334  27.333  1.00  0.00     0.167 HD
ATOM     51  C   UNL A   1      40.796  28.726  29.261  1.00  0.00     0.034 A 
ATOM     52  C   UNL A   1      47.124  27.607  26.349  1.00  0.00     0.034 A 
ATOM     53  C   UNL A   1      41.717  29.830  29.351  1.00  0.00     0.049 A 
ATOM     54  C   UNL A   1      46.755  28.918  26.997  1.00  0.00     0.074 A 
ATOM     55  C   UNL A   1      41.530  31.066  29.945  1.00  0.00     0.029 A 
ATOM     56  N   UNL A   1      43.006  29.830  28.830  1.00  0.00    -0.354 N 
ATOM     57  N   UNL A   1      45.630  29.266  27.582  1.00  0.00    -0.248 NA
ATOM     58  C   UNL A   1      47.784  29.964  27.000  1.00  0.00     0.031 C 
ATOM     59  C   UNL A   1      42.682  31.832  29.733  1.00  0.00     0.029 A 
ATOM     60  C   UNL A   1      43.617  31.050  29.069  1.00  0.00     0.049 A 
ATOM     61  H   UNL A   1      43.424  29.073  28.359  1.00  0.00     0.167 HD
ATOM     62  C   UNL A   1      45.830  30.563  28.046  1.00  0.00     0.074 A 
ATOM     63  C   UNL A   1      47.190  30.920  27.698  1.00  0.00     0.031 C 
ATOM     64  C   UNL A   1      44.971  31.389  28.699  1.00  0.00     0.034 A 
BRANCH  51  65
ATOM     65  C   UNL A   1      39.394  28.880  29.805  1.00  0.00     0.023 A 
ATOM     66  C   UNL A   1      38.368  29.471  29.045  1.00  0.00     0.031 A 
ATOM     67  C   UNL A   1      39.089  28.481  31.118  1.00  0.00     0.131 A 
ATOM     68  C   UNL A   1      37.120  29.734  29.631  1.00  0.00     0.055 A 
ATOM     69  C   UNL A   1      37.816  28.661  31.665  1.00  0.00     0.041 A 
ATOM     70  F   UNL A   1      40.029  27.932  31.902  1.00  0.00    -0.206 F 
ATOM     71  C   UNL A   1      36.828  29.308  30.928  1.00  0.00     0.022 A 
BRANCH  68  72
ATOM     72  S   UNL A   1      35.947  30.785  28.732  1.00  0.00     0.124 S 
ATOM     73  O   UNL A   1      35.303  31.509  29.827  1.00  0.00    -0.237 OA
ATOM     74  O   UNL A   1      36.821  31.573  27.873  1.00  0.00    -0.237 OA
ATOM     75  O   UNL A   1      35.088  29.826  28.041  1.00  0.00    -0.744 OA
ENDBRANCH  68  72
ENDBRANCH  51  65
BRANCH  52  76
ATOM     76  C   UNL A   1      48.460  27.419  25.713  1.00  0.00     0.023 A 
ATOM     77  C   UNL A   1      48.628  27.567  24.327  1.00  0.00     0.031 A 
ATOM     78  C   UNL A   1      49.580  27.042  26.475  1.00  0.00     0.131 A 
ATOM     79  C   UNL A   1      49.870  27.286  23.736  1.00  0.00     0.055 A 
ATOM     80  C   UNL A   1      50.828  26.816  25.890  1.00  0.00     0.041 A 
ATOM     81  F   UNL A   1      49.479  26.895  27.806  1.00  0.00    -0.206 F 
ATOM     82  C   UNL A   1      50.975  26.923  24.509  1.00  0.00     0.022 A 
BRANCH  79  83
ATOM     83  S   UNL A   1      49.999  27.317  21.927  1.00  0.00     0.124 S 
ATOM     84  O   UNL A   1      51.366  26.854  21.718  1.00  0.00    -0.237 OA
ATOM     85  O   UNL A   1      48.940  26.392  21.534  1.00  0.00    -0.237 OA
ATOM     86  O   UNL A   1      49.755  28.719  21.592  1.00  0.00    -0.744 OA
ENDBRANCH  79  83
ENDBRANCH  52  76
BRANCH  64  87
ATOM     87  C   UNL A   1      45.506  32.740  29.103  1.00  0.00     0.023 A 
ATOM     88  C   UNL A   1      45.522  33.823  28.207  1.00  0.00     0.031 A 
ATOM     89  C   UNL A   1      46.039  32.939  30.389  1.00  0.00     0.131 A 
ATOM     90  C   UNL A   1      46.130  35.031  28.581  1.00  0.00     0.055 A 
ATOM     91  C   UNL A   1      46.579  34.165  30.780  1.00  0.00     0.041 A 
ATOM     92  F   UNL A   1      46.050  31.939  31.286  1.00  0.00    -0.206 F 
ATOM     93  C   UNL A   1      46.643  35.213  29.867  1.00  0.00     0.022 A 
BRANCH  90  94
ATOM     94  S   UNL A   1      46.353  36.315  27.320  1.00  0.00     0.124 S 
ATOM     95  O   UNL A   1      47.805  36.445  27.272  1.00  0.00    -0.237 OA
ATOM     96  O   UNL A   1      45.729  35.711  26.147  1.00  0.00    -0.237 OA
ATOM     97  O   UNL A   1      45.644  37.467  27.876  1.00  0.00    -0.744 OA
ENDBRANCH  90  94
ENDBRANCH  64  87
ENDBRANCH  38  39
ENDBRANCH  30  33
ENDBRANCH  28  29
ENDBRANCH  27  28
ENDBRANCH   1  27
TORSDOF 18
ENDMDL
