MODEL 1
REMARK VINA RESULT:     -12.7      0.000      0.000
REMARK SMILES O=C(NCCCCNC(=O)[C@]1(Cl)C=CC=C(c2ccccc2)C1)c1ccc(-c2c3nc(c(-c4cc(S(=O)(=O)[O-])ccc4F)c4ccc([nH]4)c(-c4cc(S(=O)(=O)[O-])ccc4F)c4nc(c(-c5cc(S(=O)(=O)[O-])ccc5F)c5ccc2[nH]5)C=C4)C=C3)cc1
REMARK SMILES IDX 4 1 3 2 1 3 2 4 24 6 25 7 86 8 26 9 85 10 27 11 28 12 29 13
REMARK SMILES IDX 79 14 30 15 84 16 78 17 80 18 31 19 83 20 77 21 76 22 32 24
REMARK SMILES IDX 64 25 44 26 63 27 45 28 48 29 62 30 81 31 46 32 47 33 61 35
REMARK SMILES IDX 82 36 49 37 33 38 34 39 42 40 35 41 41 42 43 43 40 44 36 45
REMARK SMILES IDX 37 46 38 47 39 48 65 49 66 50 74 51 67 52 73 53 75 54 72 55
REMARK SMILES IDX 68 56 69 57 70 58 71 59 50 60 51 61 59 62 52 63 58 64 60 65
REMARK SMILES IDX 57 66 53 67 54 68 55 69 56 70 5 71 6 72 7 73 8 74 9 75 10 77
REMARK SMILES IDX 11 78 13 79 23 80 12 81 14 82 16 83 15 84 17 85 18 86 22 87
REMARK SMILES IDX 19 88 21 89 20 90
REMARK H PARENT 3 5 80 23 48 34 8 76
REMARK Flexibility Score: inf
ROOT
ATOM      1  C   UNL A   1      36.477  22.233  25.256  1.00  0.00     0.116 C 
ENDROOT
BRANCH   1   2
ATOM      2  N   UNL A   1      37.415  21.132  25.428  1.00  0.00    -0.352 N 
ATOM      3  O   UNL A   1      39.389  20.124  25.847  1.00  0.00    -0.269 OA
ATOM      4  C   UNL A   1      38.717  21.144  25.884  1.00  0.00     0.251 C 
ATOM      5  H   UNL A   1      37.068  20.244  25.182  1.00  0.00     0.163 HD
BRANCH   4   6
ATOM      6  C   UNL A   1      39.301  22.407  26.391  1.00  0.00     0.039 A 
ATOM      7  C   UNL A   1      38.826  23.637  25.936  1.00  0.00     0.014 A 
ATOM      8  C   UNL A   1      40.353  22.357  27.309  1.00  0.00     0.014 A 
ATOM      9  C   UNL A   1      39.517  24.800  26.252  1.00  0.00     0.010 A 
ATOM     10  C   UNL A   1      40.985  23.541  27.705  1.00  0.00     0.010 A 
ATOM     11  C   UNL A   1      40.600  24.768  27.146  1.00  0.00    -0.014 A 
BRANCH  11  12
ATOM     12  C   UNL A   1      41.280  26.042  27.502  1.00  0.00     0.031 A 
ATOM     13  C   UNL A   1      42.645  26.375  26.964  1.00  0.00     0.074 A 
ATOM     14  C   UNL A   1      40.625  26.922  28.287  1.00  0.00     0.049 A 
ATOM     15  N   UNL A   1      43.374  27.442  27.170  1.00  0.00    -0.248 NA
ATOM     16  C   UNL A   1      43.280  25.380  26.088  1.00  0.00     0.031 C 
ATOM     17  C   UNL A   1      39.295  26.703  28.864  1.00  0.00     0.029 A 
ATOM     18  N   UNL A   1      40.968  28.178  28.716  1.00  0.00    -0.354 N 
ATOM     19  C   UNL A   1      44.561  27.241  26.472  1.00  0.00     0.074 A 
ATOM     20  C   UNL A   1      44.461  25.936  25.854  1.00  0.00     0.031 C 
ATOM     21  C   UNL A   1      38.915  27.804  29.526  1.00  0.00     0.029 A 
ATOM     22  C   UNL A   1      40.000  28.777  29.489  1.00  0.00     0.049 A 
ATOM     23  H   UNL A   1      41.824  28.609  28.493  1.00  0.00     0.167 HD
ATOM     24  C   UNL A   1      45.628  28.071  26.357  1.00  0.00     0.034 A 
ATOM     25  C   UNL A   1      39.994  29.965  30.122  1.00  0.00     0.034 A 
ATOM     26  C   UNL A   1      45.701  29.378  26.971  1.00  0.00     0.049 A 
ATOM     27  C   UNL A   1      41.200  30.854  29.996  1.00  0.00     0.074 A 
ATOM     28  C   UNL A   1      46.721  30.312  26.892  1.00  0.00     0.029 A 
ATOM     29  N   UNL A   1      44.718  29.934  27.780  1.00  0.00    -0.354 N 
ATOM     30  N   UNL A   1      42.311  30.645  29.327  1.00  0.00    -0.248 NA
ATOM     31  C   UNL A   1      41.153  32.135  30.709  1.00  0.00     0.031 C 
ATOM     32  C   UNL A   1      46.382  31.403  27.701  1.00  0.00     0.029 A 
ATOM     33  C   UNL A   1      45.120  31.184  28.230  1.00  0.00     0.049 A 
ATOM     34  H   UNL A   1      43.861  29.505  28.002  1.00  0.00     0.167 HD
ATOM     35  C   UNL A   1      43.090  31.779  29.530  1.00  0.00     0.074 A 
ATOM     36  C   UNL A   1      42.311  32.675  30.361  1.00  0.00     0.031 C 
ATOM     37  C   UNL A   1      44.339  32.054  29.074  1.00  0.00     0.034 A 
BRANCH  24  38
ATOM     38  C   UNL A   1      46.824  27.574  25.580  1.00  0.00     0.023 A 
ATOM     39  C   UNL A   1      47.052  27.945  24.243  1.00  0.00     0.031 A 
ATOM     40  C   UNL A   1      47.757  26.717  26.193  1.00  0.00     0.131 A 
ATOM     41  C   UNL A   1      48.153  27.418  23.548  1.00  0.00     0.055 A 
ATOM     42  C   UNL A   1      48.886  26.251  25.518  1.00  0.00     0.041 A 
ATOM     43  F   UNL A   1      47.581  26.314  27.462  1.00  0.00    -0.206 F 
ATOM     44  C   UNL A   1      49.084  26.592  24.184  1.00  0.00     0.022 A 
BRANCH  41  45
ATOM     45  S   UNL A   1      48.294  27.738  21.768  1.00  0.00     0.124 S 
ATOM     46  O   UNL A   1      49.378  28.717  21.729  1.00  0.00    -0.237 OA
ATOM     47  O   UNL A   1      48.606  26.418  21.234  1.00  0.00    -0.237 OA
ATOM     48  O   UNL A   1      46.979  28.263  21.408  1.00  0.00    -0.744 OA
ENDBRANCH  41  45
ENDBRANCH  24  38
BRANCH  25  49
ATOM     49  C   UNL A   1      38.829  30.360  30.962  1.00  0.00     0.023 A 
ATOM     50  C   UNL A   1      37.742  31.058  30.417  1.00  0.00     0.031 A 
ATOM     51  C   UNL A   1      38.799  30.060  32.337  1.00  0.00     0.131 A 
ATOM     52  C   UNL A   1      36.688  31.467  31.249  1.00  0.00     0.055 A 
ATOM     53  C   UNL A   1      37.725  30.420  33.148  1.00  0.00     0.041 A 
ATOM     54  F   UNL A   1      39.814  29.389  32.908  1.00  0.00    -0.206 F 
ATOM     55  C   UNL A   1      36.665  31.139  32.607  1.00  0.00     0.022 A 
BRANCH  52  56
ATOM     56  S   UNL A   1      35.381  32.509  30.546  1.00  0.00     0.124 S 
ATOM     57  O   UNL A   1      36.087  33.766  30.327  1.00  0.00    -0.237 OA
ATOM     58  O   UNL A   1      35.013  31.763  29.348  1.00  0.00    -0.237 OA
ATOM     59  O   UNL A   1      34.367  32.537  31.598  1.00  0.00    -0.744 OA
ENDBRANCH  52  56
ENDBRANCH  25  49
BRANCH  37  60
ATOM     60  C   UNL A   1      44.911  33.397  29.449  1.00  0.00     0.023 A 
ATOM     61  C   UNL A   1      44.813  34.504  28.587  1.00  0.00     0.031 A 
ATOM     62  C   UNL A   1      45.593  33.560  30.666  1.00  0.00     0.131 A 
ATOM     63  C   UNL A   1      45.441  35.710  28.929  1.00  0.00     0.055 A 
ATOM     64  C   UNL A   1      46.169  34.780  31.026  1.00  0.00     0.041 A 
ATOM     65  F   UNL A   1      45.718  32.534  31.523  1.00  0.00    -0.206 F 
ATOM     66  C   UNL A   1      46.106  35.859  30.148  1.00  0.00     0.022 A 
BRANCH  63  67
ATOM     67  S   UNL A   1      45.458  37.057  27.714  1.00  0.00     0.124 S 
ATOM     68  O   UNL A   1      46.493  37.937  28.251  1.00  0.00    -0.237 OA
ATOM     69  O   UNL A   1      45.795  36.358  26.478  1.00  0.00    -0.237 OA
ATOM     70  O   UNL A   1      44.099  37.589  27.772  1.00  0.00    -0.744 OA
ENDBRANCH  63  67
ENDBRANCH  37  60
ENDBRANCH  11  12
ENDBRANCH   4   6
ENDBRANCH   1   2
BRANCH   1  71
ATOM     71  C   UNL A   1      36.107  22.489  23.799  1.00  0.00     0.023 C 
BRANCH  71  72
ATOM     72  C   UNL A   1      34.739  23.122  23.572  1.00  0.00     0.023 C 
BRANCH  72  73
ATOM     73  C   UNL A   1      34.185  23.942  24.730  1.00  0.00     0.116 C 
BRANCH  73  74
ATOM     74  N   UNL A   1      32.836  24.430  24.524  1.00  0.00    -0.354 N 
ATOM     75  C   UNL A   1      31.665  24.020  25.112  1.00  0.00     0.245 C 
ATOM     76  H   UNL A   1      32.748  25.159  23.868  1.00  0.00     0.163 HD
ATOM     77  O   UNL A   1      30.659  24.667  24.802  1.00  0.00    -0.273 OA
BRANCH  75  78
ATOM     78  C   UNL A   1      31.603  22.752  26.034  1.00  0.00     0.145 C 
ATOM     79  C   UNL A   1      32.539  22.848  27.217  1.00  0.00     0.006 C 
ATOM     80  C   UNL A   1      31.771  21.477  25.159  1.00  0.00     0.073 C 
ATOM     81  Cl  UNL A   1      29.936  22.709  26.785  1.00  0.00    -0.104 Cl
ATOM     82  C   UNL A   1      33.504  21.948  27.452  1.00  0.00    -0.002 C 
ATOM     83  C   UNL A   1      32.955  20.577  25.492  1.00  0.00    -0.038 C 
ATOM     84  C   UNL A   1      33.739  20.840  26.557  1.00  0.00     0.004 C 
BRANCH  83  85
ATOM     85  C   UNL A   1      33.229  19.416  24.597  1.00  0.00    -0.022 A 
ATOM     86  C   UNL A   1      34.335  18.579  24.817  1.00  0.00     0.008 A 
ATOM     87  C   UNL A   1      32.375  19.088  23.530  1.00  0.00     0.008 A 
ATOM     88  C   UNL A   1      34.586  17.470  24.001  1.00  0.00     0.001 A 
ATOM     89  C   UNL A   1      32.618  17.974  22.718  1.00  0.00     0.001 A 
ATOM     90  C   UNL A   1      33.725  17.166  22.953  1.00  0.00     0.000 A 
ENDBRANCH  83  85
ENDBRANCH  75  78
ENDBRANCH  73  74
ENDBRANCH  72  73
ENDBRANCH  71  72
ENDBRANCH   1  71
TORSDOF 15
ENDMDL
MODEL 2
REMARK VINA RESULT:     -12.4      0.542      7.621
REMARK SMILES O=C(NCCCCNC(=O)[C@]1(Cl)C=CC=C(c2ccccc2)C1)c1ccc(-c2c3nc(c(-c4cc(S(=O)(=O)[O-])ccc4F)c4ccc([nH]4)c(-c4cc(S(=O)(=O)[O-])ccc4F)c4nc(c(-c5cc(S(=O)(=O)[O-])ccc5F)c5ccc2[nH]5)C=C4)C=C3)cc1
REMARK SMILES IDX 4 1 3 2 1 3 2 4 24 6 25 7 86 8 26 9 85 10 27 11 28 12 29 13
REMARK SMILES IDX 79 14 30 15 84 16 78 17 80 18 31 19 83 20 77 21 76 22 32 24
REMARK SMILES IDX 64 25 44 26 63 27 45 28 48 29 62 30 81 31 46 32 47 33 61 35
REMARK SMILES IDX 82 36 49 37 33 38 34 39 42 40 35 41 41 42 43 43 40 44 36 45
REMARK SMILES IDX 37 46 38 47 39 48 65 49 66 50 74 51 67 52 73 53 75 54 72 55
REMARK SMILES IDX 68 56 69 57 70 58 71 59 50 60 51 61 59 62 52 63 58 64 60 65
REMARK SMILES IDX 57 66 53 67 54 68 55 69 56 70 5 71 6 72 7 73 8 74 9 75 10 77
REMARK SMILES IDX 11 78 13 79 23 80 12 81 14 82 16 83 15 84 17 85 18 86 22 87
REMARK SMILES IDX 19 88 21 89 20 90
REMARK H PARENT 3 5 80 23 48 34 8 76
REMARK Flexibility Score: inf
ROOT
ATOM      1  C   UNL A   1      36.796  22.126  25.366  1.00  0.00     0.116 C 
ENDROOT
BRANCH   1   2
ATOM      2  N   UNL A   1      37.745  21.051  25.627  1.00  0.00    -0.352 N 
ATOM      3  O   UNL A   1      39.726  20.101  26.138  1.00  0.00    -0.269 OA
ATOM      4  C   UNL A   1      39.042  21.112  26.094  1.00  0.00     0.251 C 
ATOM      5  H   UNL A   1      37.410  20.144  25.443  1.00  0.00     0.163 HD
BRANCH   4   6
ATOM      6  C   UNL A   1      39.605  22.416  26.513  1.00  0.00     0.039 A 
ATOM      7  C   UNL A   1      39.104  23.606  25.983  1.00  0.00     0.014 A 
ATOM      8  C   UNL A   1      40.665  22.445  27.424  1.00  0.00     0.014 A 
ATOM      9  C   UNL A   1      39.775  24.799  26.218  1.00  0.00     0.010 A 
ATOM     10  C   UNL A   1      41.277  23.664  27.737  1.00  0.00     0.010 A 
ATOM     11  C   UNL A   1      40.865  24.845  27.103  1.00  0.00    -0.014 A 
BRANCH  11  12
ATOM     12  C   UNL A   1      41.523  26.151  27.370  1.00  0.00     0.031 A 
ATOM     13  C   UNL A   1      40.846  27.210  28.198  1.00  0.00     0.074 A 
ATOM     14  C   UNL A   1      42.768  26.354  26.893  1.00  0.00     0.049 A 
ATOM     15  N   UNL A   1      41.282  28.399  28.532  1.00  0.00    -0.248 NA
ATOM     16  C   UNL A   1      39.504  26.902  28.713  1.00  0.00     0.031 C 
ATOM     17  C   UNL A   1      43.520  25.394  26.078  1.00  0.00     0.029 A 
ATOM     18  N   UNL A   1      43.629  27.411  27.036  1.00  0.00    -0.354 N 
ATOM     19  C   UNL A   1      40.263  28.990  29.273  1.00  0.00     0.074 A 
ATOM     20  C   UNL A   1      39.177  28.034  29.320  1.00  0.00     0.031 C 
ATOM     21  C   UNL A   1      44.745  25.884  25.839  1.00  0.00     0.029 A 
ATOM     22  C   UNL A   1      44.841  27.220  26.413  1.00  0.00     0.049 A 
ATOM     23  H   UNL A   1      43.402  28.228  27.536  1.00  0.00     0.167 HD
ATOM     24  C   UNL A   1      40.243  30.213  29.859  1.00  0.00     0.034 A 
ATOM     25  C   UNL A   1      45.903  28.038  26.291  1.00  0.00     0.034 A 
ATOM     26  C   UNL A   1      41.345  31.147  29.813  1.00  0.00     0.049 A 
ATOM     27  C   UNL A   1      45.842  29.397  26.931  1.00  0.00     0.074 A 
ATOM     28  C   UNL A   1      41.441  32.398  30.399  1.00  0.00     0.029 A 
ATOM     29  N   UNL A   1      42.541  30.936  29.138  1.00  0.00    -0.354 N 
ATOM     30  N   UNL A   1      44.870  29.935  27.632  1.00  0.00    -0.248 NA
ATOM     31  C   UNL A   1      47.019  30.257  26.766  1.00  0.00     0.031 C 
ATOM     32  C   UNL A   1      42.665  32.966  30.029  1.00  0.00     0.029 A 
ATOM     33  C   UNL A   1      43.367  32.043  29.269  1.00  0.00     0.049 A 
ATOM     34  H   UNL A   1      42.770  30.118  28.640  1.00  0.00     0.167 HD
ATOM     35  C   UNL A   1      45.326  31.195  28.001  1.00  0.00     0.074 A 
ATOM     36  C   UNL A   1      46.668  31.324  27.468  1.00  0.00     0.031 C 
ATOM     37  C   UNL A   1      44.693  32.162  28.714  1.00  0.00     0.034 A 
BRANCH  24  38
ATOM     38  C   UNL A   1      38.973  30.635  30.561  1.00  0.00     0.023 A 
ATOM     39  C   UNL A   1      37.921  31.272  29.880  1.00  0.00     0.031 A 
ATOM     40  C   UNL A   1      38.814  30.390  31.937  1.00  0.00     0.131 A 
ATOM     41  C   UNL A   1      36.781  31.689  30.586  1.00  0.00     0.055 A 
ATOM     42  C   UNL A   1      37.649  30.745  32.620  1.00  0.00     0.041 A 
ATOM     43  F   UNL A   1      39.793  29.802  32.643  1.00  0.00    -0.206 F 
ATOM     44  C   UNL A   1      36.628  31.409  31.947  1.00  0.00     0.022 A 
BRANCH  41  45
ATOM     45  S   UNL A   1      35.545  32.702  29.727  1.00  0.00     0.124 S 
ATOM     46  O   UNL A   1      36.240  33.981  29.610  1.00  0.00    -0.237 OA
ATOM     47  O   UNL A   1      35.346  31.968  28.483  1.00  0.00    -0.237 OA
ATOM     48  O   UNL A   1      34.405  32.702  30.641  1.00  0.00    -0.744 OA
ENDBRANCH  41  45
ENDBRANCH  24  38
BRANCH  25  49
ATOM     49  C   UNL A   1      47.090  27.611  25.498  1.00  0.00     0.023 A 
ATOM     50  C   UNL A   1      47.204  27.921  24.135  1.00  0.00     0.031 A 
ATOM     51  C   UNL A   1      48.123  26.865  26.095  1.00  0.00     0.131 A 
ATOM     52  C   UNL A   1      48.306  27.453  23.404  1.00  0.00     0.055 A 
ATOM     53  C   UNL A   1      49.242  26.449  25.376  1.00  0.00     0.041 A 
ATOM     54  F   UNL A   1      48.064  26.545  27.398  1.00  0.00    -0.206 F 
ATOM     55  C   UNL A   1      49.333  26.732  24.018  1.00  0.00     0.022 A 
BRANCH  52  56
ATOM     56  S   UNL A   1      48.339  27.729  21.612  1.00  0.00     0.124 S 
ATOM     57  O   UNL A   1      49.395  28.727  21.482  1.00  0.00    -0.237 OA
ATOM     58  O   UNL A   1      48.653  26.395  21.108  1.00  0.00    -0.237 OA
ATOM     59  O   UNL A   1      46.990  28.204  21.316  1.00  0.00    -0.744 OA
ENDBRANCH  52  56
ENDBRANCH  25  49
BRANCH  37  60
ATOM     60  C   UNL A   1      45.473  33.425  28.975  1.00  0.00     0.023 A 
ATOM     61  C   UNL A   1      45.483  34.486  28.053  1.00  0.00     0.031 A 
ATOM     62  C   UNL A   1      46.243  33.551  30.143  1.00  0.00     0.131 A 
ATOM     63  C   UNL A   1      46.297  35.603  28.287  1.00  0.00     0.055 A 
ATOM     64  C   UNL A   1      47.008  34.690  30.397  1.00  0.00     0.041 A 
ATOM     65  F   UNL A   1      46.271  32.564  31.054  1.00  0.00    -0.206 F 
ATOM     66  C   UNL A   1      47.048  35.718  29.459  1.00  0.00     0.022 A 
BRANCH  63  67
ATOM     67  S   UNL A   1      46.434  36.866  26.992  1.00  0.00     0.124 S 
ATOM     68  O   UNL A   1      47.664  37.557  27.371  1.00  0.00    -0.237 OA
ATOM     69  O   UNL A   1      46.505  36.061  25.777  1.00  0.00    -0.237 OA
ATOM     70  O   UNL A   1      45.210  37.649  27.144  1.00  0.00    -0.744 OA
ENDBRANCH  63  67
ENDBRANCH  37  60
ENDBRANCH  11  12
ENDBRANCH   4   6
ENDBRANCH   1   2
BRANCH   1  71
ATOM     71  C   UNL A   1      36.123  22.018  24.002  1.00  0.00     0.023 C 
BRANCH  71  72
ATOM     72  C   UNL A   1      35.116  23.116  23.680  1.00  0.00     0.023 C 
BRANCH  72  73
ATOM     73  C   UNL A   1      34.540  23.862  24.877  1.00  0.00     0.116 C 
BRANCH  73  74
ATOM     74  N   UNL A   1      33.237  24.452  24.642  1.00  0.00    -0.354 N 
ATOM     75  C   UNL A   1      32.019  24.108  25.174  1.00  0.00     0.245 C 
ATOM     76  H   UNL A   1      33.224  25.206  24.009  1.00  0.00     0.163 HD
ATOM     77  O   UNL A   1      31.073  24.835  24.853  1.00  0.00    -0.273 OA
BRANCH  75  78
ATOM     78  C   UNL A   1      31.835  22.817  26.049  1.00  0.00     0.145 C 
ATOM     79  C   UNL A   1      32.748  22.797  27.253  1.00  0.00     0.006 C 
ATOM     80  C   UNL A   1      31.920  21.564  25.132  1.00  0.00     0.073 C 
ATOM     81  Cl  UNL A   1      30.152  22.885  26.764  1.00  0.00    -0.104 Cl
ATOM     82  C   UNL A   1      33.632  21.815  27.475  1.00  0.00    -0.002 C 
ATOM     83  C   UNL A   1      33.020  20.560  25.456  1.00  0.00    -0.038 C 
ATOM     84  C   UNL A   1      33.798  20.723  26.546  1.00  0.00     0.004 C 
BRANCH  83  85
ATOM     85  C   UNL A   1      33.220  19.413  24.526  1.00  0.00    -0.022 A 
ATOM     86  C   UNL A   1      34.262  18.491  24.728  1.00  0.00     0.008 A 
ATOM     87  C   UNL A   1      32.356  19.180  23.442  1.00  0.00     0.008 A 
ATOM     88  C   UNL A   1      34.442  17.394  23.877  1.00  0.00     0.001 A 
ATOM     89  C   UNL A   1      32.528  18.079  22.596  1.00  0.00     0.001 A 
ATOM     90  C   UNL A   1      33.572  17.187  22.813  1.00  0.00     0.000 A 
ENDBRANCH  83  85
ENDBRANCH  75  78
ENDBRANCH  73  74
ENDBRANCH  72  73
ENDBRANCH  71  72
ENDBRANCH   1  71
TORSDOF 15
ENDMDL
MODEL 3
REMARK VINA RESULT:     -12.2      5.510     10.717
REMARK SMILES O=C(NCCCCNC(=O)[C@]1(Cl)C=CC=C(c2ccccc2)C1)c1ccc(-c2c3nc(c(-c4cc(S(=O)(=O)[O-])ccc4F)c4ccc([nH]4)c(-c4cc(S(=O)(=O)[O-])ccc4F)c4nc(c(-c5cc(S(=O)(=O)[O-])ccc5F)c5ccc2[nH]5)C=C4)C=C3)cc1
REMARK SMILES IDX 4 1 3 2 1 3 2 4 24 6 25 7 86 8 26 9 85 10 27 11 28 12 29 13
REMARK SMILES IDX 79 14 30 15 84 16 78 17 80 18 31 19 83 20 77 21 76 22 32 24
REMARK SMILES IDX 64 25 44 26 63 27 45 28 48 29 62 30 81 31 46 32 47 33 61 35
REMARK SMILES IDX 82 36 49 37 33 38 34 39 42 40 35 41 41 42 43 43 40 44 36 45
REMARK SMILES IDX 37 46 38 47 39 48 65 49 66 50 74 51 67 52 73 53 75 54 72 55
REMARK SMILES IDX 68 56 69 57 70 58 71 59 50 60 51 61 59 62 52 63 58 64 60 65
REMARK SMILES IDX 57 66 53 67 54 68 55 69 56 70 5 71 6 72 7 73 8 74 9 75 10 77
REMARK SMILES IDX 11 78 13 79 23 80 12 81 14 82 16 83 15 84 17 85 18 86 22 87
REMARK SMILES IDX 19 88 21 89 20 90
REMARK H PARENT 3 5 80 23 48 34 8 76
REMARK Flexibility Score: inf
ROOT
ATOM      1  C   UNL A   1      32.747  30.279  26.355  1.00  0.00     0.116 C 
ENDROOT
BRANCH   1   2
ATOM      2  N   UNL A   1      32.607  31.690  26.692  1.00  0.00    -0.352 N 
ATOM      3  O   UNL A   1      33.064  33.637  27.735  1.00  0.00    -0.269 OA
ATOM      4  C   UNL A   1      33.413  32.497  27.469  1.00  0.00     0.251 C 
ATOM      5  H   UNL A   1      31.817  32.135  26.307  1.00  0.00     0.163 HD
BRANCH   4   6
ATOM      6  C   UNL A   1      34.686  31.960  28.000  1.00  0.00     0.039 A 
ATOM      7  C   UNL A   1      34.760  30.649  28.469  1.00  0.00     0.014 A 
ATOM      8  C   UNL A   1      35.810  32.789  28.054  1.00  0.00     0.014 A 
ATOM      9  C   UNL A   1      35.890  30.227  29.156  1.00  0.00     0.010 A 
ATOM     10  C   UNL A   1      36.984  32.326  28.659  1.00  0.00     0.010 A 
ATOM     11  C   UNL A   1      37.020  31.056  29.254  1.00  0.00    -0.014 A 
BRANCH  11  12
ATOM     12  C   UNL A   1      38.231  30.548  29.950  1.00  0.00     0.031 A 
ATOM     13  C   UNL A   1      38.538  30.942  31.370  1.00  0.00     0.074 A 
ATOM     14  C   UNL A   1      39.034  29.684  29.296  1.00  0.00     0.049 A 
ATOM     15  N   UNL A   1      39.546  30.584  32.125  1.00  0.00    -0.248 NA
ATOM     16  C   UNL A   1      37.598  31.861  32.028  1.00  0.00     0.031 C 
ATOM     17  C   UNL A   1      38.830  29.232  27.915  1.00  0.00     0.029 A 
ATOM     18  N   UNL A   1      40.158  29.013  29.700  1.00  0.00    -0.354 N 
ATOM     19  C   UNL A   1      39.378  31.250  33.335  1.00  0.00     0.074 A 
ATOM     20  C   UNL A   1      38.180  32.051  33.204  1.00  0.00     0.031 C 
ATOM     21  C   UNL A   1      39.766  28.323  27.607  1.00  0.00     0.029 A 
ATOM     22  C   UNL A   1      40.680  28.184  28.734  1.00  0.00     0.049 A 
ATOM     23  H   UNL A   1      40.555  29.116  30.595  1.00  0.00     0.167 HD
ATOM     24  C   UNL A   1      40.151  31.191  34.449  1.00  0.00     0.034 A 
ATOM     25  C   UNL A   1      41.786  27.416  28.741  1.00  0.00     0.034 A 
ATOM     26  C   UNL A   1      41.337  30.371  34.563  1.00  0.00     0.049 A 
ATOM     27  C   UNL A   1      42.636  27.389  29.981  1.00  0.00     0.074 A 
ATOM     28  C   UNL A   1      42.174  30.214  35.656  1.00  0.00     0.029 A 
ATOM     29  N   UNL A   1      41.857  29.576  33.550  1.00  0.00    -0.354 N 
ATOM     30  N   UNL A   1      42.456  28.023  31.116  1.00  0.00    -0.248 NA
ATOM     31  C   UNL A   1      43.835  26.545  29.940  1.00  0.00     0.031 C 
ATOM     32  C   UNL A   1      43.229  29.374  35.284  1.00  0.00     0.029 A 
ATOM     33  C   UNL A   1      43.017  28.950  33.982  1.00  0.00     0.049 A 
ATOM     34  H   UNL A   1      41.459  29.471  32.656  1.00  0.00     0.167 HD
ATOM     35  C   UNL A   1      43.517  27.643  31.930  1.00  0.00     0.074 A 
ATOM     36  C   UNL A   1      44.314  26.706  31.164  1.00  0.00     0.031 C 
ATOM     37  C   UNL A   1      43.810  28.034  33.197  1.00  0.00     0.034 A 
BRANCH  24  38
ATOM     38  C   UNL A   1      39.771  32.071  35.615  1.00  0.00     0.023 A 
ATOM     39  C   UNL A   1      38.890  31.638  36.621  1.00  0.00     0.031 A 
ATOM     40  C   UNL A   1      40.306  33.369  35.723  1.00  0.00     0.131 A 
ATOM     41  C   UNL A   1      38.529  32.511  37.660  1.00  0.00     0.055 A 
ATOM     42  C   UNL A   1      39.997  34.208  36.795  1.00  0.00     0.041 A 
ATOM     43  F   UNL A   1      41.137  33.844  34.782  1.00  0.00    -0.206 F 
ATOM     44  C   UNL A   1      39.095  33.785  37.767  1.00  0.00     0.022 A 
BRANCH  41  45
ATOM     45  S   UNL A   1      37.225  32.001  38.814  1.00  0.00     0.124 S 
ATOM     46  O   UNL A   1      37.850  32.275  40.106  1.00  0.00    -0.237 OA
ATOM     47  O   UNL A   1      36.117  32.874  38.443  1.00  0.00    -0.237 OA
ATOM     48  O   UNL A   1      37.033  30.585  38.512  1.00  0.00    -0.744 OA
ENDBRANCH  41  45
ENDBRANCH  24  38
BRANCH  25  49
ATOM     49  C   UNL A   1      42.172  26.648  27.524  1.00  0.00     0.023 A 
ATOM     50  C   UNL A   1      41.892  25.279  27.408  1.00  0.00     0.031 A 
ATOM     51  C   UNL A   1      42.850  27.277  26.463  1.00  0.00     0.131 A 
ATOM     52  C   UNL A   1      42.322  24.573  26.273  1.00  0.00     0.055 A 
ATOM     53  C   UNL A   1      43.227  26.583  25.314  1.00  0.00     0.041 A 
ATOM     54  F   UNL A   1      43.138  28.587  26.522  1.00  0.00    -0.206 F 
ATOM     55  C   UNL A   1      42.974  25.219  25.220  1.00  0.00     0.022 A 
BRANCH  52  56
ATOM     56  S   UNL A   1      42.092  22.775  26.230  1.00  0.00     0.124 S 
ATOM     57  O   UNL A   1      40.640  22.658  26.301  1.00  0.00    -0.237 OA
ATOM     58  O   UNL A   1      42.702  22.424  24.953  1.00  0.00    -0.237 OA
ATOM     59  O   UNL A   1      42.814  22.312  27.413  1.00  0.00    -0.744 OA
ENDBRANCH  52  56
ENDBRANCH  25  49
BRANCH  37  60
ATOM     60  C   UNL A   1      45.030  27.414  33.828  1.00  0.00     0.023 A 
ATOM     61  C   UNL A   1      44.949  26.222  34.568  1.00  0.00     0.031 A 
ATOM     62  C   UNL A   1      46.281  28.046  33.718  1.00  0.00     0.131 A 
ATOM     63  C   UNL A   1      46.088  25.728  35.220  1.00  0.00     0.055 A 
ATOM     64  C   UNL A   1      47.423  27.519  34.323  1.00  0.00     0.041 A 
ATOM     65  F   UNL A   1      46.411  29.189  33.026  1.00  0.00    -0.206 F 
ATOM     66  C   UNL A   1      47.326  26.362  35.091  1.00  0.00     0.022 A 
BRANCH  63  67
ATOM     67  S   UNL A   1      45.909  24.297  36.319  1.00  0.00     0.124 S 
ATOM     68  O   UNL A   1      44.819  23.561  35.684  1.00  0.00    -0.237 OA
ATOM     69  O   UNL A   1      47.227  23.676  36.240  1.00  0.00    -0.237 OA
ATOM     70  O   UNL A   1      45.583  24.894  37.612  1.00  0.00    -0.744 OA
ENDBRANCH  63  67
ENDBRANCH  37  60
ENDBRANCH  11  12
ENDBRANCH   4   6
ENDBRANCH   1   2
BRANCH   1  71
ATOM     71  C   UNL A   1      31.526  29.446  26.726  1.00  0.00     0.023 C 
BRANCH  71  72
ATOM     72  C   UNL A   1      31.819  28.151  27.475  1.00  0.00     0.023 C 
BRANCH  72  73
ATOM     73  C   UNL A   1      32.364  27.004  26.632  1.00  0.00     0.116 C 
BRANCH  73  74
ATOM     74  N   UNL A   1      31.643  25.757  26.784  1.00  0.00    -0.354 N 
ATOM     75  C   UNL A   1      31.134  24.924  25.818  1.00  0.00     0.245 C 
ATOM     76  H   UNL A   1      31.496  25.465  27.713  1.00  0.00     0.163 HD
ATOM     77  O   UNL A   1      30.624  23.878  26.232  1.00  0.00    -0.273 OA
BRANCH  75  78
ATOM     78  C   UNL A   1      31.116  25.332  24.302  1.00  0.00     0.145 C 
ATOM     79  C   UNL A   1      32.492  25.669  23.776  1.00  0.00     0.006 C 
ATOM     80  C   UNL A   1      30.036  26.429  24.083  1.00  0.00     0.073 C 
ATOM     81  Cl  UNL A   1      30.623  23.850  23.350  1.00  0.00    -0.104 Cl
ATOM     82  C   UNL A   1      32.789  26.858  23.235  1.00  0.00    -0.002 C 
ATOM     83  C   UNL A   1      30.526  27.761  23.527  1.00  0.00    -0.038 C 
ATOM     84  C   UNL A   1      31.813  27.919  23.159  1.00  0.00     0.004 C 
BRANCH  83  85
ATOM     85  C   UNL A   1      29.548  28.882  23.425  1.00  0.00    -0.022 A 
ATOM     86  C   UNL A   1      28.205  28.641  23.088  1.00  0.00     0.008 A 
ATOM     87  C   UNL A   1      29.914  30.211  23.699  1.00  0.00     0.008 A 
ATOM     88  C   UNL A   1      27.271  29.681  23.016  1.00  0.00     0.001 A 
ATOM     89  C   UNL A   1      28.980  31.252  23.638  1.00  0.00     0.001 A 
ATOM     90  C   UNL A   1      27.659  30.986  23.294  1.00  0.00     0.000 A 
ENDBRANCH  83  85
ENDBRANCH  75  78
ENDBRANCH  73  74
ENDBRANCH  72  73
ENDBRANCH  71  72
ENDBRANCH   1  71
TORSDOF 15
ENDMDL
