MODEL 1
REMARK VINA RESULT:     -12.7      0.000      0.000
REMARK SMILES Cc1nn(C)c(=O)c(C(=O)N[C@H]2C=C[C@H](C(=O)NCCCCNC(=O)c3ccc(-c4c5nc(c(-c6cc(S(=O)(=O)[O-])ccc6F)c6ccc([nH]6)c(-c6cc(S(=O)(=O)[O-])ccc6F)c6nc(c(-c7cc(S(=O)(=O)[O-])ccc7F)c7ccc4[nH]7)C=C6)C=C5)cc3)C2)c1C
REMARK SMILES IDX 21 1 20 2 19 3 18 4 16 5 17 6 15 8 12 9 13 10 89 11 14 12
REMARK SMILES IDX 11 13 9 14 10 15 8 17 1 18 2 19 3 20 90 21 4 22 91 23 5 24
REMARK SMILES IDX 6 25 7 26 22 27 23 28 24 29 25 31 26 32 27 33 88 34 28 35
REMARK SMILES IDX 87 36 29 37 30 38 31 39 81 40 32 41 86 42 80 43 82 44 33 45
REMARK SMILES IDX 85 46 79 47 78 48 34 50 66 51 46 52 65 53 47 54 50 55 64 56
REMARK SMILES IDX 83 57 48 58 49 59 63 61 84 62 51 63 35 64 36 65 44 66 37 67
REMARK SMILES IDX 43 68 45 69 42 70 38 71 39 72 40 73 41 74 67 75 68 76 76 77
REMARK SMILES IDX 69 78 75 79 77 80 74 81 70 82 71 83 72 84 73 85 52 86 53 87
REMARK SMILES IDX 61 88 54 89 60 90 62 91 59 92 55 93 56 94 57 95 58 96
REMARK H PARENT 18 7 11 16 23 30 82 49 50 60
REMARK Flexibility Score: inf
ROOT
ATOM      1  C   UNL A   1      31.594  31.495  26.733  1.00  0.00     0.023 C 
ENDROOT
BRANCH   1   2
ATOM      2  C   UNL A   1      31.849  30.002  26.506  1.00  0.00     0.023 C 
BRANCH   2   3
ATOM      3  C   UNL A   1      31.484  29.500  25.108  1.00  0.00     0.116 C 
BRANCH   3   4
ATOM      4  N   UNL A   1      32.609  29.588  24.188  1.00  0.00    -0.356 N 
ATOM      5  C   UNL A   1      33.208  28.613  23.433  1.00  0.00     0.227 C 
ATOM      6  O   UNL A   1      34.168  28.915  22.725  1.00  0.00    -0.274 OA
ATOM      7  H   UNL A   1      33.001  30.487  24.094  1.00  0.00     0.163 HD
BRANCH   5   8
ATOM      8  C   UNL A   1      32.595  27.216  23.441  1.00  0.00     0.103 C 
ATOM      9  C   UNL A   1      33.078  25.294  21.974  1.00  0.00     0.106 C 
ATOM     10  C   UNL A   1      31.909  26.080  21.492  1.00  0.00    -0.006 C 
ATOM     11  C   UNL A   1      33.566  26.036  23.220  1.00  0.00     0.047 C 
ATOM     12  C   UNL A   1      31.656  27.134  22.270  1.00  0.00    -0.016 C 
BRANCH   9  13
ATOM     13  N   UNL A   1      32.719  23.880  22.013  1.00  0.00    -0.346 N 
ATOM     14  C   UNL A   1      32.808  22.769  22.786  1.00  0.00     0.257 C 
ATOM     15  O   UNL A   1      32.104  21.819  22.428  1.00  0.00    -0.269 OA
ATOM     16  H   UNL A   1      32.241  23.652  21.184  1.00  0.00     0.164 HD
BRANCH  14  17
ATOM     17  C   UNL A   1      33.692  22.610  23.973  1.00  0.00     0.111 A 
ATOM     18  C   UNL A   1      33.784  22.297  27.654  1.00  0.00     0.069 C 
ATOM     19  C   UNL A   1      34.264  22.084  26.240  1.00  0.00     0.062 A 
ATOM     20  N   UNL A   1      35.532  21.924  26.051  1.00  0.00    -0.175 NA
ATOM     21  C   UNL A   1      33.264  22.105  25.143  1.00  0.00    -0.010 A 
ATOM     22  N   UNL A   1      35.947  21.955  24.748  1.00  0.00    -0.232 N 
ATOM     23  C   UNL A   1      31.982  21.398  25.415  1.00  0.00     0.047 C 
ATOM     24  C   UNL A   1      37.307  21.499  24.516  1.00  0.00     0.178 C 
ATOM     25  C   UNL A   1      35.188  22.542  23.732  1.00  0.00     0.279 A 
ATOM     26  O   UNL A   1      35.683  22.902  22.665  1.00  0.00    -0.267 OA
ENDBRANCH  14  17
ENDBRANCH   9  13
ENDBRANCH   5   8
ENDBRANCH   3   4
ENDBRANCH   2   3
ENDBRANCH   1   2
BRANCH   1  27
ATOM     27  C   UNL A   1      32.827  32.319  27.089  1.00  0.00     0.116 C 
BRANCH  27  28
ATOM     28  N   UNL A   1      32.506  33.697  27.423  1.00  0.00    -0.352 N 
ATOM     29  C   UNL A   1      33.049  34.488  28.408  1.00  0.00     0.251 C 
ATOM     30  H   UNL A   1      31.808  34.118  26.873  1.00  0.00     0.163 HD
ATOM     31  O   UNL A   1      32.550  35.583  28.653  1.00  0.00    -0.269 OA
BRANCH  29  32
ATOM     32  C   UNL A   1      34.210  34.000  29.187  1.00  0.00     0.039 A 
ATOM     33  C   UNL A   1      33.985  33.192  30.303  1.00  0.00     0.014 A 
ATOM     34  C   UNL A   1      35.516  34.322  28.804  1.00  0.00     0.014 A 
ATOM     35  C   UNL A   1      35.072  32.656  30.999  1.00  0.00     0.010 A 
ATOM     36  C   UNL A   1      36.596  33.731  29.456  1.00  0.00     0.010 A 
ATOM     37  C   UNL A   1      36.386  32.895  30.563  1.00  0.00    -0.014 A 
BRANCH  37  38
ATOM     38  C   UNL A   1      37.552  32.309  31.275  1.00  0.00     0.031 A 
ATOM     39  C   UNL A   1      38.301  31.160  30.655  1.00  0.00     0.074 A 
ATOM     40  C   UNL A   1      37.920  32.787  32.480  1.00  0.00     0.049 A 
ATOM     41  N   UNL A   1      39.295  30.464  31.143  1.00  0.00    -0.248 NA
ATOM     42  C   UNL A   1      37.866  30.726  29.317  1.00  0.00     0.031 C 
ATOM     43  C   UNL A   1      37.269  33.893  33.186  1.00  0.00     0.029 A 
ATOM     44  N   UNL A   1      38.935  32.410  33.324  1.00  0.00    -0.354 N 
ATOM     45  C   UNL A   1      39.604  29.515  30.175  1.00  0.00     0.074 A 
ATOM     46  C   UNL A   1      38.654  29.684  29.097  1.00  0.00     0.031 C 
ATOM     47  C   UNL A   1      37.924  34.127  34.336  1.00  0.00     0.029 A 
ATOM     48  C   UNL A   1      39.009  33.160  34.476  1.00  0.00     0.049 A 
ATOM     49  H   UNL A   1      39.554  31.670  33.125  1.00  0.00     0.167 HD
ATOM     50  C   UNL A   1      40.609  28.607  30.170  1.00  0.00     0.034 A 
ATOM     51  C   UNL A   1      39.850  33.074  35.527  1.00  0.00     0.034 A 
ATOM     52  C   UNL A   1      41.566  28.459  31.235  1.00  0.00     0.049 A 
ATOM     53  C   UNL A   1      40.916  32.009  35.524  1.00  0.00     0.074 A 
ATOM     54  C   UNL A   1      42.635  27.583  31.312  1.00  0.00     0.029 A 
ATOM     55  N   UNL A   1      41.577  29.204  32.404  1.00  0.00    -0.354 N 
ATOM     56  N   UNL A   1      41.191  31.118  34.598  1.00  0.00    -0.248 NA
ATOM     57  C   UNL A   1      41.783  31.931  36.708  1.00  0.00     0.031 C 
ATOM     58  C   UNL A   1      43.257  27.760  32.550  1.00  0.00     0.029 A 
ATOM     59  C   UNL A   1      42.616  28.790  33.220  1.00  0.00     0.049 A 
ATOM     60  H   UNL A   1      40.938  29.922  32.622  1.00  0.00     0.167 HD
ATOM     61  C   UNL A   1      42.275  30.393  35.082  1.00  0.00     0.074 A 
ATOM     62  C   UNL A   1      42.614  30.955  36.372  1.00  0.00     0.031 C 
ATOM     63  C   UNL A   1      42.934  29.354  34.508  1.00  0.00     0.034 A 
BRANCH  50  64
ATOM     64  C   UNL A   1      40.730  27.702  28.973  1.00  0.00     0.023 A 
ATOM     65  C   UNL A   1      41.671  27.954  27.962  1.00  0.00     0.031 A 
ATOM     66  C   UNL A   1      39.926  26.554  28.863  1.00  0.00     0.131 A 
ATOM     67  C   UNL A   1      41.765  27.085  26.865  1.00  0.00     0.055 A 
ATOM     68  C   UNL A   1      40.067  25.661  27.800  1.00  0.00     0.041 A 
ATOM     69  F   UNL A   1      38.999  26.277  29.794  1.00  0.00    -0.206 F 
ATOM     70  C   UNL A   1      40.987  25.927  26.790  1.00  0.00     0.022 A 
BRANCH  67  71
ATOM     71  S   UNL A   1      42.877  27.525  25.502  1.00  0.00     0.124 S 
ATOM     72  O   UNL A   1      42.187  28.674  24.921  1.00  0.00    -0.237 OA
ATOM     73  O   UNL A   1      44.129  27.813  26.192  1.00  0.00    -0.237 OA
ATOM     74  O   UNL A   1      42.887  26.325  24.669  1.00  0.00    -0.744 OA
ENDBRANCH  67  71
ENDBRANCH  50  64
BRANCH  51  75
ATOM     75  C   UNL A   1      39.720  34.011  36.679  1.00  0.00     0.023 A 
ATOM     76  C   UNL A   1      39.188  33.577  37.904  1.00  0.00     0.031 A 
ATOM     77  C   UNL A   1      40.092  35.362  36.564  1.00  0.00     0.131 A 
ATOM     78  C   UNL A   1      39.008  34.491  38.953  1.00  0.00     0.055 A 
ATOM     79  C   UNL A   1      39.954  36.258  37.626  1.00  0.00     0.041 A 
ATOM     80  F   UNL A   1      40.609  35.828  35.415  1.00  0.00    -0.206 F 
ATOM     81  C   UNL A   1      39.401  35.826  38.826  1.00  0.00     0.022 A 
BRANCH  78  82
ATOM     82  S   UNL A   1      38.200  33.923  40.473  1.00  0.00     0.124 S 
ATOM     83  O   UNL A   1      39.198  33.007  41.015  1.00  0.00    -0.237 OA
ATOM     84  O   UNL A   1      38.011  35.172  41.203  1.00  0.00    -0.237 OA
ATOM     85  O   UNL A   1      36.972  33.295  39.991  1.00  0.00    -0.744 OA
ENDBRANCH  78  82
ENDBRANCH  51  75
BRANCH  63  86
ATOM     86  C   UNL A   1      44.098  28.768  35.262  1.00  0.00     0.023 A 
ATOM     87  C   UNL A   1      43.919  27.726  36.185  1.00  0.00     0.031 A 
ATOM     88  C   UNL A   1      45.405  29.228  35.020  1.00  0.00     0.131 A 
ATOM     89  C   UNL A   1      45.028  27.195  36.861  1.00  0.00     0.055 A 
ATOM     90  C   UNL A   1      46.510  28.662  35.657  1.00  0.00     0.041 A 
ATOM     91  F   UNL A   1      45.629  30.220  34.144  1.00  0.00    -0.206 F 
ATOM     92  C   UNL A   1      46.324  27.644  36.588  1.00  0.00     0.022 A 
BRANCH  89  93
ATOM     93  S   UNL A   1      44.750  25.936  38.134  1.00  0.00     0.124 S 
ATOM     94  O   UNL A   1      44.169  26.723  39.215  1.00  0.00    -0.237 OA
ATOM     95  O   UNL A   1      43.845  25.006  37.464  1.00  0.00    -0.237 OA
ATOM     96  O   UNL A   1      46.089  25.412  38.397  1.00  0.00    -0.744 OA
ENDBRANCH  89  93
ENDBRANCH  63  86
ENDBRANCH  37  38
ENDBRANCH  29  32
ENDBRANCH  27  28
ENDBRANCH   1  27
TORSDOF 16
ENDMDL
MODEL 2
REMARK VINA RESULT:     -12.6      1.776      7.742
REMARK SMILES Cc1nn(C)c(=O)c(C(=O)N[C@H]2C=C[C@H](C(=O)NCCCCNC(=O)c3ccc(-c4c5nc(c(-c6cc(S(=O)(=O)[O-])ccc6F)c6ccc([nH]6)c(-c6cc(S(=O)(=O)[O-])ccc6F)c6nc(c(-c7cc(S(=O)(=O)[O-])ccc7F)c7ccc4[nH]7)C=C6)C=C5)cc3)C2)c1C
REMARK SMILES IDX 21 1 20 2 19 3 18 4 16 5 17 6 15 8 12 9 13 10 89 11 14 12
REMARK SMILES IDX 11 13 9 14 10 15 8 17 1 18 2 19 3 20 90 21 4 22 91 23 5 24
REMARK SMILES IDX 6 25 7 26 22 27 23 28 24 29 25 31 26 32 27 33 88 34 28 35
REMARK SMILES IDX 87 36 29 37 30 38 31 39 81 40 32 41 86 42 80 43 82 44 33 45
REMARK SMILES IDX 85 46 79 47 78 48 34 50 66 51 46 52 65 53 47 54 50 55 64 56
REMARK SMILES IDX 83 57 48 58 49 59 63 61 84 62 51 63 35 64 36 65 44 66 37 67
REMARK SMILES IDX 43 68 45 69 42 70 38 71 39 72 40 73 41 74 67 75 68 76 76 77
REMARK SMILES IDX 69 78 75 79 77 80 74 81 70 82 71 83 72 84 73 85 52 86 53 87
REMARK SMILES IDX 61 88 54 89 60 90 62 91 59 92 55 93 56 94 57 95 58 96
REMARK H PARENT 18 7 11 16 23 30 82 49 50 60
REMARK Flexibility Score: inf
ROOT
ATOM      1  C   UNL A   1      31.587  31.613  26.847  1.00  0.00     0.023 C 
ENDROOT
BRANCH   1   2
ATOM      2  C   UNL A   1      31.805  30.097  26.852  1.00  0.00     0.023 C 
BRANCH   2   3
ATOM      3  C   UNL A   1      31.443  29.398  25.540  1.00  0.00     0.116 C 
BRANCH   3   4
ATOM      4  N   UNL A   1      32.410  29.682  24.489  1.00  0.00    -0.356 N 
ATOM      5  C   UNL A   1      33.028  28.832  23.608  1.00  0.00     0.227 C 
ATOM      6  O   UNL A   1      33.832  29.296  22.800  1.00  0.00    -0.274 OA
ATOM      7  H   UNL A   1      32.658  30.631  24.396  1.00  0.00     0.163 HD
BRANCH   5   8
ATOM      8  C   UNL A   1      32.620  27.362  23.616  1.00  0.00     0.103 C 
ATOM      9  C   UNL A   1      33.507  25.492  22.278  1.00  0.00     0.106 C 
ATOM     10  C   UNL A   1      32.291  26.088  21.659  1.00  0.00    -0.006 C 
ATOM     11  C   UNL A   1      33.764  26.329  23.532  1.00  0.00     0.047 C 
ATOM     12  C   UNL A   1      31.818  27.116  22.369  1.00  0.00    -0.016 C 
BRANCH   9  13
ATOM     13  N   UNL A   1      33.348  24.043  22.340  1.00  0.00    -0.346 N 
ATOM     14  C   UNL A   1      32.804  23.052  23.090  1.00  0.00     0.257 C 
ATOM     15  O   UNL A   1      32.767  21.942  22.550  1.00  0.00    -0.269 OA
ATOM     16  H   UNL A   1      33.793  23.641  21.560  1.00  0.00     0.164 HD
BRANCH  14  17
ATOM     17  C   UNL A   1      32.300  23.199  24.482  1.00  0.00     0.111 A 
ATOM     18  C   UNL A   1      32.913  22.352  28.027  1.00  0.00     0.069 C 
ATOM     19  C   UNL A   1      32.401  23.183  26.877  1.00  0.00     0.062 A 
ATOM     20  N   UNL A   1      31.368  23.929  27.085  1.00  0.00    -0.175 NA
ATOM     21  C   UNL A   1      33.087  23.073  25.565  1.00  0.00    -0.010 A 
ATOM     22  N   UNL A   1      30.807  24.491  25.972  1.00  0.00    -0.232 N 
ATOM     23  C   UNL A   1      34.575  23.027  25.607  1.00  0.00     0.047 C 
ATOM     24  C   UNL A   1      29.834  25.540  26.225  1.00  0.00     0.178 C 
ATOM     25  C   UNL A   1      31.017  23.983  24.687  1.00  0.00     0.279 A 
ATOM     26  O   UNL A   1      30.259  24.228  23.749  1.00  0.00    -0.267 OA
ENDBRANCH  14  17
ENDBRANCH   9  13
ENDBRANCH   5   8
ENDBRANCH   3   4
ENDBRANCH   2   3
ENDBRANCH   1   2
BRANCH   1  27
ATOM     27  C   UNL A   1      32.859  32.454  26.914  1.00  0.00     0.116 C 
BRANCH  27  28
ATOM     28  N   UNL A   1      32.622  33.790  27.433  1.00  0.00    -0.352 N 
ATOM     29  C   UNL A   1      33.238  34.419  28.489  1.00  0.00     0.251 C 
ATOM     30  H   UNL A   1      31.931  34.314  26.968  1.00  0.00     0.163 HD
ATOM     31  O   UNL A   1      32.806  35.497  28.892  1.00  0.00    -0.269 OA
BRANCH  29  32
ATOM     32  C   UNL A   1      34.395  33.778  29.154  1.00  0.00     0.039 A 
ATOM     33  C   UNL A   1      34.167  32.717  30.034  1.00  0.00     0.014 A 
ATOM     34  C   UNL A   1      35.700  34.208  28.895  1.00  0.00     0.014 A 
ATOM     35  C   UNL A   1      35.253  32.048  30.605  1.00  0.00     0.010 A 
ATOM     36  C   UNL A   1      36.780  33.496  29.410  1.00  0.00     0.010 A 
ATOM     37  C   UNL A   1      36.569  32.411  30.274  1.00  0.00    -0.014 A 
BRANCH  37  38
ATOM     38  C   UNL A   1      37.735  31.691  30.851  1.00  0.00     0.031 A 
ATOM     39  C   UNL A   1      38.182  32.002  32.254  1.00  0.00     0.074 A 
ATOM     40  C   UNL A   1      38.402  30.782  30.112  1.00  0.00     0.049 A 
ATOM     41  N   UNL A   1      39.213  31.541  32.913  1.00  0.00    -0.248 NA
ATOM     42  C   UNL A   1      37.374  32.972  33.010  1.00  0.00     0.031 C 
ATOM     43  C   UNL A   1      38.068  30.398  28.738  1.00  0.00     0.029 A 
ATOM     44  N   UNL A   1      39.498  30.010  30.412  1.00  0.00    -0.354 N 
ATOM     45  C   UNL A   1      39.176  32.160  34.157  1.00  0.00     0.074 A 
ATOM     46  C   UNL A   1      38.056  33.076  34.141  1.00  0.00     0.031 C 
ATOM     47  C   UNL A   1      38.916  29.439  28.331  1.00  0.00     0.029 A 
ATOM     48  C   UNL A   1      39.884  29.172  29.391  1.00  0.00     0.049 A 
ATOM     49  H   UNL A   1      39.964  30.052  31.279  1.00  0.00     0.167 HD
ATOM     50  C   UNL A   1      39.981  31.959  35.227  1.00  0.00     0.034 A 
ATOM     51  C   UNL A   1      40.907  28.296  29.315  1.00  0.00     0.034 A 
ATOM     52  C   UNL A   1      41.080  31.030  35.245  1.00  0.00     0.049 A 
ATOM     53  C   UNL A   1      41.828  28.143  30.498  1.00  0.00     0.074 A 
ATOM     54  C   UNL A   1      41.940  30.738  36.289  1.00  0.00     0.029 A 
ATOM     55  N   UNL A   1      41.469  30.236  34.175  1.00  0.00    -0.354 N 
ATOM     56  N   UNL A   1      41.776  28.740  31.667  1.00  0.00    -0.248 NA
ATOM     57  C   UNL A   1      42.949  27.203  30.353  1.00  0.00     0.031 C 
ATOM     58  C   UNL A   1      42.882  29.812  35.835  1.00  0.00     0.029 A 
ATOM     59  C   UNL A   1      42.572  29.476  34.526  1.00  0.00     0.049 A 
ATOM     60  H   UNL A   1      41.025  30.217  33.296  1.00  0.00     0.167 HD
ATOM     61  C   UNL A   1      42.844  28.230  32.399  1.00  0.00     0.074 A 
ATOM     62  C   UNL A   1      43.514  27.268  31.550  1.00  0.00     0.031 C 
ATOM     63  C   UNL A   1      43.235  28.530  33.664  1.00  0.00     0.034 A 
BRANCH  50  64
ATOM     64  C   UNL A   1      39.705  32.758  36.472  1.00  0.00     0.023 A 
ATOM     65  C   UNL A   1      38.776  32.318  37.428  1.00  0.00     0.031 A 
ATOM     66  C   UNL A   1      40.407  33.950  36.726  1.00  0.00     0.131 A 
ATOM     67  C   UNL A   1      38.548  33.080  38.583  1.00  0.00     0.055 A 
ATOM     68  C   UNL A   1      40.219  34.672  37.905  1.00  0.00     0.041 A 
ATOM     69  F   UNL A   1      41.292  34.424  35.835  1.00  0.00    -0.206 F 
ATOM     70  C   UNL A   1      39.282  34.241  38.840  1.00  0.00     0.022 A 
BRANCH  67  71
ATOM     71  S   UNL A   1      37.231  32.567  39.718  1.00  0.00     0.124 S 
ATOM     72  O   UNL A   1      36.061  32.607  38.844  1.00  0.00    -0.237 OA
ATOM     73  O   UNL A   1      37.670  31.241  40.136  1.00  0.00    -0.237 OA
ATOM     74  O   UNL A   1      37.259  33.590  40.759  1.00  0.00    -0.744 OA
ENDBRANCH  67  71
ENDBRANCH  50  64
BRANCH  51  75
ATOM     75  C   UNL A   1      41.129  27.496  28.076  1.00  0.00     0.023 A 
ATOM     76  C   UNL A   1      40.852  26.120  28.049  1.00  0.00     0.031 A 
ATOM     77  C   UNL A   1      41.654  28.087  26.914  1.00  0.00     0.131 A 
ATOM     78  C   UNL A   1      41.134  25.372  26.895  1.00  0.00     0.055 A 
ATOM     79  C   UNL A   1      41.891  27.347  25.753  1.00  0.00     0.041 A 
ATOM     80  F   UNL A   1      41.934  29.400  26.887  1.00  0.00    -0.206 F 
ATOM     81  C   UNL A   1      41.639  25.979  25.743  1.00  0.00     0.022 A 
BRANCH  78  82
ATOM     82  S   UNL A   1      40.883  23.577  26.940  1.00  0.00     0.124 S 
ATOM     83  O   UNL A   1      41.764  23.128  25.867  1.00  0.00    -0.237 OA
ATOM     84  O   UNL A   1      41.303  23.244  28.297  1.00  0.00    -0.237 OA
ATOM     85  O   UNL A   1      39.453  23.427  26.679  1.00  0.00    -0.744 OA
ENDBRANCH  78  82
ENDBRANCH  51  75
BRANCH  63  86
ATOM     86  C   UNL A   1      44.430  27.799  34.213  1.00  0.00     0.023 A 
ATOM     87  C   UNL A   1      44.292  26.569  34.876  1.00  0.00     0.031 A 
ATOM     88  C   UNL A   1      45.725  28.317  34.032  1.00  0.00     0.131 A 
ATOM     89  C   UNL A   1      45.429  25.909  35.365  1.00  0.00     0.055 A 
ATOM     90  C   UNL A   1      46.856  27.631  34.475  1.00  0.00     0.041 A 
ATOM     91  F   UNL A   1      45.910  29.487  33.401  1.00  0.00    -0.206 F 
ATOM     92  C   UNL A   1      46.712  26.423  35.152  1.00  0.00     0.022 A 
BRANCH  89  93
ATOM     93  S   UNL A   1      45.206  24.386  36.322  1.00  0.00     0.124 S 
ATOM     94  O   UNL A   1      44.688  24.896  37.586  1.00  0.00    -0.237 OA
ATOM     95  O   UNL A   1      44.261  23.635  35.502  1.00  0.00    -0.237 OA
ATOM     96  O   UNL A   1      46.554  23.821  36.386  1.00  0.00    -0.744 OA
ENDBRANCH  89  93
ENDBRANCH  63  86
ENDBRANCH  37  38
ENDBRANCH  29  32
ENDBRANCH  27  28
ENDBRANCH   1  27
TORSDOF 16
ENDMDL
MODEL 3
REMARK VINA RESULT:     -12.6      1.503      7.598
REMARK SMILES Cc1nn(C)c(=O)c(C(=O)N[C@H]2C=C[C@H](C(=O)NCCCCNC(=O)c3ccc(-c4c5nc(c(-c6cc(S(=O)(=O)[O-])ccc6F)c6ccc([nH]6)c(-c6cc(S(=O)(=O)[O-])ccc6F)c6nc(c(-c7cc(S(=O)(=O)[O-])ccc7F)c7ccc4[nH]7)C=C6)C=C5)cc3)C2)c1C
REMARK SMILES IDX 21 1 20 2 19 3 18 4 16 5 17 6 15 8 12 9 13 10 89 11 14 12
REMARK SMILES IDX 11 13 9 14 10 15 8 17 1 18 2 19 3 20 90 21 4 22 91 23 5 24
REMARK SMILES IDX 6 25 7 26 22 27 23 28 24 29 25 31 26 32 27 33 88 34 28 35
REMARK SMILES IDX 87 36 29 37 30 38 31 39 81 40 32 41 86 42 80 43 82 44 33 45
REMARK SMILES IDX 85 46 79 47 78 48 34 50 66 51 46 52 65 53 47 54 50 55 64 56
REMARK SMILES IDX 83 57 48 58 49 59 63 61 84 62 51 63 35 64 36 65 44 66 37 67
REMARK SMILES IDX 43 68 45 69 42 70 38 71 39 72 40 73 41 74 67 75 68 76 76 77
REMARK SMILES IDX 69 78 75 79 77 80 74 81 70 82 71 83 72 84 73 85 52 86 53 87
REMARK SMILES IDX 61 88 54 89 60 90 62 91 59 92 55 93 56 94 57 95 58 96
REMARK H PARENT 18 7 11 16 23 30 82 49 50 60
REMARK Flexibility Score: inf
ROOT
ATOM      1  C   UNL A   1      31.493  31.583  26.556  1.00  0.00     0.023 C 
ENDROOT
BRANCH   1   2
ATOM      2  C   UNL A   1      31.626  30.057  26.543  1.00  0.00     0.023 C 
BRANCH   2   3
ATOM      3  C   UNL A   1      31.361  29.407  25.185  1.00  0.00     0.116 C 
BRANCH   3   4
ATOM      4  N   UNL A   1      32.502  29.534  24.289  1.00  0.00    -0.356 N 
ATOM      5  C   UNL A   1      33.139  28.583  23.534  1.00  0.00     0.227 C 
ATOM      6  O   UNL A   1      34.106  28.917  22.850  1.00  0.00    -0.274 OA
ATOM      7  H   UNL A   1      32.873  30.443  24.214  1.00  0.00     0.163 HD
BRANCH   5   8
ATOM      8  C   UNL A   1      32.561  27.171  23.513  1.00  0.00     0.103 C 
ATOM      9  C   UNL A   1      33.085  25.296  22.002  1.00  0.00     0.106 C 
ATOM     10  C   UNL A   1      31.896  26.063  21.540  1.00  0.00    -0.006 C 
ATOM     11  C   UNL A   1      33.559  26.021  23.262  1.00  0.00     0.047 C 
ATOM     12  C   UNL A   1      31.620  27.094  22.343  1.00  0.00    -0.016 C 
BRANCH   9  13
ATOM     13  N   UNL A   1      32.761  23.873  22.010  1.00  0.00    -0.346 N 
ATOM     14  C   UNL A   1      32.853  22.753  22.770  1.00  0.00     0.257 C 
ATOM     15  O   UNL A   1      32.185  21.792  22.376  1.00  0.00    -0.269 OA
ATOM     16  H   UNL A   1      32.316  23.645  21.162  1.00  0.00     0.164 HD
BRANCH  14  17
ATOM     17  C   UNL A   1      33.702  22.599  23.982  1.00  0.00     0.111 A 
ATOM     18  C   UNL A   1      33.684  22.216  27.658  1.00  0.00     0.069 C 
ATOM     19  C   UNL A   1      34.217  22.046  26.257  1.00  0.00     0.062 A 
ATOM     20  N   UNL A   1      35.495  21.931  26.107  1.00  0.00    -0.175 NA
ATOM     21  C   UNL A   1      33.253  22.057  25.128  1.00  0.00    -0.010 A 
ATOM     22  N   UNL A   1      35.951  22.002  24.820  1.00  0.00    -0.232 N 
ATOM     23  C   UNL A   1      31.987  21.304  25.343  1.00  0.00     0.047 C 
ATOM     24  C   UNL A   1      37.332  21.595  24.625  1.00  0.00     0.178 C 
ATOM     25  C   UNL A   1      35.207  22.584  23.790  1.00  0.00     0.279 A 
ATOM     26  O   UNL A   1      35.725  22.982  22.747  1.00  0.00    -0.267 OA
ENDBRANCH  14  17
ENDBRANCH   9  13
ENDBRANCH   5   8
ENDBRANCH   3   4
ENDBRANCH   2   3
ENDBRANCH   1   2
BRANCH   1  27
ATOM     27  C   UNL A   1      32.785  32.347  26.826  1.00  0.00     0.116 C 
BRANCH  27  28
ATOM     28  N   UNL A   1      32.550  33.695  27.316  1.00  0.00    -0.352 N 
ATOM     29  C   UNL A   1      33.163  34.345  28.361  1.00  0.00     0.251 C 
ATOM     30  H   UNL A   1      31.861  34.210  26.837  1.00  0.00     0.163 HD
ATOM     31  O   UNL A   1      32.732  35.432  28.739  1.00  0.00    -0.269 OA
BRANCH  29  32
ATOM     32  C   UNL A   1      34.316  33.716  29.044  1.00  0.00     0.039 A 
ATOM     33  C   UNL A   1      34.079  32.715  29.989  1.00  0.00     0.014 A 
ATOM     34  C   UNL A   1      35.626  34.098  28.738  1.00  0.00     0.014 A 
ATOM     35  C   UNL A   1      35.159  32.054  30.581  1.00  0.00     0.010 A 
ATOM     36  C   UNL A   1      36.698  33.391  29.276  1.00  0.00     0.010 A 
ATOM     37  C   UNL A   1      36.477  32.364  30.207  1.00  0.00    -0.014 A 
BRANCH  37  38
ATOM     38  C   UNL A   1      37.635  31.651  30.806  1.00  0.00     0.031 A 
ATOM     39  C   UNL A   1      38.054  31.965  32.217  1.00  0.00     0.074 A 
ATOM     40  C   UNL A   1      38.322  30.746  30.080  1.00  0.00     0.049 A 
ATOM     41  N   UNL A   1      39.075  31.510  32.896  1.00  0.00    -0.248 NA
ATOM     42  C   UNL A   1      37.225  32.931  32.957  1.00  0.00     0.031 C 
ATOM     43  C   UNL A   1      38.017  30.359  28.701  1.00  0.00     0.029 A 
ATOM     44  N   UNL A   1      39.416  29.980  30.402  1.00  0.00    -0.354 N 
ATOM     45  C   UNL A   1      39.010  32.128  34.139  1.00  0.00     0.074 A 
ATOM     46  C   UNL A   1      37.885  33.038  34.101  1.00  0.00     0.031 C 
ATOM     47  C   UNL A   1      38.878  29.405  28.311  1.00  0.00     0.029 A 
ATOM     48  C   UNL A   1      39.827  29.144  29.389  1.00  0.00     0.049 A 
ATOM     49  H   UNL A   1      39.865  30.025  31.277  1.00  0.00     0.167 HD
ATOM     50  C   UNL A   1      39.795  31.933  35.225  1.00  0.00     0.034 A 
ATOM     51  C   UNL A   1      40.855  28.274  29.333  1.00  0.00     0.034 A 
ATOM     52  C   UNL A   1      40.899  31.010  35.264  1.00  0.00     0.049 A 
ATOM     53  C   UNL A   1      41.755  28.126  30.533  1.00  0.00     0.074 A 
ATOM     54  C   UNL A   1      41.740  30.723  36.325  1.00  0.00     0.029 A 
ATOM     55  N   UNL A   1      41.313  30.218  34.202  1.00  0.00    -0.354 N 
ATOM     56  N   UNL A   1      41.677  28.724  31.701  1.00  0.00    -0.248 NA
ATOM     57  C   UNL A   1      42.883  27.193  30.410  1.00  0.00     0.031 C 
ATOM     58  C   UNL A   1      42.697  29.803  35.889  1.00  0.00     0.029 A 
ATOM     59  C   UNL A   1      42.413  29.465  34.575  1.00  0.00     0.049 A 
ATOM     60  H   UNL A   1      40.886  30.196  33.315  1.00  0.00     0.167 HD
ATOM     61  C   UNL A   1      42.733  28.220  32.454  1.00  0.00     0.074 A 
ATOM     62  C   UNL A   1      43.425  27.262  31.617  1.00  0.00     0.031 C 
ATOM     63  C   UNL A   1      43.098  28.522  33.726  1.00  0.00     0.034 A 
BRANCH  50  64
ATOM     64  C   UNL A   1      39.491  32.731  36.464  1.00  0.00     0.023 A 
ATOM     65  C   UNL A   1      38.574  32.266  37.421  1.00  0.00     0.031 A 
ATOM     66  C   UNL A   1      40.152  33.946  36.711  1.00  0.00     0.131 A 
ATOM     67  C   UNL A   1      38.320  33.028  38.570  1.00  0.00     0.055 A 
ATOM     68  C   UNL A   1      39.939  34.670  37.885  1.00  0.00     0.041 A 
ATOM     69  F   UNL A   1      41.023  34.443  35.819  1.00  0.00    -0.206 F 
ATOM     70  C   UNL A   1      39.014  34.214  38.821  1.00  0.00     0.022 A 
BRANCH  67  71
ATOM     71  S   UNL A   1      37.018  32.479  39.706  1.00  0.00     0.124 S 
ATOM     72  O   UNL A   1      35.823  32.640  38.881  1.00  0.00    -0.237 OA
ATOM     73  O   UNL A   1      37.411  31.106  40.001  1.00  0.00    -0.237 OA
ATOM     74  O   UNL A   1      37.125  33.412  40.825  1.00  0.00    -0.744 OA
ENDBRANCH  67  71
ENDBRANCH  50  64
BRANCH  51  75
ATOM     75  C   UNL A   1      41.106  27.475  28.098  1.00  0.00     0.023 A 
ATOM     76  C   UNL A   1      40.852  26.095  28.071  1.00  0.00     0.031 A 
ATOM     77  C   UNL A   1      41.635  28.072  26.941  1.00  0.00     0.131 A 
ATOM     78  C   UNL A   1      41.161  25.349  26.923  1.00  0.00     0.055 A 
ATOM     79  C   UNL A   1      41.898  27.334  25.785  1.00  0.00     0.041 A 
ATOM     80  F   UNL A   1      41.893  29.390  26.914  1.00  0.00    -0.206 F 
ATOM     81  C   UNL A   1      41.670  25.962  25.775  1.00  0.00     0.022 A 
BRANCH  78  82
ATOM     82  S   UNL A   1      40.940  23.549  26.969  1.00  0.00     0.124 S 
ATOM     83  O   UNL A   1      41.265  23.247  28.358  1.00  0.00    -0.237 OA
ATOM     84  O   UNL A   1      39.539  23.405  26.590  1.00  0.00    -0.237 OA
ATOM     85  O   UNL A   1      41.903  23.064  25.982  1.00  0.00    -0.744 OA
ENDBRANCH  78  82
ENDBRANCH  51  75
BRANCH  63  86
ATOM     86  C   UNL A   1      44.287  27.798  34.298  1.00  0.00     0.023 A 
ATOM     87  C   UNL A   1      44.148  26.550  34.926  1.00  0.00     0.031 A 
ATOM     88  C   UNL A   1      45.578  28.342  34.174  1.00  0.00     0.131 A 
ATOM     89  C   UNL A   1      45.279  25.897  35.438  1.00  0.00     0.055 A 
ATOM     90  C   UNL A   1      46.705  27.664  34.639  1.00  0.00     0.041 A 
ATOM     91  F   UNL A   1      45.764  29.530  33.578  1.00  0.00    -0.206 F 
ATOM     92  C   UNL A   1      46.559  26.438  35.281  1.00  0.00     0.022 A 
BRANCH  89  93
ATOM     93  S   UNL A   1      45.051  24.348  36.349  1.00  0.00     0.124 S 
ATOM     94  O   UNL A   1      44.528  24.822  37.626  1.00  0.00    -0.237 OA
ATOM     95  O   UNL A   1      44.108  23.621  35.504  1.00  0.00    -0.237 OA
ATOM     96  O   UNL A   1      46.397  23.779  36.402  1.00  0.00    -0.744 OA
ENDBRANCH  89  93
ENDBRANCH  63  86
ENDBRANCH  37  38
ENDBRANCH  29  32
ENDBRANCH  27  28
ENDBRANCH   1  27
TORSDOF 16
ENDMDL
