MODEL 1
REMARK VINA RESULT:     -11.7      0.000      0.000
REMARK SMILES CN(C)S(=O)(=O)c1ccc(-n2c(CCC(=O)NCCCCNC(=O)c3ccc(-c4c5nc(c(-c6cc(S(=O)(=O)[O-])ccc6F)c6ccc([nH]6)c(-c6cc(S(=O)(=O)[O-])ccc6F)c6nc(c(-c7cc(S(=O)(=O)[O-])ccc7F)c7ccc4[nH]7)C=C6)C=C5)cc3)ccc2-c2ccc(F)cc2)cc1
REMARK SMILES IDX 18 1 17 2 15 3 16 4 14 6 13 7 12 8 11 9 90 10 88 11 89 12
REMARK SMILES IDX 10 13 7 14 8 15 99 16 9 17 98 18 4 19 5 20 6 21 2 22 1 23
REMARK SMILES IDX 3 24 91 25 92 26 97 27 93 28 96 29 94 30 95 31 19 32 20 33
REMARK SMILES IDX 21 34 22 35 23 36 24 38 25 39 26 40 87 41 27 42 86 43 28 44
REMARK SMILES IDX 29 45 30 46 80 47 31 48 85 49 79 50 81 51 32 52 84 53 78 54
REMARK SMILES IDX 77 55 33 57 65 58 45 59 64 60 46 61 49 62 63 63 82 64 47 65
REMARK SMILES IDX 48 66 62 68 83 69 50 70 34 71 35 72 43 73 36 74 42 75 44 76
REMARK SMILES IDX 41 77 37 78 38 79 39 80 40 81 66 82 67 83 75 84 68 85 74 86
REMARK SMILES IDX 76 87 73 88 69 89 70 90 71 91 72 92 51 93 52 94 60 95 53 96
REMARK SMILES IDX 59 97 61 98 58 99 54 100 55 101 56 102 57 103
REMARK H PARENT 17 5 22 37 81 56 49 67
REMARK Flexibility Score: inf
ROOT
ATOM      1  C   UNL A   1      31.401  28.156  26.367  1.00  0.00     0.116 C 
ENDROOT
BRANCH   1   2
ATOM      2  N   UNL A   1      30.834  26.899  26.823  1.00  0.00    -0.356 N 
ATOM      3  C   UNL A   1      30.273  25.904  26.073  1.00  0.00     0.220 C 
ATOM      4  O   UNL A   1      29.694  24.984  26.656  1.00  0.00    -0.275 OA
ATOM      5  H   UNL A   1      30.859  26.745  27.796  1.00  0.00     0.163 HD
BRANCH   3   6
ATOM      6  C   UNL A   1      30.371  25.927  24.554  1.00  0.00     0.106 C 
BRANCH   6   7
ATOM      7  C   UNL A   1      31.226  24.813  23.909  1.00  0.00     0.064 C 
BRANCH   7   8
ATOM      8  C   UNL A   1      32.650  24.734  24.437  1.00  0.00     0.024 A 
ATOM      9  N   UNL A   1      33.435  23.601  24.809  1.00  0.00    -0.314 N 
ATOM     10  C   UNL A   1      34.707  24.117  25.206  1.00  0.00     0.053 A 
ATOM     11  C   UNL A   1      33.406  25.876  24.647  1.00  0.00     0.024 A 
ATOM     12  C   UNL A   1      34.658  25.499  25.125  1.00  0.00     0.029 A 
BRANCH   9  13
ATOM     13  C   UNL A   1      33.084  22.188  24.680  1.00  0.00     0.046 A 
ATOM     14  C   UNL A   1      32.809  19.375  24.336  1.00  0.00     0.082 A 
ATOM     15  C   UNL A   1      32.941  19.919  25.614  1.00  0.00     0.024 A 
ATOM     16  C   UNL A   1      32.710  20.226  23.250  1.00  0.00     0.024 A 
ATOM     17  C   UNL A   1      33.044  21.317  25.780  1.00  0.00     0.028 A 
ATOM     18  C   UNL A   1      32.866  21.602  23.428  1.00  0.00     0.028 A 
BRANCH  14  19
ATOM     19  S   UNL A   1      32.607  17.627  24.086  1.00  0.00     0.242 S 
ATOM     20  O   UNL A   1      32.207  17.438  22.698  1.00  0.00    -0.207 OA
ATOM     21  O   UNL A   1      31.788  17.126  25.157  1.00  0.00    -0.207 OA
BRANCH  19  22
ATOM     22  N   UNL A   1      34.182  16.963  24.265  1.00  0.00    -0.204 NA
ATOM     23  C   UNL A   1      35.211  18.027  24.438  1.00  0.00     0.124 C 
ATOM     24  C   UNL A   1      34.350  15.920  25.306  1.00  0.00     0.124 C 
ENDBRANCH  19  22
ENDBRANCH  14  19
ENDBRANCH   9  13
BRANCH  10  25
ATOM     25  C   UNL A   1      35.980  23.405  25.446  1.00  0.00    -0.001 A 
ATOM     26  C   UNL A   1      37.023  24.000  26.167  1.00  0.00     0.013 A 
ATOM     27  C   UNL A   1      36.238  22.186  24.811  1.00  0.00     0.013 A 
ATOM     28  C   UNL A   1      38.276  23.375  26.249  1.00  0.00     0.040 A 
ATOM     29  C   UNL A   1      37.484  21.564  24.873  1.00  0.00     0.040 A 
ATOM     30  C   UNL A   1      38.497  22.169  25.594  1.00  0.00     0.123 A 
ATOM     31  F   UNL A   1      39.701  21.587  25.658  1.00  0.00    -0.207 F 
ENDBRANCH  10  25
ENDBRANCH   7   8
ENDBRANCH   6   7
ENDBRANCH   3   6
ENDBRANCH   1   2
BRANCH   1  32
ATOM     32  C   UNL A   1      32.590  28.525  27.235  1.00  0.00     0.023 C 
BRANCH  32  33
ATOM     33  C   UNL A   1      33.686  29.318  26.531  1.00  0.00     0.023 C 
BRANCH  33  34
ATOM     34  C   UNL A   1      34.294  30.384  27.427  1.00  0.00     0.116 C 
BRANCH  34  35
ATOM     35  N   UNL A   1      33.462  31.574  27.646  1.00  0.00    -0.352 N 
ATOM     36  C   UNL A   1      33.727  32.655  28.460  1.00  0.00     0.251 C 
ATOM     37  H   UNL A   1      32.612  31.604  27.150  1.00  0.00     0.163 HD
ATOM     38  O   UNL A   1      32.884  33.512  28.685  1.00  0.00    -0.269 OA
BRANCH  36  39
ATOM     39  C   UNL A   1      35.052  32.702  29.087  1.00  0.00     0.039 A 
ATOM     40  C   UNL A   1      35.349  31.837  30.142  1.00  0.00     0.014 A 
ATOM     41  C   UNL A   1      36.036  33.471  28.466  1.00  0.00     0.014 A 
ATOM     42  C   UNL A   1      36.680  31.649  30.492  1.00  0.00     0.010 A 
ATOM     43  C   UNL A   1      37.355  33.184  28.718  1.00  0.00     0.010 A 
ATOM     44  C   UNL A   1      37.680  32.284  29.740  1.00  0.00    -0.014 A 
BRANCH  44  45
ATOM     45  C   UNL A   1      39.107  31.983  29.960  1.00  0.00     0.031 A 
ATOM     46  C   UNL A   1      39.828  33.046  30.799  1.00  0.00     0.074 A 
ATOM     47  C   UNL A   1      39.526  30.782  29.454  1.00  0.00     0.049 A 
ATOM     48  N   UNL A   1      41.062  33.436  30.743  1.00  0.00    -0.248 NA
ATOM     49  C   UNL A   1      39.049  33.891  31.748  1.00  0.00     0.031 C 
ATOM     50  C   UNL A   1      38.680  29.888  28.622  1.00  0.00     0.029 A 
ATOM     51  N   UNL A   1      40.686  30.047  29.545  1.00  0.00    -0.354 N 
ATOM     52  C   UNL A   1      41.269  34.380  31.779  1.00  0.00     0.074 A 
ATOM     53  C   UNL A   1      39.959  34.742  32.237  1.00  0.00     0.031 C 
ATOM     54  C   UNL A   1      39.339  28.763  28.289  1.00  0.00     0.029 A 
ATOM     55  C   UNL A   1      40.673  28.809  28.846  1.00  0.00     0.049 A 
ATOM     56  H   UNL A   1      41.469  30.356  30.056  1.00  0.00     0.167 HD
ATOM     57  C   UNL A   1      42.508  34.639  32.311  1.00  0.00     0.034 A 
ATOM     58  C   UNL A   1      41.669  27.889  28.685  1.00  0.00     0.034 A 
ATOM     59  C   UNL A   1      43.454  33.738  31.728  1.00  0.00     0.049 A 
ATOM     60  C   UNL A   1      42.788  28.367  29.511  1.00  0.00     0.074 A 
ATOM     61  C   UNL A   1      43.963  33.587  30.466  1.00  0.00     0.029 A 
ATOM     62  N   UNL A   1      43.728  32.601  32.459  1.00  0.00    -0.354 N 
ATOM     63  N   UNL A   1      42.831  28.322  30.806  1.00  0.00    -0.248 NA
ATOM     64  C   UNL A   1      43.910  29.043  28.848  1.00  0.00     0.031 C 
ATOM     65  C   UNL A   1      44.054  32.186  30.329  1.00  0.00     0.029 A 
ATOM     66  C   UNL A   1      43.821  31.568  31.567  1.00  0.00     0.049 A 
ATOM     67  H   UNL A   1      43.837  32.543  33.436  1.00  0.00     0.167 HD
ATOM     68  C   UNL A   1      43.799  29.248  31.108  1.00  0.00     0.074 A 
ATOM     69  C   UNL A   1      44.612  29.404  29.919  1.00  0.00     0.031 C 
ATOM     70  C   UNL A   1      43.513  30.221  32.011  1.00  0.00     0.034 A 
BRANCH  57  71
ATOM     71  C   UNL A   1      43.005  35.392  33.530  1.00  0.00     0.023 A 
ATOM     72  C   UNL A   1      42.216  35.258  34.708  1.00  0.00     0.031 A 
ATOM     73  C   UNL A   1      43.969  36.405  33.556  1.00  0.00     0.131 A 
ATOM     74  C   UNL A   1      42.281  36.182  35.758  1.00  0.00     0.055 A 
ATOM     75  C   UNL A   1      44.086  37.287  34.646  1.00  0.00     0.041 A 
ATOM     76  F   UNL A   1      44.778  36.639  32.516  1.00  0.00    -0.206 F 
ATOM     77  C   UNL A   1      43.216  37.206  35.732  1.00  0.00     0.022 A 
BRANCH  74  78
ATOM     78  S   UNL A   1      40.998  36.121  37.043  1.00  0.00     0.124 S 
ATOM     79  O   UNL A   1      39.833  36.648  36.340  1.00  0.00    -0.237 OA
ATOM     80  O   UNL A   1      40.958  34.698  37.367  1.00  0.00    -0.237 OA
ATOM     81  O   UNL A   1      41.531  36.983  38.095  1.00  0.00    -0.744 OA
ENDBRANCH  74  78
ENDBRANCH  57  71
BRANCH  58  82
ATOM     82  C   UNL A   1      41.916  26.653  27.847  1.00  0.00     0.023 A 
ATOM     83  C   UNL A   1      42.393  25.417  28.314  1.00  0.00     0.031 A 
ATOM     84  C   UNL A   1      41.591  26.682  26.458  1.00  0.00     0.131 A 
ATOM     85  C   UNL A   1      42.442  24.293  27.448  1.00  0.00     0.055 A 
ATOM     86  C   UNL A   1      41.569  25.560  25.631  1.00  0.00     0.041 A 
ATOM     87  F   UNL A   1      41.263  27.815  25.825  1.00  0.00    -0.206 F 
ATOM     88  C   UNL A   1      41.980  24.347  26.132  1.00  0.00     0.022 A 
BRANCH  85  89
ATOM     89  S   UNL A   1      43.090  22.693  28.013  1.00  0.00     0.124 S 
ATOM     90  O   UNL A   1      43.171  22.895  29.456  1.00  0.00    -0.237 OA
ATOM     91  O   UNL A   1      42.080  21.744  27.557  1.00  0.00    -0.237 OA
ATOM     92  O   UNL A   1      44.377  22.600  27.325  1.00  0.00    -0.744 OA
ENDBRANCH  85  89
ENDBRANCH  58  82
BRANCH  70  93
ATOM     93  C   UNL A   1      42.513  29.815  33.097  1.00  0.00     0.023 A 
ATOM     94  C   UNL A   1      41.262  30.462  33.194  1.00  0.00     0.031 A 
ATOM     95  C   UNL A   1      42.791  28.880  34.109  1.00  0.00     0.131 A 
ATOM     96  C   UNL A   1      40.387  30.207  34.271  1.00  0.00     0.055 A 
ATOM     97  C   UNL A   1      41.919  28.610  35.173  1.00  0.00     0.041 A 
ATOM     98  F   UNL A   1      43.933  28.195  34.115  1.00  0.00    -0.206 F 
ATOM     99  C   UNL A   1      40.711  29.282  35.262  1.00  0.00     0.022 A 
BRANCH  96 100
ATOM    100  S   UNL A   1      38.798  31.080  34.363  1.00  0.00     0.124 S 
ATOM    101  O   UNL A   1      38.122  30.397  35.460  1.00  0.00    -0.237 OA
ATOM    102  O   UNL A   1      39.206  32.458  34.618  1.00  0.00    -0.237 OA
ATOM    103  O   UNL A   1      38.210  30.853  33.042  1.00  0.00    -0.744 OA
ENDBRANCH  96 100
ENDBRANCH  70  93
ENDBRANCH  44  45
ENDBRANCH  36  39
ENDBRANCH  34  35
ENDBRANCH  33  34
ENDBRANCH  32  33
ENDBRANCH   1  32
TORSDOF 20
ENDMDL
MODEL 2
REMARK VINA RESULT:     -11.7      3.458      5.266
REMARK SMILES CN(C)S(=O)(=O)c1ccc(-n2c(CCC(=O)NCCCCNC(=O)c3ccc(-c4c5nc(c(-c6cc(S(=O)(=O)[O-])ccc6F)c6ccc([nH]6)c(-c6cc(S(=O)(=O)[O-])ccc6F)c6nc(c(-c7cc(S(=O)(=O)[O-])ccc7F)c7ccc4[nH]7)C=C6)C=C5)cc3)ccc2-c2ccc(F)cc2)cc1
REMARK SMILES IDX 18 1 17 2 15 3 16 4 14 6 13 7 12 8 11 9 90 10 88 11 89 12
REMARK SMILES IDX 10 13 7 14 8 15 99 16 9 17 98 18 4 19 5 20 6 21 2 22 1 23
REMARK SMILES IDX 3 24 91 25 92 26 97 27 93 28 96 29 94 30 95 31 19 32 20 33
REMARK SMILES IDX 21 34 22 35 23 36 24 38 25 39 26 40 87 41 27 42 86 43 28 44
REMARK SMILES IDX 29 45 30 46 80 47 31 48 85 49 79 50 81 51 32 52 84 53 78 54
REMARK SMILES IDX 77 55 33 57 65 58 45 59 64 60 46 61 49 62 63 63 82 64 47 65
REMARK SMILES IDX 48 66 62 68 83 69 50 70 34 71 35 72 43 73 36 74 42 75 44 76
REMARK SMILES IDX 41 77 37 78 38 79 39 80 40 81 66 82 67 83 75 84 68 85 74 86
REMARK SMILES IDX 76 87 73 88 69 89 70 90 71 91 72 92 51 93 52 94 60 95 53 96
REMARK SMILES IDX 59 97 61 98 58 99 54 100 55 101 56 102 57 103
REMARK H PARENT 17 5 22 37 81 56 49 67
REMARK Flexibility Score: inf
ROOT
ATOM      1  C   UNL A   1      31.626  28.434  26.264  1.00  0.00     0.116 C 
ENDROOT
BRANCH   1   2
ATOM      2  N   UNL A   1      31.036  27.215  26.789  1.00  0.00    -0.356 N 
ATOM      3  C   UNL A   1      30.461  26.188  26.095  1.00  0.00     0.220 C 
ATOM      4  O   UNL A   1      29.863  25.314  26.726  1.00  0.00    -0.275 OA
ATOM      5  H   UNL A   1      31.052  27.117  27.769  1.00  0.00     0.163 HD
BRANCH   3   6
ATOM      6  C   UNL A   1      30.567  26.121  24.577  1.00  0.00     0.106 C 
BRANCH   6   7
ATOM      7  C   UNL A   1      31.372  24.935  24.002  1.00  0.00     0.064 C 
BRANCH   7   8
ATOM      8  C   UNL A   1      32.781  24.806  24.562  1.00  0.00     0.024 A 
ATOM      9  N   UNL A   1      33.532  23.643  24.911  1.00  0.00    -0.314 N 
ATOM     10  C   UNL A   1      34.803  24.117  25.358  1.00  0.00     0.053 A 
ATOM     11  C   UNL A   1      33.554  25.923  24.833  1.00  0.00     0.024 A 
ATOM     12  C   UNL A   1      34.785  25.502  25.328  1.00  0.00     0.029 A 
BRANCH   9  13
ATOM     13  C   UNL A   1      33.156  22.243  24.721  1.00  0.00     0.046 A 
ATOM     14  C   UNL A   1      32.834  19.449  24.284  1.00  0.00     0.082 A 
ATOM     15  C   UNL A   1      32.894  19.956  25.581  1.00  0.00     0.024 A 
ATOM     16  C   UNL A   1      32.828  20.330  23.217  1.00  0.00     0.024 A 
ATOM     17  C   UNL A   1      33.020  21.347  25.791  1.00  0.00     0.028 A 
ATOM     18  C   UNL A   1      33.006  21.696  23.442  1.00  0.00     0.028 A 
BRANCH  14  19
ATOM     19  S   UNL A   1      32.606  17.714  23.973  1.00  0.00     0.242 S 
ATOM     20  O   UNL A   1      32.290  17.571  22.558  1.00  0.00    -0.207 OA
ATOM     21  O   UNL A   1      31.708  17.207  24.976  1.00  0.00    -0.207 OA
BRANCH  19  22
ATOM     22  N   UNL A   1      34.150  17.005  24.231  1.00  0.00    -0.204 NA
ATOM     23  C   UNL A   1      35.210  18.039  24.392  1.00  0.00     0.124 C 
ATOM     24  C   UNL A   1      34.247  16.004  25.322  1.00  0.00     0.124 C 
ENDBRANCH  19  22
ENDBRANCH  14  19
ENDBRANCH   9  13
BRANCH  10  25
ATOM     25  C   UNL A   1      36.055  23.369  25.603  1.00  0.00    -0.001 A 
ATOM     26  C   UNL A   1      37.177  23.991  26.166  1.00  0.00     0.013 A 
ATOM     27  C   UNL A   1      36.205  22.065  25.121  1.00  0.00     0.013 A 
ATOM     28  C   UNL A   1      38.401  23.311  26.245  1.00  0.00     0.040 A 
ATOM     29  C   UNL A   1      37.421  21.386  25.179  1.00  0.00     0.040 A 
ATOM     30  C   UNL A   1      38.514  22.019  25.743  1.00  0.00     0.123 A 
ATOM     31  F   UNL A   1      39.689  21.381  25.801  1.00  0.00    -0.207 F 
ENDBRANCH  10  25
ENDBRANCH   7   8
ENDBRANCH   6   7
ENDBRANCH   3   6
ENDBRANCH   1   2
BRANCH   1  32
ATOM     32  C   UNL A   1      32.409  29.134  27.359  1.00  0.00     0.023 C 
BRANCH  32  33
ATOM     33  C   UNL A   1      33.691  29.824  26.901  1.00  0.00     0.023 C 
BRANCH  33  34
ATOM     34  C   UNL A   1      34.117  30.936  27.844  1.00  0.00     0.116 C 
BRANCH  34  35
ATOM     35  N   UNL A   1      33.397  32.206  27.687  1.00  0.00    -0.352 N 
ATOM     36  C   UNL A   1      33.468  33.325  28.490  1.00  0.00     0.251 C 
ATOM     37  H   UNL A   1      32.789  32.267  26.915  1.00  0.00     0.163 HD
ATOM     38  O   UNL A   1      32.699  34.267  28.352  1.00  0.00    -0.269 OA
BRANCH  36  39
ATOM     39  C   UNL A   1      34.477  33.312  29.555  1.00  0.00     0.039 A 
ATOM     40  C   UNL A   1      35.476  32.338  29.550  1.00  0.00     0.014 A 
ATOM     41  C   UNL A   1      34.517  34.405  30.421  1.00  0.00     0.014 A 
ATOM     42  C   UNL A   1      36.601  32.537  30.342  1.00  0.00     0.010 A 
ATOM     43  C   UNL A   1      35.684  34.669  31.096  1.00  0.00     0.010 A 
ATOM     44  C   UNL A   1      36.721  33.729  31.070  1.00  0.00    -0.014 A 
BRANCH  44  45
ATOM     45  C   UNL A   1      37.967  34.063  31.786  1.00  0.00     0.031 A 
ATOM     46  C   UNL A   1      37.802  34.083  33.310  1.00  0.00     0.074 A 
ATOM     47  C   UNL A   1      39.066  34.219  30.985  1.00  0.00     0.049 A 
ATOM     48  N   UNL A   1      38.410  34.814  34.192  1.00  0.00    -0.248 NA
ATOM     49  C   UNL A   1      36.724  33.275  33.947  1.00  0.00     0.031 C 
ATOM     50  C   UNL A   1      39.024  34.201  29.500  1.00  0.00     0.029 A 
ATOM     51  N   UNL A   1      40.414  34.382  31.214  1.00  0.00    -0.354 N 
ATOM     52  C   UNL A   1      37.974  34.402  35.476  1.00  0.00     0.074 A 
ATOM     53  C   UNL A   1      36.817  33.586  35.246  1.00  0.00     0.031 C 
ATOM     54  C   UNL A   1      40.255  34.349  28.975  1.00  0.00     0.029 A 
ATOM     55  C   UNL A   1      41.216  34.493  30.046  1.00  0.00     0.049 A 
ATOM     56  H   UNL A   1      40.795  34.420  32.121  1.00  0.00     0.167 HD
ATOM     57  C   UNL A   1      38.718  34.604  36.612  1.00  0.00     0.034 A 
ATOM     58  C   UNL A   1      42.557  34.723  29.929  1.00  0.00     0.034 A 
ATOM     59  C   UNL A   1      39.980  35.165  36.240  1.00  0.00     0.049 A 
ATOM     60  C   UNL A   1      43.083  34.712  31.302  1.00  0.00     0.074 A 
ATOM     61  C   UNL A   1      40.361  36.367  35.706  1.00  0.00     0.029 A 
ATOM     62  N   UNL A   1      41.018  34.267  36.102  1.00  0.00    -0.354 N 
ATOM     63  N   UNL A   1      43.235  33.652  32.033  1.00  0.00    -0.248 NA
ATOM     64  C   UNL A   1      43.369  35.996  31.953  1.00  0.00     0.031 C 
ATOM     65  C   UNL A   1      41.391  36.003  34.814  1.00  0.00     0.029 A 
ATOM     66  C   UNL A   1      41.740  34.658  35.008  1.00  0.00     0.049 A 
ATOM     67  H   UNL A   1      41.204  33.492  36.681  1.00  0.00     0.167 HD
ATOM     68  C   UNL A   1      43.305  34.170  33.303  1.00  0.00     0.074 A 
ATOM     69  C   UNL A   1      43.696  35.559  33.166  1.00  0.00     0.031 C 
ATOM     70  C   UNL A   1      42.487  33.663  34.262  1.00  0.00     0.034 A 
BRANCH  57  71
ATOM     71  C   UNL A   1      38.635  34.100  38.040  1.00  0.00     0.023 A 
ATOM     72  C   UNL A   1      38.148  32.772  38.202  1.00  0.00     0.031 A 
ATOM     73  C   UNL A   1      38.713  34.866  39.207  1.00  0.00     0.131 A 
ATOM     74  C   UNL A   1      37.622  32.315  39.417  1.00  0.00     0.055 A 
ATOM     75  C   UNL A   1      38.254  34.379  40.445  1.00  0.00     0.041 A 
ATOM     76  F   UNL A   1      39.153  36.130  39.196  1.00  0.00    -0.206 F 
ATOM     77  C   UNL A   1      37.669  33.117  40.547  1.00  0.00     0.022 A 
BRANCH  74  78
ATOM     78  S   UNL A   1      36.713  30.740  39.427  1.00  0.00     0.124 S 
ATOM     79  O   UNL A   1      37.315  30.044  40.559  1.00  0.00    -0.237 OA
ATOM     80  O   UNL A   1      35.335  31.185  39.610  1.00  0.00    -0.237 OA
ATOM     81  O   UNL A   1      37.013  30.169  38.116  1.00  0.00    -0.744 OA
ENDBRANCH  74  78
ENDBRANCH  57  71
BRANCH  58  82
ATOM     82  C   UNL A   1      43.534  35.063  28.825  1.00  0.00     0.023 A 
ATOM     83  C   UNL A   1      44.377  34.159  28.156  1.00  0.00     0.031 A 
ATOM     84  C   UNL A   1      43.596  36.405  28.343  1.00  0.00     0.131 A 
ATOM     85  C   UNL A   1      45.142  34.583  27.038  1.00  0.00     0.055 A 
ATOM     86  C   UNL A   1      44.288  36.800  27.200  1.00  0.00     0.041 A 
ATOM     87  F   UNL A   1      42.969  37.415  28.960  1.00  0.00    -0.206 F 
ATOM     88  C   UNL A   1      45.056  35.879  26.526  1.00  0.00     0.022 A 
BRANCH  85  89
ATOM     89  S   UNL A   1      46.269  33.447  26.179  1.00  0.00     0.124 S 
ATOM     90  O   UNL A   1      47.079  34.368  25.389  1.00  0.00    -0.237 OA
ATOM     91  O   UNL A   1      46.957  32.769  27.274  1.00  0.00    -0.237 OA
ATOM     92  O   UNL A   1      45.357  32.602  25.409  1.00  0.00    -0.744 OA
ENDBRANCH  85  89
ENDBRANCH  58  82
BRANCH  70  93
ATOM     93  C   UNL A   1      42.130  32.185  34.084  1.00  0.00     0.023 A 
ATOM     94  C   UNL A   1      41.071  31.803  33.232  1.00  0.00     0.031 A 
ATOM     95  C   UNL A   1      42.733  31.140  34.806  1.00  0.00     0.131 A 
ATOM     96  C   UNL A   1      40.631  30.464  33.165  1.00  0.00     0.055 A 
ATOM     97  C   UNL A   1      42.311  29.805  34.731  1.00  0.00     0.041 A 
ATOM     98  F   UNL A   1      43.753  31.375  35.629  1.00  0.00    -0.206 F 
ATOM     99  C   UNL A   1      41.247  29.462  33.912  1.00  0.00     0.022 A 
BRANCH  96 100
ATOM    100  S   UNL A   1      39.249  30.027  32.072  1.00  0.00     0.124 S 
ATOM    101  O   UNL A   1      38.083  30.338  32.891  1.00  0.00    -0.237 OA
ATOM    102  O   UNL A   1      39.472  30.889  30.915  1.00  0.00    -0.237 OA
ATOM    103  O   UNL A   1      39.459  28.600  31.817  1.00  0.00    -0.744 OA
ENDBRANCH  96 100
ENDBRANCH  70  93
ENDBRANCH  44  45
ENDBRANCH  36  39
ENDBRANCH  34  35
ENDBRANCH  33  34
ENDBRANCH  32  33
ENDBRANCH   1  32
TORSDOF 20
ENDMDL
MODEL 3
REMARK VINA RESULT:     -11.4      5.281     12.570
REMARK SMILES CN(C)S(=O)(=O)c1ccc(-n2c(CCC(=O)NCCCCNC(=O)c3ccc(-c4c5nc(c(-c6cc(S(=O)(=O)[O-])ccc6F)c6ccc([nH]6)c(-c6cc(S(=O)(=O)[O-])ccc6F)c6nc(c(-c7cc(S(=O)(=O)[O-])ccc7F)c7ccc4[nH]7)C=C6)C=C5)cc3)ccc2-c2ccc(F)cc2)cc1
REMARK SMILES IDX 18 1 17 2 15 3 16 4 14 6 13 7 12 8 11 9 90 10 88 11 89 12
REMARK SMILES IDX 10 13 7 14 8 15 99 16 9 17 98 18 4 19 5 20 6 21 2 22 1 23
REMARK SMILES IDX 3 24 91 25 92 26 97 27 93 28 96 29 94 30 95 31 19 32 20 33
REMARK SMILES IDX 21 34 22 35 23 36 24 38 25 39 26 40 87 41 27 42 86 43 28 44
REMARK SMILES IDX 29 45 30 46 80 47 31 48 85 49 79 50 81 51 32 52 84 53 78 54
REMARK SMILES IDX 77 55 33 57 65 58 45 59 64 60 46 61 49 62 63 63 82 64 47 65
REMARK SMILES IDX 48 66 62 68 83 69 50 70 34 71 35 72 43 73 36 74 42 75 44 76
REMARK SMILES IDX 41 77 37 78 38 79 39 80 40 81 66 82 67 83 75 84 68 85 74 86
REMARK SMILES IDX 76 87 73 88 69 89 70 90 71 91 72 92 51 93 52 94 60 95 53 96
REMARK SMILES IDX 59 97 61 98 58 99 54 100 55 101 56 102 57 103
REMARK H PARENT 17 5 22 37 81 56 49 67
REMARK Flexibility Score: inf
ROOT
ATOM      1  C   UNL A   1      34.322  33.862  30.331  1.00  0.00     0.116 C 
ENDROOT
BRANCH   1   2
ATOM      2  N   UNL A   1      35.172  34.612  31.239  1.00  0.00    -0.356 N 
ATOM      3  C   UNL A   1      35.559  34.276  32.506  1.00  0.00     0.220 C 
ATOM      4  O   UNL A   1      36.147  35.121  33.185  1.00  0.00    -0.275 OA
ATOM      5  H   UNL A   1      35.513  35.471  30.898  1.00  0.00     0.163 HD
BRANCH   3   6
ATOM      6  C   UNL A   1      35.277  32.886  33.061  1.00  0.00     0.106 C 
BRANCH   6   7
ATOM      7  C   UNL A   1      36.271  31.776  32.652  1.00  0.00     0.064 C 
BRANCH   7   8
ATOM      8  C   UNL A   1      37.734  32.146  32.843  1.00  0.00     0.024 A 
ATOM      9  N   UNL A   1      38.461  32.453  34.033  1.00  0.00    -0.314 N 
ATOM     10  C   UNL A   1      39.806  32.698  33.620  1.00  0.00     0.053 A 
ATOM     11  C   UNL A   1      38.599  32.248  31.765  1.00  0.00     0.024 A 
ATOM     12  C   UNL A   1      39.861  32.595  32.240  1.00  0.00     0.029 A 
BRANCH   9  13
ATOM     13  C   UNL A   1      37.984  32.392  35.414  1.00  0.00     0.046 A 
ATOM     14  C   UNL A   1      37.461  32.321  38.211  1.00  0.00     0.082 A 
ATOM     15  C   UNL A   1      37.276  33.500  37.490  1.00  0.00     0.024 A 
ATOM     16  C   UNL A   1      37.800  31.164  37.533  1.00  0.00     0.024 A 
ATOM     17  C   UNL A   1      37.505  33.520  36.097  1.00  0.00     0.028 A 
ATOM     18  C   UNL A   1      38.074  31.215  36.165  1.00  0.00     0.028 A 
BRANCH  14  19
ATOM     19  S   UNL A   1      37.117  32.232  39.952  1.00  0.00     0.242 S 
ATOM     20  O   UNL A   1      36.068  31.237  40.131  1.00  0.00    -0.207 OA
ATOM     21  O   UNL A   1      36.937  33.578  40.430  1.00  0.00    -0.207 OA
BRANCH  19  22
ATOM     22  N   UNL A   1      38.551  31.603  40.661  1.00  0.00    -0.204 NA
ATOM     23  C   UNL A   1      39.620  32.637  40.748  1.00  0.00     0.124 C 
ATOM     24  C   UNL A   1      38.401  30.916  41.968  1.00  0.00     0.124 C 
ENDBRANCH  19  22
ENDBRANCH  14  19
ENDBRANCH   9  13
BRANCH  10  25
ATOM     25  C   UNL A   1      41.036  32.811  34.433  1.00  0.00    -0.001 A 
ATOM     26  C   UNL A   1      41.558  34.060  34.794  1.00  0.00     0.013 A 
ATOM     27  C   UNL A   1      41.803  31.677  34.717  1.00  0.00     0.013 A 
ATOM     28  C   UNL A   1      42.806  34.152  35.428  1.00  0.00     0.040 A 
ATOM     29  C   UNL A   1      43.051  31.758  35.332  1.00  0.00     0.040 A 
ATOM     30  C   UNL A   1      43.544  33.001  35.682  1.00  0.00     0.123 A 
ATOM     31  F   UNL A   1      44.744  33.095  36.268  1.00  0.00    -0.207 F 
ENDBRANCH  10  25
ENDBRANCH   7   8
ENDBRANCH   6   7
ENDBRANCH   3   6
ENDBRANCH   1   2
BRANCH   1  32
ATOM     32  C   UNL A   1      35.016  33.710  28.990  1.00  0.00     0.023 C 
BRANCH  32  33
ATOM     33  C   UNL A   1      36.512  33.419  29.065  1.00  0.00     0.023 C 
BRANCH  33  34
ATOM     34  C   UNL A   1      36.964  32.441  27.993  1.00  0.00     0.116 C 
BRANCH  34  35
ATOM     35  N   UNL A   1      36.044  31.327  27.728  1.00  0.00    -0.352 N 
ATOM     36  C   UNL A   1      36.282  29.978  27.880  1.00  0.00     0.251 C 
ATOM     37  H   UNL A   1      35.148  31.574  27.403  1.00  0.00     0.163 HD
ATOM     38  O   UNL A   1      35.493  29.135  27.474  1.00  0.00    -0.269 OA
BRANCH  36  39
ATOM     39  C   UNL A   1      37.553  29.596  28.505  1.00  0.00     0.039 A 
ATOM     40  C   UNL A   1      37.546  28.880  29.703  1.00  0.00     0.014 A 
ATOM     41  C   UNL A   1      38.720  29.785  27.766  1.00  0.00     0.014 A 
ATOM     42  C   UNL A   1      38.713  28.235  30.097  1.00  0.00     0.010 A 
ATOM     43  C   UNL A   1      39.830  29.041  28.082  1.00  0.00     0.010 A 
ATOM     44  C   UNL A   1      39.833  28.276  29.255  1.00  0.00    -0.014 A 
BRANCH  44  45
ATOM     45  C   UNL A   1      41.034  27.468  29.544  1.00  0.00     0.031 A 
ATOM     46  C   UNL A   1      41.309  26.393  28.485  1.00  0.00     0.074 A 
ATOM     47  C   UNL A   1      41.738  27.860  30.650  1.00  0.00     0.049 A 
ATOM     48  N   UNL A   1      41.847  25.222  28.627  1.00  0.00    -0.248 NA
ATOM     49  C   UNL A   1      40.804  26.577  27.096  1.00  0.00     0.031 C 
ATOM     50  C   UNL A   1      41.289  28.918  31.591  1.00  0.00     0.029 A 
ATOM     51  N   UNL A   1      42.951  27.511  31.198  1.00  0.00    -0.354 N 
ATOM     52  C   UNL A   1      41.962  24.636  27.342  1.00  0.00     0.074 A 
ATOM     53  C   UNL A   1      41.145  25.439  26.479  1.00  0.00     0.031 C 
ATOM     54  C   UNL A   1      42.190  29.115  32.571  1.00  0.00     0.029 A 
ATOM     55  C   UNL A   1      43.301  28.209  32.385  1.00  0.00     0.049 A 
ATOM     56  H   UNL A   1      43.534  26.826  30.797  1.00  0.00     0.167 HD
ATOM     57  C   UNL A   1      42.876  23.654  27.053  1.00  0.00     0.034 A 
ATOM     58  C   UNL A   1      44.389  28.055  33.198  1.00  0.00     0.034 A 
ATOM     59  C   UNL A   1      43.706  23.449  28.200  1.00  0.00     0.049 A 
ATOM     60  C   UNL A   1      45.250  27.070  32.527  1.00  0.00     0.074 A 
ATOM     61  C   UNL A   1      43.480  22.950  29.455  1.00  0.00     0.029 A 
ATOM     62  N   UNL A   1      44.908  24.127  28.200  1.00  0.00    -0.354 N 
ATOM     63  N   UNL A   1      45.959  27.301  31.466  1.00  0.00    -0.248 NA
ATOM     64  C   UNL A   1      45.243  25.686  33.015  1.00  0.00     0.031 C 
ATOM     65  C   UNL A   1      44.276  23.779  30.272  1.00  0.00     0.029 A 
ATOM     66  C   UNL A   1      45.110  24.578  29.475  1.00  0.00     0.049 A 
ATOM     67  H   UNL A   1      45.506  24.260  27.429  1.00  0.00     0.167 HD
ATOM     68  C   UNL A   1      46.200  26.037  30.984  1.00  0.00     0.074 A 
ATOM     69  C   UNL A   1      46.029  25.127  32.098  1.00  0.00     0.031 C 
ATOM     70  C   UNL A   1      45.914  25.768  29.684  1.00  0.00     0.034 A 
BRANCH  57  71
ATOM     71  C   UNL A   1      43.379  23.013  25.774  1.00  0.00     0.023 A 
ATOM     72  C   UNL A   1      43.440  21.590  25.776  1.00  0.00     0.031 A 
ATOM     73  C   UNL A   1      44.041  23.649  24.719  1.00  0.00     0.131 A 
ATOM     74  C   UNL A   1      44.248  20.878  24.880  1.00  0.00     0.055 A 
ATOM     75  C   UNL A   1      44.791  22.927  23.773  1.00  0.00     0.041 A 
ATOM     76  F   UNL A   1      44.062  24.981  24.598  1.00  0.00    -0.206 F 
ATOM     77  C   UNL A   1      44.931  21.543  23.873  1.00  0.00     0.022 A 
BRANCH  74  78
ATOM     78  S   UNL A   1      44.526  19.108  25.187  1.00  0.00     0.124 S 
ATOM     79  O   UNL A   1      45.792  19.118  25.914  1.00  0.00    -0.237 OA
ATOM     80  O   UNL A   1      43.346  18.744  25.965  1.00  0.00    -0.237 OA
ATOM     81  O   UNL A   1      44.586  18.538  23.844  1.00  0.00    -0.744 OA
ENDBRANCH  74  78
ENDBRANCH  57  71
BRANCH  58  82
ATOM     82  C   UNL A   1      44.834  28.537  34.561  1.00  0.00     0.023 A 
ATOM     83  C   UNL A   1      45.908  29.404  34.825  1.00  0.00     0.031 A 
ATOM     84  C   UNL A   1      44.086  28.147  35.712  1.00  0.00     0.131 A 
ATOM     85  C   UNL A   1      46.130  29.894  36.138  1.00  0.00     0.055 A 
ATOM     86  C   UNL A   1      44.260  28.687  36.984  1.00  0.00     0.041 A 
ATOM     87  F   UNL A   1      43.126  27.215  35.658  1.00  0.00    -0.206 F 
ATOM     88  C   UNL A   1      45.279  29.585  37.201  1.00  0.00     0.022 A 
BRANCH  85  89
ATOM     89  S   UNL A   1      47.532  30.985  36.514  1.00  0.00     0.124 S 
ATOM     90  O   UNL A   1      47.514  31.900  35.378  1.00  0.00    -0.237 OA
ATOM     91  O   UNL A   1      47.169  31.562  37.805  1.00  0.00    -0.237 OA
ATOM     92  O   UNL A   1      48.665  30.061  36.551  1.00  0.00    -0.744 OA
ENDBRANCH  85  89
ENDBRANCH  58  82
BRANCH  70  93
ATOM     93  C   UNL A   1      46.057  26.962  28.735  1.00  0.00     0.023 A 
ATOM     94  C   UNL A   1      44.932  27.744  28.397  1.00  0.00     0.031 A 
ATOM     95  C   UNL A   1      47.249  27.295  28.070  1.00  0.00     0.131 A 
ATOM     96  C   UNL A   1      45.011  28.755  27.416  1.00  0.00     0.055 A 
ATOM     97  C   UNL A   1      47.338  28.309  27.105  1.00  0.00     0.041 A 
ATOM     98  F   UNL A   1      48.380  26.638  28.318  1.00  0.00    -0.206 F 
ATOM     99  C   UNL A   1      46.211  29.041  26.768  1.00  0.00     0.022 A 
BRANCH  96 100
ATOM    100  S   UNL A   1      43.530  29.719  26.998  1.00  0.00     0.124 S 
ATOM    101  O   UNL A   1      42.898  29.912  28.299  1.00  0.00    -0.237 OA
ATOM    102  O   UNL A   1      44.092  30.912  26.373  1.00  0.00    -0.237 OA
ATOM    103  O   UNL A   1      42.800  28.839  26.084  1.00  0.00    -0.744 OA
ENDBRANCH  96 100
ENDBRANCH  70  93
ENDBRANCH  44  45
ENDBRANCH  36  39
ENDBRANCH  34  35
ENDBRANCH  33  34
ENDBRANCH  32  33
ENDBRANCH   1  32
TORSDOF 20
ENDMDL
