MODEL 1
REMARK VINA RESULT:     -11.3      0.000      0.000
REMARK SMILES CCc1cc([C@H]([NH3+])C(=O)NCCCCNC(=O)c2ccc(-c3c4nc(c(-c5cc(S(=O)(=O)[O-])ccc5F)c5ccc([nH]5)c(-c5cc(S(=O)(=O)[O-])ccc5F)c5nc(c(-c6cc(S(=O)(=O)[O-])ccc6F)c6ccc3[nH]6)C=C5)C=C4)cc2)cc(CC)c1N
REMARK SMILES IDX 13 1 12 2 11 3 10 4 8 5 9 6 6 8 5 9 3 10 4 11 85 12 82 13
REMARK SMILES IDX 81 14 2 15 1 16 86 17 83 20 84 21 7 22 14 26 15 27 16 28
REMARK SMILES IDX 17 30 18 31 19 32 80 33 20 34 79 35 21 36 22 37 23 38 73 39
REMARK SMILES IDX 24 40 78 41 72 42 74 43 25 44 77 45 71 46 70 47 26 49 58 50
REMARK SMILES IDX 38 51 57 52 39 53 42 54 56 55 75 56 40 57 41 58 55 60 76 61
REMARK SMILES IDX 43 62 27 63 28 64 36 65 29 66 35 67 37 68 34 69 30 70 31 71
REMARK SMILES IDX 32 72 33 73 59 74 60 75 68 76 61 77 67 78 69 79 66 80 62 81
REMARK SMILES IDX 63 82 64 83 65 84 44 85 45 86 53 87 46 88 52 89 54 90 51 91
REMARK SMILES IDX 47 92 48 93 49 94 50 95
REMARK H PARENT 10 7 86 18 86 19 7 23 7 24 7 25 15 29 74 48 42 59
REMARK Flexibility Score: inf
ROOT
ATOM      1  C   UNL A   1      35.483  22.542  24.325  1.00  0.00     0.023 C 
ENDROOT
BRANCH   1   2
ATOM      2  C   UNL A   1      34.778  23.875  24.108  1.00  0.00     0.023 C 
BRANCH   2   3
ATOM      3  C   UNL A   1      33.317  23.933  24.527  1.00  0.00     0.116 C 
BRANCH   3   4
ATOM      4  N   UNL A   1      33.089  23.727  25.940  1.00  0.00    -0.351 N 
ATOM      5  C   UNL A   1      31.923  23.823  26.657  1.00  0.00     0.283 C 
ATOM      6  O   UNL A   1      31.932  23.358  27.803  1.00  0.00    -0.268 OA
ATOM      7  H   UNL A   1      33.886  23.484  26.464  1.00  0.00     0.163 HD
BRANCH   5   8
ATOM      8  C   UNL A   1      30.642  24.503  26.085  1.00  0.00     0.302 C 
BRANCH   8   9
ATOM      9  C   UNL A   1      30.821  25.984  25.781  1.00  0.00     0.020 A 
ATOM     10  C   UNL A   1      31.757  28.203  26.278  1.00  0.00    -0.024 A 
ATOM     11  C   UNL A   1      31.415  26.891  26.661  1.00  0.00     0.016 A 
ATOM     12  C   UNL A   1      31.399  28.668  24.998  1.00  0.00     0.038 A 
ATOM     13  C   UNL A   1      30.641  27.822  24.161  1.00  0.00    -0.024 A 
ATOM     14  C   UNL A   1      30.417  26.481  24.538  1.00  0.00     0.016 A 
BRANCH  10  15
ATOM     15  C   UNL A   1      32.577  29.018  27.260  1.00  0.00     0.034 C 
ATOM     16  C   UNL A   1      34.078  28.814  27.141  1.00  0.00     0.009 C 
ENDBRANCH  10  15
BRANCH  12  17
ATOM     17  N   UNL A   1      31.676  29.981  24.625  1.00  0.00    -0.398 N 
ATOM     18  H   UNL A   1      31.144  30.722  24.999  1.00  0.00     0.156 HD
ATOM     19  H   UNL A   1      32.402  30.171  23.988  1.00  0.00     0.156 HD
ENDBRANCH  12  17
BRANCH  13  20
ATOM     20  C   UNL A   1      30.061  28.273  22.836  1.00  0.00     0.034 C 
ATOM     21  C   UNL A   1      28.605  28.699  22.952  1.00  0.00     0.009 C 
ENDBRANCH  13  20
ENDBRANCH   8   9
BRANCH   8  22
ATOM     22  N   UNL A   1      29.434  24.164  26.863  1.00  0.00    -0.343 N 
ATOM     23  H   UNL A   1      29.376  23.152  26.978  1.00  0.00     0.345 HD
ATOM     24  H   UNL A   1      28.606  24.497  26.369  1.00  0.00     0.345 HD
ATOM     25  H   UNL A   1      29.483  24.609  27.780  1.00  0.00     0.345 HD
ENDBRANCH   8  22
ENDBRANCH   5   8
ENDBRANCH   3   4
ENDBRANCH   2   3
ENDBRANCH   1   2
BRANCH   1  26
ATOM     26  C   UNL A   1      36.273  22.414  25.623  1.00  0.00     0.116 C 
BRANCH  26  27
ATOM     27  N   UNL A   1      37.242  21.328  25.611  1.00  0.00    -0.352 N 
ATOM     28  C   UNL A   1      38.583  21.337  25.930  1.00  0.00     0.251 C 
ATOM     29  H   UNL A   1      36.885  20.454  25.332  1.00  0.00     0.163 HD
ATOM     30  O   UNL A   1      39.254  20.333  25.750  1.00  0.00    -0.269 OA
BRANCH  28  31
ATOM     31  C   UNL A   1      39.208  22.577  26.450  1.00  0.00     0.039 A 
ATOM     32  C   UNL A   1      40.309  22.474  27.304  1.00  0.00     0.014 A 
ATOM     33  C   UNL A   1      38.728  23.833  26.075  1.00  0.00     0.014 A 
ATOM     34  C   UNL A   1      40.984  23.631  27.705  1.00  0.00     0.010 A 
ATOM     35  C   UNL A   1      39.454  24.975  26.401  1.00  0.00     0.010 A 
ATOM     36  C   UNL A   1      40.591  24.888  27.218  1.00  0.00    -0.014 A 
BRANCH  36  37
ATOM     37  C   UNL A   1      41.339  26.127  27.564  1.00  0.00     0.031 A 
ATOM     38  C   UNL A   1      40.650  27.229  28.324  1.00  0.00     0.074 A 
ATOM     39  C   UNL A   1      42.607  26.294  27.135  1.00  0.00     0.049 A 
ATOM     40  N   UNL A   1      41.082  28.427  28.627  1.00  0.00    -0.248 NA
ATOM     41  C   UNL A   1      39.275  26.955  28.771  1.00  0.00     0.031 C 
ATOM     42  C   UNL A   1      43.374  25.317  26.358  1.00  0.00     0.029 A 
ATOM     43  N   UNL A   1      43.474  27.348  27.286  1.00  0.00    -0.354 N 
ATOM     44  C   UNL A   1      40.028  29.054  29.286  1.00  0.00     0.074 A 
ATOM     45  C   UNL A   1      38.916  28.128  29.271  1.00  0.00     0.031 C 
ATOM     46  C   UNL A   1      44.603  25.807  26.125  1.00  0.00     0.029 A 
ATOM     47  C   UNL A   1      44.699  27.148  26.693  1.00  0.00     0.049 A 
ATOM     48  H   UNL A   1      43.240  28.171  27.772  1.00  0.00     0.167 HD
ATOM     49  C   UNL A   1      40.000  30.274  29.877  1.00  0.00     0.034 A 
ATOM     50  C   UNL A   1      45.775  27.956  26.609  1.00  0.00     0.034 A 
ATOM     51  C   UNL A   1      41.121  31.181  29.897  1.00  0.00     0.049 A 
ATOM     52  C   UNL A   1      45.713  29.320  27.254  1.00  0.00     0.074 A 
ATOM     53  C   UNL A   1      41.213  32.429  30.489  1.00  0.00     0.029 A 
ATOM     54  N   UNL A   1      42.351  30.936  29.301  1.00  0.00    -0.354 N 
ATOM     55  N   UNL A   1      44.719  29.885  27.901  1.00  0.00    -0.248 NA
ATOM     56  C   UNL A   1      46.922  30.148  27.168  1.00  0.00     0.031 C 
ATOM     57  C   UNL A   1      42.477  32.960  30.204  1.00  0.00     0.029 A 
ATOM     58  C   UNL A   1      43.200  32.014  29.497  1.00  0.00     0.049 A 
ATOM     59  H   UNL A   1      42.587  30.115  28.810  1.00  0.00     0.167 HD
ATOM     60  C   UNL A   1      45.202  31.116  28.335  1.00  0.00     0.074 A 
ATOM     61  C   UNL A   1      46.576  31.206  27.886  1.00  0.00     0.031 C 
ATOM     62  C   UNL A   1      44.571  32.085  29.047  1.00  0.00     0.034 A 
BRANCH  49  63
ATOM     63  C   UNL A   1      38.705  30.693  30.532  1.00  0.00     0.023 A 
ATOM     64  C   UNL A   1      37.681  31.320  29.799  1.00  0.00     0.031 A 
ATOM     65  C   UNL A   1      38.505  30.508  31.911  1.00  0.00     0.131 A 
ATOM     66  C   UNL A   1      36.547  31.815  30.459  1.00  0.00     0.055 A 
ATOM     67  C   UNL A   1      37.333  30.922  32.547  1.00  0.00     0.041 A 
ATOM     68  F   UNL A   1      39.454  29.935  32.669  1.00  0.00    -0.206 F 
ATOM     69  C   UNL A   1      36.352  31.596  31.824  1.00  0.00     0.022 A 
BRANCH  66  70
ATOM     70  S   UNL A   1      35.407  32.881  29.536  1.00  0.00     0.124 S 
ATOM     71  O   UNL A   1      35.331  32.188  28.251  1.00  0.00    -0.237 OA
ATOM     72  O   UNL A   1      34.201  32.839  30.355  1.00  0.00    -0.237 OA
ATOM     73  O   UNL A   1      36.095  34.169  29.500  1.00  0.00    -0.744 OA
ENDBRANCH  66  70
ENDBRANCH  49  63
BRANCH  50  74
ATOM     74  C   UNL A   1      47.009  27.515  25.895  1.00  0.00     0.023 A 
ATOM     75  C   UNL A   1      47.214  27.842  24.545  1.00  0.00     0.031 A 
ATOM     76  C   UNL A   1      47.969  26.709  26.532  1.00  0.00     0.131 A 
ATOM     77  C   UNL A   1      48.319  27.318  23.858  1.00  0.00     0.055 A 
ATOM     78  C   UNL A   1      49.098  26.237  25.858  1.00  0.00     0.041 A 
ATOM     79  F   UNL A   1      47.826  26.371  27.823  1.00  0.00    -0.206 F 
ATOM     80  C   UNL A   1      49.269  26.527  24.508  1.00  0.00     0.022 A 
BRANCH  77  81
ATOM     81  S   UNL A   1      48.443  27.602  22.070  1.00  0.00     0.124 S 
ATOM     82  O   UNL A   1      49.589  28.500  21.992  1.00  0.00    -0.237 OA
ATOM     83  O   UNL A   1      48.651  26.250  21.563  1.00  0.00    -0.237 OA
ATOM     84  O   UNL A   1      47.154  28.201  21.731  1.00  0.00    -0.744 OA
ENDBRANCH  77  81
ENDBRANCH  50  74
BRANCH  62  85
ATOM     85  C   UNL A   1      45.388  33.291  29.439  1.00  0.00     0.023 A 
ATOM     86  C   UNL A   1      46.110  33.342  30.643  1.00  0.00     0.031 A 
ATOM     87  C   UNL A   1      45.426  34.416  28.596  1.00  0.00     0.131 A 
ATOM     88  C   UNL A   1      46.792  34.516  31.000  1.00  0.00     0.055 A 
ATOM     89  C   UNL A   1      46.154  35.560  28.927  1.00  0.00     0.041 A 
ATOM     90  F   UNL A   1      44.753  34.423  27.434  1.00  0.00    -0.206 F 
ATOM     91  C   UNL A   1      46.831  35.619  30.141  1.00  0.00     0.022 A 
BRANCH  88  92
ATOM     92  S   UNL A   1      47.552  34.618  32.644  1.00  0.00     0.124 S 
ATOM     93  O   UNL A   1      47.553  33.221  33.065  1.00  0.00    -0.237 OA
ATOM     94  O   UNL A   1      48.859  35.196  32.347  1.00  0.00    -0.237 OA
ATOM     95  O   UNL A   1      46.645  35.489  33.387  1.00  0.00    -0.744 OA
ENDBRANCH  88  92
ENDBRANCH  62  85
ENDBRANCH  36  37
ENDBRANCH  28  31
ENDBRANCH  26  27
ENDBRANCH   1  26
TORSDOF 19
ENDMDL
MODEL 2
REMARK VINA RESULT:     -11.3      4.636      7.664
REMARK SMILES CCc1cc([C@H]([NH3+])C(=O)NCCCCNC(=O)c2ccc(-c3c4nc(c(-c5cc(S(=O)(=O)[O-])ccc5F)c5ccc([nH]5)c(-c5cc(S(=O)(=O)[O-])ccc5F)c5nc(c(-c6cc(S(=O)(=O)[O-])ccc6F)c6ccc3[nH]6)C=C5)C=C4)cc2)cc(CC)c1N
REMARK SMILES IDX 13 1 12 2 11 3 10 4 8 5 9 6 6 8 5 9 3 10 4 11 85 12 82 13
REMARK SMILES IDX 81 14 2 15 1 16 86 17 83 20 84 21 7 22 14 26 15 27 16 28
REMARK SMILES IDX 17 30 18 31 19 32 80 33 20 34 79 35 21 36 22 37 23 38 73 39
REMARK SMILES IDX 24 40 78 41 72 42 74 43 25 44 77 45 71 46 70 47 26 49 58 50
REMARK SMILES IDX 38 51 57 52 39 53 42 54 56 55 75 56 40 57 41 58 55 60 76 61
REMARK SMILES IDX 43 62 27 63 28 64 36 65 29 66 35 67 37 68 34 69 30 70 31 71
REMARK SMILES IDX 32 72 33 73 59 74 60 75 68 76 61 77 67 78 69 79 66 80 62 81
REMARK SMILES IDX 63 82 64 83 65 84 44 85 45 86 53 87 46 88 52 89 54 90 51 91
REMARK SMILES IDX 47 92 48 93 49 94 50 95
REMARK H PARENT 10 7 86 18 86 19 7 23 7 24 7 25 15 29 74 48 42 59
REMARK Flexibility Score: inf
ROOT
ATOM      1  C   UNL A   1      32.848  28.317  25.511  1.00  0.00     0.023 C 
ENDROOT
BRANCH   1   2
ATOM      2  C   UNL A   1      32.549  26.879  25.915  1.00  0.00     0.023 C 
BRANCH   2   3
ATOM      3  C   UNL A   1      32.467  25.871  24.780  1.00  0.00     0.116 C 
BRANCH   3   4
ATOM      4  N   UNL A   1      33.165  26.263  23.577  1.00  0.00    -0.351 N 
ATOM      5  C   UNL A   1      33.317  25.581  22.395  1.00  0.00     0.283 C 
ATOM      6  O   UNL A   1      33.742  26.224  21.428  1.00  0.00    -0.268 OA
ATOM      7  H   UNL A   1      33.596  27.148  23.608  1.00  0.00     0.163 HD
BRANCH   5   8
ATOM      8  C   UNL A   1      32.999  24.060  22.261  1.00  0.00     0.302 C 
BRANCH   8   9
ATOM      9  C   UNL A   1      33.806  23.182  23.206  1.00  0.00     0.020 A 
ATOM     10  C   UNL A   1      34.147  21.109  24.485  1.00  0.00    -0.024 A 
ATOM     11  C   UNL A   1      33.319  22.008  23.785  1.00  0.00     0.016 A 
ATOM     12  C   UNL A   1      35.497  21.440  24.710  1.00  0.00     0.038 A 
ATOM     13  C   UNL A   1      35.962  22.703  24.286  1.00  0.00    -0.024 A 
ATOM     14  C   UNL A   1      35.132  23.525  23.494  1.00  0.00     0.016 A 
BRANCH  10  15
ATOM     15  C   UNL A   1      33.538  19.779  24.888  1.00  0.00     0.034 C 
ATOM     16  C   UNL A   1      32.619  19.171  23.842  1.00  0.00     0.009 C 
ENDBRANCH  10  15
BRANCH  12  17
ATOM     17  N   UNL A   1      36.314  20.590  25.452  1.00  0.00    -0.398 N 
ATOM     18  H   UNL A   1      36.416  20.728  26.422  1.00  0.00     0.156 HD
ATOM     19  H   UNL A   1      36.790  19.852  25.008  1.00  0.00     0.156 HD
ENDBRANCH  12  17
BRANCH  13  20
ATOM     20  C   UNL A   1      37.341  23.231  24.619  1.00  0.00     0.034 C 
ATOM     21  C   UNL A   1      37.401  23.878  25.995  1.00  0.00     0.009 C 
ENDBRANCH  13  20
ENDBRANCH   8   9
BRANCH   8  22
ATOM     22  N   UNL A   1      32.981  23.615  20.853  1.00  0.00    -0.343 N 
ATOM     23  H   UNL A   1      32.956  22.595  20.819  1.00  0.00     0.345 HD
ATOM     24  H   UNL A   1      33.820  23.950  20.380  1.00  0.00     0.345 HD
ATOM     25  H   UNL A   1      32.155  23.991  20.387  1.00  0.00     0.345 HD
ENDBRANCH   8  22
ENDBRANCH   5   8
ENDBRANCH   3   4
ENDBRANCH   2   3
ENDBRANCH   1   2
BRANCH   1  26
ATOM     26  C   UNL A   1      33.975  29.000  26.277  1.00  0.00     0.116 C 
BRANCH  26  27
ATOM     27  N   UNL A   1      33.676  30.374  26.653  1.00  0.00    -0.352 N 
ATOM     28  C   UNL A   1      34.321  31.207  27.545  1.00  0.00     0.251 C 
ATOM     29  H   UNL A   1      32.896  30.769  26.203  1.00  0.00     0.163 HD
ATOM     30  O   UNL A   1      33.844  32.300  27.803  1.00  0.00    -0.269 OA
BRANCH  28  31
ATOM     31  C   UNL A   1      35.562  30.749  28.213  1.00  0.00     0.039 A 
ATOM     32  C   UNL A   1      35.468  29.830  29.261  1.00  0.00     0.014 A 
ATOM     33  C   UNL A   1      36.813  31.202  27.789  1.00  0.00     0.014 A 
ATOM     34  C   UNL A   1      36.634  29.297  29.820  1.00  0.00     0.010 A 
ATOM     35  C   UNL A   1      37.968  30.604  28.284  1.00  0.00     0.010 A 
ATOM     36  C   UNL A   1      37.893  29.643  29.304  1.00  0.00    -0.014 A 
BRANCH  36  37
ATOM     37  C   UNL A   1      39.145  29.031  29.825  1.00  0.00     0.031 A 
ATOM     38  C   UNL A   1      39.811  29.613  31.044  1.00  0.00     0.074 A 
ATOM     39  C   UNL A   1      39.721  28.005  29.167  1.00  0.00     0.049 A 
ATOM     40  N   UNL A   1      40.958  29.304  31.592  1.00  0.00    -0.248 NA
ATOM     41  C   UNL A   1      39.104  30.717  31.712  1.00  0.00     0.031 C 
ATOM     42  C   UNL A   1      39.196  27.374  27.953  1.00  0.00     0.029 A 
ATOM     43  N   UNL A   1      40.880  27.312  29.422  1.00  0.00    -0.354 N 
ATOM     44  C   UNL A   1      41.117  30.183  32.660  1.00  0.00     0.074 A 
ATOM     45  C   UNL A   1      39.983  31.082  32.632  1.00  0.00     0.031 C 
ATOM     46  C   UNL A   1      40.015  26.374  27.586  1.00  0.00     0.029 A 
ATOM     47  C   UNL A   1      41.145  26.319  28.508  1.00  0.00     0.049 A 
ATOM     48  H   UNL A   1      41.466  27.510  30.187  1.00  0.00     0.167 HD
ATOM     49  C   UNL A   1      42.098  30.218  33.595  1.00  0.00     0.034 A 
ATOM     50  C   UNL A   1      42.185  25.466  28.417  1.00  0.00     0.034 A 
ATOM     51  C   UNL A   1      43.215  29.306  33.619  1.00  0.00     0.049 A 
ATOM     52  C   UNL A   1      43.279  25.538  29.455  1.00  0.00     0.074 A 
ATOM     53  C   UNL A   1      44.252  29.232  34.534  1.00  0.00     0.029 A 
ATOM     54  N   UNL A   1      43.440  28.301  32.686  1.00  0.00    -0.354 N 
ATOM     55  N   UNL A   1      43.398  26.357  30.477  1.00  0.00    -0.248 NA
ATOM     56  C   UNL A   1      44.371  24.564  29.336  1.00  0.00     0.031 C 
ATOM     57  C   UNL A   1      45.130  28.222  34.123  1.00  0.00     0.029 A 
ATOM     58  C   UNL A   1      44.605  27.616  32.994  1.00  0.00     0.049 A 
ATOM     59  H   UNL A   1      42.857  28.104  31.918  1.00  0.00     0.167 HD
ATOM     60  C   UNL A   1      44.554  25.963  31.143  1.00  0.00     0.074 A 
ATOM     61  C   UNL A   1      45.090  24.832  30.415  1.00  0.00     0.031 C 
ATOM     62  C   UNL A   1      45.122  26.485  32.260  1.00  0.00     0.034 A 
BRANCH  49  63
ATOM     63  C   UNL A   1      42.005  31.292  34.653  1.00  0.00     0.023 A 
ATOM     64  C   UNL A   1      40.960  31.304  35.595  1.00  0.00     0.031 A 
ATOM     65  C   UNL A   1      42.942  32.339  34.699  1.00  0.00     0.131 A 
ATOM     66  C   UNL A   1      40.827  32.383  36.481  1.00  0.00     0.055 A 
ATOM     67  C   UNL A   1      42.854  33.364  35.643  1.00  0.00     0.041 A 
ATOM     68  F   UNL A   1      43.950  32.395  33.814  1.00  0.00    -0.206 F 
ATOM     69  C   UNL A   1      41.782  33.400  36.530  1.00  0.00     0.022 A 
BRANCH  66  70
ATOM     70  S   UNL A   1      39.305  32.515  37.459  1.00  0.00     0.124 S 
ATOM     71  O   UNL A   1      38.678  31.220  37.202  1.00  0.00    -0.237 OA
ATOM     72  O   UNL A   1      39.814  32.721  38.810  1.00  0.00    -0.237 OA
ATOM     73  O   UNL A   1      38.616  33.660  36.869  1.00  0.00    -0.744 OA
ENDBRANCH  66  70
ENDBRANCH  49  63
BRANCH  50  74
ATOM     74  C   UNL A   1      42.259  24.464  27.314  1.00  0.00     0.023 A 
ATOM     75  C   UNL A   1      41.489  23.291  27.355  1.00  0.00     0.031 A 
ATOM     76  C   UNL A   1      43.144  24.634  26.234  1.00  0.00     0.131 A 
ATOM     77  C   UNL A   1      41.660  22.305  26.372  1.00  0.00     0.055 A 
ATOM     78  C   UNL A   1      43.268  23.675  25.226  1.00  0.00     0.041 A 
ATOM     79  F   UNL A   1      43.899  25.739  26.140  1.00  0.00    -0.206 F 
ATOM     80  C   UNL A   1      42.536  22.494  25.301  1.00  0.00     0.022 A 
BRANCH  77  81
ATOM     81  S   UNL A   1      40.793  20.723  26.569  1.00  0.00     0.124 S 
ATOM     82  O   UNL A   1      40.883  20.515  28.010  1.00  0.00    -0.237 OA
ATOM     83  O   UNL A   1      39.468  21.038  26.047  1.00  0.00    -0.237 OA
ATOM     84  O   UNL A   1      41.580  19.800  25.754  1.00  0.00    -0.744 OA
ENDBRANCH  77  81
ENDBRANCH  50  74
BRANCH  62  85
ATOM     85  C   UNL A   1      46.349  25.788  32.797  1.00  0.00     0.023 A 
ATOM     86  C   UNL A   1      47.629  26.023  32.267  1.00  0.00     0.031 A 
ATOM     87  C   UNL A   1      46.226  24.860  33.846  1.00  0.00     0.131 A 
ATOM     88  C   UNL A   1      48.728  25.294  32.747  1.00  0.00     0.055 A 
ATOM     89  C   UNL A   1      47.331  24.181  34.360  1.00  0.00     0.041 A 
ATOM     90  F   UNL A   1      45.026  24.596  34.388  1.00  0.00    -0.206 F 
ATOM     91  C   UNL A   1      48.589  24.386  33.802  1.00  0.00     0.022 A 
BRANCH  88  92
ATOM     92  S   UNL A   1      50.329  25.478  31.914  1.00  0.00     0.124 S 
ATOM     93  O   UNL A   1      51.126  26.153  32.932  1.00  0.00    -0.237 OA
ATOM     94  O   UNL A   1      50.694  24.094  31.631  1.00  0.00    -0.237 OA
ATOM     95  O   UNL A   1      50.011  26.286  30.738  1.00  0.00    -0.744 OA
ENDBRANCH  88  92
ENDBRANCH  62  85
ENDBRANCH  36  37
ENDBRANCH  28  31
ENDBRANCH  26  27
ENDBRANCH   1  26
TORSDOF 19
ENDMDL
MODEL 3
REMARK VINA RESULT:     -11.3      1.706      7.808
REMARK SMILES CCc1cc([C@H]([NH3+])C(=O)NCCCCNC(=O)c2ccc(-c3c4nc(c(-c5cc(S(=O)(=O)[O-])ccc5F)c5ccc([nH]5)c(-c5cc(S(=O)(=O)[O-])ccc5F)c5nc(c(-c6cc(S(=O)(=O)[O-])ccc6F)c6ccc3[nH]6)C=C5)C=C4)cc2)cc(CC)c1N
REMARK SMILES IDX 13 1 12 2 11 3 10 4 8 5 9 6 6 8 5 9 3 10 4 11 85 12 82 13
REMARK SMILES IDX 81 14 2 15 1 16 86 17 83 20 84 21 7 22 14 26 15 27 16 28
REMARK SMILES IDX 17 30 18 31 19 32 80 33 20 34 79 35 21 36 22 37 23 38 73 39
REMARK SMILES IDX 24 40 78 41 72 42 74 43 25 44 77 45 71 46 70 47 26 49 58 50
REMARK SMILES IDX 38 51 57 52 39 53 42 54 56 55 75 56 40 57 41 58 55 60 76 61
REMARK SMILES IDX 43 62 27 63 28 64 36 65 29 66 35 67 37 68 34 69 30 70 31 71
REMARK SMILES IDX 32 72 33 73 59 74 60 75 68 76 61 77 67 78 69 79 66 80 62 81
REMARK SMILES IDX 63 82 64 83 65 84 44 85 45 86 53 87 46 88 52 89 54 90 51 91
REMARK SMILES IDX 47 92 48 93 49 94 50 95
REMARK H PARENT 10 7 86 18 86 19 7 23 7 24 7 25 15 29 74 48 42 59
REMARK Flexibility Score: inf
ROOT
ATOM      1  C   UNL A   1      36.574  22.484  23.974  1.00  0.00     0.023 C 
ENDROOT
BRANCH   1   2
ATOM      2  C   UNL A   1      35.146  22.924  23.678  1.00  0.00     0.023 C 
BRANCH   2   3
ATOM      3  C   UNL A   1      34.692  24.210  24.348  1.00  0.00     0.116 C 
BRANCH   3   4
ATOM      4  N   UNL A   1      33.991  24.021  25.599  1.00  0.00    -0.351 N 
ATOM      5  C   UNL A   1      32.644  24.082  25.861  1.00  0.00     0.283 C 
ATOM      6  O   UNL A   1      32.267  23.639  26.952  1.00  0.00    -0.268 OA
ATOM      7  H   UNL A   1      34.561  23.820  26.376  1.00  0.00     0.163 HD
BRANCH   5   8
ATOM      8  C   UNL A   1      31.623  24.698  24.856  1.00  0.00     0.302 C 
BRANCH   8   9
ATOM      9  C   UNL A   1      31.468  26.206  24.993  1.00  0.00     0.020 A 
ATOM     10  C   UNL A   1      32.016  28.358  26.051  1.00  0.00    -0.024 A 
ATOM     11  C   UNL A   1      31.992  26.949  26.053  1.00  0.00     0.016 A 
ATOM     12  C   UNL A   1      31.399  29.061  24.998  1.00  0.00     0.038 A 
ATOM     13  C   UNL A   1      30.710  28.327  24.009  1.00  0.00    -0.024 A 
ATOM     14  C   UNL A   1      30.806  26.920  23.988  1.00  0.00     0.016 A 
BRANCH  10  15
ATOM     15  C   UNL A   1      32.790  29.037  27.164  1.00  0.00     0.034 C 
ATOM     16  C   UNL A   1      34.300  28.958  27.012  1.00  0.00     0.009 C 
ENDBRANCH  10  15
BRANCH  12  17
ATOM     17  N   UNL A   1      31.361  30.453  25.012  1.00  0.00    -0.398 N 
ATOM     18  H   UNL A   1      32.164  30.970  24.768  1.00  0.00     0.156 HD
ATOM     19  H   UNL A   1      30.533  30.922  25.264  1.00  0.00     0.156 HD
ENDBRANCH  12  17
BRANCH  13  20
ATOM     20  C   UNL A   1      29.875  28.979  22.927  1.00  0.00     0.034 C 
ATOM     21  C   UNL A   1      28.385  28.738  23.116  1.00  0.00     0.009 C 
ENDBRANCH  13  20
ENDBRANCH   8   9
BRANCH   8  22
ATOM     22  N   UNL A   1      30.358  23.939  24.809  1.00  0.00    -0.343 N 
ATOM     23  H   UNL A   1      29.572  24.580  24.922  1.00  0.00     0.345 HD
ATOM     24  H   UNL A   1      30.345  23.252  25.563  1.00  0.00     0.345 HD
ATOM     25  H   UNL A   1      30.281  23.460  23.912  1.00  0.00     0.345 HD
ENDBRANCH   8  22
ENDBRANCH   5   8
ENDBRANCH   3   4
ENDBRANCH   2   3
ENDBRANCH   1   2
BRANCH   1  26
ATOM     26  C   UNL A   1      36.893  22.214  25.440  1.00  0.00     0.116 C 
BRANCH  26  27
ATOM     27  N   UNL A   1      37.976  21.260  25.635  1.00  0.00    -0.352 N 
ATOM     28  C   UNL A   1      39.247  21.455  26.135  1.00  0.00     0.251 C 
ATOM     29  H   UNL A   1      37.769  20.335  25.369  1.00  0.00     0.163 HD
ATOM     30  O   UNL A   1      40.050  20.536  26.116  1.00  0.00    -0.269 OA
BRANCH  28  31
ATOM     31  C   UNL A   1      39.638  22.788  26.650  1.00  0.00     0.039 A 
ATOM     32  C   UNL A   1      40.574  22.866  27.685  1.00  0.00     0.014 A 
ATOM     33  C   UNL A   1      39.107  23.955  26.097  1.00  0.00     0.014 A 
ATOM     34  C   UNL A   1      41.044  24.117  28.099  1.00  0.00     0.010 A 
ATOM     35  C   UNL A   1      39.643  25.191  26.447  1.00  0.00     0.010 A 
ATOM     36  C   UNL A   1      40.618  25.287  27.451  1.00  0.00    -0.014 A 
BRANCH  36  37
ATOM     37  C   UNL A   1      41.162  26.623  27.817  1.00  0.00     0.031 A 
ATOM     38  C   UNL A   1      42.596  26.959  27.501  1.00  0.00     0.074 A 
ATOM     39  C   UNL A   1      40.396  27.504  28.491  1.00  0.00     0.049 A 
ATOM     40  N   UNL A   1      43.294  28.015  27.830  1.00  0.00    -0.248 NA
ATOM     41  C   UNL A   1      43.353  25.949  26.744  1.00  0.00     0.031 C 
ATOM     42  C   UNL A   1      39.003  27.285  28.890  1.00  0.00     0.029 A 
ATOM     43  N   UNL A   1      40.680  28.760  28.970  1.00  0.00    -0.354 N 
ATOM     44  C   UNL A   1      44.575  27.792  27.333  1.00  0.00     0.074 A 
ATOM     45  C   UNL A   1      44.571  26.468  26.748  1.00  0.00     0.031 C 
ATOM     46  C   UNL A   1      38.549  28.378  29.526  1.00  0.00     0.029 A 
ATOM     47  C   UNL A   1      39.627  29.356  29.623  1.00  0.00     0.049 A 
ATOM     48  H   UNL A   1      41.557  29.191  28.856  1.00  0.00     0.167 HD
ATOM     49  C   UNL A   1      45.646  28.624  27.336  1.00  0.00     0.034 A 
ATOM     50  C   UNL A   1      39.542  30.553  30.239  1.00  0.00     0.034 A 
ATOM     51  C   UNL A   1      45.631  29.947  27.910  1.00  0.00     0.049 A 
ATOM     52  C   UNL A   1      40.754  31.454  30.250  1.00  0.00     0.074 A 
ATOM     53  C   UNL A   1      46.649  30.885  27.946  1.00  0.00     0.029 A 
ATOM     54  N   UNL A   1      44.541  30.524  28.549  1.00  0.00    -0.354 N 
ATOM     55  N   UNL A   1      41.949  31.239  29.748  1.00  0.00    -0.248 NA
ATOM     56  C   UNL A   1      40.600  32.761  30.899  1.00  0.00     0.031 C 
ATOM     57  C   UNL A   1      46.191  32.004  28.652  1.00  0.00     0.029 A 
ATOM     58  C   UNL A   1      44.865  31.796  28.994  1.00  0.00     0.049 A 
ATOM     59  H   UNL A   1      43.664  30.092  28.668  1.00  0.00     0.167 HD
ATOM     60  C   UNL A   1      42.673  32.405  29.985  1.00  0.00     0.074 A 
ATOM     61  C   UNL A   1      41.778  33.319  30.663  1.00  0.00     0.031 C 
ATOM     62  C   UNL A   1      43.959  32.698  29.664  1.00  0.00     0.034 A 
BRANCH  49  63
ATOM     63  C   UNL A   1      46.921  28.110  26.710  1.00  0.00     0.023 A 
ATOM     64  C   UNL A   1      47.151  28.212  25.326  1.00  0.00     0.031 A 
ATOM     65  C   UNL A   1      47.899  27.472  27.493  1.00  0.00     0.131 A 
ATOM     66  C   UNL A   1      48.283  27.611  24.757  1.00  0.00     0.055 A 
ATOM     67  C   UNL A   1      49.068  26.954  26.931  1.00  0.00     0.041 A 
ATOM     68  F   UNL A   1      47.728  27.324  28.816  1.00  0.00    -0.206 F 
ATOM     69  C   UNL A   1      49.258  27.005  25.553  1.00  0.00     0.022 A 
BRANCH  66  70
ATOM     70  S   UNL A   1      48.384  27.496  22.950  1.00  0.00     0.124 S 
ATOM     71  O   UNL A   1      48.383  26.049  22.747  1.00  0.00    -0.237 OA
ATOM     72  O   UNL A   1      47.180  28.201  22.521  1.00  0.00    -0.237 OA
ATOM     73  O   UNL A   1      49.645  28.162  22.633  1.00  0.00    -0.744 OA
ENDBRANCH  66  70
ENDBRANCH  49  63
BRANCH  50  74
ATOM     74  C   UNL A   1      38.275  30.986  30.896  1.00  0.00     0.023 A 
ATOM     75  C   UNL A   1      37.259  31.614  30.157  1.00  0.00     0.031 A 
ATOM     76  C   UNL A   1      38.086  30.837  32.282  1.00  0.00     0.131 A 
ATOM     77  C   UNL A   1      36.128  32.122  30.813  1.00  0.00     0.055 A 
ATOM     78  C   UNL A   1      36.931  31.294  32.920  1.00  0.00     0.041 A 
ATOM     79  F   UNL A   1      39.021  30.239  33.036  1.00  0.00    -0.206 F 
ATOM     80  C   UNL A   1      35.951  31.956  32.188  1.00  0.00     0.022 A 
BRANCH  77  81
ATOM     81  S   UNL A   1      34.935  33.097  29.853  1.00  0.00     0.124 S 
ATOM     82  O   UNL A   1      34.024  33.558  30.895  1.00  0.00    -0.237 OA
ATOM     83  O   UNL A   1      35.790  34.114  29.252  1.00  0.00    -0.237 OA
ATOM     84  O   UNL A   1      34.375  32.123  28.918  1.00  0.00    -0.744 OA
ENDBRANCH  77  81
ENDBRANCH  50  74
BRANCH  62  85
ATOM     85  C   UNL A   1      44.447  34.089  29.987  1.00  0.00     0.023 A 
ATOM     86  C   UNL A   1      44.292  35.159  29.088  1.00  0.00     0.031 A 
ATOM     87  C   UNL A   1      45.095  34.339  31.210  1.00  0.00     0.131 A 
ATOM     88  C   UNL A   1      44.831  36.416  29.401  1.00  0.00     0.055 A 
ATOM     89  C   UNL A   1      45.577  35.606  31.541  1.00  0.00     0.041 A 
ATOM     90  F   UNL A   1      45.271  33.353  32.103  1.00  0.00    -0.206 F 
ATOM     91  C   UNL A   1      45.459  36.650  30.629  1.00  0.00     0.022 A 
BRANCH  88  92
ATOM     92  S   UNL A   1      44.785  37.722  28.142  1.00  0.00     0.124 S 
ATOM     93  O   UNL A   1      46.179  38.148  28.095  1.00  0.00    -0.237 OA
ATOM     94  O   UNL A   1      44.297  37.005  26.968  1.00  0.00    -0.237 OA
ATOM     95  O   UNL A   1      43.854  38.701  28.699  1.00  0.00    -0.744 OA
ENDBRANCH  88  92
ENDBRANCH  62  85
ENDBRANCH  36  37
ENDBRANCH  28  31
ENDBRANCH  26  27
ENDBRANCH   1  26
TORSDOF 19
ENDMDL
