MODEL 1
REMARK VINA RESULT:     -14.0      0.000      0.000
REMARK SMILES O=C(NCCCCNC(=O)[C@@H]1CCCC[C@H]1C(=O)Nc1sc2c(c1C(=O)NC1CCCC1)CCC2)c1ccc(-c2c3nc(c(-c4cc(S(=O)(=O)[O-])ccc4F)c4ccc([nH]4)c(-c4cc(S(=O)(=O)[O-])ccc4F)c4nc(c(-c5cc(S(=O)(=O)[O-])ccc5F)c5ccc2[nH]5)C=C4)C=C3)cc1
REMARK SMILES IDX 6 1 5 2 4 3 3 4 1 5 2 6 36 8 37 9 98 10 38 11 97 12 39 13
REMARK SMILES IDX 40 14 41 15 91 16 42 17 96 18 90 19 92 20 43 21 95 22 89 23
REMARK SMILES IDX 88 24 44 26 76 27 56 28 75 29 57 30 60 31 74 32 93 33 58 34
REMARK SMILES IDX 59 35 73 37 94 38 61 39 45 40 46 41 54 42 47 43 53 44 55 45
REMARK SMILES IDX 52 46 48 47 49 48 50 49 51 50 77 51 78 52 86 53 79 54 85 55
REMARK SMILES IDX 87 56 84 57 80 58 81 59 82 60 83 61 62 62 63 63 71 64 64 65
REMARK SMILES IDX 70 66 72 67 69 68 65 69 66 70 67 71 68 72 7 73 8 74 9 75
REMARK SMILES IDX 10 77 11 78 12 79 16 80 13 81 15 82 14 83 17 84 18 85 19 86
REMARK SMILES IDX 20 88 21 89 24 90 22 91 23 92 35 93 33 94 34 95 25 96 26 97
REMARK SMILES IDX 27 98 28 100 29 101 32 102 30 103 31 104
REMARK H PARENT 3 7 92 25 60 36 8 76 19 87 27 99
REMARK Flexibility Score: inf
ROOT
ATOM      1  C   UNL A   1      35.655  22.524  25.606  1.00  0.00     0.023 C 
ENDROOT
BRANCH   1   2
ATOM      2  C   UNL A   1      37.126  22.200  25.333  1.00  0.00     0.023 C 
BRANCH   2   3
ATOM      3  C   UNL A   1      38.119  23.262  25.813  1.00  0.00     0.116 C 
BRANCH   3   4
ATOM      4  N   UNL A   1      39.335  22.726  26.390  1.00  0.00    -0.352 N 
ATOM      5  O   UNL A   1      41.076  22.365  27.691  1.00  0.00    -0.269 OA
ATOM      6  C   UNL A   1      40.260  23.196  27.278  1.00  0.00     0.251 C 
ATOM      7  H   UNL A   1      39.542  21.819  26.068  1.00  0.00     0.163 HD
BRANCH   6   8
ATOM      8  C   UNL A   1      40.381  24.611  27.720  1.00  0.00     0.039 A 
ATOM      9  C   UNL A   1      41.431  25.141  28.469  1.00  0.00     0.014 A 
ATOM     10  C   UNL A   1      39.297  25.449  27.395  1.00  0.00     0.014 A 
ATOM     11  C   UNL A   1      41.360  26.438  28.962  1.00  0.00     0.010 A 
ATOM     12  C   UNL A   1      39.226  26.752  27.872  1.00  0.00     0.010 A 
ATOM     13  C   UNL A   1      40.243  27.232  28.689  1.00  0.00    -0.014 A 
BRANCH  13  14
ATOM     14  C   UNL A   1      40.290  28.635  29.093  1.00  0.00     0.031 A 
ATOM     15  C   UNL A   1      41.476  29.356  28.544  1.00  0.00     0.074 A 
ATOM     16  C   UNL A   1      39.305  29.261  29.771  1.00  0.00     0.049 A 
ATOM     17  N   UNL A   1      42.451  29.898  29.196  1.00  0.00    -0.248 NA
ATOM     18  C   UNL A   1      41.697  29.308  27.087  1.00  0.00     0.031 C 
ATOM     19  C   UNL A   1      37.996  28.728  30.150  1.00  0.00     0.029 A 
ATOM     20  N   UNL A   1      39.230  30.558  30.187  1.00  0.00    -0.354 N 
ATOM     21  C   UNL A   1      43.287  30.468  28.238  1.00  0.00     0.074 A 
ATOM     22  C   UNL A   1      42.883  29.906  26.980  1.00  0.00     0.031 C 
ATOM     23  C   UNL A   1      37.184  29.748  30.516  1.00  0.00     0.029 A 
ATOM     24  C   UNL A   1      37.946  30.989  30.519  1.00  0.00     0.049 A 
ATOM     25  H   UNL A   1      40.020  31.144  30.247  1.00  0.00     0.167 HD
ATOM     26  C   UNL A   1      44.073  31.540  28.538  1.00  0.00     0.034 A 
ATOM     27  C   UNL A   1      37.524  32.271  30.719  1.00  0.00     0.034 A 
ATOM     28  C   UNL A   1      44.276  31.640  29.967  1.00  0.00     0.049 A 
ATOM     29  C   UNL A   1      38.734  33.071  31.039  1.00  0.00     0.074 A 
ATOM     30  C   UNL A   1      44.818  30.806  30.926  1.00  0.00     0.029 A 
ATOM     31  N   UNL A   1      43.545  32.574  30.669  1.00  0.00    -0.354 N 
ATOM     32  N   UNL A   1      39.438  32.893  32.124  1.00  0.00    -0.248 NA
ATOM     33  C   UNL A   1      39.447  33.696  29.934  1.00  0.00     0.031 C 
ATOM     34  C   UNL A   1      43.972  30.960  32.064  1.00  0.00     0.029 A 
ATOM     35  C   UNL A   1      43.025  31.942  31.770  1.00  0.00     0.049 A 
ATOM     36  H   UNL A   1      43.420  33.520  30.425  1.00  0.00     0.167 HD
ATOM     37  C   UNL A   1      40.758  32.961  31.708  1.00  0.00     0.074 A 
ATOM     38  C   UNL A   1      40.702  33.541  30.365  1.00  0.00     0.031 C 
ATOM     39  C   UNL A   1      41.746  32.281  32.364  1.00  0.00     0.034 A 
BRANCH  26  40
ATOM     40  C   UNL A   1      44.286  32.722  27.607  1.00  0.00     0.023 A 
ATOM     41  C   UNL A   1      43.689  33.938  27.991  1.00  0.00     0.031 A 
ATOM     42  C   UNL A   1      44.727  32.661  26.266  1.00  0.00     0.131 A 
ATOM     43  C   UNL A   1      43.388  34.930  27.044  1.00  0.00     0.055 A 
ATOM     44  C   UNL A   1      44.484  33.680  25.339  1.00  0.00     0.041 A 
ATOM     45  F   UNL A   1      45.346  31.598  25.745  1.00  0.00    -0.206 F 
ATOM     46  C   UNL A   1      43.769  34.803  25.713  1.00  0.00     0.022 A 
BRANCH  43  47
ATOM     47  S   UNL A   1      42.295  36.281  27.548  1.00  0.00     0.124 S 
ATOM     48  O   UNL A   1      40.987  35.637  27.467  1.00  0.00    -0.237 OA
ATOM     49  O   UNL A   1      42.786  36.576  28.890  1.00  0.00    -0.237 OA
ATOM     50  O   UNL A   1      42.549  37.314  26.547  1.00  0.00    -0.744 OA
ENDBRANCH  43  47
ENDBRANCH  26  40
BRANCH  27  51
ATOM     51  C   UNL A   1      36.230  32.882  30.278  1.00  0.00     0.023 A 
ATOM     52  C   UNL A   1      35.489  33.811  31.049  1.00  0.00     0.031 A 
ATOM     53  C   UNL A   1      35.825  32.725  28.932  1.00  0.00     0.131 A 
ATOM     54  C   UNL A   1      34.402  34.519  30.471  1.00  0.00     0.055 A 
ATOM     55  C   UNL A   1      34.756  33.427  28.369  1.00  0.00     0.041 A 
ATOM     56  F   UNL A   1      36.511  31.943  28.086  1.00  0.00    -0.206 F 
ATOM     57  C   UNL A   1      34.044  34.334  29.135  1.00  0.00     0.022 A 
BRANCH  54  58
ATOM     58  S   UNL A   1      33.461  35.761  31.429  1.00  0.00     0.124 S 
ATOM     59  O   UNL A   1      34.442  36.207  32.412  1.00  0.00    -0.237 OA
ATOM     60  O   UNL A   1      33.080  36.729  30.407  1.00  0.00    -0.237 OA
ATOM     61  O   UNL A   1      32.346  34.994  31.986  1.00  0.00    -0.744 OA
ENDBRANCH  54  58
ENDBRANCH  27  51
BRANCH  39  62
ATOM     62  C   UNL A   1      41.437  31.673  33.718  1.00  0.00     0.023 A 
ATOM     63  C   UNL A   1      41.514  32.353  34.956  1.00  0.00     0.031 A 
ATOM     64  C   UNL A   1      40.921  30.365  33.724  1.00  0.00     0.131 A 
ATOM     65  C   UNL A   1      41.089  31.712  36.139  1.00  0.00     0.055 A 
ATOM     66  C   UNL A   1      40.481  29.745  34.890  1.00  0.00     0.041 A 
ATOM     67  F   UNL A   1      40.800  29.676  32.577  1.00  0.00    -0.206 F 
ATOM     68  C   UNL A   1      40.569  30.413  36.104  1.00  0.00     0.022 A 
BRANCH  65  69
ATOM     69  S   UNL A   1      41.220  32.544  37.755  1.00  0.00     0.124 S 
ATOM     70  O   UNL A   1      42.118  31.681  38.514  1.00  0.00    -0.237 OA
ATOM     71  O   UNL A   1      41.746  33.857  37.393  1.00  0.00    -0.237 OA
ATOM     72  O   UNL A   1      39.838  32.560  38.242  1.00  0.00    -0.744 OA
ENDBRANCH  65  69
ENDBRANCH  39  62
ENDBRANCH  13  14
ENDBRANCH   6   8
ENDBRANCH   3   4
ENDBRANCH   2   3
ENDBRANCH   1   2
BRANCH   1  73
ATOM     73  C   UNL A   1      34.750  21.305  25.778  1.00  0.00     0.116 C 
BRANCH  73  74
ATOM     74  N   UNL A   1      33.861  21.115  24.648  1.00  0.00    -0.356 N 
ATOM     75  C   UNL A   1      32.797  21.796  24.170  1.00  0.00     0.223 C 
ATOM     76  H   UNL A   1      34.082  20.317  24.115  1.00  0.00     0.163 HD
ATOM     77  O   UNL A   1      32.389  21.444  23.052  1.00  0.00    -0.275 OA
BRANCH  75  78
ATOM     78  C   UNL A   1      32.141  23.014  24.828  1.00  0.00     0.091 C 
ATOM     79  C   UNL A   1      30.984  22.529  25.718  1.00  0.00     0.014 C 
ATOM     80  C   UNL A   1      31.749  24.250  24.020  1.00  0.00     0.091 C 
ATOM     81  C   UNL A   1      30.385  23.647  26.571  1.00  0.00     0.001 C 
ATOM     82  C   UNL A   1      31.208  25.374  24.910  1.00  0.00     0.014 C 
ATOM     83  C   UNL A   1      30.028  24.878  25.748  1.00  0.00     0.001 C 
BRANCH  80  84
ATOM     84  C   UNL A   1      32.798  24.740  23.023  1.00  0.00     0.228 C 
ATOM     85  O   UNL A   1      32.680  24.443  21.830  1.00  0.00    -0.274 OA
ATOM     86  N   UNL A   1      33.890  25.468  23.408  1.00  0.00    -0.317 N 
ATOM     87  H   UNL A   1      34.781  25.180  23.104  1.00  0.00     0.170 HD
BRANCH  86  88
ATOM     88  C   UNL A   1      33.795  26.592  24.206  1.00  0.00     0.108 A 
ATOM     89  S   UNL A   1      33.989  26.276  25.883  1.00  0.00    -0.122 S 
ATOM     90  C   UNL A   1      33.432  27.908  23.908  1.00  0.00     0.078 A 
ATOM     91  C   UNL A   1      33.706  27.879  26.217  1.00  0.00     0.011 A 
ATOM     92  C   UNL A   1      33.288  28.619  25.139  1.00  0.00    -0.019 A 
ATOM     93  C   UNL A   1      33.846  28.649  27.476  1.00  0.00     0.047 C 
ATOM     94  C   UNL A   1      32.943  29.998  25.602  1.00  0.00     0.038 C 
ATOM     95  C   UNL A   1      33.806  30.098  26.908  1.00  0.00     0.010 C 
BRANCH  90  96
ATOM     96  C   UNL A   1      33.214  28.348  22.532  1.00  0.00     0.254 C 
ATOM     97  O   UNL A   1      34.085  28.221  21.684  1.00  0.00    -0.269 OA
ATOM     98  N   UNL A   1      32.079  29.062  22.195  1.00  0.00    -0.349 N 
ATOM     99  H   UNL A   1      32.205  29.630  21.401  1.00  0.00     0.164 HD
BRANCH  98 100
ATOM    100  C   UNL A   1      30.739  29.159  22.753  1.00  0.00     0.082 C 
ATOM    101  C   UNL A   1      29.731  30.019  22.016  1.00  0.00     0.025 C 
ATOM    102  C   UNL A   1      29.995  27.815  22.770  1.00  0.00     0.025 C 
ATOM    103  C   UNL A   1      28.376  29.620  22.569  1.00  0.00     0.002 C 
ATOM    104  C   UNL A   1      28.535  28.184  23.043  1.00  0.00     0.002 C 
ENDBRANCH  98 100
ENDBRANCH  90  96
ENDBRANCH  86  88
ENDBRANCH  80  84
ENDBRANCH  75  78
ENDBRANCH  73  74
ENDBRANCH   1  73
TORSDOF 18
ENDMDL
MODEL 2
REMARK VINA RESULT:     -13.7      1.867      2.147
REMARK SMILES O=C(NCCCCNC(=O)[C@@H]1CCCC[C@H]1C(=O)Nc1sc2c(c1C(=O)NC1CCCC1)CCC2)c1ccc(-c2c3nc(c(-c4cc(S(=O)(=O)[O-])ccc4F)c4ccc([nH]4)c(-c4cc(S(=O)(=O)[O-])ccc4F)c4nc(c(-c5cc(S(=O)(=O)[O-])ccc5F)c5ccc2[nH]5)C=C4)C=C3)cc1
REMARK SMILES IDX 6 1 5 2 4 3 3 4 1 5 2 6 36 8 37 9 98 10 38 11 97 12 39 13
REMARK SMILES IDX 40 14 41 15 91 16 42 17 96 18 90 19 92 20 43 21 95 22 89 23
REMARK SMILES IDX 88 24 44 26 76 27 56 28 75 29 57 30 60 31 74 32 93 33 58 34
REMARK SMILES IDX 59 35 73 37 94 38 61 39 45 40 46 41 54 42 47 43 53 44 55 45
REMARK SMILES IDX 52 46 48 47 49 48 50 49 51 50 77 51 78 52 86 53 79 54 85 55
REMARK SMILES IDX 87 56 84 57 80 58 81 59 82 60 83 61 62 62 63 63 71 64 64 65
REMARK SMILES IDX 70 66 72 67 69 68 65 69 66 70 67 71 68 72 7 73 8 74 9 75
REMARK SMILES IDX 10 77 11 78 12 79 16 80 13 81 15 82 14 83 17 84 18 85 19 86
REMARK SMILES IDX 20 88 21 89 24 90 22 91 23 92 35 93 33 94 34 95 25 96 26 97
REMARK SMILES IDX 27 98 28 100 29 101 32 102 30 103 31 104
REMARK H PARENT 3 7 92 25 60 36 8 76 19 87 27 99
REMARK Flexibility Score: inf
ROOT
ATOM      1  C   UNL A   1      37.082  22.303  24.256  1.00  0.00     0.023 C 
ENDROOT
BRANCH   1   2
ATOM      2  C   UNL A   1      37.872  21.518  25.306  1.00  0.00     0.023 C 
BRANCH   2   3
ATOM      3  C   UNL A   1      38.810  22.365  26.172  1.00  0.00     0.116 C 
BRANCH   3   4
ATOM      4  N   UNL A   1      40.218  22.176  25.889  1.00  0.00    -0.352 N 
ATOM      5  O   UNL A   1      42.419  22.229  25.984  1.00  0.00    -0.269 OA
ATOM      6  C   UNL A   1      41.367  22.802  26.282  1.00  0.00     0.251 C 
ATOM      7  H   UNL A   1      40.385  21.426  25.272  1.00  0.00     0.163 HD
BRANCH   6   8
ATOM      8  C   UNL A   1      41.429  24.118  26.972  1.00  0.00     0.039 A 
ATOM      9  C   UNL A   1      42.332  24.467  27.976  1.00  0.00     0.014 A 
ATOM     10  C   UNL A   1      40.439  25.050  26.606  1.00  0.00     0.014 A 
ATOM     11  C   UNL A   1      42.194  25.667  28.662  1.00  0.00     0.010 A 
ATOM     12  C   UNL A   1      40.304  26.259  27.278  1.00  0.00     0.010 A 
ATOM     13  C   UNL A   1      41.162  26.549  28.333  1.00  0.00    -0.014 A 
BRANCH  13  14
ATOM     14  C   UNL A   1      41.158  27.862  28.971  1.00  0.00     0.031 A 
ATOM     15  C   UNL A   1      42.193  28.781  28.411  1.00  0.00     0.074 A 
ATOM     16  C   UNL A   1      40.237  28.264  29.873  1.00  0.00     0.049 A 
ATOM     17  N   UNL A   1      43.207  29.303  29.017  1.00  0.00    -0.248 NA
ATOM     18  C   UNL A   1      42.202  28.999  26.953  1.00  0.00     0.031 C 
ATOM     19  C   UNL A   1      39.042  27.546  30.317  1.00  0.00     0.029 A 
ATOM     20  N   UNL A   1      40.124  29.460  30.519  1.00  0.00    -0.354 N 
ATOM     21  C   UNL A   1      43.848  30.106  28.076  1.00  0.00     0.074 A 
ATOM     22  C   UNL A   1      43.311  29.723  26.801  1.00  0.00     0.031 C 
ATOM     23  C   UNL A   1      38.216  28.403  30.961  1.00  0.00     0.029 A 
ATOM     24  C   UNL A   1      38.872  29.697  31.087  1.00  0.00     0.049 A 
ATOM     25  H   UNL A   1      40.867  30.104  30.580  1.00  0.00     0.167 HD
ATOM     26  C   UNL A   1      44.585  31.187  28.457  1.00  0.00     0.034 A 
ATOM     27  C   UNL A   1      38.386  30.878  31.566  1.00  0.00     0.034 A 
ATOM     28  C   UNL A   1      44.985  31.069  29.843  1.00  0.00     0.049 A 
ATOM     29  C   UNL A   1      39.564  31.733  31.864  1.00  0.00     0.074 A 
ATOM     30  C   UNL A   1      45.724  30.145  30.559  1.00  0.00     0.029 A 
ATOM     31  N   UNL A   1      44.294  31.794  30.789  1.00  0.00    -0.354 N 
ATOM     32  N   UNL A   1      40.430  31.449  32.799  1.00  0.00    -0.248 NA
ATOM     33  C   UNL A   1      40.059  32.602  30.805  1.00  0.00     0.031 C 
ATOM     34  C   UNL A   1      45.043  30.022  31.806  1.00  0.00     0.029 A 
ATOM     35  C   UNL A   1      43.990  30.938  31.818  1.00  0.00     0.049 A 
ATOM     36  H   UNL A   1      44.062  32.749  30.737  1.00  0.00     0.167 HD
ATOM     37  C   UNL A   1      41.666  31.718  32.234  1.00  0.00     0.074 A 
ATOM     38  C   UNL A   1      41.371  32.505  31.035  1.00  0.00     0.031 C 
ATOM     39  C   UNL A   1      42.789  31.043  32.624  1.00  0.00     0.034 A 
BRANCH  26  40
ATOM     40  C   UNL A   1      44.568  32.523  27.733  1.00  0.00     0.023 A 
ATOM     41  C   UNL A   1      43.940  33.591  28.402  1.00  0.00     0.031 A 
ATOM     42  C   UNL A   1      44.814  32.731  26.357  1.00  0.00     0.131 A 
ATOM     43  C   UNL A   1      43.429  34.690  27.693  1.00  0.00     0.055 A 
ATOM     44  C   UNL A   1      44.361  33.859  25.666  1.00  0.00     0.041 A 
ATOM     45  F   UNL A   1      45.433  31.838  25.579  1.00  0.00    -0.206 F 
ATOM     46  C   UNL A   1      43.622  34.826  26.324  1.00  0.00     0.022 A 
BRANCH  43  47
ATOM     47  S   UNL A   1      42.318  35.820  28.567  1.00  0.00     0.124 S 
ATOM     48  O   UNL A   1      41.036  35.141  28.409  1.00  0.00    -0.237 OA
ATOM     49  O   UNL A   1      42.888  35.818  29.911  1.00  0.00    -0.237 OA
ATOM     50  O   UNL A   1      42.460  37.073  27.830  1.00  0.00    -0.744 OA
ENDBRANCH  43  47
ENDBRANCH  26  40
BRANCH  27  51
ATOM     51  C   UNL A   1      36.998  31.421  31.413  1.00  0.00     0.023 A 
ATOM     52  C   UNL A   1      36.321  32.156  32.415  1.00  0.00     0.031 A 
ATOM     53  C   UNL A   1      36.402  31.417  30.131  1.00  0.00     0.131 A 
ATOM     54  C   UNL A   1      35.108  32.833  32.114  1.00  0.00     0.055 A 
ATOM     55  C   UNL A   1      35.211  32.087  29.840  1.00  0.00     0.041 A 
ATOM     56  F   UNL A   1      37.004  30.831  29.085  1.00  0.00    -0.206 F 
ATOM     57  C   UNL A   1      34.561  32.805  30.830  1.00  0.00     0.022 A 
BRANCH  54  58
ATOM     58  S   UNL A   1      34.240  33.833  33.376  1.00  0.00     0.124 S 
ATOM     59  O   UNL A   1      34.999  33.537  34.586  1.00  0.00    -0.237 OA
ATOM     60  O   UNL A   1      34.360  35.186  32.847  1.00  0.00    -0.237 OA
ATOM     61  O   UNL A   1      32.878  33.294  33.364  1.00  0.00    -0.744 OA
ENDBRANCH  54  58
ENDBRANCH  27  51
BRANCH  39  62
ATOM     62  C   UNL A   1      42.728  30.190  33.876  1.00  0.00     0.023 A 
ATOM     63  C   UNL A   1      42.542  28.788  33.901  1.00  0.00     0.031 A 
ATOM     64  C   UNL A   1      42.993  30.834  35.097  1.00  0.00     0.131 A 
ATOM     65  C   UNL A   1      42.617  28.090  35.125  1.00  0.00     0.055 A 
ATOM     66  C   UNL A   1      43.091  30.138  36.299  1.00  0.00     0.041 A 
ATOM     67  F   UNL A   1      43.204  32.161  35.135  1.00  0.00    -0.206 F 
ATOM     68  C   UNL A   1      42.897  28.763  36.319  1.00  0.00     0.022 A 
BRANCH  65  69
ATOM     69  S   UNL A   1      42.335  26.290  35.197  1.00  0.00     0.124 S 
ATOM     70  O   UNL A   1      42.805  25.922  36.527  1.00  0.00    -0.237 OA
ATOM     71  O   UNL A   1      40.895  26.187  34.974  1.00  0.00    -0.237 OA
ATOM     72  O   UNL A   1      43.155  25.774  34.098  1.00  0.00    -0.744 OA
ENDBRANCH  65  69
ENDBRANCH  39  62
ENDBRANCH  13  14
ENDBRANCH   6   8
ENDBRANCH   3   4
ENDBRANCH   2   3
ENDBRANCH   1   2
BRANCH   1  73
ATOM     73  C   UNL A   1      35.710  22.790  24.716  1.00  0.00     0.116 C 
BRANCH  73  74
ATOM     74  N   UNL A   1      34.653  21.855  24.383  1.00  0.00    -0.356 N 
ATOM     75  C   UNL A   1      33.304  21.912  24.427  1.00  0.00     0.223 C 
ATOM     76  H   UNL A   1      34.993  20.991  24.055  1.00  0.00     0.163 HD
ATOM     77  O   UNL A   1      32.706  20.976  23.875  1.00  0.00    -0.275 OA
BRANCH  75  78
ATOM     78  C   UNL A   1      32.473  23.072  24.985  1.00  0.00     0.091 C 
ATOM     79  C   UNL A   1      31.406  22.500  25.935  1.00  0.00     0.014 C 
ATOM     80  C   UNL A   1      31.894  24.157  24.078  1.00  0.00     0.091 C 
ATOM     81  C   UNL A   1      30.647  23.586  26.695  1.00  0.00     0.001 C 
ATOM     82  C   UNL A   1      31.192  25.261  24.875  1.00  0.00     0.014 C 
ATOM     83  C   UNL A   1      30.104  24.670  25.772  1.00  0.00     0.001 C 
BRANCH  80  84
ATOM     84  C   UNL A   1      32.854  24.708  23.024  1.00  0.00     0.228 C 
ATOM     85  O   UNL A   1      32.681  24.410  21.838  1.00  0.00    -0.274 OA
ATOM     86  N   UNL A   1      33.926  25.493  23.349  1.00  0.00    -0.317 N 
ATOM     87  H   UNL A   1      34.811  25.255  22.990  1.00  0.00     0.170 HD
BRANCH  86  88
ATOM     88  C   UNL A   1      33.817  26.606  24.159  1.00  0.00     0.108 A 
ATOM     89  S   UNL A   1      34.005  26.271  25.834  1.00  0.00    -0.122 S 
ATOM     90  C   UNL A   1      33.446  27.923  23.876  1.00  0.00     0.078 A 
ATOM     91  C   UNL A   1      33.708  27.868  26.185  1.00  0.00     0.011 A 
ATOM     92  C   UNL A   1      33.290  28.618  25.114  1.00  0.00    -0.019 A 
ATOM     93  C   UNL A   1      33.835  28.624  27.454  1.00  0.00     0.047 C 
ATOM     94  C   UNL A   1      32.931  29.988  25.593  1.00  0.00     0.038 C 
ATOM     95  C   UNL A   1      33.787  30.080  26.903  1.00  0.00     0.010 C 
BRANCH  90  96
ATOM     96  C   UNL A   1      33.232  28.378  22.504  1.00  0.00     0.254 C 
ATOM     97  O   UNL A   1      34.104  28.256  21.657  1.00  0.00    -0.269 OA
ATOM     98  N   UNL A   1      32.100  29.099  22.172  1.00  0.00    -0.349 N 
ATOM     99  H   UNL A   1      32.229  29.675  21.384  1.00  0.00     0.164 HD
BRANCH  98 100
ATOM    100  C   UNL A   1      30.759  29.195  22.729  1.00  0.00     0.082 C 
ATOM    101  C   UNL A   1      29.727  29.983  21.946  1.00  0.00     0.025 C 
ATOM    102  C   UNL A   1      30.051  27.836  22.830  1.00  0.00     0.025 C 
ATOM    103  C   UNL A   1      28.384  29.583  22.527  1.00  0.00     0.002 C 
ATOM    104  C   UNL A   1      28.582  28.183  23.086  1.00  0.00     0.002 C 
ENDBRANCH  98 100
ENDBRANCH  90  96
ENDBRANCH  86  88
ENDBRANCH  80  84
ENDBRANCH  75  78
ENDBRANCH  73  74
ENDBRANCH   1  73
TORSDOF 18
ENDMDL
MODEL 3
REMARK VINA RESULT:     -13.3      3.895      9.555
REMARK SMILES O=C(NCCCCNC(=O)[C@@H]1CCCC[C@H]1C(=O)Nc1sc2c(c1C(=O)NC1CCCC1)CCC2)c1ccc(-c2c3nc(c(-c4cc(S(=O)(=O)[O-])ccc4F)c4ccc([nH]4)c(-c4cc(S(=O)(=O)[O-])ccc4F)c4nc(c(-c5cc(S(=O)(=O)[O-])ccc5F)c5ccc2[nH]5)C=C4)C=C3)cc1
REMARK SMILES IDX 6 1 5 2 4 3 3 4 1 5 2 6 36 8 37 9 98 10 38 11 97 12 39 13
REMARK SMILES IDX 40 14 41 15 91 16 42 17 96 18 90 19 92 20 43 21 95 22 89 23
REMARK SMILES IDX 88 24 44 26 76 27 56 28 75 29 57 30 60 31 74 32 93 33 58 34
REMARK SMILES IDX 59 35 73 37 94 38 61 39 45 40 46 41 54 42 47 43 53 44 55 45
REMARK SMILES IDX 52 46 48 47 49 48 50 49 51 50 77 51 78 52 86 53 79 54 85 55
REMARK SMILES IDX 87 56 84 57 80 58 81 59 82 60 83 61 62 62 63 63 71 64 64 65
REMARK SMILES IDX 70 66 72 67 69 68 65 69 66 70 67 71 68 72 7 73 8 74 9 75
REMARK SMILES IDX 10 77 11 78 12 79 16 80 13 81 15 82 14 83 17 84 18 85 19 86
REMARK SMILES IDX 20 88 21 89 24 90 22 91 23 92 35 93 33 94 34 95 25 96 26 97
REMARK SMILES IDX 27 98 28 100 29 101 32 102 30 103 31 104
REMARK H PARENT 3 7 92 25 60 36 8 76 19 87 27 99
REMARK Flexibility Score: inf
ROOT
ATOM      1  C   UNL A   1      34.266  28.805  26.252  1.00  0.00     0.023 C 
ENDROOT
BRANCH   1   2
ATOM      2  C   UNL A   1      33.550  29.775  27.195  1.00  0.00     0.023 C 
BRANCH   2   3
ATOM      3  C   UNL A   1      34.141  31.186  27.237  1.00  0.00     0.116 C 
BRANCH   3   4
ATOM      4  N   UNL A   1      34.187  31.775  28.560  1.00  0.00    -0.352 N 
ATOM      5  O   UNL A   1      34.878  32.612  30.478  1.00  0.00    -0.269 OA
ATOM      6  C   UNL A   1      35.133  31.845  29.544  1.00  0.00     0.251 C 
ATOM      7  H   UNL A   1      33.347  32.224  28.807  1.00  0.00     0.163 HD
BRANCH   6   8
ATOM      8  C   UNL A   1      36.381  31.038  29.590  1.00  0.00     0.039 A 
ATOM      9  C   UNL A   1      36.451  29.646  29.548  1.00  0.00     0.014 A 
ATOM     10  C   UNL A   1      37.576  31.766  29.754  1.00  0.00     0.014 A 
ATOM     11  C   UNL A   1      37.659  28.994  29.761  1.00  0.00     0.010 A 
ATOM     12  C   UNL A   1      38.791  31.120  29.952  1.00  0.00     0.010 A 
ATOM     13  C   UNL A   1      38.822  29.731  29.993  1.00  0.00    -0.014 A 
BRANCH  13  14
ATOM     14  C   UNL A   1      40.089  29.005  30.050  1.00  0.00     0.031 A 
ATOM     15  C   UNL A   1      40.517  28.696  31.446  1.00  0.00     0.074 A 
ATOM     16  C   UNL A   1      40.742  28.536  28.965  1.00  0.00     0.049 A 
ATOM     17  N   UNL A   1      41.572  29.112  32.066  1.00  0.00    -0.248 NA
ATOM     18  C   UNL A   1      39.562  27.987  32.317  1.00  0.00     0.031 C 
ATOM     19  C   UNL A   1      40.302  28.564  27.570  1.00  0.00     0.029 A 
ATOM     20  N   UNL A   1      41.912  27.839  28.895  1.00  0.00    -0.354 N 
ATOM     21  C   UNL A   1      41.534  28.522  33.328  1.00  0.00     0.074 A 
ATOM     22  C   UNL A   1      40.199  28.018  33.487  1.00  0.00     0.031 C 
ATOM     23  C   UNL A   1      41.064  27.715  26.841  1.00  0.00     0.029 A 
ATOM     24  C   UNL A   1      42.123  27.179  27.685  1.00  0.00     0.049 A 
ATOM     25  H   UNL A   1      42.556  27.805  29.640  1.00  0.00     0.167 HD
ATOM     26  C   UNL A   1      42.679  28.284  34.029  1.00  0.00     0.034 A 
ATOM     27  C   UNL A   1      43.054  26.219  27.412  1.00  0.00     0.034 A 
ATOM     28  C   UNL A   1      43.755  29.123  33.546  1.00  0.00     0.049 A 
ATOM     29  C   UNL A   1      44.125  26.364  28.431  1.00  0.00     0.074 A 
ATOM     30  C   UNL A   1      43.944  30.488  33.443  1.00  0.00     0.029 A 
ATOM     31  N   UNL A   1      44.702  28.561  32.718  1.00  0.00    -0.354 N 
ATOM     32  N   UNL A   1      44.898  27.414  28.506  1.00  0.00    -0.248 NA
ATOM     33  C   UNL A   1      43.998  25.600  29.664  1.00  0.00     0.031 C 
ATOM     34  C   UNL A   1      44.607  30.671  32.194  1.00  0.00     0.029 A 
ATOM     35  C   UNL A   1      44.868  29.412  31.653  1.00  0.00     0.049 A 
ATOM     36  H   UNL A   1      45.172  27.709  32.862  1.00  0.00     0.167 HD
ATOM     37  C   UNL A   1      44.989  27.694  29.860  1.00  0.00     0.074 A 
ATOM     38  C   UNL A   1      44.484  26.494  30.530  1.00  0.00     0.031 C 
ATOM     39  C   UNL A   1      45.192  28.968  30.311  1.00  0.00     0.034 A 
BRANCH  26  40
ATOM     40  C   UNL A   1      42.938  27.016  34.826  1.00  0.00     0.023 A 
ATOM     41  C   UNL A   1      43.798  26.070  34.236  1.00  0.00     0.031 A 
ATOM     42  C   UNL A   1      42.172  26.544  35.916  1.00  0.00     0.131 A 
ATOM     43  C   UNL A   1      43.738  24.714  34.596  1.00  0.00     0.055 A 
ATOM     44  C   UNL A   1      42.166  25.204  36.315  1.00  0.00     0.041 A 
ATOM     45  F   UNL A   1      41.334  27.316  36.613  1.00  0.00    -0.206 F 
ATOM     46  C   UNL A   1      42.915  24.270  35.624  1.00  0.00     0.022 A 
BRANCH  43  47
ATOM     47  S   UNL A   1      44.595  23.519  33.541  1.00  0.00     0.124 S 
ATOM     48  O   UNL A   1      43.536  23.152  32.605  1.00  0.00    -0.237 OA
ATOM     49  O   UNL A   1      45.682  24.327  32.998  1.00  0.00    -0.237 OA
ATOM     50  O   UNL A   1      44.999  22.471  34.474  1.00  0.00    -0.744 OA
ENDBRANCH  43  47
ENDBRANCH  26  40
BRANCH  27  51
ATOM     51  C   UNL A   1      42.872  24.985  26.584  1.00  0.00     0.023 A 
ATOM     52  C   UNL A   1      43.841  24.489  25.677  1.00  0.00     0.031 A 
ATOM     53  C   UNL A   1      41.791  24.121  26.875  1.00  0.00     0.131 A 
ATOM     54  C   UNL A   1      43.696  23.197  25.106  1.00  0.00     0.055 A 
ATOM     55  C   UNL A   1      41.656  22.849  26.312  1.00  0.00     0.041 A 
ATOM     56  F   UNL A   1      40.866  24.448  27.790  1.00  0.00    -0.206 F 
ATOM     57  C   UNL A   1      42.613  22.378  25.430  1.00  0.00     0.022 A 
BRANCH  54  58
ATOM     58  S   UNL A   1      44.958  22.513  23.973  1.00  0.00     0.124 S 
ATOM     59  O   UNL A   1      44.181  22.236  22.770  1.00  0.00    -0.237 OA
ATOM     60  O   UNL A   1      45.928  23.597  23.885  1.00  0.00    -0.237 OA
ATOM     61  O   UNL A   1      45.440  21.321  24.674  1.00  0.00    -0.744 OA
ENDBRANCH  54  58
ENDBRANCH  27  51
BRANCH  39  62
ATOM     62  C   UNL A   1      45.596  30.037  29.315  1.00  0.00     0.023 A 
ATOM     63  C   UNL A   1      46.910  30.257  28.839  1.00  0.00     0.031 A 
ATOM     64  C   UNL A   1      44.559  30.789  28.735  1.00  0.00     0.131 A 
ATOM     65  C   UNL A   1      47.141  31.209  27.824  1.00  0.00     0.055 A 
ATOM     66  C   UNL A   1      44.788  31.711  27.717  1.00  0.00     0.041 A 
ATOM     67  F   UNL A   1      43.286  30.609  29.126  1.00  0.00    -0.206 F 
ATOM     68  C   UNL A   1      46.082  31.930  27.261  1.00  0.00     0.022 A 
BRANCH  65  69
ATOM     69  S   UNL A   1      48.829  31.549  27.224  1.00  0.00     0.124 S 
ATOM     70  O   UNL A   1      48.674  32.764  26.433  1.00  0.00    -0.237 OA
ATOM     71  O   UNL A   1      49.585  31.684  28.466  1.00  0.00    -0.237 OA
ATOM     72  O   UNL A   1      49.158  30.353  26.444  1.00  0.00    -0.744 OA
ENDBRANCH  65  69
ENDBRANCH  39  62
ENDBRANCH  13  14
ENDBRANCH   6   8
ENDBRANCH   3   4
ENDBRANCH   2   3
ENDBRANCH   1   2
BRANCH   1  73
ATOM     73  C   UNL A   1      33.578  27.452  26.077  1.00  0.00     0.116 C 
BRANCH  73  74
ATOM     74  N   UNL A   1      32.334  27.558  25.338  1.00  0.00    -0.356 N 
ATOM     75  C   UNL A   1      31.735  26.792  24.401  1.00  0.00     0.223 C 
ATOM     76  H   UNL A   1      31.816  28.363  25.570  1.00  0.00     0.163 HD
ATOM     77  O   UNL A   1      30.564  27.095  24.124  1.00  0.00    -0.275 OA
BRANCH  75  78
ATOM     78  C   UNL A   1      32.329  25.537  23.753  1.00  0.00     0.091 C 
ATOM     79  C   UNL A   1      32.193  25.661  22.225  1.00  0.00     0.014 C 
ATOM     80  C   UNL A   1      31.966  24.134  24.237  1.00  0.00     0.091 C 
ATOM     81  C   UNL A   1      32.927  24.551  21.475  1.00  0.00     0.001 C 
ATOM     82  C   UNL A   1      32.762  23.048  23.507  1.00  0.00     0.014 C 
ATOM     83  C   UNL A   1      32.571  23.164  21.994  1.00  0.00     0.001 C 
BRANCH  80  84
ATOM     84  C   UNL A   1      31.964  23.945  25.754  1.00  0.00     0.228 C 
ATOM     85  O   UNL A   1      30.894  23.731  26.333  1.00  0.00    -0.274 OA
ATOM     86  N   UNL A   1      33.102  24.043  26.505  1.00  0.00    -0.317 N 
ATOM     87  H   UNL A   1      33.096  24.623  27.300  1.00  0.00     0.170 HD
BRANCH  86  88
ATOM     88  C   UNL A   1      34.263  23.360  26.194  1.00  0.00     0.108 A 
ATOM     89  S   UNL A   1      35.473  24.337  25.466  1.00  0.00    -0.122 S 
ATOM     90  C   UNL A   1      34.574  21.998  26.238  1.00  0.00     0.078 A 
ATOM     91  C   UNL A   1      36.451  23.003  25.303  1.00  0.00     0.011 A 
ATOM     92  C   UNL A   1      35.840  21.810  25.604  1.00  0.00    -0.019 A 
ATOM     93  C   UNL A   1      37.874  22.883  24.905  1.00  0.00     0.047 C 
ATOM     94  C   UNL A   1      36.780  20.692  25.288  1.00  0.00     0.038 C 
ATOM     95  C   UNL A   1      38.161  21.428  25.380  1.00  0.00     0.010 C 
BRANCH  90  96
ATOM     96  C   UNL A   1      33.652  21.022  26.814  1.00  0.00     0.254 C 
ATOM     97  O   UNL A   1      33.150  21.202  27.913  1.00  0.00    -0.269 OA
ATOM     98  N   UNL A   1      33.449  19.801  26.198  1.00  0.00    -0.349 N 
ATOM     99  H   UNL A   1      33.155  19.100  26.825  1.00  0.00     0.164 HD
BRANCH  98 100
ATOM    100  C   UNL A   1      33.573  19.321  24.831  1.00  0.00     0.082 C 
ATOM    101  C   UNL A   1      33.990  17.877  24.627  1.00  0.00     0.025 C 
ATOM    102  C   UNL A   1      32.241  19.334  24.065  1.00  0.00     0.025 C 
ATOM    103  C   UNL A   1      33.650  17.556  23.184  1.00  0.00     0.002 C 
ATOM    104  C   UNL A   1      32.503  18.486  22.819  1.00  0.00     0.002 C 
ENDBRANCH  98 100
ENDBRANCH  90  96
ENDBRANCH  86  88
ENDBRANCH  80  84
ENDBRANCH  75  78
ENDBRANCH  73  74
ENDBRANCH   1  73
TORSDOF 18
ENDMDL
